

        *** GPGPU-Sim Simulator Version 3.2.2  [build 0] ***


GPGPU-Sim PTX: simulation mode 0 (can change with PTX_SIM_MODE_FUNC environment variable:
               1=functional simulation only, 0=detailed performance simulator)
GPGPU-Sim: Configuration options:

-network_mode                           1 # Interconnection network mode
-inter_config_file   config_fermi_islip.icnt # Interconnection network config file
-gpgpu_ptx_use_cuobjdump                    1 # Use cuobjdump to extract ptx and sass from binaries
-gpgpu_experimental_lib_support                    0 # Try to extract code from cuda libraries [Broken because of unknown cudaGetExportTable]
-gpgpu_ptx_convert_to_ptxplus                    0 # Convert SASS (native ISA) to ptxplus and run ptxplus
-gpgpu_ptx_force_max_capability                   20 # Force maximum compute capability
-gpgpu_ptx_inst_debug_to_file                    0 # Dump executed instructions' debug information to file
-gpgpu_ptx_inst_debug_file       inst_debug.txt # Executed instructions' debug output file
-gpgpu_ptx_inst_debug_thread_uid                    1 # Thread UID for executed instructions' debug output
-gpgpu_simd_model                       1 # 1 = post-dominator
-gpgpu_shader_core_pipeline              1536:32 # shader core pipeline config, i.e., {<nthread>:<warpsize>}
-gpgpu_tex_cache:l1  4:128:24,L:R:m:N:L,F:128:4,128:2 # per-shader L1 texture cache  (READ-ONLY) config  {<nsets>:<bsize>:<assoc>,<rep>:<wr>:<alloc>:<wr_alloc>,<mshr>:<N>:<merge>,<mq>:<rf>}
-gpgpu_const_cache:l1 64:64:2,L:R:f:N:L,A:2:32,4 # per-shader L1 constant memory cache  (READ-ONLY) config  {<nsets>:<bsize>:<assoc>,<rep>:<wr>:<alloc>:<wr_alloc>,<mshr>:<N>:<merge>,<mq>} 
-gpgpu_cache:il1     4:128:4,L:R:f:N:L,A:2:32,4 # shader L1 instruction cache config  {<nsets>:<bsize>:<assoc>,<rep>:<wr>:<alloc>:<wr_alloc>,<mshr>:<N>:<merge>,<mq>} 
-gpgpu_cache:dl1     32:128:4,L:L:m:N:H,A:32:8,8:2,0,1:0:1:1:0:1,1:4:8:16:32:64,/sciclone/data10/hwang07/GPU_RESEARCH/swl/swl_outputs/RESULTS/swl24/ # per-shader L1 data cache config  {<nsets>:<bsize>:<assoc>,<rep>:<wr>:<alloc>:<wr_alloc>,<mshr>:<N>:<merge>,<mq> | none}
-gpgpu_cache:dl1PrefL1                 none # per-shader L1 data cache config  {<nsets>:<bsize>:<assoc>,<rep>:<wr>:<alloc>:<wr_alloc>,<mshr>:<N>:<merge>,<mq> | none}
-gpgpu_cache:dl1PreShared                 none # per-shader L1 data cache config  {<nsets>:<bsize>:<assoc>,<rep>:<wr>:<alloc>:<wr_alloc>,<mshr>:<N>:<merge>,<mq> | none}
-gmem_skip_L1D                          0 # global memory access skip L1D cache (implements -Xptxas -dlcm=cg, default=no skip)
-gpgpu_perfect_mem                      0 # enable perfect memory mode (no cache miss)
-n_regfile_gating_group                    4 # group of lanes that should be read/written together)
-gpgpu_clock_gated_reg_file                    0 # enable clock gated reg file for power calculations
-gpgpu_clock_gated_lanes                    0 # enable clock gated lanes for power calculations
-gpgpu_shader_registers                32768 # Number of registers per shader core. Limits number of concurrent CTAs. (default 8192)
-gpgpu_shader_cta                       8 # Maximum number of concurrent CTAs in shader (default 8)
-gpgpu_num_cta_barriers                   16 # Maximum number of named barriers per CTA (default 16)
-gpgpu_n_clusters                      15 # number of processing clusters
-gpgpu_n_cores_per_cluster                    1 # number of simd cores per cluster
-gpgpu_n_cluster_ejection_buffer_size                    8 # number of packets in ejection buffer
-gpgpu_n_ldst_response_buffer_size                    2 # number of response packets in ld/st unit ejection buffer
-gpgpu_shmem_size                   16384 # Size of shared memory per shader core (default 16kB)
-gpgpu_shmem_size                   49152 # Size of shared memory per shader core (default 16kB)
-gpgpu_shmem_size_PrefL1                16384 # Size of shared memory per shader core (default 16kB)
-gpgpu_shmem_size_PrefShared                16384 # Size of shared memory per shader core (default 16kB)
-gpgpu_shmem_num_banks                   32 # Number of banks in the shared memory in each shader core (default 16)
-gpgpu_shmem_limited_broadcast                    0 # Limit shared memory to do one broadcast per cycle (default on)
-gpgpu_shmem_warp_parts                    1 # Number of portions a warp is divided into for shared memory bank conflict check 
-gpgpu_warpdistro_shader                   -1 # Specify which shader core to collect the warp size distribution from
-gpgpu_warp_issue_shader                    0 # Specify which shader core to collect the warp issue distribution from
-gpgpu_local_mem_map                    1 # Mapping from local memory space address to simulated GPU physical address space (default = enabled)
-gpgpu_num_reg_banks                   16 # Number of register banks (default = 8)
-gpgpu_reg_bank_use_warp_id                    0 # Use warp ID in mapping registers to banks (default = off)
-gpgpu_operand_collector_num_units_sp                    6 # number of collector units (default = 4)
-gpgpu_operand_collector_num_units_sfu                    8 # number of collector units (default = 4)
-gpgpu_operand_collector_num_units_mem                    2 # number of collector units (default = 2)
-gpgpu_operand_collector_num_units_gen                    0 # number of collector units (default = 0)
-gpgpu_operand_collector_num_in_ports_sp                    2 # number of collector unit in ports (default = 1)
-gpgpu_operand_collector_num_in_ports_sfu                    1 # number of collector unit in ports (default = 1)
-gpgpu_operand_collector_num_in_ports_mem                    1 # number of collector unit in ports (default = 1)
-gpgpu_operand_collector_num_in_ports_gen                    0 # number of collector unit in ports (default = 0)
-gpgpu_operand_collector_num_out_ports_sp                    2 # number of collector unit in ports (default = 1)
-gpgpu_operand_collector_num_out_ports_sfu                    1 # number of collector unit in ports (default = 1)
-gpgpu_operand_collector_num_out_ports_mem                    1 # number of collector unit in ports (default = 1)
-gpgpu_operand_collector_num_out_ports_gen                    0 # number of collector unit in ports (default = 0)
-gpgpu_coalesce_arch                   13 # Coalescing arch (default = 13, anything else is off for now)
-gpgpu_num_sched_per_core                    2 # Number of warp schedulers per core
-gpgpu_max_insn_issue_per_warp                    1 # Max number of instructions that can be issued per warp in one cycle by scheduler
-gpgpu_simt_core_sim_order                    1 # Select the simulation order of cores in a cluster (0=Fix, 1=Round-Robin)
-gpgpu_pipeline_widths        2,1,1,2,1,1,2 # Pipeline widths ID_OC_SP,ID_OC_SFU,ID_OC_MEM,OC_EX_SP,OC_EX_SFU,OC_EX_MEM,EX_WB
-gpgpu_num_sp_units                     2 # Number of SP units (default=1)
-gpgpu_num_sfu_units                    1 # Number of SF units (default=1)
-gpgpu_num_mem_units                    1 # Number if ldst units (default=1) WARNING: not hooked up to anything
-gpgpu_scheduler       warp_limiting:2:24 # Scheduler configuration: < lrr | gto | two_level_active > If two_level_active:<num_active_warps>:<inner_prioritization>:<outer_prioritization>For complete list of prioritization values see shader.h enum scheduler_prioritization_typeDefault: gto
-gpgpu_dram_scheduler                    1 # 0 = fifo, 1 = FR-FCFS (defaul)
-gpgpu_dram_partition_queues              8:8:8:8 # i2$:$2d:d2$:$2i
-l2_ideal                               0 # Use a ideal L2 cache that always hit
-gpgpu_cache:dl2     64:128:8,L:B:m:W:L,A:32:4,4:0,32 # unified banked L2 data cache config  {<nsets>:<bsize>:<assoc>,<rep>:<wr>:<alloc>:<wr_alloc>,<mshr>:<N>:<merge>,<mq>}
-gpgpu_cache:dl2_texture_only                    0 # L2 cache used for texture only
-gpgpu_n_mem                            6 # number of memory modules (e.g. memory controllers) in gpu
-gpgpu_n_sub_partition_per_mchannel                    2 # number of memory subpartition in each memory module
-gpgpu_n_mem_per_ctrlr                    2 # number of memory chips per memory controller
-gpgpu_memlatency_stat                   14 # track and display latency statistics 0x2 enables MC, 0x4 enables queue logs
-gpgpu_frfcfs_dram_sched_queue_size                   16 # 0 = unlimited (default); # entries per chip
-gpgpu_dram_return_queue_size                  116 # 0 = unlimited (default); # entries per chip
-gpgpu_dram_buswidth                    4 # default = 4 bytes (8 bytes per cycle at DDR)
-gpgpu_dram_burst_length                    8 # Burst length of each DRAM request (default = 4 data bus cycle)
-dram_data_command_freq_ratio                    4 # Frequency ratio between DRAM data bus and command bus (default = 2 times, i.e. DDR)
-gpgpu_dram_timing_opt nbk=16:CCD=2:RRD=6:RCD=12:RAS=28:RP=12:RC=40: CL=12:WL=4:CDLR=5:WR=12:nbkgrp=4:CCDL=3:RTPL=2 # DRAM timing parameters = {nbk:tCCD:tRRD:tRCD:tRAS:tRP:tRC:CL:WL:tCDLR:tWR:nbkgrp:tCCDL:tRTPL}
-rop_latency                          120 # ROP queue latency (default 85)
-dram_latency                         100 # DRAM latency (default 30)
-gpgpu_mem_addr_mapping dramid@8;00000000.00000000.00000000.00000000.0000RRRR.RRRRRRRR.BBBCCCCB.CCSSSSSS # mapping memory address to dram model {dramid@<start bit>;<memory address map>}
-gpgpu_mem_addr_test                    0 # run sweep test to check address mapping for aliased address
-gpgpu_mem_address_mask                    1 # 0 = old addressing mask, 1 = new addressing mask, 2 = new add. mask + flipped bank sel and chip sel bits
-gpuwattch_xml_file  gpuwattch_gtx480.xml # GPUWattch XML file
-power_simulation_enabled                    0 # Turn on power simulator (1=On, 0=Off)
-power_per_cycle_dump                    0 # Dump detailed power output each cycle
-power_trace_enabled                    0 # produce a file for the power trace (1=On, 0=Off)
-power_trace_zlevel                     6 # Compression level of the power trace output log (0=no comp, 9=highest)
-steady_power_levels_enabled                    0 # produce a file for the steady power levels (1=On, 0=Off)
-steady_state_definition                  8:4 # allowed deviation:number of samples
-gpgpu_max_cycle                        0 # terminates gpu simulation early (0 = no limit)
-gpgpu_max_insn                         0 # terminates gpu simulation early (0 = no limit)
-gpgpu_max_cta                          0 # terminates gpu simulation early (0 = no limit)
-gpgpu_runtime_stat                   500 # display runtime statistics such as dram utilization {<freq>:<flag>}
-liveness_message_freq                    1 # Minimum number of seconds between simulation liveness messages (0 = always print)
-gpgpu_flush_l1_cache                    0 # Flush L1 cache at the end of each kernel call
-gpgpu_flush_l2_cache                    0 # Flush L2 cache at the end of each kernel call
-gpgpu_deadlock_detect                    1 # Stop the simulation at deadlock (1=on (default), 0=off)
-gpgpu_ptx_instruction_classification                    0 # if enabled will classify ptx instruction types per kernel (Max 255 kernels now)
-gpgpu_ptx_sim_mode                     0 # Select between Performance (default) or Functional simulation (1)
-gpgpu_clock_domains 700.0:700.0:700.0:924.0 # Clock Domain Frequencies in MhZ {<Core Clock>:<ICNT Clock>:<L2 Clock>:<DRAM Clock>}
-gpgpu_max_concurrent_kernel                    8 # maximum kernels that can run concurrently on GPU
-gpgpu_cflog_interval                    0 # Interval between each snapshot in control flow logger
-visualizer_enabled                     0 # Turn on visualizer output (1=On, 0=Off)
-visualizer_outputfile                 NULL # Specifies the output log file for visualizer
-visualizer_zlevel                      6 # Compression level of the visualizer output log (0=no comp, 9=highest)
-trace_enabled                          0 # Turn on traces
-trace_components                    none # comma seperated list of traces to enable. Complete list found in trace_streams.tup. Default none
-trace_sampling_core                    0 # The core which is printed using CORE_DPRINTF. Default 0
-trace_sampling_memory_partition                   -1 # The memory partition which is printed using MEMPART_DPRINTF. Default -1 (i.e. all)
-enable_ptx_file_line_stats                    1 # Turn on PTX source line statistic profiling. (1 = On)
-ptx_line_stats_filename gpgpu_inst_stats.txt # Output file for PTX source line statistics.
-save_embedded_ptx                      0 # saves ptx files embedded in binary as <n>.ptx
-keep                                   0 # keep intermediate files created by GPGPU-Sim when interfacing with external programs
-gpgpu_ptx_save_converted_ptxplus                    0 # Saved converted ptxplus to a file
-ptx_opcode_latency_int         4,13,4,5,145 # Opcode latencies for integers <ADD,MAX,MUL,MAD,DIV>Default 1,1,19,25,145
-ptx_opcode_latency_fp          4,13,4,5,39 # Opcode latencies for single precision floating points <ADD,MAX,MUL,MAD,DIV>Default 1,1,1,1,30
-ptx_opcode_latency_dp         8,19,8,8,330 # Opcode latencies for double precision floating points <ADD,MAX,MUL,MAD,DIV>Default 8,8,8,8,335
-ptx_opcode_initiation_int            1,2,2,1,8 # Opcode initiation intervals for integers <ADD,MAX,MUL,MAD,DIV>Default 1,1,4,4,32
-ptx_opcode_initiation_fp            1,2,1,1,4 # Opcode initiation intervals for single precision floating points <ADD,MAX,MUL,MAD,DIV>Default 1,1,1,1,5
-ptx_opcode_initiation_dp         8,16,8,8,130 # Opcode initiation intervals for double precision floating points <ADD,MAX,MUL,MAD,DIV>Default 8,8,8,8,130
DRAM Timing Options:
nbk                                    16 # number of banks
CCD                                     2 # column to column delay
RRD                                     6 # minimal delay between activation of rows in different banks
RCD                                    12 # row to column delay
RAS                                    28 # time needed to activate row
RP                                     12 # time needed to precharge (deactivate) row
RC                                     40 # row cycle time
CDLR                                    5 # switching from write to read (changes tWTR)
WR                                     12 # last data-in to row precharge
CL                                     12 # CAS latency
WL                                      4 # Write latency
nbkgrp                                  4 # number of bank groups
CCDL                                    3 # column to column delay between accesses to different bank groups
RTPL                                    2 # read to precharge delay between accesses to different bank groups
Total number of memory sub partition = 12
addr_dec_mask[CHIP]  = 0000000000000000 	high:64 low:0
addr_dec_mask[BK]    = 000000000000e100 	high:16 low:8
addr_dec_mask[ROW]   = 000000000fff0000 	high:28 low:16
addr_dec_mask[COL]   = 0000000000001eff 	high:13 low:0
addr_dec_mask[BURST] = 000000000000003f 	high:6 low:0
sub_partition_id_mask = 0000000000000100
GPGPU-Sim uArch: clock freqs: 700000000.000000:700000000.000000:700000000.000000:924000000.000000
GPGPU-Sim uArch: clock periods: 0.00000000142857142857:0.00000000142857142857:0.00000000142857142857:0.00000000108225108225
*** Initializing Memory Statistics ***
GPGPU-Sim uArch: interconnect node map (shaderID+MemID to icntID)
GPGPU-Sim uArch: Memory nodes ID start from index: 15
GPGPU-Sim uArch:    0   1   2   3   4
GPGPU-Sim uArch:    5   6   7   8   9
GPGPU-Sim uArch:   10  11  12  13  14
GPGPU-Sim uArch:   15  16  17  18  19
GPGPU-Sim uArch:   20  21  22  23  24
GPGPU-Sim uArch:   25  26
GPGPU-Sim uArch: interconnect node reverse map (icntID to shaderID+MemID)
GPGPU-Sim uArch: Memory nodes start from ID: 15
GPGPU-Sim uArch:    0   1   2   3   4
GPGPU-Sim uArch:    5   6   7   8   9
GPGPU-Sim uArch:   10  11  12  13  14
GPGPU-Sim uArch:   15  16  17  18  19
GPGPU-Sim uArch:   20  21  22  23  24
GPGPU-Sim uArch:   25  26
2bc880a935f4074ba9e1a2d386c7af85  /sciclone/data10/hwang07/adwait/applications/benchmarks/CUDA/LPS/gpgpu_ptx_sim__LPS
GPGPU-Sim uArch: performance model initialization complete.
GPGPU-Sim PTX: __cudaRegisterFatBinary, fat_cubin_handle = 1, filename=laplace3d.cu
self exe links to: /sciclone/data10/hwang07/adwait/applications/benchmarks/CUDA/LPS/gpgpu_ptx_sim__LPS
Running md5sum using "md5sum /sciclone/data10/hwang07/adwait/applications/benchmarks/CUDA/LPS/gpgpu_ptx_sim__LPS "
Parsing file _cuobjdump_complete_output_RmusVN
######### cuobjdump parser ########
## Adding new section ELF
Adding arch: sm_20
Adding identifier: laplace3d.cu
## Adding new section PTX
Adding ptx filename: _cuobjdump_1.ptx
Adding arch: sm_20
Adding identifier: laplace3d.cu
Done parsing!!!
GPGPU-Sim PTX: __cudaRegisterFunction _Z13GPU_laplace3diiiiPfS_ : hostFun 0x0x405cf4, fat_cubin_handle = 1
GPGPU-Sim PTX: allocating shared region for "__cuda___cuda_local_var_32996_33_non_const_u132" from 0x0 to 0x990 (shared memory space)
GPGPU-Sim PTX: instruction assembly for function '_Z13GPU_laplace3diiiiPfS_'...   done.
GPGPU-Sim PTX: finding reconvergence points for '_Z13GPU_laplace3diiiiPfS_'...
GPGPU-Sim PTX: Finding dominators for '_Z13GPU_laplace3diiiiPfS_'...
GPGPU-Sim PTX: Finding immediate dominators for '_Z13GPU_laplace3diiiiPfS_'...
GPGPU-Sim PTX: Finding postdominators for '_Z13GPU_laplace3diiiiPfS_'...
GPGPU-Sim PTX: Finding immediate postdominators for '_Z13GPU_laplace3diiiiPfS_'...
GPGPU-Sim PTX: pre-decoding instructions for '_Z13GPU_laplace3diiiiPfS_'...
GPGPU-Sim PTX: reconvergence points for _Z13GPU_laplace3diiiiPfS_...
GPGPU-Sim PTX:  1 (potential) branch divergence @  PC=0x060 (_1.ptx:82) @!%p1 bra $Lt_0_14338;
GPGPU-Sim PTX:    immediate post dominator      @  PC=0x230 (_1.ptx:154) add.s32 %r57, %r37, %r12;
GPGPU-Sim PTX:  2 (potential) branch divergence @  PC=0x080 (_1.ptx:86) @%p2 bra $Lt_0_14850;
GPGPU-Sim PTX:    immediate post dominator      @  PC=0x120 (_1.ptx:113) add.s32 %r30, %r16, 1;
GPGPU-Sim PTX:  3 (potential) branch divergence @  PC=0x0a0 (_1.ptx:92) bra.uni $Lt_0_14594;
GPGPU-Sim PTX:    immediate post dominator      @  PC=0x120 (_1.ptx:113) add.s32 %r30, %r16, 1;
GPGPU-Sim PTX:  4 (potential) branch divergence @  PC=0x200 (_1.ptx:145) bra.uni $Lt_0_14082;
GPGPU-Sim PTX:    immediate post dominator      @  PC=0x230 (_1.ptx:154) add.s32 %r57, %r37, %r12;
GPGPU-Sim PTX:  5 (potential) branch divergence @  PC=0x290 (_1.ptx:166) @%p5 bra $Lt_0_15106;
GPGPU-Sim PTX:    immediate post dominator      @  PC=0x308 (_1.ptx:183) mov.u64 %rd1, __cuda___cuda_local_var_32996_33_non_const_u132;
GPGPU-Sim PTX:  6 (potential) branch divergence @  PC=0x320 (_1.ptx:186) @!%p6 bra $Lt_0_15618;
GPGPU-Sim PTX:    immediate post dominator      @  PC=0x380 (_1.ptx:200) ld.param.s32 %r73, [__cudaparm__Z13GPU_laplace3diiiiPfS__NZ];
GPGPU-Sim PTX:  7 (potential) branch divergence @  PC=0x398 (_1.ptx:203) @%p7 bra $Lt_0_16130;
GPGPU-Sim PTX:    immediate post dominator      @  PC=0x6d8 (_1.ptx:335) exit;
GPGPU-Sim PTX:  8 (potential) branch divergence @  PC=0x408 (_1.ptx:219) @%p8 bra $Lt_0_17410;
GPGPU-Sim PTX:    immediate post dominator      @  PC=0x4a0 (_1.ptx:245) @!%p6 bra $Lt_0_18434;
GPGPU-Sim PTX:  9 (potential) branch divergence @  PC=0x468 (_1.ptx:235) @%p9 bra $Lt_0_17410;
GPGPU-Sim PTX:    immediate post dominator      @  PC=0x4a0 (_1.ptx:245) @!%p6 bra $Lt_0_18434;
GPGPU-Sim PTX: 10 (potential) branch divergence @  PC=0x4a0 (_1.ptx:245) @!%p6 bra $Lt_0_18434;
GPGPU-Sim PTX:    immediate post dominator      @  PC=0x548 (_1.ptx:273) bar.sync 0;
GPGPU-Sim PTX: 11 (potential) branch divergence @  PC=0x510 (_1.ptx:262) @%p10 bra $Lt_0_18434;
GPGPU-Sim PTX:    immediate post dominator      @  PC=0x548 (_1.ptx:273) bar.sync 0;
GPGPU-Sim PTX: 12 (potential) branch divergence @  PC=0x560 (_1.ptx:276) @%p11 bra $Lt_0_18946;
GPGPU-Sim PTX:    immediate post dominator      @  PC=0x6b8 (_1.ptx:329) bar.sync 0;
GPGPU-Sim PTX: 13 (potential) branch divergence @  PC=0x578 (_1.ptx:280) @%p12 bra $Lt_0_20738;
GPGPU-Sim PTX:    immediate post dominator      @  PC=0x688 (_1.ptx:321) ld.param.u64 %rd35, [__cudaparm__Z13GPU_laplace3diiiiPfS__d_u2];
GPGPU-Sim PTX: 14 (potential) branch divergence @  PC=0x588 (_1.ptx:282) @%p13 bra $Lt_0_20738;
GPGPU-Sim PTX:    immediate post dominator      @  PC=0x688 (_1.ptx:321) ld.param.u64 %rd35, [__cudaparm__Z13GPU_laplace3diiiiPfS__d_u2];
GPGPU-Sim PTX: 15 (potential) branch divergence @  PC=0x5a0 (_1.ptx:285) @%p14 bra $Lt_0_20738;
GPGPU-Sim PTX:    immediate post dominator      @  PC=0x688 (_1.ptx:321) ld.param.u64 %rd35, [__cudaparm__Z13GPU_laplace3diiiiPfS__d_u2];
GPGPU-Sim PTX: 16 (potential) branch divergence @  PC=0x5b0 (_1.ptx:287) @%p15 bra $Lt_0_20738;
GPGPU-Sim PTX:    immediate post dominator      @  PC=0x688 (_1.ptx:321) ld.param.u64 %rd35, [__cudaparm__Z13GPU_laplace3diiiiPfS__d_u2];
GPGPU-Sim PTX: 17 (potential) branch divergence @  PC=0x5c8 (_1.ptx:290) @%p16 bra $Lt_0_20738;
GPGPU-Sim PTX:    immediate post dominator      @  PC=0x688 (_1.ptx:321) ld.param.u64 %rd35, [__cudaparm__Z13GPU_laplace3diiiiPfS__d_u2];
GPGPU-Sim PTX: 18 (potential) branch divergence @  PC=0x5d8 (_1.ptx:292) @%p17 bra $L_0_12546;
GPGPU-Sim PTX:    immediate post dominator      @  PC=0x688 (_1.ptx:321) ld.param.u64 %rd35, [__cudaparm__Z13GPU_laplace3diiiiPfS__d_u2];
GPGPU-Sim PTX: 19 (potential) branch divergence @  PC=0x600 (_1.ptx:300) bra.uni $L_0_12290;
GPGPU-Sim PTX:    immediate post dominator      @  PC=0x688 (_1.ptx:321) ld.param.u64 %rd35, [__cudaparm__Z13GPU_laplace3diiiiPfS__d_u2];
GPGPU-Sim PTX: 20 (potential) branch divergence @  PC=0x6d0 (_1.ptx:332) @%p18 bra $Lt_0_16642;
GPGPU-Sim PTX:    immediate post dominator      @  PC=0x6d8 (_1.ptx:335) exit;
GPGPU-Sim PTX: ... end of reconvergence points for _Z13GPU_laplace3diiiiPfS_
GPGPU-Sim PTX: ... done pre-decoding instructions for '_Z13GPU_laplace3diiiiPfS_'.
GPGPU-Sim PTX: finished parsing EMBEDDED .ptx file _1.ptx
Adding _cuobjdump_1.ptx with cubin handle 1
GPGPU-Sim PTX: extracting embedded .ptx to temporary file "_ptx_4Lgrot"
Running: cat _ptx_4Lgrot | sed 's/.version 1.5/.version 1.4/' | sed 's/, texmode_independent//' | sed 's/\(\.extern \.const\[1\] .b8 \w\+\)\[\]/\1\[1\]/' | sed 's/const\[.\]/const\[0\]/g' > _ptx2_Ptjnea
GPGPU-Sim PTX: generating ptxinfo using "$CUDA_INSTALL_PATH/bin/ptxas --gpu-name=sm_20 -v _ptx2_Ptjnea --output-file  /dev/null 2> _ptx_4Lgrotinfo"
GPGPU-Sim PTX: Kernel '_Z13GPU_laplace3diiiiPfS_' : regs=17, lmem=0, smem=2448, cmem=64
GPGPU-Sim PTX: removing ptxinfo using "rm -f _ptx_4Lgrot _ptx2_Ptjnea _ptx_4Lgrotinfo"
GPGPU-Sim PTX: loading globals with explicit initializers... 
GPGPU-Sim PTX: finished loading globals (0 bytes total).
GPGPU-Sim PTX: loading constants with explicit initializers...  done.

Grid dimensions: 100 x 100 x 100
GPGPU-Sim PTX: cudaMallocPitch (width = 400)
GPGPU-Sim PTX: cudaMallocPitch (width = 400)
GPGPU-Sim: synchronize waiting for inactive GPU simulation
GPGPU-Sim API: Stream Manager State
GPGPU-Sim: detected inactive GPU simulation thread

Copy u1 to device: 88.220001 (ms) 

 dimGrid  = 4 25 1 
 dimBlock = 32 4 1 
GPGPU-Sim: synchronize waiting for inactive GPU simulation
GPGPU-Sim API: Stream Manager State
GPGPU-Sim: detected inactive GPU simulation thread

GPGPU-Sim PTX: cudaLaunch for 0x0x405cf4 (mode=performance simulation) on stream 0
GPGPU-Sim PTX: pushing kernel '_Z13GPU_laplace3diiiiPfS_' to stream 0, gridDim= (4,25,1) blockDim = (32,4,1) 
kernel '_Z13GPU_laplace3diiiiPfS_' transfer to GPU hardware scheduler
GPGPU-Sim uArch: Shader 1 bind to kernel 1 '_Z13GPU_laplace3diiiiPfS_'
GPGPU-Sim uArch: CTA/core = 8, limited by: cta_limit
GPGPU-Sim uArch: core:  1, cta: 0 initialized @(1,0)
GPGPU-Sim uArch: Shader 2 bind to kernel 1 '_Z13GPU_laplace3diiiiPfS_'
GPGPU-Sim uArch: core:  2, cta: 0 initialized @(1,0)
GPGPU-Sim uArch: Shader 3 bind to kernel 1 '_Z13GPU_laplace3diiiiPfS_'
GPGPU-Sim uArch: core:  3, cta: 0 initialized @(1,0)
GPGPU-Sim uArch: Shader 4 bind to kernel 1 '_Z13GPU_laplace3diiiiPfS_'
GPGPU-Sim uArch: core:  4, cta: 0 initialized @(1,0)
GPGPU-Sim uArch: Shader 5 bind to kernel 1 '_Z13GPU_laplace3diiiiPfS_'
GPGPU-Sim uArch: core:  5, cta: 0 initialized @(1,0)
GPGPU-Sim uArch: Shader 6 bind to kernel 1 '_Z13GPU_laplace3diiiiPfS_'
GPGPU-Sim uArch: core:  6, cta: 0 initialized @(1,0)
GPGPU-Sim uArch: Shader 7 bind to kernel 1 '_Z13GPU_laplace3diiiiPfS_'
GPGPU-Sim uArch: core:  7, cta: 0 initialized @(1,0)
GPGPU-Sim uArch: Shader 8 bind to kernel 1 '_Z13GPU_laplace3diiiiPfS_'
GPGPU-Sim uArch: core:  8, cta: 0 initialized @(1,0)
GPGPU-Sim uArch: Shader 9 bind to kernel 1 '_Z13GPU_laplace3diiiiPfS_'
GPGPU-Sim uArch: core:  9, cta: 0 initialized @(1,0)
GPGPU-Sim uArch: Shader 10 bind to kernel 1 '_Z13GPU_laplace3diiiiPfS_'
GPGPU-Sim uArch: core: 10, cta: 0 initialized @(1,0)
GPGPU-Sim uArch: Shader 11 bind to kernel 1 '_Z13GPU_laplace3diiiiPfS_'
GPGPU-Sim uArch: core: 11, cta: 0 initialized @(1,0)
GPGPU-Sim uArch: Shader 12 bind to kernel 1 '_Z13GPU_laplace3diiiiPfS_'
GPGPU-Sim uArch: core: 12, cta: 0 initialized @(1,0)
GPGPU-Sim uArch: Shader 13 bind to kernel 1 '_Z13GPU_laplace3diiiiPfS_'
GPGPU-Sim uArch: core: 13, cta: 0 initialized @(1,0)
GPGPU-Sim uArch: Shader 14 bind to kernel 1 '_Z13GPU_laplace3diiiiPfS_'
GPGPU-Sim uArch: core: 14, cta: 0 initialized @(1,0)
GPGPU-Sim uArch: Shader 0 bind to kernel 1 '_Z13GPU_laplace3diiiiPfS_'
GPGPU-Sim uArch: core:  0, cta: 0 initialized @(1,0)
GPGPU-Sim uArch: core:  1, cta: 1 initialized @(2,0)
GPGPU-Sim uArch: core:  2, cta: 1 initialized @(2,0)
GPGPU-Sim uArch: core:  3, cta: 1 initialized @(2,0)
GPGPU-Sim uArch: core:  4, cta: 1 initialized @(2,0)
GPGPU-Sim uArch: core:  5, cta: 1 initialized @(2,0)
GPGPU-Sim uArch: core:  6, cta: 1 initialized @(2,0)
GPGPU-Sim uArch: core:  7, cta: 1 initialized @(2,0)
GPGPU-Sim uArch: core:  8, cta: 1 initialized @(2,0)
GPGPU-Sim uArch: core:  9, cta: 1 initialized @(2,0)
GPGPU-Sim uArch: core: 10, cta: 1 initialized @(2,0)
GPGPU-Sim uArch: core: 11, cta: 1 initialized @(2,0)
GPGPU-Sim uArch: core: 12, cta: 1 initialized @(2,0)
GPGPU-Sim uArch: core: 13, cta: 1 initialized @(2,0)
GPGPU-Sim uArch: core: 14, cta: 1 initialized @(2,0)
GPGPU-Sim uArch: core:  0, cta: 1 initialized @(2,0)
GPGPU-Sim uArch: core:  1, cta: 2 initialized @(3,0)
GPGPU-Sim uArch: core:  2, cta: 2 initialized @(3,0)
GPGPU-Sim uArch: core:  3, cta: 2 initialized @(3,0)
GPGPU-Sim uArch: core:  4, cta: 2 initialized @(3,0)
GPGPU-Sim uArch: core:  5, cta: 2 initialized @(3,0)
GPGPU-Sim uArch: core:  6, cta: 2 initialized @(3,0)
GPGPU-Sim uArch: core:  7, cta: 2 initialized @(3,0)
GPGPU-Sim uArch: core:  8, cta: 2 initialized @(3,0)
GPGPU-Sim uArch: core:  9, cta: 2 initialized @(3,0)
GPGPU-Sim uArch: core: 10, cta: 2 initialized @(3,0)
GPGPU-Sim uArch: core: 11, cta: 2 initialized @(3,0)
GPGPU-Sim uArch: core: 12, cta: 2 initialized @(3,0)
GPGPU-Sim uArch: core: 13, cta: 2 initialized @(3,0)
GPGPU-Sim uArch: core: 14, cta: 2 initialized @(3,0)
GPGPU-Sim uArch: core:  0, cta: 2 initialized @(3,0)
GPGPU-Sim uArch: core:  1, cta: 3 initialized @(4,0)
GPGPU-Sim uArch: core:  2, cta: 3 initialized @(4,0)
GPGPU-Sim uArch: core:  3, cta: 3 initialized @(4,0)
GPGPU-Sim uArch: core:  4, cta: 3 initialized @(4,0)
GPGPU-Sim uArch: core:  5, cta: 3 initialized @(4,0)
GPGPU-Sim uArch: core:  6, cta: 3 initialized @(4,0)
GPGPU-Sim uArch: core:  7, cta: 3 initialized @(4,0)
GPGPU-Sim uArch: core:  8, cta: 3 initialized @(4,0)
GPGPU-Sim uArch: core:  9, cta: 3 initialized @(4,0)
GPGPU-Sim uArch: core: 10, cta: 3 initialized @(4,0)
GPGPU-Sim uArch: core: 11, cta: 3 initialized @(4,0)
GPGPU-Sim uArch: core: 12, cta: 3 initialized @(4,0)
GPGPU-Sim uArch: core: 13, cta: 3 initialized @(4,0)
GPGPU-Sim uArch: core: 14, cta: 3 initialized @(4,0)
GPGPU-Sim uArch: core:  0, cta: 3 initialized @(4,0)
GPGPU-Sim uArch: core:  1, cta: 4 initialized @(5,0)
GPGPU-Sim uArch: core:  2, cta: 4 initialized @(5,0)
GPGPU-Sim uArch: core:  3, cta: 4 initialized @(5,0)
GPGPU-Sim uArch: core:  4, cta: 4 initialized @(5,0)
GPGPU-Sim uArch: core:  5, cta: 4 initialized @(5,0)
GPGPU-Sim uArch: core:  6, cta: 4 initialized @(5,0)
GPGPU-Sim uArch: core:  7, cta: 4 initialized @(5,0)
GPGPU-Sim uArch: core:  8, cta: 4 initialized @(5,0)
GPGPU-Sim uArch: core:  9, cta: 4 initialized @(5,0)
GPGPU-Sim uArch: core: 10, cta: 4 initialized @(5,0)
GPGPU-Sim uArch: core: 11, cta: 4 initialized @(5,0)
GPGPU-Sim uArch: core: 12, cta: 4 initialized @(5,0)
GPGPU-Sim uArch: core: 13, cta: 4 initialized @(5,0)
GPGPU-Sim uArch: core: 14, cta: 4 initialized @(5,0)
GPGPU-Sim uArch: core:  0, cta: 4 initialized @(5,0)
GPGPU-Sim uArch: core:  1, cta: 5 initialized @(6,0)
GPGPU-Sim uArch: core:  2, cta: 5 initialized @(6,0)
GPGPU-Sim uArch: core:  3, cta: 5 initialized @(6,0)
GPGPU-Sim uArch: core:  4, cta: 5 initialized @(6,0)
GPGPU-Sim uArch: core:  5, cta: 5 initialized @(6,0)
GPGPU-Sim uArch: core:  6, cta: 5 initialized @(6,0)
GPGPU-Sim uArch: core:  7, cta: 5 initialized @(6,0)
GPGPU-Sim uArch: core:  8, cta: 5 initialized @(6,0)
GPGPU-Sim uArch: core:  9, cta: 5 initialized @(6,0)
GPGPU-Sim uArch: core: 10, cta: 5 initialized @(6,0)
GPGPU-Sim uArch: core: 11, cta: 5 initialized @(6,0)
GPGPU-Sim uArch: core: 12, cta: 5 initialized @(6,0)
GPGPU-Sim uArch: core: 13, cta: 5 initialized @(6,0)
GPGPU-Sim uArch: core: 14, cta: 5 initialized @(6,0)
GPGPU-Sim uArch: core:  0, cta: 5 initialized @(6,0)
GPGPU-Sim uArch: core:  1, cta: 6 initialized @(7,0)
GPGPU-Sim uArch: core:  2, cta: 6 initialized @(7,0)
GPGPU-Sim uArch: core:  3, cta: 6 initialized @(7,0)
GPGPU-Sim uArch: core:  4, cta: 6 initialized @(7,0)
GPGPU-Sim uArch: core:  5, cta: 6 initialized @(7,0)
GPGPU-Sim uArch: core:  6, cta: 6 initialized @(7,0)
GPGPU-Sim uArch: core:  7, cta: 6 initialized @(7,0)
GPGPU-Sim uArch: core:  8, cta: 6 initialized @(7,0)
GPGPU-Sim uArch: core:  9, cta: 6 initialized @(7,0)
GPGPU-Sim uArch: core: 10, cta: 6 initialized @(7,0)
GPGPU-Sim PTX: 100000 instructions simulated : ctaid=(1,4,0) tid=(31,1,0)
GPGPU-Sim uArch: cycles simulated: 500  inst.: 109764 (ipc=219.5) sim_rate=54882 (inst/sec) elapsed = 0:0:00:02 / Tue Mar 22 13:00:44 2016
GPGPU-Sim PTX: 200000 instructions simulated : ctaid=(2,20,0) tid=(31,3,0)
GPGPU-Sim PTX: 300000 instructions simulated : ctaid=(0,11,0) tid=(31,3,0)
GPGPU-Sim PTX: 400000 instructions simulated : ctaid=(3,16,0) tid=(11,0,0)
GPGPU-Sim uArch: cycles simulated: 1500  inst.: 419880 (ipc=279.9) sim_rate=139960 (inst/sec) elapsed = 0:0:00:03 / Tue Mar 22 13:00:45 2016
GPGPU-Sim PTX: 500000 instructions simulated : ctaid=(3,1,0) tid=(11,0,0)
GPGPU-Sim PTX: 600000 instructions simulated : ctaid=(1,1,0) tid=(31,1,0)
GPGPU-Sim PTX: 700000 instructions simulated : ctaid=(2,9,0) tid=(31,2,0)
GPGPU-Sim PTX: 800000 instructions simulated : ctaid=(0,8,0) tid=(28,3,0)
GPGPU-Sim PTX: 900000 instructions simulated : ctaid=(1,11,0) tid=(17,0,0)
GPGPU-Sim PTX: 1000000 instructions simulated : ctaid=(3,10,0) tid=(1,2,0)
GPGPU-Sim uArch: cycles simulated: 2500  inst.: 987136 (ipc=394.9) sim_rate=246784 (inst/sec) elapsed = 0:0:00:04 / Tue Mar 22 13:00:46 2016
GPGPU-Sim PTX: 1100000 instructions simulated : ctaid=(0,10,0) tid=(4,1,0)
GPGPU-Sim PTX: 1200000 instructions simulated : ctaid=(1,22,0) tid=(12,1,0)
GPGPU-Sim PTX: 1300000 instructions simulated : ctaid=(2,22,0) tid=(15,0,0)
GPGPU-Sim PTX: 1400000 instructions simulated : ctaid=(2,5,0) tid=(3,2,0)
GPGPU-Sim PTX: 1500000 instructions simulated : ctaid=(1,23,0) tid=(23,1,0)
GPGPU-Sim uArch: cycles simulated: 4000  inst.: 1420697 (ipc=355.2) sim_rate=284139 (inst/sec) elapsed = 0:0:00:05 / Tue Mar 22 13:00:47 2016
GPGPU-Sim PTX: 1600000 instructions simulated : ctaid=(2,12,0) tid=(7,3,0)
GPGPU-Sim PTX: 1700000 instructions simulated : ctaid=(2,1,0) tid=(11,0,0)
GPGPU-Sim PTX: 1800000 instructions simulated : ctaid=(0,3,0) tid=(11,1,0)
GPGPU-Sim PTX: 1900000 instructions simulated : ctaid=(0,13,0) tid=(7,1,0)
GPGPU-Sim uArch: cycles simulated: 5500  inst.: 1826550 (ipc=332.1) sim_rate=304425 (inst/sec) elapsed = 0:0:00:06 / Tue Mar 22 13:00:48 2016
GPGPU-Sim PTX: 2000000 instructions simulated : ctaid=(3,8,0) tid=(4,2,0)
GPGPU-Sim PTX: 2100000 instructions simulated : ctaid=(1,17,0) tid=(16,1,0)
GPGPU-Sim PTX: 2200000 instructions simulated : ctaid=(0,5,0) tid=(19,0,0)
GPGPU-Sim PTX: 2300000 instructions simulated : ctaid=(3,19,0) tid=(6,0,0)
GPGPU-Sim PTX: 2400000 instructions simulated : ctaid=(1,4,0) tid=(28,2,0)
GPGPU-Sim uArch: cycles simulated: 7000  inst.: 2226264 (ipc=318.0) sim_rate=318037 (inst/sec) elapsed = 0:0:00:07 / Tue Mar 22 13:00:49 2016
GPGPU-Sim PTX: 2500000 instructions simulated : ctaid=(1,13,0) tid=(2,2,0)
GPGPU-Sim PTX: 2600000 instructions simulated : ctaid=(2,15,0) tid=(8,3,0)
GPGPU-Sim PTX: 2700000 instructions simulated : ctaid=(0,19,0) tid=(24,1,0)
GPGPU-Sim uArch: cycles simulated: 7500  inst.: 2514878 (ipc=335.3) sim_rate=314359 (inst/sec) elapsed = 0:0:00:08 / Tue Mar 22 13:00:50 2016
GPGPU-Sim PTX: 2800000 instructions simulated : ctaid=(0,20,0) tid=(3,3,0)
GPGPU-Sim PTX: 2900000 instructions simulated : ctaid=(1,17,0) tid=(10,2,0)
GPGPU-Sim PTX: 3000000 instructions simulated : ctaid=(1,20,0) tid=(15,3,0)
GPGPU-Sim PTX: 3100000 instructions simulated : ctaid=(0,8,0) tid=(23,1,0)
GPGPU-Sim PTX: 3200000 instructions simulated : ctaid=(2,15,0) tid=(7,0,0)
GPGPU-Sim PTX: 3300000 instructions simulated : ctaid=(2,20,0) tid=(5,2,0)
GPGPU-Sim uArch: cycles simulated: 9000  inst.: 3073810 (ipc=341.5) sim_rate=341534 (inst/sec) elapsed = 0:0:00:09 / Tue Mar 22 13:00:51 2016
GPGPU-Sim PTX: 3400000 instructions simulated : ctaid=(2,18,0) tid=(13,1,0)
GPGPU-Sim PTX: 3500000 instructions simulated : ctaid=(0,18,0) tid=(26,2,0)
GPGPU-Sim PTX: 3600000 instructions simulated : ctaid=(1,19,0) tid=(13,0,0)
GPGPU-Sim PTX: 3700000 instructions simulated : ctaid=(2,3,0) tid=(30,2,0)
GPGPU-Sim PTX: 3800000 instructions simulated : ctaid=(0,7,0) tid=(31,0,0)
GPGPU-Sim uArch: cycles simulated: 10000  inst.: 3514782 (ipc=351.5) sim_rate=351478 (inst/sec) elapsed = 0:0:00:10 / Tue Mar 22 13:00:52 2016
GPGPU-Sim PTX: 3900000 instructions simulated : ctaid=(0,2,0) tid=(20,0,0)
GPGPU-Sim PTX: 4000000 instructions simulated : ctaid=(2,12,0) tid=(27,2,0)
GPGPU-Sim PTX: 4100000 instructions simulated : ctaid=(2,5,0) tid=(26,0,0)
GPGPU-Sim PTX: 4200000 instructions simulated : ctaid=(2,12,0) tid=(0,2,0)
GPGPU-Sim PTX: 4300000 instructions simulated : ctaid=(1,17,0) tid=(7,3,0)
GPGPU-Sim PTX: 4400000 instructions simulated : ctaid=(1,0,0) tid=(26,1,0)
GPGPU-Sim PTX: 4500000 instructions simulated : ctaid=(2,23,0) tid=(8,2,0)
GPGPU-Sim uArch: cycles simulated: 11000  inst.: 4067167 (ipc=369.7) sim_rate=369742 (inst/sec) elapsed = 0:0:00:11 / Tue Mar 22 13:00:53 2016
GPGPU-Sim PTX: 4600000 instructions simulated : ctaid=(2,5,0) tid=(12,1,0)
GPGPU-Sim PTX: 4700000 instructions simulated : ctaid=(2,4,0) tid=(24,1,0)
GPGPU-Sim uArch: cycles simulated: 11500  inst.: 4303069 (ipc=374.2) sim_rate=358589 (inst/sec) elapsed = 0:0:00:12 / Tue Mar 22 13:00:54 2016
GPGPU-Sim PTX: 4800000 instructions simulated : ctaid=(2,18,0) tid=(7,0,0)
GPGPU-Sim PTX: 4900000 instructions simulated : ctaid=(0,22,0) tid=(5,2,0)
GPGPU-Sim PTX: 5000000 instructions simulated : ctaid=(2,23,0) tid=(23,0,0)
GPGPU-Sim PTX: 5100000 instructions simulated : ctaid=(0,13,0) tid=(7,1,0)
GPGPU-Sim PTX: 5200000 instructions simulated : ctaid=(1,17,0) tid=(29,3,0)
GPGPU-Sim PTX: 5300000 instructions simulated : ctaid=(0,23,0) tid=(25,1,0)
GPGPU-Sim uArch: cycles simulated: 12500  inst.: 4796837 (ipc=383.7) sim_rate=368987 (inst/sec) elapsed = 0:0:00:13 / Tue Mar 22 13:00:55 2016
GPGPU-Sim PTX: 5400000 instructions simulated : ctaid=(2,13,0) tid=(1,1,0)
GPGPU-Sim PTX: 5500000 instructions simulated : ctaid=(1,14,0) tid=(14,3,0)
GPGPU-Sim PTX: 5600000 instructions simulated : ctaid=(2,14,0) tid=(24,0,0)
GPGPU-Sim PTX: 5700000 instructions simulated : ctaid=(1,13,0) tid=(27,0,0)
GPGPU-Sim PTX: 5800000 instructions simulated : ctaid=(0,16,0) tid=(17,0,0)
GPGPU-Sim PTX: 5900000 instructions simulated : ctaid=(2,0,0) tid=(17,3,0)
GPGPU-Sim uArch: cycles simulated: 13500  inst.: 5334343 (ipc=395.1) sim_rate=381024 (inst/sec) elapsed = 0:0:00:14 / Tue Mar 22 13:00:56 2016
GPGPU-Sim PTX: 6000000 instructions simulated : ctaid=(0,21,0) tid=(16,1,0)
GPGPU-Sim PTX: 6100000 instructions simulated : ctaid=(2,4,0) tid=(2,1,0)
GPGPU-Sim PTX: 6200000 instructions simulated : ctaid=(0,20,0) tid=(28,1,0)
GPGPU-Sim PTX: 6300000 instructions simulated : ctaid=(3,8,0) tid=(3,2,0)
GPGPU-Sim PTX: 6400000 instructions simulated : ctaid=(0,7,0) tid=(9,2,0)
GPGPU-Sim uArch: cycles simulated: 14500  inst.: 5836616 (ipc=402.5) sim_rate=389107 (inst/sec) elapsed = 0:0:00:15 / Tue Mar 22 13:00:57 2016
GPGPU-Sim PTX: 6500000 instructions simulated : ctaid=(0,14,0) tid=(26,3,0)
GPGPU-Sim PTX: 6600000 instructions simulated : ctaid=(2,9,0) tid=(23,1,0)
GPGPU-Sim PTX: 6700000 instructions simulated : ctaid=(2,22,0) tid=(13,0,0)
GPGPU-Sim PTX: 6800000 instructions simulated : ctaid=(2,10,0) tid=(10,1,0)
GPGPU-Sim PTX: 6900000 instructions simulated : ctaid=(0,20,0) tid=(5,1,0)
GPGPU-Sim PTX: 7000000 instructions simulated : ctaid=(1,10,0) tid=(28,0,0)
GPGPU-Sim uArch: cycles simulated: 15500  inst.: 6305700 (ipc=406.8) sim_rate=394106 (inst/sec) elapsed = 0:0:00:16 / Tue Mar 22 13:00:58 2016
GPGPU-Sim PTX: 7100000 instructions simulated : ctaid=(1,4,0) tid=(22,1,0)
GPGPU-Sim PTX: 7200000 instructions simulated : ctaid=(2,1,0) tid=(4,0,0)
GPGPU-Sim PTX: 7300000 instructions simulated : ctaid=(2,12,0) tid=(8,1,0)
GPGPU-Sim uArch: cycles simulated: 16000  inst.: 6573470 (ipc=410.8) sim_rate=386674 (inst/sec) elapsed = 0:0:00:17 / Tue Mar 22 13:00:59 2016
GPGPU-Sim PTX: 7400000 instructions simulated : ctaid=(0,14,0) tid=(18,3,0)
GPGPU-Sim PTX: 7500000 instructions simulated : ctaid=(2,4,0) tid=(13,0,0)
GPGPU-Sim PTX: 7600000 instructions simulated : ctaid=(0,15,0) tid=(14,1,0)
GPGPU-Sim PTX: 7700000 instructions simulated : ctaid=(0,24,0) tid=(1,3,0)
GPGPU-Sim PTX: 7800000 instructions simulated : ctaid=(0,3,0) tid=(24,1,0)
GPGPU-Sim uArch: cycles simulated: 17000  inst.: 7035992 (ipc=413.9) sim_rate=390888 (inst/sec) elapsed = 0:0:00:18 / Tue Mar 22 13:01:00 2016
GPGPU-Sim PTX: 7900000 instructions simulated : ctaid=(0,10,0) tid=(3,3,0)
GPGPU-Sim PTX: 8000000 instructions simulated : ctaid=(0,9,0) tid=(8,0,0)
GPGPU-Sim PTX: 8100000 instructions simulated : ctaid=(0,3,0) tid=(7,0,0)
GPGPU-Sim PTX: 8200000 instructions simulated : ctaid=(1,13,0) tid=(20,3,0)
GPGPU-Sim PTX: 8300000 instructions simulated : ctaid=(0,22,0) tid=(1,0,0)
GPGPU-Sim PTX: 8400000 instructions simulated : ctaid=(2,18,0) tid=(18,2,0)
GPGPU-Sim uArch: cycles simulated: 18000  inst.: 7572127 (ipc=420.7) sim_rate=398533 (inst/sec) elapsed = 0:0:00:19 / Tue Mar 22 13:01:01 2016
GPGPU-Sim PTX: 8500000 instructions simulated : ctaid=(0,2,0) tid=(5,1,0)
GPGPU-Sim PTX: 8600000 instructions simulated : ctaid=(2,12,0) tid=(26,1,0)
GPGPU-Sim PTX: 8700000 instructions simulated : ctaid=(2,1,0) tid=(31,2,0)
GPGPU-Sim PTX: 8800000 instructions simulated : ctaid=(2,8,0) tid=(22,3,0)
GPGPU-Sim PTX: 8900000 instructions simulated : ctaid=(1,20,0) tid=(8,3,0)
GPGPU-Sim uArch: cycles simulated: 19000  inst.: 8062532 (ipc=424.3) sim_rate=403126 (inst/sec) elapsed = 0:0:00:20 / Tue Mar 22 13:01:02 2016
GPGPU-Sim PTX: 9000000 instructions simulated : ctaid=(1,14,0) tid=(12,2,0)
GPGPU-Sim PTX: 9100000 instructions simulated : ctaid=(0,21,0) tid=(2,1,0)
GPGPU-Sim PTX: 9200000 instructions simulated : ctaid=(1,6,0) tid=(5,0,0)
GPGPU-Sim PTX: 9300000 instructions simulated : ctaid=(1,20,0) tid=(17,1,0)
GPGPU-Sim PTX: 9400000 instructions simulated : ctaid=(0,1,0) tid=(31,3,0)
GPGPU-Sim PTX: 9500000 instructions simulated : ctaid=(1,16,0) tid=(13,2,0)
GPGPU-Sim uArch: cycles simulated: 20000  inst.: 8597761 (ipc=429.9) sim_rate=409417 (inst/sec) elapsed = 0:0:00:21 / Tue Mar 22 13:01:03 2016
GPGPU-Sim PTX: 9600000 instructions simulated : ctaid=(1,15,0) tid=(11,2,0)
GPGPU-Sim PTX: 9700000 instructions simulated : ctaid=(0,2,0) tid=(8,0,0)
GPGPU-Sim PTX: 9800000 instructions simulated : ctaid=(1,6,0) tid=(11,1,0)
GPGPU-Sim PTX: 9900000 instructions simulated : ctaid=(2,13,0) tid=(15,1,0)
GPGPU-Sim PTX: 10000000 instructions simulated : ctaid=(1,9,0) tid=(6,0,0)
GPGPU-Sim PTX: 10100000 instructions simulated : ctaid=(2,3,0) tid=(29,2,0)
GPGPU-Sim PTX: 10200000 instructions simulated : ctaid=(2,3,0) tid=(21,2,0)
GPGPU-Sim uArch: cycles simulated: 21000  inst.: 9137872 (ipc=435.1) sim_rate=415357 (inst/sec) elapsed = 0:0:00:22 / Tue Mar 22 13:01:04 2016
GPGPU-Sim PTX: 10300000 instructions simulated : ctaid=(0,21,0) tid=(23,2,0)
GPGPU-Sim PTX: 10400000 instructions simulated : ctaid=(2,5,0) tid=(24,1,0)
GPGPU-Sim uArch: cycles simulated: 21500  inst.: 9387826 (ipc=436.6) sim_rate=408166 (inst/sec) elapsed = 0:0:00:23 / Tue Mar 22 13:01:05 2016
GPGPU-Sim PTX: 10500000 instructions simulated : ctaid=(2,11,0) tid=(27,1,0)
GPGPU-Sim PTX: 10600000 instructions simulated : ctaid=(1,7,0) tid=(11,2,0)
GPGPU-Sim PTX: 10700000 instructions simulated : ctaid=(0,16,0) tid=(30,1,0)
GPGPU-Sim PTX: 10800000 instructions simulated : ctaid=(3,7,0) tid=(17,0,0)
GPGPU-Sim PTX: 10900000 instructions simulated : ctaid=(1,10,0) tid=(3,0,0)
GPGPU-Sim PTX: 11000000 instructions simulated : ctaid=(0,4,0) tid=(19,3,0)
GPGPU-Sim uArch: cycles simulated: 22500  inst.: 9900968 (ipc=440.0) sim_rate=412540 (inst/sec) elapsed = 0:0:00:24 / Tue Mar 22 13:01:06 2016
GPGPU-Sim PTX: 11100000 instructions simulated : ctaid=(1,1,0) tid=(3,2,0)
GPGPU-Sim PTX: 11200000 instructions simulated : ctaid=(0,6,0) tid=(6,3,0)
GPGPU-Sim PTX: 11300000 instructions simulated : ctaid=(1,11,0) tid=(4,0,0)
GPGPU-Sim PTX: 11400000 instructions simulated : ctaid=(0,7,0) tid=(14,2,0)
GPGPU-Sim PTX: 11500000 instructions simulated : ctaid=(2,3,0) tid=(4,0,0)
GPGPU-Sim uArch: cycles simulated: 23500  inst.: 10377654 (ipc=441.6) sim_rate=415106 (inst/sec) elapsed = 0:0:00:25 / Tue Mar 22 13:01:07 2016
GPGPU-Sim PTX: 11600000 instructions simulated : ctaid=(1,16,0) tid=(1,2,0)
GPGPU-Sim PTX: 11700000 instructions simulated : ctaid=(0,3,0) tid=(11,3,0)
GPGPU-Sim PTX: 11800000 instructions simulated : ctaid=(2,13,0) tid=(22,1,0)
GPGPU-Sim PTX: 11900000 instructions simulated : ctaid=(1,1,0) tid=(4,2,0)
GPGPU-Sim PTX: 12000000 instructions simulated : ctaid=(1,15,0) tid=(19,1,0)
GPGPU-Sim PTX: 12100000 instructions simulated : ctaid=(1,2,0) tid=(13,0,0)
GPGPU-Sim uArch: cycles simulated: 24500  inst.: 10905459 (ipc=445.1) sim_rate=419440 (inst/sec) elapsed = 0:0:00:26 / Tue Mar 22 13:01:08 2016
GPGPU-Sim PTX: 12200000 instructions simulated : ctaid=(1,0,0) tid=(28,0,0)
GPGPU-Sim PTX: 12300000 instructions simulated : ctaid=(2,19,0) tid=(24,1,0)
GPGPU-Sim PTX: 12400000 instructions simulated : ctaid=(2,8,0) tid=(0,1,0)
GPGPU-Sim PTX: 12500000 instructions simulated : ctaid=(1,10,0) tid=(2,2,0)
GPGPU-Sim PTX: 12600000 instructions simulated : ctaid=(1,13,0) tid=(24,2,0)
GPGPU-Sim PTX: 12700000 instructions simulated : ctaid=(2,1,0) tid=(1,3,0)
GPGPU-Sim uArch: cycles simulated: 25500  inst.: 11368974 (ipc=445.8) sim_rate=421073 (inst/sec) elapsed = 0:0:00:27 / Tue Mar 22 13:01:09 2016
GPGPU-Sim PTX: 12800000 instructions simulated : ctaid=(1,1,0) tid=(16,0,0)
GPGPU-Sim PTX: 12900000 instructions simulated : ctaid=(1,18,0) tid=(30,2,0)
GPGPU-Sim PTX: 13000000 instructions simulated : ctaid=(0,5,0) tid=(23,3,0)
GPGPU-Sim uArch: cycles simulated: 26000  inst.: 11646200 (ipc=447.9) sim_rate=415935 (inst/sec) elapsed = 0:0:00:28 / Tue Mar 22 13:01:10 2016
GPGPU-Sim PTX: 13100000 instructions simulated : ctaid=(0,3,0) tid=(11,3,0)
GPGPU-Sim PTX: 13200000 instructions simulated : ctaid=(1,22,0) tid=(2,1,0)
GPGPU-Sim PTX: 13300000 instructions simulated : ctaid=(2,13,0) tid=(13,0,0)
GPGPU-Sim PTX: 13400000 instructions simulated : ctaid=(3,23,0) tid=(1,2,0)
GPGPU-Sim PTX: 13500000 instructions simulated : ctaid=(3,19,0) tid=(0,2,0)
GPGPU-Sim uArch: cycles simulated: 27000  inst.: 12119880 (ipc=448.9) sim_rate=417926 (inst/sec) elapsed = 0:0:00:29 / Tue Mar 22 13:01:11 2016
GPGPU-Sim PTX: 13600000 instructions simulated : ctaid=(3,4,0) tid=(1,1,0)
GPGPU-Sim PTX: 13700000 instructions simulated : ctaid=(0,5,0) tid=(24,2,0)
GPGPU-Sim PTX: 13800000 instructions simulated : ctaid=(0,5,0) tid=(6,1,0)
GPGPU-Sim PTX: 13900000 instructions simulated : ctaid=(1,10,0) tid=(2,2,0)
GPGPU-Sim PTX: 14000000 instructions simulated : ctaid=(0,20,0) tid=(8,0,0)
GPGPU-Sim PTX: 14100000 instructions simulated : ctaid=(1,9,0) tid=(1,2,0)
GPGPU-Sim uArch: cycles simulated: 28000  inst.: 12645994 (ipc=451.6) sim_rate=421533 (inst/sec) elapsed = 0:0:00:30 / Tue Mar 22 13:01:12 2016
GPGPU-Sim PTX: 14200000 instructions simulated : ctaid=(2,2,0) tid=(29,2,0)
GPGPU-Sim PTX: 14300000 instructions simulated : ctaid=(1,0,0) tid=(28,0,0)
GPGPU-Sim PTX: 14400000 instructions simulated : ctaid=(2,20,0) tid=(6,2,0)
GPGPU-Sim PTX: 14500000 instructions simulated : ctaid=(1,23,0) tid=(24,2,0)
GPGPU-Sim PTX: 14600000 instructions simulated : ctaid=(1,10,0) tid=(4,3,0)
GPGPU-Sim PTX: 14700000 instructions simulated : ctaid=(1,1,0) tid=(1,2,0)
GPGPU-Sim uArch: cycles simulated: 29000  inst.: 13181744 (ipc=454.5) sim_rate=425217 (inst/sec) elapsed = 0:0:00:31 / Tue Mar 22 13:01:13 2016
GPGPU-Sim PTX: 14800000 instructions simulated : ctaid=(0,15,0) tid=(15,2,0)
GPGPU-Sim PTX: 14900000 instructions simulated : ctaid=(1,4,0) tid=(4,3,0)
GPGPU-Sim PTX: 15000000 instructions simulated : ctaid=(2,17,0) tid=(28,2,0)
GPGPU-Sim PTX: 15100000 instructions simulated : ctaid=(2,10,0) tid=(9,0,0)
GPGPU-Sim PTX: 15200000 instructions simulated : ctaid=(1,13,0) tid=(11,3,0)
GPGPU-Sim PTX: 15300000 instructions simulated : ctaid=(1,12,0) tid=(10,0,0)
GPGPU-Sim uArch: cycles simulated: 30000  inst.: 13687172 (ipc=456.2) sim_rate=427724 (inst/sec) elapsed = 0:0:00:32 / Tue Mar 22 13:01:14 2016
GPGPU-Sim PTX: 15400000 instructions simulated : ctaid=(0,4,0) tid=(14,2,0)
GPGPU-Sim PTX: 15500000 instructions simulated : ctaid=(1,9,0) tid=(25,1,0)
GPGPU-Sim PTX: 15600000 instructions simulated : ctaid=(2,19,0) tid=(3,3,0)
GPGPU-Sim uArch: cycles simulated: 30500  inst.: 13961305 (ipc=457.7) sim_rate=423069 (inst/sec) elapsed = 0:0:00:33 / Tue Mar 22 13:01:15 2016
GPGPU-Sim PTX: 15700000 instructions simulated : ctaid=(1,1,0) tid=(13,1,0)
GPGPU-Sim PTX: 15800000 instructions simulated : ctaid=(2,15,0) tid=(25,1,0)
GPGPU-Sim PTX: 15900000 instructions simulated : ctaid=(3,14,0) tid=(30,0,0)
GPGPU-Sim PTX: 16000000 instructions simulated : ctaid=(2,2,0) tid=(18,1,0)
GPGPU-Sim PTX: 16100000 instructions simulated : ctaid=(1,4,0) tid=(26,3,0)
GPGPU-Sim PTX: 16200000 instructions simulated : ctaid=(2,12,0) tid=(25,3,0)
GPGPU-Sim uArch: cycles simulated: 31500  inst.: 14484163 (ipc=459.8) sim_rate=426004 (inst/sec) elapsed = 0:0:00:34 / Tue Mar 22 13:01:16 2016
GPGPU-Sim PTX: 16300000 instructions simulated : ctaid=(2,5,0) tid=(22,0,0)
GPGPU-Sim PTX: 16400000 instructions simulated : ctaid=(0,19,0) tid=(29,3,0)
GPGPU-Sim PTX: 16500000 instructions simulated : ctaid=(3,13,0) tid=(28,1,0)
GPGPU-Sim PTX: 16600000 instructions simulated : ctaid=(2,20,0) tid=(17,0,0)
GPGPU-Sim PTX: 16700000 instructions simulated : ctaid=(3,15,0) tid=(25,1,0)
GPGPU-Sim PTX: 16800000 instructions simulated : ctaid=(1,5,0) tid=(24,3,0)
GPGPU-Sim uArch: cycles simulated: 32500  inst.: 15014773 (ipc=462.0) sim_rate=428993 (inst/sec) elapsed = 0:0:00:35 / Tue Mar 22 13:01:17 2016
GPGPU-Sim PTX: 16900000 instructions simulated : ctaid=(2,9,0) tid=(9,0,0)
GPGPU-Sim PTX: 17000000 instructions simulated : ctaid=(1,12,0) tid=(7,0,0)
GPGPU-Sim PTX: 17100000 instructions simulated : ctaid=(0,15,0) tid=(16,0,0)
GPGPU-Sim PTX: 17200000 instructions simulated : ctaid=(0,11,0) tid=(11,2,0)
GPGPU-Sim PTX: 17300000 instructions simulated : ctaid=(1,7,0) tid=(5,2,0)
GPGPU-Sim PTX: 17400000 instructions simulated : ctaid=(1,4,0) tid=(13,1,0)
GPGPU-Sim uArch: cycles simulated: 33500  inst.: 15542503 (ipc=464.0) sim_rate=431736 (inst/sec) elapsed = 0:0:00:36 / Tue Mar 22 13:01:18 2016
GPGPU-Sim PTX: 17500000 instructions simulated : ctaid=(1,21,0) tid=(10,3,0)
GPGPU-Sim PTX: 17600000 instructions simulated : ctaid=(0,9,0) tid=(13,0,0)
GPGPU-Sim PTX: 17700000 instructions simulated : ctaid=(1,8,0) tid=(13,1,0)
GPGPU-Sim PTX: 17800000 instructions simulated : ctaid=(3,6,0) tid=(15,3,0)
GPGPU-Sim PTX: 17900000 instructions simulated : ctaid=(1,10,0) tid=(17,0,0)
GPGPU-Sim PTX: 18000000 instructions simulated : ctaid=(0,7,0) tid=(16,0,0)
GPGPU-Sim uArch: cycles simulated: 34500  inst.: 16076348 (ipc=466.0) sim_rate=434495 (inst/sec) elapsed = 0:0:00:37 / Tue Mar 22 13:01:19 2016
GPGPU-Sim PTX: 18100000 instructions simulated : ctaid=(2,19,0) tid=(10,3,0)
GPGPU-Sim PTX: 18200000 instructions simulated : ctaid=(1,12,0) tid=(10,0,0)
GPGPU-Sim uArch: cycles simulated: 35000  inst.: 16320063 (ipc=466.3) sim_rate=429475 (inst/sec) elapsed = 0:0:00:38 / Tue Mar 22 13:01:20 2016
GPGPU-Sim PTX: 18300000 instructions simulated : ctaid=(1,4,0) tid=(8,1,0)
GPGPU-Sim PTX: 18400000 instructions simulated : ctaid=(0,3,0) tid=(6,0,0)
GPGPU-Sim PTX: 18500000 instructions simulated : ctaid=(2,9,0) tid=(15,2,0)
GPGPU-Sim PTX: 18600000 instructions simulated : ctaid=(1,15,0) tid=(22,3,0)
GPGPU-Sim PTX: 18700000 instructions simulated : ctaid=(1,1,0) tid=(4,2,0)
GPGPU-Sim PTX: 18800000 instructions simulated : ctaid=(0,24,0) tid=(0,0,0)
GPGPU-Sim uArch: cycles simulated: 36000  inst.: 16847770 (ipc=468.0) sim_rate=431994 (inst/sec) elapsed = 0:0:00:39 / Tue Mar 22 13:01:21 2016
GPGPU-Sim PTX: 18900000 instructions simulated : ctaid=(1,11,0) tid=(27,2,0)
GPGPU-Sim PTX: 19000000 instructions simulated : ctaid=(2,21,0) tid=(23,3,0)
GPGPU-Sim PTX: 19100000 instructions simulated : ctaid=(0,14,0) tid=(20,0,0)
GPGPU-Sim PTX: 19200000 instructions simulated : ctaid=(2,5,0) tid=(22,3,0)
GPGPU-Sim PTX: 19300000 instructions simulated : ctaid=(1,14,0) tid=(12,1,0)
GPGPU-Sim PTX: 19400000 instructions simulated : ctaid=(1,22,0) tid=(5,0,0)
GPGPU-Sim uArch: cycles simulated: 37000  inst.: 17354690 (ipc=469.0) sim_rate=433867 (inst/sec) elapsed = 0:0:00:40 / Tue Mar 22 13:01:22 2016
GPGPU-Sim PTX: 19500000 instructions simulated : ctaid=(2,11,0) tid=(9,2,0)
GPGPU-Sim PTX: 19600000 instructions simulated : ctaid=(1,15,0) tid=(31,0,0)
GPGPU-Sim PTX: 19700000 instructions simulated : ctaid=(0,7,0) tid=(7,2,0)
GPGPU-Sim PTX: 19800000 instructions simulated : ctaid=(2,22,0) tid=(5,1,0)
GPGPU-Sim PTX: 19900000 instructions simulated : ctaid=(2,8,0) tid=(7,2,0)
GPGPU-Sim uArch: cycles simulated: 38000  inst.: 17841242 (ipc=469.5) sim_rate=435152 (inst/sec) elapsed = 0:0:00:41 / Tue Mar 22 13:01:23 2016
GPGPU-Sim PTX: 20000000 instructions simulated : ctaid=(0,14,0) tid=(20,1,0)
GPGPU-Sim PTX: 20100000 instructions simulated : ctaid=(1,10,0) tid=(24,3,0)
GPGPU-Sim PTX: 20200000 instructions simulated : ctaid=(2,19,0) tid=(17,1,0)
GPGPU-Sim PTX: 20300000 instructions simulated : ctaid=(1,6,0) tid=(28,1,0)
GPGPU-Sim PTX: 20400000 instructions simulated : ctaid=(3,8,0) tid=(2,3,0)
GPGPU-Sim PTX: 20500000 instructions simulated : ctaid=(1,18,0) tid=(12,3,0)
GPGPU-Sim uArch: cycles simulated: 39000  inst.: 18372526 (ipc=471.1) sim_rate=437441 (inst/sec) elapsed = 0:0:00:42 / Tue Mar 22 13:01:24 2016
GPGPU-Sim PTX: 20600000 instructions simulated : ctaid=(0,12,0) tid=(31,2,0)
GPGPU-Sim PTX: 20700000 instructions simulated : ctaid=(1,17,0) tid=(7,2,0)
GPGPU-Sim PTX: 20800000 instructions simulated : ctaid=(1,5,0) tid=(29,2,0)
GPGPU-Sim uArch: cycles simulated: 39500  inst.: 18604116 (ipc=471.0) sim_rate=432653 (inst/sec) elapsed = 0:0:00:43 / Tue Mar 22 13:01:25 2016
GPGPU-Sim PTX: 20900000 instructions simulated : ctaid=(0,3,0) tid=(4,0,0)
GPGPU-Sim PTX: 21000000 instructions simulated : ctaid=(2,4,0) tid=(12,3,0)
GPGPU-Sim PTX: 21100000 instructions simulated : ctaid=(2,20,0) tid=(20,0,0)
GPGPU-Sim PTX: 21200000 instructions simulated : ctaid=(2,7,0) tid=(30,3,0)
GPGPU-Sim PTX: 21300000 instructions simulated : ctaid=(1,20,0) tid=(0,3,0)
GPGPU-Sim PTX: 21400000 instructions simulated : ctaid=(0,7,0) tid=(3,0,0)
GPGPU-Sim uArch: cycles simulated: 40500  inst.: 19140961 (ipc=472.6) sim_rate=435021 (inst/sec) elapsed = 0:0:00:44 / Tue Mar 22 13:01:26 2016
GPGPU-Sim PTX: 21500000 instructions simulated : ctaid=(2,2,0) tid=(14,0,0)
GPGPU-Sim PTX: 21600000 instructions simulated : ctaid=(0,18,0) tid=(11,0,0)
GPGPU-Sim PTX: 21700000 instructions simulated : ctaid=(1,10,0) tid=(3,1,0)
GPGPU-Sim PTX: 21800000 instructions simulated : ctaid=(0,16,0) tid=(20,0,0)
GPGPU-Sim PTX: 21900000 instructions simulated : ctaid=(0,4,0) tid=(7,3,0)
GPGPU-Sim PTX: 22000000 instructions simulated : ctaid=(1,4,0) tid=(12,1,0)
GPGPU-Sim uArch: cycles simulated: 41500  inst.: 19681512 (ipc=474.3) sim_rate=437366 (inst/sec) elapsed = 0:0:00:45 / Tue Mar 22 13:01:27 2016
GPGPU-Sim PTX: 22100000 instructions simulated : ctaid=(2,14,0) tid=(22,1,0)
GPGPU-Sim PTX: 22200000 instructions simulated : ctaid=(0,18,0) tid=(19,2,0)
GPGPU-Sim PTX: 22300000 instructions simulated : ctaid=(1,9,0) tid=(27,3,0)
GPGPU-Sim PTX: 22400000 instructions simulated : ctaid=(0,18,0) tid=(28,0,0)
GPGPU-Sim PTX: 22500000 instructions simulated : ctaid=(1,16,0) tid=(9,1,0)
GPGPU-Sim PTX: 22600000 instructions simulated : ctaid=(2,4,0) tid=(31,0,0)
GPGPU-Sim uArch: cycles simulated: 42500  inst.: 20193737 (ipc=475.1) sim_rate=438994 (inst/sec) elapsed = 0:0:00:46 / Tue Mar 22 13:01:28 2016
GPGPU-Sim PTX: 22700000 instructions simulated : ctaid=(0,19,0) tid=(5,1,0)
GPGPU-Sim PTX: 22800000 instructions simulated : ctaid=(0,8,0) tid=(1,1,0)
GPGPU-Sim PTX: 22900000 instructions simulated : ctaid=(2,13,0) tid=(2,2,0)
GPGPU-Sim uArch: cycles simulated: 43000  inst.: 20468062 (ipc=476.0) sim_rate=435490 (inst/sec) elapsed = 0:0:00:47 / Tue Mar 22 13:01:29 2016
GPGPU-Sim PTX: 23000000 instructions simulated : ctaid=(1,16,0) tid=(22,2,0)
GPGPU-Sim PTX: 23100000 instructions simulated : ctaid=(1,0,0) tid=(27,0,0)
GPGPU-Sim PTX: 23200000 instructions simulated : ctaid=(1,4,0) tid=(29,1,0)
GPGPU-Sim PTX: 23300000 instructions simulated : ctaid=(0,8,0) tid=(29,0,0)
GPGPU-Sim PTX: 23400000 instructions simulated : ctaid=(1,12,0) tid=(11,0,0)
GPGPU-Sim PTX: 23500000 instructions simulated : ctaid=(2,19,0) tid=(29,3,0)
GPGPU-Sim uArch: cycles simulated: 44000  inst.: 20964726 (ipc=476.5) sim_rate=436765 (inst/sec) elapsed = 0:0:00:48 / Tue Mar 22 13:01:30 2016
GPGPU-Sim PTX: 23600000 instructions simulated : ctaid=(0,23,0) tid=(9,3,0)
GPGPU-Sim PTX: 23700000 instructions simulated : ctaid=(2,5,0) tid=(29,2,0)
GPGPU-Sim PTX: 23800000 instructions simulated : ctaid=(0,9,0) tid=(31,0,0)
GPGPU-Sim PTX: 23900000 instructions simulated : ctaid=(2,10,0) tid=(9,0,0)
GPGPU-Sim PTX: 24000000 instructions simulated : ctaid=(0,14,0) tid=(23,3,0)
GPGPU-Sim PTX: 24100000 instructions simulated : ctaid=(2,22,0) tid=(15,3,0)
GPGPU-Sim uArch: cycles simulated: 45000  inst.: 21522258 (ipc=478.3) sim_rate=439229 (inst/sec) elapsed = 0:0:00:49 / Tue Mar 22 13:01:31 2016
GPGPU-Sim PTX: 24200000 instructions simulated : ctaid=(2,12,0) tid=(0,2,0)
GPGPU-Sim PTX: 24300000 instructions simulated : ctaid=(0,15,0) tid=(12,1,0)
GPGPU-Sim PTX: 24400000 instructions simulated : ctaid=(2,18,0) tid=(9,3,0)
GPGPU-Sim PTX: 24500000 instructions simulated : ctaid=(3,21,0) tid=(10,0,0)
GPGPU-Sim PTX: 24600000 instructions simulated : ctaid=(0,5,0) tid=(17,0,0)
GPGPU-Sim uArch: cycles simulated: 46000  inst.: 21994968 (ipc=478.2) sim_rate=439899 (inst/sec) elapsed = 0:0:00:50 / Tue Mar 22 13:01:32 2016
GPGPU-Sim PTX: 24700000 instructions simulated : ctaid=(0,6,0) tid=(14,0,0)
GPGPU-Sim PTX: 24800000 instructions simulated : ctaid=(1,14,0) tid=(9,3,0)
GPGPU-Sim PTX: 24900000 instructions simulated : ctaid=(2,8,0) tid=(6,3,0)
GPGPU-Sim PTX: 25000000 instructions simulated : ctaid=(2,15,0) tid=(24,2,0)
GPGPU-Sim PTX: 25100000 instructions simulated : ctaid=(1,8,0) tid=(3,0,0)
GPGPU-Sim PTX: 25200000 instructions simulated : ctaid=(1,24,0) tid=(9,2,0)
GPGPU-Sim uArch: cycles simulated: 47000  inst.: 22526695 (ipc=479.3) sim_rate=441699 (inst/sec) elapsed = 0:0:00:51 / Tue Mar 22 13:01:33 2016
GPGPU-Sim PTX: 25300000 instructions simulated : ctaid=(0,9,0) tid=(2,0,0)
GPGPU-Sim PTX: 25400000 instructions simulated : ctaid=(0,3,0) tid=(11,1,0)
GPGPU-Sim PTX: 25500000 instructions simulated : ctaid=(1,10,0) tid=(6,3,0)
GPGPU-Sim uArch: cycles simulated: 47500  inst.: 22793464 (ipc=479.9) sim_rate=438335 (inst/sec) elapsed = 0:0:00:52 / Tue Mar 22 13:01:34 2016
GPGPU-Sim PTX: 25600000 instructions simulated : ctaid=(3,2,0) tid=(1,0,0)
GPGPU-Sim PTX: 25700000 instructions simulated : ctaid=(2,7,0) tid=(10,1,0)
GPGPU-Sim PTX: 25800000 instructions simulated : ctaid=(2,2,0) tid=(24,0,0)
GPGPU-Sim PTX: 25900000 instructions simulated : ctaid=(0,2,0) tid=(20,0,0)
GPGPU-Sim PTX: 26000000 instructions simulated : ctaid=(1,7,0) tid=(8,0,0)
GPGPU-Sim PTX: 26100000 instructions simulated : ctaid=(0,24,0) tid=(23,0,0)
GPGPU-Sim uArch: cycles simulated: 48500  inst.: 23302338 (ipc=480.5) sim_rate=439666 (inst/sec) elapsed = 0:0:00:53 / Tue Mar 22 13:01:35 2016
GPGPU-Sim PTX: 26200000 instructions simulated : ctaid=(1,12,0) tid=(22,3,0)
GPGPU-Sim PTX: 26300000 instructions simulated : ctaid=(1,1,0) tid=(17,1,0)
GPGPU-Sim PTX: 26400000 instructions simulated : ctaid=(2,24,0) tid=(17,1,0)
GPGPU-Sim PTX: 26500000 instructions simulated : ctaid=(1,12,0) tid=(24,3,0)
GPGPU-Sim PTX: 26600000 instructions simulated : ctaid=(1,21,0) tid=(18,1,0)
GPGPU-Sim PTX: 26700000 instructions simulated : ctaid=(3,21,0) tid=(17,0,0)
GPGPU-Sim uArch: cycles simulated: 49500  inst.: 23843636 (ipc=481.7) sim_rate=441548 (inst/sec) elapsed = 0:0:00:54 / Tue Mar 22 13:01:36 2016
GPGPU-Sim PTX: 26800000 instructions simulated : ctaid=(2,12,0) tid=(6,1,0)
GPGPU-Sim PTX: 26900000 instructions simulated : ctaid=(0,13,0) tid=(16,1,0)
GPGPU-Sim PTX: 27000000 instructions simulated : ctaid=(0,13,0) tid=(17,1,0)
GPGPU-Sim PTX: 27100000 instructions simulated : ctaid=(2,20,0) tid=(3,2,0)
GPGPU-Sim PTX: 27200000 instructions simulated : ctaid=(0,10,0) tid=(2,1,0)
GPGPU-Sim PTX: 27300000 instructions simulated : ctaid=(0,1,0) tid=(12,3,0)
GPGPU-Sim uArch: cycles simulated: 50500  inst.: 24368192 (ipc=482.5) sim_rate=443058 (inst/sec) elapsed = 0:0:00:55 / Tue Mar 22 13:01:37 2016
GPGPU-Sim PTX: 27400000 instructions simulated : ctaid=(1,10,0) tid=(10,3,0)
GPGPU-Sim PTX: 27500000 instructions simulated : ctaid=(0,19,0) tid=(28,1,0)
GPGPU-Sim PTX: 27600000 instructions simulated : ctaid=(0,3,0) tid=(20,0,0)
GPGPU-Sim PTX: 27700000 instructions simulated : ctaid=(1,6,0) tid=(13,0,0)
GPGPU-Sim PTX: 27800000 instructions simulated : ctaid=(0,9,0) tid=(16,0,0)
GPGPU-Sim PTX: 27900000 instructions simulated : ctaid=(0,12,0) tid=(8,0,0)
GPGPU-Sim uArch: cycles simulated: 51500  inst.: 24908712 (ipc=483.7) sim_rate=444798 (inst/sec) elapsed = 0:0:00:56 / Tue Mar 22 13:01:38 2016
GPGPU-Sim PTX: 28000000 instructions simulated : ctaid=(0,10,0) tid=(16,3,0)
GPGPU-Sim PTX: 28100000 instructions simulated : ctaid=(2,12,0) tid=(5,3,0)
GPGPU-Sim PTX: 28200000 instructions simulated : ctaid=(1,19,0) tid=(19,0,0)
GPGPU-Sim uArch: cycles simulated: 52000  inst.: 25152892 (ipc=483.7) sim_rate=441278 (inst/sec) elapsed = 0:0:00:57 / Tue Mar 22 13:01:39 2016
GPGPU-Sim PTX: 28300000 instructions simulated : ctaid=(1,16,0) tid=(11,1,0)
GPGPU-Sim PTX: 28400000 instructions simulated : ctaid=(1,15,0) tid=(17,0,0)
GPGPU-Sim PTX: 28500000 instructions simulated : ctaid=(1,17,0) tid=(13,1,0)
GPGPU-Sim PTX: 28600000 instructions simulated : ctaid=(2,16,0) tid=(19,3,0)
GPGPU-Sim PTX: 28700000 instructions simulated : ctaid=(1,4,0) tid=(1,2,0)
GPGPU-Sim PTX: 28800000 instructions simulated : ctaid=(1,24,0) tid=(29,2,0)
GPGPU-Sim uArch: cycles simulated: 53000  inst.: 25682547 (ipc=484.6) sim_rate=442802 (inst/sec) elapsed = 0:0:00:58 / Tue Mar 22 13:01:40 2016
GPGPU-Sim PTX: 28900000 instructions simulated : ctaid=(0,7,0) tid=(19,0,0)
GPGPU-Sim PTX: 29000000 instructions simulated : ctaid=(0,3,0) tid=(23,3,0)
GPGPU-Sim PTX: 29100000 instructions simulated : ctaid=(0,19,0) tid=(31,3,0)
GPGPU-Sim PTX: 29200000 instructions simulated : ctaid=(2,10,0) tid=(25,1,0)
GPGPU-Sim PTX: 29300000 instructions simulated : ctaid=(0,1,0) tid=(4,3,0)
GPGPU-Sim uArch: cycles simulated: 54000  inst.: 26146680 (ipc=484.2) sim_rate=443164 (inst/sec) elapsed = 0:0:00:59 / Tue Mar 22 13:01:41 2016
GPGPU-Sim PTX: 29400000 instructions simulated : ctaid=(0,0,0) tid=(24,0,0)
GPGPU-Sim PTX: 29500000 instructions simulated : ctaid=(1,6,0) tid=(14,3,0)
GPGPU-Sim PTX: 29600000 instructions simulated : ctaid=(1,14,0) tid=(12,3,0)
GPGPU-Sim PTX: 29700000 instructions simulated : ctaid=(2,5,0) tid=(7,1,0)
GPGPU-Sim PTX: 29800000 instructions simulated : ctaid=(1,18,0) tid=(7,0,0)
GPGPU-Sim PTX: 29900000 instructions simulated : ctaid=(0,0,0) tid=(25,3,0)
GPGPU-Sim uArch: cycles simulated: 55000  inst.: 26677365 (ipc=485.0) sim_rate=444622 (inst/sec) elapsed = 0:0:01:00 / Tue Mar 22 13:01:42 2016
GPGPU-Sim PTX: 30000000 instructions simulated : ctaid=(0,10,0) tid=(26,2,0)
GPGPU-Sim PTX: 30100000 instructions simulated : ctaid=(0,1,0) tid=(21,2,0)
GPGPU-Sim PTX: 30200000 instructions simulated : ctaid=(0,10,0) tid=(13,3,0)
GPGPU-Sim PTX: 30300000 instructions simulated : ctaid=(1,12,0) tid=(11,0,0)
GPGPU-Sim PTX: 30400000 instructions simulated : ctaid=(1,2,0) tid=(0,2,0)
GPGPU-Sim PTX: 30500000 instructions simulated : ctaid=(1,16,0) tid=(11,2,0)
GPGPU-Sim uArch: cycles simulated: 56000  inst.: 27212764 (ipc=485.9) sim_rate=446110 (inst/sec) elapsed = 0:0:01:01 / Tue Mar 22 13:01:43 2016
GPGPU-Sim PTX: 30600000 instructions simulated : ctaid=(0,9,0) tid=(7,1,0)
GPGPU-Sim PTX: 30700000 instructions simulated : ctaid=(2,1,0) tid=(30,1,0)
GPGPU-Sim PTX: 30800000 instructions simulated : ctaid=(1,16,0) tid=(23,2,0)
GPGPU-Sim uArch: cycles simulated: 56500  inst.: 27464560 (ipc=486.1) sim_rate=442976 (inst/sec) elapsed = 0:0:01:02 / Tue Mar 22 13:01:44 2016
GPGPU-Sim PTX: 30900000 instructions simulated : ctaid=(2,4,0) tid=(30,3,0)
GPGPU-Sim PTX: 31000000 instructions simulated : ctaid=(0,4,0) tid=(19,3,0)
GPGPU-Sim PTX: 31100000 instructions simulated : ctaid=(0,5,0) tid=(5,0,0)
GPGPU-Sim PTX: 31200000 instructions simulated : ctaid=(2,7,0) tid=(10,3,0)
GPGPU-Sim PTX: 31300000 instructions simulated : ctaid=(2,3,0) tid=(4,2,0)
GPGPU-Sim PTX: 31400000 instructions simulated : ctaid=(0,6,0) tid=(21,3,0)
GPGPU-Sim uArch: cycles simulated: 57500  inst.: 28000914 (ipc=487.0) sim_rate=444458 (inst/sec) elapsed = 0:0:01:03 / Tue Mar 22 13:01:45 2016
GPGPU-Sim PTX: 31500000 instructions simulated : ctaid=(0,8,0) tid=(13,1,0)
GPGPU-Sim PTX: 31600000 instructions simulated : ctaid=(3,1,0) tid=(2,0,0)
GPGPU-Sim PTX: 31700000 instructions simulated : ctaid=(2,3,0) tid=(7,2,0)
GPGPU-Sim PTX: 31800000 instructions simulated : ctaid=(0,13,0) tid=(23,2,0)
GPGPU-Sim PTX: 31900000 instructions simulated : ctaid=(1,7,0) tid=(19,3,0)
GPGPU-Sim PTX: 32000000 instructions simulated : ctaid=(1,15,0) tid=(29,2,0)
GPGPU-Sim uArch: cycles simulated: 58500  inst.: 28521686 (ipc=487.6) sim_rate=445651 (inst/sec) elapsed = 0:0:01:04 / Tue Mar 22 13:01:46 2016
GPGPU-Sim PTX: 32100000 instructions simulated : ctaid=(0,1,0) tid=(16,0,0)
GPGPU-Sim PTX: 32200000 instructions simulated : ctaid=(2,24,0) tid=(19,0,0)
GPGPU-Sim PTX: 32300000 instructions simulated : ctaid=(1,18,0) tid=(11,3,0)
GPGPU-Sim PTX: 32400000 instructions simulated : ctaid=(1,4,0) tid=(18,1,0)
GPGPU-Sim PTX: 32500000 instructions simulated : ctaid=(1,19,0) tid=(20,0,0)
GPGPU-Sim PTX: 32600000 instructions simulated : ctaid=(0,17,0) tid=(7,3,0)
GPGPU-Sim uArch: cycles simulated: 59500  inst.: 29069268 (ipc=488.6) sim_rate=447219 (inst/sec) elapsed = 0:0:01:05 / Tue Mar 22 13:01:47 2016
GPGPU-Sim PTX: 32700000 instructions simulated : ctaid=(2,1,0) tid=(8,1,0)
GPGPU-Sim PTX: 32800000 instructions simulated : ctaid=(2,1,0) tid=(0,1,0)
GPGPU-Sim PTX: 32900000 instructions simulated : ctaid=(2,10,0) tid=(5,2,0)
GPGPU-Sim uArch: cycles simulated: 60000  inst.: 29312906 (ipc=488.5) sim_rate=444134 (inst/sec) elapsed = 0:0:01:06 / Tue Mar 22 13:01:48 2016
GPGPU-Sim PTX: 33000000 instructions simulated : ctaid=(0,19,0) tid=(8,1,0)
GPGPU-Sim PTX: 33100000 instructions simulated : ctaid=(1,13,0) tid=(28,0,0)
GPGPU-Sim PTX: 33200000 instructions simulated : ctaid=(1,8,0) tid=(30,1,0)
GPGPU-Sim PTX: 33300000 instructions simulated : ctaid=(1,12,0) tid=(31,2,0)
GPGPU-Sim PTX: 33400000 instructions simulated : ctaid=(2,20,0) tid=(15,3,0)
GPGPU-Sim PTX: 33500000 instructions simulated : ctaid=(2,9,0) tid=(21,2,0)
GPGPU-Sim uArch: cycles simulated: 61000  inst.: 29864112 (ipc=489.6) sim_rate=445733 (inst/sec) elapsed = 0:0:01:07 / Tue Mar 22 13:01:49 2016
GPGPU-Sim PTX: 33600000 instructions simulated : ctaid=(0,22,0) tid=(14,0,0)
GPGPU-Sim PTX: 33700000 instructions simulated : ctaid=(0,17,0) tid=(3,2,0)
GPGPU-Sim PTX: 33800000 instructions simulated : ctaid=(2,11,0) tid=(4,2,0)
GPGPU-Sim PTX: 33900000 instructions simulated : ctaid=(2,10,0) tid=(2,0,0)
GPGPU-Sim PTX: 34000000 instructions simulated : ctaid=(0,2,0) tid=(2,3,0)
GPGPU-Sim uArch: cycles simulated: 62000  inst.: 30347760 (ipc=489.5) sim_rate=446290 (inst/sec) elapsed = 0:0:01:08 / Tue Mar 22 13:01:50 2016
GPGPU-Sim PTX: 34100000 instructions simulated : ctaid=(2,22,0) tid=(14,3,0)
GPGPU-Sim PTX: 34200000 instructions simulated : ctaid=(1,7,0) tid=(19,1,0)
GPGPU-Sim PTX: 34300000 instructions simulated : ctaid=(0,5,0) tid=(0,1,0)
GPGPU-Sim PTX: 34400000 instructions simulated : ctaid=(0,13,0) tid=(2,1,0)
GPGPU-Sim PTX: 34500000 instructions simulated : ctaid=(0,11,0) tid=(6,1,0)
GPGPU-Sim PTX: 34600000 instructions simulated : ctaid=(1,23,0) tid=(29,0,0)
GPGPU-Sim uArch: cycles simulated: 63000  inst.: 30878049 (ipc=490.1) sim_rate=447507 (inst/sec) elapsed = 0:0:01:09 / Tue Mar 22 13:01:51 2016
GPGPU-Sim PTX: 34700000 instructions simulated : ctaid=(1,18,0) tid=(3,2,0)
GPGPU-Sim PTX: 34800000 instructions simulated : ctaid=(2,18,0) tid=(9,2,0)
GPGPU-Sim PTX: 34900000 instructions simulated : ctaid=(2,3,0) tid=(3,3,0)
GPGPU-Sim PTX: 35000000 instructions simulated : ctaid=(2,12,0) tid=(18,0,0)
GPGPU-Sim PTX: 35100000 instructions simulated : ctaid=(1,18,0) tid=(29,2,0)
GPGPU-Sim PTX: 35200000 instructions simulated : ctaid=(0,10,0) tid=(2,3,0)
GPGPU-Sim uArch: cycles simulated: 64000  inst.: 31393261 (ipc=490.5) sim_rate=448475 (inst/sec) elapsed = 0:0:01:10 / Tue Mar 22 13:01:52 2016
GPGPU-Sim PTX: 35300000 instructions simulated : ctaid=(3,10,0) tid=(0,2,0)
GPGPU-Sim PTX: 35400000 instructions simulated : ctaid=(2,8,0) tid=(27,0,0)
GPGPU-Sim PTX: 35500000 instructions simulated : ctaid=(2,18,0) tid=(1,2,0)
GPGPU-Sim uArch: cycles simulated: 64500  inst.: 31646302 (ipc=490.6) sim_rate=445722 (inst/sec) elapsed = 0:0:01:11 / Tue Mar 22 13:01:53 2016
GPGPU-Sim PTX: 35600000 instructions simulated : ctaid=(3,24,0) tid=(29,0,0)
GPGPU-Sim PTX: 35700000 instructions simulated : ctaid=(2,2,0) tid=(1,2,0)
GPGPU-Sim PTX: 35800000 instructions simulated : ctaid=(0,7,0) tid=(24,2,0)
GPGPU-Sim PTX: 35900000 instructions simulated : ctaid=(3,22,0) tid=(18,3,0)
GPGPU-Sim PTX: 36000000 instructions simulated : ctaid=(1,11,0) tid=(16,2,0)
GPGPU-Sim PTX: 36100000 instructions simulated : ctaid=(2,3,0) tid=(10,1,0)
GPGPU-Sim uArch: cycles simulated: 65500  inst.: 32180072 (ipc=491.3) sim_rate=446945 (inst/sec) elapsed = 0:0:01:12 / Tue Mar 22 13:01:54 2016
GPGPU-Sim PTX: 36200000 instructions simulated : ctaid=(1,13,0) tid=(12,1,0)
GPGPU-Sim PTX: 36300000 instructions simulated : ctaid=(1,2,0) tid=(26,2,0)
GPGPU-Sim PTX: 36400000 instructions simulated : ctaid=(1,5,0) tid=(13,2,0)
GPGPU-Sim PTX: 36500000 instructions simulated : ctaid=(0,4,0) tid=(12,1,0)
GPGPU-Sim PTX: 36600000 instructions simulated : ctaid=(3,22,0) tid=(1,1,0)
GPGPU-Sim PTX: 36700000 instructions simulated : ctaid=(1,19,0) tid=(17,1,0)
GPGPU-Sim uArch: cycles simulated: 66500  inst.: 32709319 (ipc=491.9) sim_rate=448072 (inst/sec) elapsed = 0:0:01:13 / Tue Mar 22 13:01:55 2016
GPGPU-Sim PTX: 36800000 instructions simulated : ctaid=(2,24,0) tid=(15,2,0)
GPGPU-Sim PTX: 36900000 instructions simulated : ctaid=(0,15,0) tid=(31,0,0)
GPGPU-Sim PTX: 37000000 instructions simulated : ctaid=(0,18,0) tid=(5,0,0)
GPGPU-Sim PTX: 37100000 instructions simulated : ctaid=(1,20,0) tid=(7,2,0)
GPGPU-Sim PTX: 37200000 instructions simulated : ctaid=(1,22,0) tid=(9,0,0)
GPGPU-Sim uArch: cycles simulated: 67500  inst.: 33213079 (ipc=492.0) sim_rate=448825 (inst/sec) elapsed = 0:0:01:14 / Tue Mar 22 13:01:56 2016
GPGPU-Sim PTX: 37300000 instructions simulated : ctaid=(1,19,0) tid=(9,3,0)
GPGPU-Sim PTX: 37400000 instructions simulated : ctaid=(3,2,0) tid=(3,3,0)
GPGPU-Sim PTX: 37500000 instructions simulated : ctaid=(2,14,0) tid=(4,0,0)
GPGPU-Sim uArch: cycles simulated: 68000  inst.: 33483692 (ipc=492.4) sim_rate=446449 (inst/sec) elapsed = 0:0:01:15 / Tue Mar 22 13:01:57 2016
GPGPU-Sim PTX: 37600000 instructions simulated : ctaid=(0,11,0) tid=(17,2,0)
GPGPU-Sim PTX: 37700000 instructions simulated : ctaid=(0,20,0) tid=(5,2,0)
GPGPU-Sim PTX: 37800000 instructions simulated : ctaid=(0,13,0) tid=(29,3,0)
GPGPU-Sim PTX: 37900000 instructions simulated : ctaid=(1,3,0) tid=(30,2,0)
GPGPU-Sim PTX: 38000000 instructions simulated : ctaid=(2,12,0) tid=(15,3,0)
GPGPU-Sim PTX: 38100000 instructions simulated : ctaid=(1,23,0) tid=(13,1,0)
GPGPU-Sim PTX: 38200000 instructions simulated : ctaid=(1,12,0) tid=(27,0,0)
GPGPU-Sim uArch: cycles simulated: 69000  inst.: 34023081 (ipc=493.1) sim_rate=447672 (inst/sec) elapsed = 0:0:01:16 / Tue Mar 22 13:01:58 2016
GPGPU-Sim PTX: 38300000 instructions simulated : ctaid=(0,17,0) tid=(29,2,0)
GPGPU-Sim PTX: 38400000 instructions simulated : ctaid=(2,18,0) tid=(3,2,0)
GPGPU-Sim PTX: 38500000 instructions simulated : ctaid=(1,13,0) tid=(30,2,0)
GPGPU-Sim PTX: 38600000 instructions simulated : ctaid=(0,0,0) tid=(29,2,0)
GPGPU-Sim PTX: 38700000 instructions simulated : ctaid=(2,13,0) tid=(23,2,0)
GPGPU-Sim uArch: cycles simulated: 70000  inst.: 34526305 (ipc=493.2) sim_rate=448393 (inst/sec) elapsed = 0:0:01:17 / Tue Mar 22 13:01:59 2016
GPGPU-Sim PTX: 38800000 instructions simulated : ctaid=(2,21,0) tid=(26,2,0)
GPGPU-Sim PTX: 38900000 instructions simulated : ctaid=(0,20,0) tid=(15,0,0)
GPGPU-Sim PTX: 39000000 instructions simulated : ctaid=(0,6,0) tid=(1,1,0)
GPGPU-Sim PTX: 39100000 instructions simulated : ctaid=(0,21,0) tid=(14,1,0)
GPGPU-Sim PTX: 39200000 instructions simulated : ctaid=(1,3,0) tid=(7,1,0)
GPGPU-Sim PTX: 39300000 instructions simulated : ctaid=(3,17,0) tid=(1,0,0)
GPGPU-Sim uArch: cycles simulated: 71000  inst.: 35042222 (ipc=493.6) sim_rate=449259 (inst/sec) elapsed = 0:0:01:18 / Tue Mar 22 13:02:00 2016
GPGPU-Sim PTX: 39400000 instructions simulated : ctaid=(2,22,0) tid=(10,1,0)
GPGPU-Sim PTX: 39500000 instructions simulated : ctaid=(2,20,0) tid=(29,1,0)
GPGPU-Sim PTX: 39600000 instructions simulated : ctaid=(0,9,0) tid=(29,2,0)
GPGPU-Sim PTX: 39700000 instructions simulated : ctaid=(1,1,0) tid=(1,1,0)
GPGPU-Sim PTX: 39800000 instructions simulated : ctaid=(3,5,0) tid=(0,2,0)
GPGPU-Sim PTX: 39900000 instructions simulated : ctaid=(2,15,0) tid=(7,1,0)
GPGPU-Sim uArch: cycles simulated: 72000  inst.: 35570647 (ipc=494.0) sim_rate=450261 (inst/sec) elapsed = 0:0:01:19 / Tue Mar 22 13:02:01 2016
GPGPU-Sim PTX: 40000000 instructions simulated : ctaid=(0,15,0) tid=(12,1,0)
GPGPU-Sim PTX: 40100000 instructions simulated : ctaid=(1,17,0) tid=(30,2,0)
GPGPU-Sim PTX: 40200000 instructions simulated : ctaid=(2,20,0) tid=(27,3,0)
GPGPU-Sim uArch: cycles simulated: 72500  inst.: 35833447 (ipc=494.3) sim_rate=447918 (inst/sec) elapsed = 0:0:01:20 / Tue Mar 22 13:02:02 2016
GPGPU-Sim PTX: 40300000 instructions simulated : ctaid=(2,3,0) tid=(9,3,0)
GPGPU-Sim PTX: 40400000 instructions simulated : ctaid=(0,7,0) tid=(8,1,0)
GPGPU-Sim PTX: 40500000 instructions simulated : ctaid=(2,20,0) tid=(23,1,0)
GPGPU-Sim PTX: 40600000 instructions simulated : ctaid=(2,10,0) tid=(14,2,0)
GPGPU-Sim PTX: 40700000 instructions simulated : ctaid=(1,9,0) tid=(5,2,0)
GPGPU-Sim PTX: 40800000 instructions simulated : ctaid=(1,7,0) tid=(20,0,0)
GPGPU-Sim uArch: cycles simulated: 73500  inst.: 36337351 (ipc=494.4) sim_rate=448609 (inst/sec) elapsed = 0:0:01:21 / Tue Mar 22 13:02:03 2016
GPGPU-Sim PTX: 40900000 instructions simulated : ctaid=(1,7,0) tid=(29,2,0)
GPGPU-Sim PTX: 41000000 instructions simulated : ctaid=(1,5,0) tid=(7,3,0)
GPGPU-Sim PTX: 41100000 instructions simulated : ctaid=(1,15,0) tid=(15,0,0)
GPGPU-Sim PTX: 41200000 instructions simulated : ctaid=(3,8,0) tid=(27,0,0)
GPGPU-Sim PTX: 41300000 instructions simulated : ctaid=(2,23,0) tid=(4,1,0)
GPGPU-Sim uArch: cycles simulated: 74500  inst.: 36857921 (ipc=494.7) sim_rate=449486 (inst/sec) elapsed = 0:0:01:22 / Tue Mar 22 13:02:04 2016
GPGPU-Sim PTX: 41400000 instructions simulated : ctaid=(1,4,0) tid=(9,1,0)
GPGPU-Sim PTX: 41500000 instructions simulated : ctaid=(1,7,0) tid=(8,2,0)
GPGPU-Sim PTX: 41600000 instructions simulated : ctaid=(1,17,0) tid=(12,1,0)
GPGPU-Sim PTX: 41700000 instructions simulated : ctaid=(1,13,0) tid=(28,1,0)
GPGPU-Sim PTX: 41800000 instructions simulated : ctaid=(2,15,0) tid=(0,2,0)
GPGPU-Sim PTX: 41900000 instructions simulated : ctaid=(1,10,0) tid=(5,0,0)
GPGPU-Sim uArch: cycles simulated: 75500  inst.: 37368834 (ipc=495.0) sim_rate=450226 (inst/sec) elapsed = 0:0:01:23 / Tue Mar 22 13:02:05 2016
GPGPU-Sim PTX: 42000000 instructions simulated : ctaid=(0,13,0) tid=(2,3,0)
GPGPU-Sim PTX: 42100000 instructions simulated : ctaid=(1,11,0) tid=(28,2,0)
GPGPU-Sim PTX: 42200000 instructions simulated : ctaid=(0,7,0) tid=(30,2,0)
GPGPU-Sim PTX: 42300000 instructions simulated : ctaid=(0,15,0) tid=(16,3,0)
GPGPU-Sim PTX: 42400000 instructions simulated : ctaid=(2,8,0) tid=(14,0,0)
GPGPU-Sim PTX: 42500000 instructions simulated : ctaid=(2,18,0) tid=(1,0,0)
GPGPU-Sim uArch: cycles simulated: 76500  inst.: 37871128 (ipc=495.0) sim_rate=450846 (inst/sec) elapsed = 0:0:01:24 / Tue Mar 22 13:02:06 2016
GPGPU-Sim PTX: 42600000 instructions simulated : ctaid=(2,17,0) tid=(31,1,0)
GPGPU-Sim PTX: 42700000 instructions simulated : ctaid=(1,0,0) tid=(8,1,0)
GPGPU-Sim PTX: 42800000 instructions simulated : ctaid=(2,6,0) tid=(21,1,0)
GPGPU-Sim uArch: cycles simulated: 77000  inst.: 38152748 (ipc=495.5) sim_rate=448855 (inst/sec) elapsed = 0:0:01:25 / Tue Mar 22 13:02:07 2016
GPGPU-Sim PTX: 42900000 instructions simulated : ctaid=(0,17,0) tid=(17,3,0)
GPGPU-Sim PTX: 43000000 instructions simulated : ctaid=(2,22,0) tid=(26,2,0)
GPGPU-Sim PTX: 43100000 instructions simulated : ctaid=(0,15,0) tid=(11,2,0)
GPGPU-Sim PTX: 43200000 instructions simulated : ctaid=(2,24,0) tid=(23,0,0)
GPGPU-Sim PTX: 43300000 instructions simulated : ctaid=(0,23,0) tid=(10,3,0)
GPGPU-Sim PTX: 43400000 instructions simulated : ctaid=(0,22,0) tid=(21,1,0)
GPGPU-Sim uArch: cycles simulated: 78000  inst.: 38667976 (ipc=495.7) sim_rate=449627 (inst/sec) elapsed = 0:0:01:26 / Tue Mar 22 13:02:08 2016
GPGPU-Sim PTX: 43500000 instructions simulated : ctaid=(0,14,0) tid=(23,2,0)
GPGPU-Sim PTX: 43600000 instructions simulated : ctaid=(2,14,0) tid=(2,0,0)
GPGPU-Sim PTX: 43700000 instructions simulated : ctaid=(1,1,0) tid=(9,2,0)
GPGPU-Sim PTX: 43800000 instructions simulated : ctaid=(2,13,0) tid=(14,0,0)
GPGPU-Sim PTX: 43900000 instructions simulated : ctaid=(0,21,0) tid=(31,3,0)
GPGPU-Sim PTX: 44000000 instructions simulated : ctaid=(2,3,0) tid=(6,2,0)
GPGPU-Sim uArch: cycles simulated: 79000  inst.: 39204013 (ipc=496.3) sim_rate=450620 (inst/sec) elapsed = 0:0:01:27 / Tue Mar 22 13:02:09 2016
GPGPU-Sim PTX: 44100000 instructions simulated : ctaid=(0,12,0) tid=(11,0,0)
GPGPU-Sim PTX: 44200000 instructions simulated : ctaid=(1,23,0) tid=(14,3,0)
GPGPU-Sim PTX: 44300000 instructions simulated : ctaid=(0,13,0) tid=(30,2,0)
GPGPU-Sim PTX: 44400000 instructions simulated : ctaid=(1,14,0) tid=(25,3,0)
GPGPU-Sim PTX: 44500000 instructions simulated : ctaid=(2,0,0) tid=(11,2,0)
GPGPU-Sim PTX: 44600000 instructions simulated : ctaid=(0,21,0) tid=(11,0,0)
GPGPU-Sim uArch: cycles simulated: 80000  inst.: 39734528 (ipc=496.7) sim_rate=451528 (inst/sec) elapsed = 0:0:01:28 / Tue Mar 22 13:02:10 2016
GPGPU-Sim PTX: 44700000 instructions simulated : ctaid=(2,18,0) tid=(15,3,0)
GPGPU-Sim PTX: 44800000 instructions simulated : ctaid=(0,11,0) tid=(27,3,0)
GPGPU-Sim PTX: 44900000 instructions simulated : ctaid=(3,2,0) tid=(3,1,0)
GPGPU-Sim uArch: cycles simulated: 80500  inst.: 39999643 (ipc=496.9) sim_rate=449434 (inst/sec) elapsed = 0:0:01:29 / Tue Mar 22 13:02:11 2016
GPGPU-Sim PTX: 45000000 instructions simulated : ctaid=(0,21,0) tid=(18,2,0)
GPGPU-Sim PTX: 45100000 instructions simulated : ctaid=(0,2,0) tid=(13,0,0)
GPGPU-Sim PTX: 45200000 instructions simulated : ctaid=(0,4,0) tid=(5,2,0)
GPGPU-Sim PTX: 45300000 instructions simulated : ctaid=(2,8,0) tid=(13,1,0)
GPGPU-Sim PTX: 45400000 instructions simulated : ctaid=(0,5,0) tid=(13,1,0)
GPGPU-Sim PTX: 45500000 instructions simulated : ctaid=(1,21,0) tid=(1,2,0)
GPGPU-Sim uArch: cycles simulated: 81500  inst.: 40515324 (ipc=497.1) sim_rate=450170 (inst/sec) elapsed = 0:0:01:30 / Tue Mar 22 13:02:12 2016
GPGPU-Sim PTX: 45600000 instructions simulated : ctaid=(0,12,0) tid=(4,1,0)
GPGPU-Sim PTX: 45700000 instructions simulated : ctaid=(1,10,0) tid=(1,0,0)
GPGPU-Sim PTX: 45800000 instructions simulated : ctaid=(0,13,0) tid=(29,1,0)
GPGPU-Sim PTX: 45900000 instructions simulated : ctaid=(1,22,0) tid=(28,0,0)
GPGPU-Sim PTX: 46000000 instructions simulated : ctaid=(0,7,0) tid=(0,0,0)
GPGPU-Sim uArch: cycles simulated: 82500  inst.: 41043407 (ipc=497.5) sim_rate=451026 (inst/sec) elapsed = 0:0:01:31 / Tue Mar 22 13:02:13 2016
GPGPU-Sim PTX: 46100000 instructions simulated : ctaid=(0,12,0) tid=(22,0,0)
GPGPU-Sim PTX: 46200000 instructions simulated : ctaid=(0,10,0) tid=(8,1,0)
GPGPU-Sim PTX: 46300000 instructions simulated : ctaid=(1,15,0) tid=(21,0,0)
GPGPU-Sim PTX: 46400000 instructions simulated : ctaid=(1,10,0) tid=(3,0,0)
GPGPU-Sim PTX: 46500000 instructions simulated : ctaid=(1,20,0) tid=(5,2,0)
GPGPU-Sim PTX: 46600000 instructions simulated : ctaid=(0,23,0) tid=(13,1,0)
GPGPU-Sim PTX: 46700000 instructions simulated : ctaid=(3,20,0) tid=(17,1,0)
GPGPU-Sim uArch: cycles simulated: 83500  inst.: 41575615 (ipc=497.9) sim_rate=451908 (inst/sec) elapsed = 0:0:01:32 / Tue Mar 22 13:02:14 2016
GPGPU-Sim PTX: 46800000 instructions simulated : ctaid=(0,19,0) tid=(3,2,0)
GPGPU-Sim PTX: 46900000 instructions simulated : ctaid=(2,9,0) tid=(13,0,0)
GPGPU-Sim PTX: 47000000 instructions simulated : ctaid=(2,13,0) tid=(4,2,0)
GPGPU-Sim PTX: 47100000 instructions simulated : ctaid=(1,13,0) tid=(16,3,0)
GPGPU-Sim PTX: 47200000 instructions simulated : ctaid=(1,12,0) tid=(7,3,0)
GPGPU-Sim uArch: cycles simulated: 84500  inst.: 42089629 (ipc=498.1) sim_rate=452576 (inst/sec) elapsed = 0:0:01:33 / Tue Mar 22 13:02:15 2016
GPGPU-Sim PTX: 47300000 instructions simulated : ctaid=(0,17,0) tid=(10,1,0)
GPGPU-Sim PTX: 47400000 instructions simulated : ctaid=(1,7,0) tid=(7,3,0)
GPGPU-Sim PTX: 47500000 instructions simulated : ctaid=(0,5,0) tid=(22,3,0)
GPGPU-Sim uArch: cycles simulated: 85000  inst.: 42361304 (ipc=498.4) sim_rate=450652 (inst/sec) elapsed = 0:0:01:34 / Tue Mar 22 13:02:16 2016
GPGPU-Sim PTX: 47600000 instructions simulated : ctaid=(3,6,0) tid=(19,2,0)
GPGPU-Sim PTX: 47700000 instructions simulated : ctaid=(1,4,0) tid=(8,0,0)
GPGPU-Sim PTX: 47800000 instructions simulated : ctaid=(1,18,0) tid=(25,1,0)
GPGPU-Sim PTX: 47900000 instructions simulated : ctaid=(2,0,0) tid=(28,1,0)
[...]
maxmrqlatency = 549 
maxdqlatency = 0 
maxmflatency = 1266 
averagemflatency = 266 
max_icnt2mem_latency = 587 
max_icnt2sh_latency = 163183 
mrq_lat_table:50290 	3598 	3900 	9457 	23837 	21830 	11205 	2063 	213 	3 	0 	0 	0 	0 	0 	0 	0 	0 	0 	0 	0 	0 	0 	0 	0 	0 	0 	0 	0 	0 	0 	0 	
dq_lat_table:0 	0 	0 	0 	0 	0 	0 	0 	0 	0 	0 	0 	0 	0 	0 	0 	0 	0 	0 	0 	0 	0 	0 	0 	0 	0 	0 	0 	0 	0 	0 	0 	
mf_lat_table:0 	0 	0 	0 	0 	0 	0 	74224 	100829 	2352 	131 	0 	0 	0 	0 	0 	0 	0 	0 	0 	0 	0 	0 	0 	0 	0 	0 	0 	0 	0 	0 	0 	
icnt2mem_lat_table:0 	0 	0 	112274 	49896 	11955 	2474 	807 	339 	1 	0 	0 	0 	0 	0 	0 	0 	0 	0 	0 	0 	0 	0 	0 	
icnt2sh_lat_table:0 	0 	0 	20385 	64967 	25192 	741 	1 	0 	0 	0 	0 	1302 	3684 	7710 	15658 	31534 	6362 	0 	0 	0 	0 	0 	0 	
mf_lat_pw_table:0 	0 	0 	0 	0 	0 	0 	150 	173 	2 	0 	0 	0 	0 	0 	0 	0 	0 	0 	0 	0 	0 	0 	0 	0 	0 	0 	0 	0 	0 	0 	0 	
maximum concurrent accesses to same row:
dram[0]:        26        18        17        22        20        23        32        32        68        69        41        41        29        25        38        15 
dram[1]:        32        19        20        33        14        25        32        32        63        64        36        22        32        25        24        21 
dram[2]:        24        17        22        20        17        25        32        32        66        70        32        30        26        22        31        24 
dram[3]:        20        22        33        19        22        20        32        32        57        73        45        21        22        23        28        25 
dram[4]:        23        21        25        29        35        20        32        32        64        69        48        29        29        21        25        33 
dram[5]:        34        25        26        22        29        21        32        32        69        71        40        33        27        27        26        22 
maximum service time to same row:
dram[0]:     11053     10697     13647     13566     13637     13607     15543     15368     11500     11450     10569     10933     10487     10306     10293     10766 
dram[1]:     11069     11735     13719     13616     13662     13622     15369     15659     11309     11570     10492     10950     10270     10365     10668     10466 
dram[2]:     11064     12160     13721     13604     13659     13622     14672     15253     11373     12363     10456     10975     10399     10374     10607     10302 
dram[3]:     10694     12324     13650     13588     13658     13569     15391     15412     11439     11726     10988     10446     10138     10386     10739     10794 
dram[4]:     10212     12297     13644     13629     13658     13499     15667     15370     11377     11566     10889     10412     10274     10192     10738     10485 
dram[5]:     10175     12303     13591     13625     12993     12995     15435     15386     11618     11455     10894     10546     10414     10237     10360     10282 
average row accesses per activate:
dram[0]:  2.919463  2.870246  2.737844  2.933941  2.873614  2.922222  2.891540  3.038813  3.057650  3.019565  3.000000  3.086046  2.858079  3.068884  2.956720  2.988506 
dram[1]:  2.924107  2.887892  3.042553  2.967890  2.878319  2.981735  3.045662  2.894273  3.080178  3.162528  3.027335  2.925110  2.961187  3.039813  2.894855  3.053864 
dram[2]:  2.970454  2.972477  2.823009  2.956818  2.941043  2.861538  2.964444  2.970852  3.170507  3.237327  2.993319  2.892544  2.970252  2.938636  2.881960  2.970320 
dram[3]:  2.908278  2.907658  2.889888  2.889625  3.085106  2.865639  2.781053  2.882609  3.089888  3.130631  3.054795  2.777778  2.936364  2.968109  3.030588  2.859031 
dram[4]:  2.993056  2.863436  2.898190  2.742138  3.109264  2.769723  2.950673  3.069444  3.086860  3.099778  2.940919  2.765690  2.901124  2.893333  2.986175  3.042253 
dram[5]:  3.080952  2.927602  2.958525  2.853070  2.934978  2.760593  2.930958  2.837259  3.145455  3.184932  2.995506  2.920879  2.845475  2.921700  3.041958  2.888641 
average row locality = 126396/42771 = 2.955180
number of total memory accesses made:
dram[0]:         0         0         0         0         0         0         0         0         0         0         0         0         0         0         0         0 
dram[1]:         0         0         0         0         0         0         0         0         0         0         0         0         0         0         0         0 
dram[2]:         0         0         0         0         0         0         0         0         0         0         0         0         0         0         0         0 
dram[3]:         0         0         0         0         0         0         0         0         0         0         0         0         0         0         0         0 
dram[4]:         0         0         0         0         0         0         0         0         0         0         0         0         0         0         0         0 
dram[5]:         0         0         0         0         0         0         0         0         0         0         0         0         0         0         0         0 
total accesses: 0
min_bank_accesses = 0!
min_chip_accesses = 0!
number of total read accesses:
dram[0]:       647       643       645       643       650       654       674       677       676       676       660       660       649       643       647       642 
dram[1]:       645       645       642       646       654       652       674       673       676       676       655       660       644       647       642       646 
dram[2]:       644       647       640       647       650       656       673       676       674       677       658       659       647       642       641       646 
dram[3]:       642       646       642       644       652       657       673       677       672       677       654       663       642       647       641       646 
dram[4]:       642       649       640       647       651       656       673       675       674       677       660       658       643       646       641       647 
dram[5]:       644       646       642       645       652       657       672       676       673       680       657       663       642       643       643       646 
total reads: 62875
bank skew: 680/640 = 1.06
chip skew: 10486/10475 = 1.00
number of total write accesses:
dram[0]:       658       640       650       645       646       661       659       654       703       713       681       667       660       649       651       658 
dram[1]:       665       643       645       648       647       654       660       641       707       725       674       668       653       651       652       658 
dram[2]:       663       649       636       654       647       646       661       649       702       728       686       660       651       651       653       655 
dram[3]:       658       645       644       665       653       644       648       649       703       713       684       662       650       656       647       652 
dram[4]:       651       651       641       661       658       643       643       651       712       721       684       664       648       656       655       649 
dram[5]:       650       648       642       656       657       646       644       649       711       715       676       666       647       663       662       651 
total reads: 63521
bank skew: 728/636 = 1.14
chip skew: 10595/10573 = 1.00
average mf latency per bank:
dram[0]:        365       364       358       361       362       366       377       379       383       393       365       382       371       380       367       371
dram[1]:        361       366       370       369       358       376       379       385       393       395       370       375       365       378       367       380
dram[2]:        373       371       372       358       360       371       384       382       395       393       378       370       371       369       373       370
dram[3]:        372       367       373       359       372       369       381       374       390       398       377       363       366       374       375       366
dram[4]:        371       359       383       362       381       369       384       376       385       391       387       363       370       361       377       372
dram[5]:        369       362       373       371       371       373       388       380       388       382       381       373       387       364       372       363
maximum mf latency per bank:
dram[0]:        599       642       488       593       557       589       596       587      1047      1087       869       839       667       668       646       566
dram[1]:        681       529       676       720       523       669       712       653      1067      1120       685       718       697       648       552       646
dram[2]:        596       622       635       617       525       610       552       537      1102      1216       769       665       759       604       649       664
dram[3]:        644       583       597       621       577       632       582       556      1210      1193       867       618       608       617       664       716
dram[4]:        625       546       634       627       789       554       627       535      1027      1266       843       705       756       585       637       756
dram[5]:        648       676       630       630       604       600       752       561      1040      1091       788       749       770       561       591       555

Number of Memory Banks Accessed per Memory Operation per Warp (from 0):
0	0	0	0	0	0	0	0	0	0	0	0	0	0	0	0	0	0	0	0	0	0	0	0	0	0	0	0	0	0	0	0	0	0	0	0	0	0	0	0	0	0	0	0	0	0	0	0	0	0	0	0	0	0	0	0	0	0	0	0	0	0	0	0	0	0	0	0	0	0	0	0	0	0	0	0	0	0	0	0	0	0	0	0	0	0	0	0	0	0	0	0	0	0	0	0	
Average # of Memory Banks Accessed per Memory Operation per Warp=-nan

position of mrq chosen
0	0	0	0	0	0	0	0	0	0	0	0	0	0	0	0	

average position of mrq chosen = -nan
Memory Partition 0: 
Cache L2_bank_000:
MSHR contents

Cache L2_bank_001:
MSHR contents

In Dram Latency Queue (total = 0): 
DRAM[0]: 16 bks, busW=4 BL=8 CL=12, tRRD=2 tCCD=6, tRCD=12 tRAS=28 tRP=12 tRC=40
n_cmd=215402 n_nop=164175 n_act=7147 n_pre=7131 n_req=21081 n_rd=20972 n_write=15977 bw_util=0.3431
n_activity=188814 dram_eff=0.3914
bk0: 1294a 183456i bk1: 1286a 183594i bk2: 1290a 183117i bk3: 1286a 183440i bk4: 1300a 183720i bk5: 1308a 183390i bk6: 1348a 182671i bk7: 1354a 182630i bk8: 1352a 181750i bk9: 1352a 181836i bk10: 1320a 182709i bk11: 1320a 182912i bk12: 1298a 182735i bk13: 1286a 183995i bk14: 1294a 182762i bk15: 1284a 181989i 
dram_util_bins: 0 0 0 0 0 0 0 0 0 0
dram_eff_bins: 0 0 0 0 0 0 0 0 0 0
mrqq: max=16 avg=2.96054
Memory Partition 1: 
Cache L2_bank_002:
MSHR contents

Cache L2_bank_003:
MSHR contents

In Dram Latency Queue (total = 0): 
DRAM[1]: 16 bks, busW=4 BL=8 CL=12, tRRD=2 tCCD=6, tRCD=12 tRAS=28 tRP=12 tRC=40
n_cmd=215402 n_nop=164365 n_act=7059 n_pre=7043 n_req=21068 n_rd=20954 n_write=15981 bw_util=0.3429
n_activity=187853 dram_eff=0.3932
bk0: 1290a 183819i bk1: 1290a 183224i bk2: 1284a 183194i bk3: 1292a 182960i bk4: 1308a 182564i bk5: 1304a 183558i bk6: 1348a 182624i bk7: 1346a 182293i bk8: 1352a 181990i bk9: 1352a 181447i bk10: 1310a 183052i bk11: 1320a 182317i bk12: 1288a 183143i bk13: 1294a 183536i bk14: 1284a 183211i bk15: 1292a 182674i 
dram_util_bins: 0 0 0 0 0 0 0 0 0 0
dram_eff_bins: 0 0 0 0 0 0 0 0 0 0
mrqq: max=16 avg=3.03756
Memory Partition 2: 
Cache L2_bank_004:
MSHR contents

Cache L2_bank_005:
MSHR contents

In Dram Latency Queue (total = 0): 
DRAM[2]: 16 bks, busW=4 BL=8 CL=12, tRRD=2 tCCD=6, tRCD=12 tRAS=28 tRP=12 tRC=40
n_cmd=215402 n_nop=164278 n_act=7097 n_pre=7081 n_req=21068 n_rd=20954 n_write=15992 bw_util=0.343
n_activity=187810 dram_eff=0.3934
bk0: 1288a 183658i bk1: 1294a 183139i bk2: 1280a 183774i bk3: 1294a 183896i bk4: 1300a 183261i bk5: 1312a 182634i bk6: 1346a 183355i bk7: 1352a 183451i bk8: 1348a 182418i bk9: 1354a 182185i bk10: 1316a 183034i bk11: 1318a 181909i bk12: 1294a 182636i bk13: 1284a 182060i bk14: 1282a 182989i bk15: 1292a 182112i 
dram_util_bins: 0 0 0 0 0 0 0 0 0 0
dram_eff_bins: 0 0 0 0 0 0 0 0 0 0
mrqq: max=16 avg=3.0519
Memory Partition 3: 
Cache L2_bank_006:
MSHR contents

Cache L2_bank_007:
MSHR contents
MSHR: tag=0x807a0580, atomic=0 1 entries : 0x7f77f4db1e60 :  mf: uid=2246972, sid03:w24, part=3, addr=0x807a0580, load , size=128, unknown  status = IN_PARTITION_DRAM (163181), 

In Dram Latency Queue (total = 0): 
DRAM[3]: 16 bks, busW=4 BL=8 CL=12, tRRD=2 tCCD=6, tRCD=12 tRAS=28 tRP=12 tRC=40
n_cmd=215402 n_nop=164190 n_act=7163 n_pre=7147 n_req=21048 n_rd=20950 n_write=15952 bw_util=0.3426
n_activity=187473 dram_eff=0.3937
bk0: 1284a 183260i bk1: 1292a 182976i bk2: 1284a 184327i bk3: 1288a 182592i bk4: 1304a 184106i bk5: 1314a 181908i bk6: 1346a 181960i bk7: 1354a 181878i bk8: 1344a 182608i bk9: 1354a 180755i bk10: 1308a 182821i bk11: 1326a 182201i bk12: 1284a 182535i bk13: 1294a 181967i bk14: 1282a 183415i bk15: 1292a 182471i 
dram_util_bins: 0 0 0 0 0 0 0 0 0 0
dram_eff_bins: 0 0 0 0 0 0 0 0 0 0
mrqq: max=16 avg=3.08227
Memory Partition 4: 
Cache L2_bank_008:
MSHR contents

Cache L2_bank_009:
MSHR contents

In Dram Latency Queue (total = 0): 
DRAM[4]: 16 bks, busW=4 BL=8 CL=12, tRRD=2 tCCD=6, tRCD=12 tRAS=28 tRP=12 tRC=40
n_cmd=215402 n_nop=164173 n_act=7163 n_pre=7147 n_req=21067 n_rd=20958 n_write=15961 bw_util=0.3428
n_activity=187223 dram_eff=0.3944
bk0: 1284a 183853i bk1: 1298a 183512i bk2: 1280a 182984i bk3: 1294a 182470i bk4: 1302a 183686i bk5: 1312a 182920i bk6: 1346a 183264i bk7: 1350a 182657i bk8: 1348a 182117i bk9: 1354a 181393i bk10: 1320a 182102i bk11: 1316a 181665i bk12: 1286a 182489i bk13: 1292a 182640i bk14: 1282a 181998i bk15: 1294a 183534i 
dram_util_bins: 0 0 0 0 0 0 0 0 0 0
dram_eff_bins: 0 0 0 0 0 0 0 0 0 0
mrqq: max=16 avg=3.08249
Memory Partition 5: 
Cache L2_bank_010:
MSHR contents

Cache L2_bank_011:
MSHR contents

In Dram Latency Queue (total = 0): 
DRAM[5]: 16 bks, busW=4 BL=8 CL=12, tRRD=2 tCCD=6, tRCD=12 tRAS=28 tRP=12 tRC=40
n_cmd=215402 n_nop=164214 n_act=7142 n_pre=7126 n_req=21064 n_rd=20962 n_write=15958 bw_util=0.3428
n_activity=188263 dram_eff=0.3922
bk0: 1288a 185116i bk1: 1292a 183541i bk2: 1284a 184089i bk3: 1290a 182966i bk4: 1304a 183532i bk5: 1314a 182548i bk6: 1344a 182576i bk7: 1352a 181933i bk8: 1346a 182745i bk9: 1360a 182083i bk10: 1314a 183480i bk11: 1326a 182051i bk12: 1284a 182219i bk13: 1286a 182835i bk14: 1286a 183064i bk15: 1292a 182700i 
dram_util_bins: 0 0 0 0 0 0 0 0 0 0
dram_eff_bins: 0 0 0 0 0 0 0 0 0 0
mrqq: max=16 avg=3.05414

========= L2 cache stats =========
L2_cache_bank[0]: Access = 14843, Miss = 5248, Miss_rate = 0.354, Pending_hits = 3937, Reservation_fails = 999
L2_cache_bank[1]: Access = 14821, Miss = 5238, Miss_rate = 0.353, Pending_hits = 4029, Reservation_fails = 711
L2_cache_bank[2]: Access = 14832, Miss = 5232, Miss_rate = 0.353, Pending_hits = 3857, Reservation_fails = 809
L2_cache_bank[3]: Access = 14783, Miss = 5245, Miss_rate = 0.355, Pending_hits = 4008, Reservation_fails = 939
L2_cache_bank[4]: Access = 14841, Miss = 5227, Miss_rate = 0.352, Pending_hits = 3909, Reservation_fails = 524
L2_cache_bank[5]: Access = 14784, Miss = 5250, Miss_rate = 0.355, Pending_hits = 3932, Reservation_fails = 213
L2_cache_bank[6]: Access = 14829, Miss = 5218, Miss_rate = 0.352, Pending_hits = 3893, Reservation_fails = 760
L2_cache_bank[7]: Access = 14784, Miss = 5257, Miss_rate = 0.356, Pending_hits = 3868, Reservation_fails = 631
L2_cache_bank[8]: Access = 14821, Miss = 5224, Miss_rate = 0.352, Pending_hits = 3945, Reservation_fails = 1023
L2_cache_bank[9]: Access = 14786, Miss = 5255, Miss_rate = 0.355, Pending_hits = 3857, Reservation_fails = 457
L2_cache_bank[10]: Access = 14824, Miss = 5225, Miss_rate = 0.352, Pending_hits = 3995, Reservation_fails = 700
L2_cache_bank[11]: Access = 14798, Miss = 5256, Miss_rate = 0.355, Pending_hits = 3897, Reservation_fails = 749
L2_total_cache_accesses = 177746
L2_total_cache_misses = 62875
L2_total_cache_miss_rate = 0.3537
L2_total_cache_pending_hits = 47127
L2_total_cache_reservation_fails = 8515
L2_total_cache_breakdown:
	L2_cache_stats_breakdown[GLOBAL_ACC_R][HIT] = 53700
	L2_cache_stats_breakdown[GLOBAL_ACC_R][HIT_RESERVED] = 26080
	L2_cache_stats_breakdown[GLOBAL_ACC_R][MISS] = 31491
	L2_cache_stats_breakdown[GLOBAL_ACC_R][RESERVATION_FAIL] = 6812
	L2_cache_stats_breakdown[CONST_ACC_R][HIT] = 11
	L2_cache_stats_breakdown[CONST_ACC_R][HIT_RESERVED] = 3
	L2_cache_stats_breakdown[CONST_ACC_R][MISS] = 1
	L2_cache_stats_breakdown[CONST_ACC_R][RESERVATION_FAIL] = 108
	L2_cache_stats_breakdown[GLOBAL_ACC_W][HIT] = 13879
	L2_cache_stats_breakdown[GLOBAL_ACC_W][HIT_RESERVED] = 21002
	L2_cache_stats_breakdown[GLOBAL_ACC_W][MISS] = 31369
	L2_cache_stats_breakdown[GLOBAL_ACC_W][RESERVATION_FAIL] = 282
	L2_cache_stats_breakdown[INST_ACC_R][HIT] = 154
	L2_cache_stats_breakdown[INST_ACC_R][HIT_RESERVED] = 42
	L2_cache_stats_breakdown[INST_ACC_R][MISS] = 14
	L2_cache_stats_breakdown[INST_ACC_R][RESERVATION_FAIL] = 1313
L2_cache_data_port_util = 0.139
L2_cache_fill_port_util = 0.128

icnt_total_pkts_mem_to_simt=623700
icnt_total_pkts_simt_to_mem=337746
LD_mem_lat_dist  0 0 0 0 0 0 0 0 0 0 0 0 0 0 0 0 0 0 0 0 0 0 0 0 0 0 0
ST_mem_lat_dist  0 0 0 0 0 0 0 0 0 0 0 0 0 0 0 0 0 0 0 0 0 0 0 0 0 0 0
----------------------------Interconnect-DETAILS--------------------------------
Class 0:
Packet latency average = 17.5844
	minimum = 6
	maximum = 411
Network latency average = 14.0462
	minimum = 6
	maximum = 388
Slowest packet = 5843
Flit latency average = 12.3829
	minimum = 6
	maximum = 388
Slowest flit = 17181
Fragmentation average = 0.0125797
	minimum = 0
	maximum = 339
Injected packet rate average = 0.0806842
	minimum = 0.0626287 (at node 13)
	maximum = 0.0909587 (at node 15)
Accepted packet rate average = 0.0806842
	minimum = 0.0626287 (at node 13)
	maximum = 0.0909587 (at node 15)
Injected flit rate average = 0.218214
	minimum = 0.116556 (at node 13)
	maximum = 0.3194 (at node 19)
Accepted flit rate average= 0.218214
	minimum = 0.17229 (at node 24)
	maximum = 0.280162 (at node 3)
Injected packet length average = 2.70455
Accepted packet length average = 2.70455
Total in-flight flits = 0 (0 measured)
====== Overall Traffic Statistics ======
====== Traffic class 0 ======
Packet latency average = 17.5844 (1 samples)
	minimum = 6 (1 samples)
	maximum = 411 (1 samples)
Network latency average = 14.0462 (1 samples)
	minimum = 6 (1 samples)
	maximum = 388 (1 samples)
Flit latency average = 12.3829 (1 samples)
	minimum = 6 (1 samples)
	maximum = 388 (1 samples)
Fragmentation average = 0.0125797 (1 samples)
	minimum = 0 (1 samples)
	maximum = 339 (1 samples)
Injected packet rate average = 0.0806842 (1 samples)
	minimum = 0.0626287 (1 samples)
	maximum = 0.0909587 (1 samples)
Accepted packet rate average = 0.0806842 (1 samples)
	minimum = 0.0626287 (1 samples)
	maximum = 0.0909587 (1 samples)
Injected flit rate average = 0.218214 (1 samples)
	minimum = 0.116556 (1 samples)
	maximum = 0.3194 (1 samples)
Accepted flit rate average = 0.218214 (1 samples)
	minimum = 0.17229 (1 samples)
	maximum = 0.280162 (1 samples)
Injected packet size average = 2.70455 (1 samples)
Accepted packet size average = 2.70455 (1 samples)
Hops average = 1 (1 samples)
----------------------------END-of-Interconnect-DETAILS-------------------------
GPGPU-Sim API: Stream Manager State


gpgpu_simulation_time = 0 days, 0 hrs, 2 min, 40 sec (160 sec)
gpgpu_simulation_rate = 454448 (inst/sec)
gpgpu_simulation_rate = 1019 (cycle/sec)
GPGPU-Sim: detected inactive GPU simulation thread

1x GPU_laplace3d: 158978.437500 (ms) 

Copy u2 to host: 77.987999 (ms) 

1x Gold_laplace3d: 16.886000 (ms) 
 

 rms error = 0.000000 
CUDA_SAFE_CALL( cudaFree(d_u1) );
CUDA_SAFE_CALL( cudaFree(d_u2) );
free(h_u1);
free(h_u2);
free(h_u3);

Press ENTER to exit...
