

        *** GPGPU-Sim Simulator Version 3.2.2  [build 0] ***


GPGPU-Sim PTX: simulation mode 0 (can change with PTX_SIM_MODE_FUNC environment variable:
               1=functional simulation only, 0=detailed performance simulator)
GPGPU-Sim: Configuration options:

-network_mode                           1 # Interconnection network mode
-inter_config_file   config_fermi_islip.icnt # Interconnection network config file
-gpgpu_ptx_use_cuobjdump                    1 # Use cuobjdump to extract ptx and sass from binaries
-gpgpu_experimental_lib_support                    0 # Try to extract code from cuda libraries [Broken because of unknown cudaGetExportTable]
-gpgpu_ptx_convert_to_ptxplus                    0 # Convert SASS (native ISA) to ptxplus and run ptxplus
-gpgpu_ptx_force_max_capability                   20 # Force maximum compute capability
-gpgpu_ptx_inst_debug_to_file                    0 # Dump executed instructions' debug information to file
-gpgpu_ptx_inst_debug_file       inst_debug.txt # Executed instructions' debug output file
-gpgpu_ptx_inst_debug_thread_uid                    1 # Thread UID for executed instructions' debug output
-gpgpu_simd_model                       1 # 1 = post-dominator
-gpgpu_shader_core_pipeline              1536:32 # shader core pipeline config, i.e., {<nthread>:<warpsize>}
-gpgpu_tex_cache:l1  4:128:24,L:R:m:N:L,F:128:4,128:2 # per-shader L1 texture cache  (READ-ONLY) config  {<nsets>:<bsize>:<assoc>,<rep>:<wr>:<alloc>:<wr_alloc>,<mshr>:<N>:<merge>,<mq>:<rf>}
-gpgpu_const_cache:l1 64:64:2,L:R:f:N:L,A:2:32,4 # per-shader L1 constant memory cache  (READ-ONLY) config  {<nsets>:<bsize>:<assoc>,<rep>:<wr>:<alloc>:<wr_alloc>,<mshr>:<N>:<merge>,<mq>} 
-gpgpu_cache:il1     4:128:4,L:R:f:N:L,A:2:32,4 # shader L1 instruction cache config  {<nsets>:<bsize>:<assoc>,<rep>:<wr>:<alloc>:<wr_alloc>,<mshr>:<N>:<merge>,<mq>} 
-gpgpu_cache:dl1     32:128:4,L:L:m:N:H,A:32:8,8:2,0,1:0:1:1:0:1,1:4:8:16:32:64,/sciclone/data10/hwang07/GPU_RESEARCH/swl/swl_outputs/RESULTS/swl16/ # per-shader L1 data cache config  {<nsets>:<bsize>:<assoc>,<rep>:<wr>:<alloc>:<wr_alloc>,<mshr>:<N>:<merge>,<mq> | none}
-gpgpu_cache:dl1PrefL1                 none # per-shader L1 data cache config  {<nsets>:<bsize>:<assoc>,<rep>:<wr>:<alloc>:<wr_alloc>,<mshr>:<N>:<merge>,<mq> | none}
-gpgpu_cache:dl1PreShared                 none # per-shader L1 data cache config  {<nsets>:<bsize>:<assoc>,<rep>:<wr>:<alloc>:<wr_alloc>,<mshr>:<N>:<merge>,<mq> | none}
-gmem_skip_L1D                          0 # global memory access skip L1D cache (implements -Xptxas -dlcm=cg, default=no skip)
-gpgpu_perfect_mem                      0 # enable perfect memory mode (no cache miss)
-n_regfile_gating_group                    4 # group of lanes that should be read/written together)
-gpgpu_clock_gated_reg_file                    0 # enable clock gated reg file for power calculations
-gpgpu_clock_gated_lanes                    0 # enable clock gated lanes for power calculations
-gpgpu_shader_registers                32768 # Number of registers per shader core. Limits number of concurrent CTAs. (default 8192)
-gpgpu_shader_cta                       8 # Maximum number of concurrent CTAs in shader (default 8)
-gpgpu_num_cta_barriers                   16 # Maximum number of named barriers per CTA (default 16)
-gpgpu_n_clusters                      15 # number of processing clusters
-gpgpu_n_cores_per_cluster                    1 # number of simd cores per cluster
-gpgpu_n_cluster_ejection_buffer_size                    8 # number of packets in ejection buffer
-gpgpu_n_ldst_response_buffer_size                    2 # number of response packets in ld/st unit ejection buffer
-gpgpu_shmem_size                   16384 # Size of shared memory per shader core (default 16kB)
-gpgpu_shmem_size                   49152 # Size of shared memory per shader core (default 16kB)
-gpgpu_shmem_size_PrefL1                16384 # Size of shared memory per shader core (default 16kB)
-gpgpu_shmem_size_PrefShared                16384 # Size of shared memory per shader core (default 16kB)
-gpgpu_shmem_num_banks                   32 # Number of banks in the shared memory in each shader core (default 16)
-gpgpu_shmem_limited_broadcast                    0 # Limit shared memory to do one broadcast per cycle (default on)
-gpgpu_shmem_warp_parts                    1 # Number of portions a warp is divided into for shared memory bank conflict check 
-gpgpu_warpdistro_shader                   -1 # Specify which shader core to collect the warp size distribution from
-gpgpu_warp_issue_shader                    0 # Specify which shader core to collect the warp issue distribution from
-gpgpu_local_mem_map                    1 # Mapping from local memory space address to simulated GPU physical address space (default = enabled)
-gpgpu_num_reg_banks                   16 # Number of register banks (default = 8)
-gpgpu_reg_bank_use_warp_id                    0 # Use warp ID in mapping registers to banks (default = off)
-gpgpu_operand_collector_num_units_sp                    6 # number of collector units (default = 4)
-gpgpu_operand_collector_num_units_sfu                    8 # number of collector units (default = 4)
-gpgpu_operand_collector_num_units_mem                    2 # number of collector units (default = 2)
-gpgpu_operand_collector_num_units_gen                    0 # number of collector units (default = 0)
-gpgpu_operand_collector_num_in_ports_sp                    2 # number of collector unit in ports (default = 1)
-gpgpu_operand_collector_num_in_ports_sfu                    1 # number of collector unit in ports (default = 1)
-gpgpu_operand_collector_num_in_ports_mem                    1 # number of collector unit in ports (default = 1)
-gpgpu_operand_collector_num_in_ports_gen                    0 # number of collector unit in ports (default = 0)
-gpgpu_operand_collector_num_out_ports_sp                    2 # number of collector unit in ports (default = 1)
-gpgpu_operand_collector_num_out_ports_sfu                    1 # number of collector unit in ports (default = 1)
-gpgpu_operand_collector_num_out_ports_mem                    1 # number of collector unit in ports (default = 1)
-gpgpu_operand_collector_num_out_ports_gen                    0 # number of collector unit in ports (default = 0)
-gpgpu_coalesce_arch                   13 # Coalescing arch (default = 13, anything else is off for now)
-gpgpu_num_sched_per_core                    2 # Number of warp schedulers per core
-gpgpu_max_insn_issue_per_warp                    1 # Max number of instructions that can be issued per warp in one cycle by scheduler
-gpgpu_simt_core_sim_order                    1 # Select the simulation order of cores in a cluster (0=Fix, 1=Round-Robin)
-gpgpu_pipeline_widths        2,1,1,2,1,1,2 # Pipeline widths ID_OC_SP,ID_OC_SFU,ID_OC_MEM,OC_EX_SP,OC_EX_SFU,OC_EX_MEM,EX_WB
-gpgpu_num_sp_units                     2 # Number of SP units (default=1)
-gpgpu_num_sfu_units                    1 # Number of SF units (default=1)
-gpgpu_num_mem_units                    1 # Number if ldst units (default=1) WARNING: not hooked up to anything
-gpgpu_scheduler       warp_limiting:2:16 # Scheduler configuration: < lrr | gto | two_level_active > If two_level_active:<num_active_warps>:<inner_prioritization>:<outer_prioritization>For complete list of prioritization values see shader.h enum scheduler_prioritization_typeDefault: gto
-gpgpu_dram_scheduler                    1 # 0 = fifo, 1 = FR-FCFS (defaul)
-gpgpu_dram_partition_queues              8:8:8:8 # i2$:$2d:d2$:$2i
-l2_ideal                               0 # Use a ideal L2 cache that always hit
-gpgpu_cache:dl2     64:128:8,L:B:m:W:L,A:32:4,4:0,32 # unified banked L2 data cache config  {<nsets>:<bsize>:<assoc>,<rep>:<wr>:<alloc>:<wr_alloc>,<mshr>:<N>:<merge>,<mq>}
-gpgpu_cache:dl2_texture_only                    0 # L2 cache used for texture only
-gpgpu_n_mem                            6 # number of memory modules (e.g. memory controllers) in gpu
-gpgpu_n_sub_partition_per_mchannel                    2 # number of memory subpartition in each memory module
-gpgpu_n_mem_per_ctrlr                    2 # number of memory chips per memory controller
-gpgpu_memlatency_stat                   14 # track and display latency statistics 0x2 enables MC, 0x4 enables queue logs
-gpgpu_frfcfs_dram_sched_queue_size                   16 # 0 = unlimited (default); # entries per chip
-gpgpu_dram_return_queue_size                  116 # 0 = unlimited (default); # entries per chip
-gpgpu_dram_buswidth                    4 # default = 4 bytes (8 bytes per cycle at DDR)
-gpgpu_dram_burst_length                    8 # Burst length of each DRAM request (default = 4 data bus cycle)
-dram_data_command_freq_ratio                    4 # Frequency ratio between DRAM data bus and command bus (default = 2 times, i.e. DDR)
-gpgpu_dram_timing_opt nbk=16:CCD=2:RRD=6:RCD=12:RAS=28:RP=12:RC=40: CL=12:WL=4:CDLR=5:WR=12:nbkgrp=4:CCDL=3:RTPL=2 # DRAM timing parameters = {nbk:tCCD:tRRD:tRCD:tRAS:tRP:tRC:CL:WL:tCDLR:tWR:nbkgrp:tCCDL:tRTPL}
-rop_latency                          120 # ROP queue latency (default 85)
-dram_latency                         100 # DRAM latency (default 30)
-gpgpu_mem_addr_mapping dramid@8;00000000.00000000.00000000.00000000.0000RRRR.RRRRRRRR.BBBCCCCB.CCSSSSSS # mapping memory address to dram model {dramid@<start bit>;<memory address map>}
-gpgpu_mem_addr_test                    0 # run sweep test to check address mapping for aliased address
-gpgpu_mem_address_mask                    1 # 0 = old addressing mask, 1 = new addressing mask, 2 = new add. mask + flipped bank sel and chip sel bits
-gpuwattch_xml_file  gpuwattch_gtx480.xml # GPUWattch XML file
-power_simulation_enabled                    0 # Turn on power simulator (1=On, 0=Off)
-power_per_cycle_dump                    0 # Dump detailed power output each cycle
-power_trace_enabled                    0 # produce a file for the power trace (1=On, 0=Off)
-power_trace_zlevel                     6 # Compression level of the power trace output log (0=no comp, 9=highest)
-steady_power_levels_enabled                    0 # produce a file for the steady power levels (1=On, 0=Off)
-steady_state_definition                  8:4 # allowed deviation:number of samples
-gpgpu_max_cycle                        0 # terminates gpu simulation early (0 = no limit)
-gpgpu_max_insn                         0 # terminates gpu simulation early (0 = no limit)
-gpgpu_max_cta                          0 # terminates gpu simulation early (0 = no limit)
-gpgpu_runtime_stat                   500 # display runtime statistics such as dram utilization {<freq>:<flag>}
-liveness_message_freq                    1 # Minimum number of seconds between simulation liveness messages (0 = always print)
-gpgpu_flush_l1_cache                    0 # Flush L1 cache at the end of each kernel call
-gpgpu_flush_l2_cache                    0 # Flush L2 cache at the end of each kernel call
-gpgpu_deadlock_detect                    1 # Stop the simulation at deadlock (1=on (default), 0=off)
-gpgpu_ptx_instruction_classification                    0 # if enabled will classify ptx instruction types per kernel (Max 255 kernels now)
-gpgpu_ptx_sim_mode                     0 # Select between Performance (default) or Functional simulation (1)
-gpgpu_clock_domains 700.0:700.0:700.0:924.0 # Clock Domain Frequencies in MhZ {<Core Clock>:<ICNT Clock>:<L2 Clock>:<DRAM Clock>}
-gpgpu_max_concurrent_kernel                    8 # maximum kernels that can run concurrently on GPU
-gpgpu_cflog_interval                    0 # Interval between each snapshot in control flow logger
-visualizer_enabled                     0 # Turn on visualizer output (1=On, 0=Off)
-visualizer_outputfile                 NULL # Specifies the output log file for visualizer
-visualizer_zlevel                      6 # Compression level of the visualizer output log (0=no comp, 9=highest)
-trace_enabled                          0 # Turn on traces
-trace_components                    none # comma seperated list of traces to enable. Complete list found in trace_streams.tup. Default none
-trace_sampling_core                    0 # The core which is printed using CORE_DPRINTF. Default 0
-trace_sampling_memory_partition                   -1 # The memory partition which is printed using MEMPART_DPRINTF. Default -1 (i.e. all)
-enable_ptx_file_line_stats                    1 # Turn on PTX source line statistic profiling. (1 = On)
-ptx_line_stats_filename gpgpu_inst_stats.txt # Output file for PTX source line statistics.
-save_embedded_ptx                      0 # saves ptx files embedded in binary as <n>.ptx
-keep                                   0 # keep intermediate files created by GPGPU-Sim when interfacing with external programs
-gpgpu_ptx_save_converted_ptxplus                    0 # Saved converted ptxplus to a file
-ptx_opcode_latency_int         4,13,4,5,145 # Opcode latencies for integers <ADD,MAX,MUL,MAD,DIV>Default 1,1,19,25,145
-ptx_opcode_latency_fp          4,13,4,5,39 # Opcode latencies for single precision floating points <ADD,MAX,MUL,MAD,DIV>Default 1,1,1,1,30
-ptx_opcode_latency_dp         8,19,8,8,330 # Opcode latencies for double precision floating points <ADD,MAX,MUL,MAD,DIV>Default 8,8,8,8,335
-ptx_opcode_initiation_int            1,2,2,1,8 # Opcode initiation intervals for integers <ADD,MAX,MUL,MAD,DIV>Default 1,1,4,4,32
-ptx_opcode_initiation_fp            1,2,1,1,4 # Opcode initiation intervals for single precision floating points <ADD,MAX,MUL,MAD,DIV>Default 1,1,1,1,5
-ptx_opcode_initiation_dp         8,16,8,8,130 # Opcode initiation intervals for double precision floating points <ADD,MAX,MUL,MAD,DIV>Default 8,8,8,8,130
DRAM Timing Options:
nbk                                    16 # number of banks
CCD                                     2 # column to column delay
RRD                                     6 # minimal delay between activation of rows in different banks
RCD                                    12 # row to column delay
RAS                                    28 # time needed to activate row
RP                                     12 # time needed to precharge (deactivate) row
RC                                     40 # row cycle time
CDLR                                    5 # switching from write to read (changes tWTR)
WR                                     12 # last data-in to row precharge
CL                                     12 # CAS latency
WL                                      4 # Write latency
nbkgrp                                  4 # number of bank groups
CCDL                                    3 # column to column delay between accesses to different bank groups
RTPL                                    2 # read to precharge delay between accesses to different bank groups
Total number of memory sub partition = 12
addr_dec_mask[CHIP]  = 0000000000000000 	high:64 low:0
addr_dec_mask[BK]    = 000000000000e100 	high:16 low:8
addr_dec_mask[ROW]   = 000000000fff0000 	high:28 low:16
addr_dec_mask[COL]   = 0000000000001eff 	high:13 low:0
addr_dec_mask[BURST] = 000000000000003f 	high:6 low:0
sub_partition_id_mask = 0000000000000100
GPGPU-Sim uArch: clock freqs: 700000000.000000:700000000.000000:700000000.000000:924000000.000000
GPGPU-Sim uArch: clock periods: 0.00000000142857142857:0.00000000142857142857:0.00000000142857142857:0.00000000108225108225
*** Initializing Memory Statistics ***
GPGPU-Sim uArch: interconnect node map (shaderID+MemID to icntID)
GPGPU-Sim uArch: Memory nodes ID start from index: 15
GPGPU-Sim uArch:    0   1   2   3   4
GPGPU-Sim uArch:    5   6   7   8   9
GPGPU-Sim uArch:   10  11  12  13  14
GPGPU-Sim uArch:   15  16  17  18  19
GPGPU-Sim uArch:   20  21  22  23  24
GPGPU-Sim uArch:   25  26
GPGPU-Sim uArch: interconnect node reverse map (icntID to shaderID+MemID)
GPGPU-Sim uArch: Memory nodes start from ID: 15
GPGPU-Sim uArch:    0   1   2   3   4
GPGPU-Sim uArch:    5   6   7   8   9
GPGPU-Sim uArch:   10  11  12  13  14
GPGPU-Sim uArch:   15  16  17  18  19
GPGPU-Sim uArch:   20  21  22  23  24
GPGPU-Sim uArch:   25  26
8dee7862928c9d1b3ec95fef27f5cde2  /sciclone/data10/hwang07/adwait/applications/benchmarks/lonestar/bin/sp
GPGPU-Sim uArch: performance model initialization complete.
GPGPU-Sim PTX: __cudaRegisterFatBinary, fat_cubin_handle = 1, filename=apps/sp/./main.cu
self exe links to: /sciclone/data10/hwang07/adwait/applications/benchmarks/lonestar/bin/sp
Running md5sum using "md5sum /sciclone/data10/hwang07/adwait/applications/benchmarks/lonestar/bin/sp "
Parsing file _cuobjdump_complete_output_I1HAdp
######### cuobjdump parser ########
## Adding new section PTX
Adding ptx filename: _cuobjdump_1.ptx
Adding arch: sm_20
Adding identifier: apps/sp/./main.cu
## Adding new section ELF
Adding arch: sm_20
Adding identifier: apps/sp/./main.cu
Done parsing!!!
GPGPU-Sim PTX: __cudaRegisterFunction _Z15dverifyliteralsjjjjjPjS_S_PfPbS0_S1_S1_S0_S0_S0_S_S_ : hostFun 0x0x402580, fat_cubin_handle = 1
GPGPU-Sim PTX: allocating stack frame region for .param "__cudaparmf1__Z11global_syncjPVjS0_" from 0x0 to 0x4
GPGPU-Sim PTX: allocating stack frame region for .param "__cudaparmf2__Z11global_syncjPVjS0_" from 0x4 to 0xc
GPGPU-Sim PTX: allocating stack frame region for .param "__cudaparmf3__Z11global_syncjPVjS0_" from 0xc to 0x14
GPGPU-Sim PTX: allocating stack frame region for .param "__cudaparmf1__ZN5Graph13printStats1x1Ev" from 0x0 to 0x8
GPGPU-Sim PTX: allocating stack frame region for .param "__cudaretf__ZN5Graph13computeLevelsEv" from 0x0 to 0x4
GPGPU-Sim PTX: allocating stack frame region for .param "__cudaparmf1__ZN5Graph13computeLevelsEv" from 0x4 to 0xc
GPGPU-Sim PTX: allocating stack frame region for .param "__cudaparmf1__ZN5Graph10initLevelsEv" from 0x0 to 0x8
GPGPU-Sim PTX: allocating stack frame region for .param "__cudaparmf1__ZN5Graph8print1x1Ev" from 0x0 to 0x8
GPGPU-Sim PTX: allocating stack frame region for .param "__cudaparmf1__ZN14ComponentSpace8print1x1Ev" from 0x0 to 0x8
GPGPU-Sim PTX: allocating stack frame region for .param "__cudaparmf1__ZN5Graph12computeStatsEv" from 0x0 to 0x8
GPGPU-Sim PTX: allocating stack frame region for .param "__cudaretf_printf" from 0x0 to 0x4
GPGPU-Sim PTX: allocating stack frame region for .param "__cudaparmf1_printf" from 0x4 to 0xc
GPGPU-Sim PTX: allocating stack frame region for .param "__cudaretf_vprintf" from 0x0 to 0x4
GPGPU-Sim PTX: allocating stack frame region for .param "__cudaparmf1_vprintf" from 0x4 to 0xc
GPGPU-Sim PTX: allocating stack frame region for .param "__cudaparmf2_vprintf" from 0xc to 0x14
GPGPU-Sim PTX: allocating stack frame region for .param "__cudaretf__ZN5Graph12getOutDegreeEj" from 0x0 to 0x4
GPGPU-Sim PTX: allocating stack frame region for .param "__cudaparmf1__ZN5Graph12getOutDegreeEj" from 0x4 to 0xc
GPGPU-Sim PTX: allocating stack frame region for .param "__cudaparmf2__ZN5Graph12getOutDegreeEj" from 0xc to 0x10
GPGPU-Sim PTX: allocating stack frame region for .param "__cudaretf__ZN5Graph14getDestinationEjj" from 0x0 to 0x4
GPGPU-Sim PTX: allocating stack frame region for .param "__cudaparmf1__ZN5Graph14getDestinationEjj" from 0x4 to 0xc
GPGPU-Sim PTX: allocating stack frame region for .param "__cudaparmf2__ZN5Graph14getDestinationEjj" from 0xc to 0x10
GPGPU-Sim PTX: allocating stack frame region for .param "__cudaparmf3__ZN5Graph14getDestinationEjj" from 0x10 to 0x14
GPGPU-Sim PTX: allocating stack frame region for .param "__cudaretf__ZN5Graph9getWeightEjj" from 0x0 to 0x4
GPGPU-Sim PTX: allocating stack frame region for .param "__cudaparmf1__ZN5Graph9getWeightEjj" from 0x4 to 0xc
GPGPU-Sim PTX: allocating stack frame region for .param "__cudaparmf2__ZN5Graph9getWeightEjj" from 0xc to 0x10
GPGPU-Sim PTX: allocating stack frame region for .param "__cudaparmf3__ZN5Graph9getWeightEjj" from 0x10 to 0x14
GPGPU-Sim PTX: allocating stack frame region for .param "__cudaretf__ZN5Graph11getInDegreeEj" from 0x0 to 0x4
GPGPU-Sim PTX: allocating stack frame region for .param "__cudaparmf1__ZN5Graph11getInDegreeEj" from 0x4 to 0xc
GPGPU-Sim PTX: allocating stack frame region for .param "__cudaparmf2__ZN5Graph11getInDegreeEj" from 0xc to 0x10
GPGPU-Sim PTX: allocating stack frame region for .param "__cudaretf__ZN5Graph12getFirstEdgeEj" from 0x0 to 0x4
GPGPU-Sim PTX: allocating stack frame region for .param "__cudaparmf1__ZN5Graph12getFirstEdgeEj" from 0x4 to 0xc
GPGPU-Sim PTX: allocating stack frame region for .param "__cudaparmf2__ZN5Graph12getFirstEdgeEj" from 0xc to 0x10
GPGPU-Sim PTX: allocating stack frame region for .param "__cudaretf__ZN5Graph10getMinEdgeEj" from 0x0 to 0x4
GPGPU-Sim PTX: allocating stack frame region for .param "__cudaparmf1__ZN5Graph10getMinEdgeEj" from 0x4 to 0xc
GPGPU-Sim PTX: allocating stack frame region for .param "__cudaparmf2__ZN5Graph10getMinEdgeEj" from 0xc to 0x10
GPGPU-Sim PTX: allocating stack frame region for .param "__cudaparmf1__ZN5Graph12computeInOutEv" from 0x0 to 0x8
GPGPU-Sim PTX: allocating stack frame region for .param "__cudaparmf1__ZN5Graph15computeDiameterEv" from 0x0 to 0x8
GPGPU-Sim PTX: allocating stack frame region for .param "__cudaretf__ZN5Graph12findMaxLevelEv" from 0x0 to 0x4
GPGPU-Sim PTX: allocating stack frame region for .param "__cudaparmf1__ZN5Graph12findMaxLevelEv" from 0x4 to 0xc
GPGPU-Sim PTX: allocating stack frame region for .param "__cudaparmf1__ZN4ListC1Ej" from 0x0 to 0x8
GPGPU-Sim PTX: allocating stack frame region for .param "__cudaparmf2__ZN4ListC1Ej" from 0x8 to 0xc
GPGPU-Sim PTX: allocating stack frame region for .param "__cudaretf_malloc" from 0x0 to 0x8
GPGPU-Sim PTX: allocating stack frame region for .param "__cudaparmf1_malloc" from 0x8 to 0x10
GPGPU-Sim PTX: allocating stack frame region for .param "__cudaparmf1__ZN4List4initEPjjj" from 0x0 to 0x8
GPGPU-Sim PTX: allocating stack frame region for .param "__cudaparmf2__ZN4List4initEPjjj" from 0x8 to 0x10
GPGPU-Sim PTX: allocating stack frame region for .param "__cudaparmf3__ZN4List4initEPjjj" from 0x10 to 0x14
GPGPU-Sim PTX: allocating stack frame region for .param "__cudaparmf4__ZN4List4initEPjjj" from 0x14 to 0x18
GPGPU-Sim PTX: allocating stack frame region for .param "__cudaparmf1__ZN4List4pushEj" from 0x0 to 0x8
GPGPU-Sim PTX: allocating stack frame region for .param "__cudaparmf2__ZN4List4pushEj" from 0x8 to 0xc
GPGPU-Sim PTX: allocating stack frame region for .param "__cudaretf__ZN4List7toArrayEv" from 0x0 to 0x8
GPGPU-Sim PTX: allocating stack frame region for .param "__cudaparmf1__ZN4List7toArrayEv" from 0x8 to 0x10
GPGPU-Sim PTX: allocating stack frame region for .param "__cudaparmf1__ZN4List5clearEv" from 0x0 to 0x8
GPGPU-Sim PTX: allocating stack frame region for .param "__cudaparmf1_free" from 0x0 to 0x8
GPGPU-Sim PTX: allocating stack frame region for .param "__cudaretf__ZN4List4sizeEv" from 0x0 to 0x4
GPGPU-Sim PTX: allocating stack frame region for .param "__cudaparmf1__ZN4List4sizeEv" from 0x4 to 0xc
GPGPU-Sim PTX: allocating stack frame region for .param "__cudaparmf1__ZN4List4uniqEPjj" from 0x0 to 0x8
GPGPU-Sim PTX: allocating stack frame region for .param "__cudaparmf2__ZN4List4uniqEPjj" from 0x8 to 0x10
GPGPU-Sim PTX: allocating stack frame region for .param "__cudaparmf3__ZN4List4uniqEPjj" from 0x10 to 0x14
GPGPU-Sim PTX: allocating stack frame region for .param "__cudaretf__ZN14ComponentSpace16numberOfElementsEv" from 0x0 to 0x4
GPGPU-Sim PTX: allocating stack frame region for .param "__cudaparmf1__ZN14ComponentSpace16numberOfElementsEv" from 0x4 to 0xc
GPGPU-Sim PTX: allocating stack frame region for .param "__cudaretf__ZN14ComponentSpace18numberOfComponentsEv" from 0x0 to 0x4
GPGPU-Sim PTX: allocating stack frame region for .param "__cudaparmf1__ZN14ComponentSpace18numberOfComponentsEv" from 0x4 to 0xc
GPGPU-Sim PTX: allocating stack frame region for .param "__cudaretf__ZN14ComponentSpace6isBossEj" from 0x0 to 0x4
GPGPU-Sim PTX: allocating stack frame region for .param "__cudaparmf1__ZN14ComponentSpace6isBossEj" from 0x4 to 0xc
GPGPU-Sim PTX: allocating stack frame region for .param "__cudaparmf2__ZN14ComponentSpace6isBossEj" from 0xc to 0x10
GPGPU-Sim PTX: allocating stack frame region for .param "__cudaretf__ZN14ComponentSpace4findEjb" from 0x0 to 0x4
GPGPU-Sim PTX: allocating stack frame region for .param "__cudaparmf1__ZN14ComponentSpace4findEjb" from 0x4 to 0xc
GPGPU-Sim PTX: allocating stack frame region for .param "__cudaparmf2__ZN14ComponentSpace4findEjb" from 0xc to 0x10
GPGPU-Sim PTX: allocating stack frame region for .param "__cudaparmf3__ZN14ComponentSpace4findEjb" from 0x10 to 0x14
GPGPU-Sim PTX: allocating stack frame region for .param "__cudaretf__ZN14ComponentSpace5unifyEjj" from 0x0 to 0x4
GPGPU-Sim PTX: allocating stack frame region for .param "__cudaparmf1__ZN14ComponentSpace5unifyEjj" from 0x4 to 0xc
GPGPU-Sim PTX: allocating stack frame region for .param "__cudaparmf2__ZN14ComponentSpace5unifyEjj" from 0xc to 0x10
GPGPU-Sim PTX: allocating stack frame region for .param "__cudaparmf3__ZN14ComponentSpace5unifyEjj" from 0x10 to 0x14
GPGPU-Sim PTX: instruction assembly for function '_Z11global_syncjPVjS0_'...   done.
GPGPU-Sim PTX: finding reconvergence points for '_Z11global_syncjPVjS0_'...
GPGPU-Sim PTX: Finding dominators for '_Z11global_syncjPVjS0_'...
GPGPU-Sim PTX: Finding immediate dominators for '_Z11global_syncjPVjS0_'...
GPGPU-Sim PTX: Finding postdominators for '_Z11global_syncjPVjS0_'...
GPGPU-Sim PTX: Finding immediate postdominators for '_Z11global_syncjPVjS0_'...
GPGPU-Sim PTX: pre-decoding instructions for '_Z11global_syncjPVjS0_'...
GPGPU-Sim PTX: reconvergence points for _Z11global_syncjPVjS0_...
GPGPU-Sim PTX:  1 (potential) branch divergence @  PC=0x090 (_1.ptx:144) @!%p1 bra $Lt_0_6146;
GPGPU-Sim PTX:    immediate post dominator      @  PC=0x0c0 (_1.ptx:153) mov.u32 %r14, 0;
GPGPU-Sim PTX:  2 (potential) branch divergence @  PC=0x0d0 (_1.ptx:155) @%p2 bra $Lt_0_6658;
GPGPU-Sim PTX:    immediate post dominator      @  PC=0x178 (_1.ptx:184) @!%p1 bra $Lt_0_9218;
GPGPU-Sim PTX:  3 (potential) branch divergence @  PC=0x0f0 (_1.ptx:159) @!%p3 bra $Lt_0_7170;
GPGPU-Sim PTX:    immediate post dominator      @  PC=0x140 (_1.ptx:173) bar.sync 0;
GPGPU-Sim PTX:  4 (potential) branch divergence @  PC=0x120 (_1.ptx:165) @%p4 bra $Lt_0_7682;
GPGPU-Sim PTX:    immediate post dominator      @  PC=0x140 (_1.ptx:173) bar.sync 0;
GPGPU-Sim PTX:  5 (potential) branch divergence @  PC=0x138 (_1.ptx:169) @%p5 bra $Lt_0_8194;
GPGPU-Sim PTX:    immediate post dominator      @  PC=0x140 (_1.ptx:173) bar.sync 0;
GPGPU-Sim PTX:  6 (potential) branch divergence @  PC=0x148 (_1.ptx:174) @!%p3 bra $Lt_0_8706;
GPGPU-Sim PTX:    immediate post dominator      @  PC=0x178 (_1.ptx:184) @!%p1 bra $Lt_0_9218;
GPGPU-Sim PTX:  7 (potential) branch divergence @  PC=0x178 (_1.ptx:184) @!%p1 bra $Lt_0_9218;
GPGPU-Sim PTX:    immediate post dominator      @  PC=0x1c8 (_1.ptx:198) ret;
GPGPU-Sim PTX:  8 (potential) branch divergence @  PC=0x1a8 (_1.ptx:190) @%p6 bra $Lt_0_9730;
GPGPU-Sim PTX:    immediate post dominator      @  PC=0x1c8 (_1.ptx:198) ret;
GPGPU-Sim PTX:  9 (potential) branch divergence @  PC=0x1c0 (_1.ptx:194) @%p7 bra $Lt_0_10242;
GPGPU-Sim PTX:    immediate post dominator      @  PC=0x1c8 (_1.ptx:198) ret;
GPGPU-Sim PTX: ... end of reconvergence points for _Z11global_syncjPVjS0_
GPGPU-Sim PTX: ... done pre-decoding instructions for '_Z11global_syncjPVjS0_'.
GPGPU-Sim PTX: allocating global region for "__constant866" from 0x100 to 0x11c (global memory space)
GPGPU-Sim PTX: allocating global region for "__constant868" from 0x180 to 0x19c (global memory space)
GPGPU-Sim PTX: allocating global region for "__constant869" from 0x200 to 0x222 (global memory space)
GPGPU-Sim PTX: allocating global region for "__constant870" from 0x280 to 0x2a2 (global memory space)
GPGPU-Sim PTX: allocating global region for "__constant871" from 0x300 to 0x31c (global memory space)
GPGPU-Sim PTX: allocating global region for "__constant878" from 0x380 to 0x3b5 (global memory space)
GPGPU-Sim PTX: allocating global region for "__constant879" from 0x400 to 0x412 (global memory space)
GPGPU-Sim PTX: allocating stack frame region for .local "__cuda___cuda__temp__valist_array_47_40104" from 0x0 to 0x18
GPGPU-Sim PTX: allocating stack frame region for .local "__cuda___cuda__temp__valist_array_41_64128" from 0x80 to 0x94
GPGPU-Sim PTX: allocating stack frame region for .local "__cuda___cuda_local_var_75907_7_non_const_prefix_320" from 0x94 to 0x96
GPGPU-Sim PTX: allocating stack frame region for .param "__cudaparma1_vprintf" from 0x96 to 0x9e
GPGPU-Sim PTX: allocating stack frame region for .param "__cudaparma2_vprintf" from 0x9e to 0xa6
GPGPU-Sim PTX: instruction assembly for function '_Z11dprintstats5Graph'...   done.
GPGPU-Sim PTX: finding reconvergence points for '_Z11dprintstats5Graph'...
GPGPU-Sim PTX: Finding dominators for '_Z11dprintstats5Graph'...
GPGPU-Sim PTX: Finding immediate dominators for '_Z11dprintstats5Graph'...
GPGPU-Sim PTX: Finding postdominators for '_Z11dprintstats5Graph'...
GPGPU-Sim PTX: Finding immediate postdominators for '_Z11dprintstats5Graph'...
GPGPU-Sim PTX: pre-decoding instructions for '_Z11dprintstats5Graph'...
GPGPU-Sim PTX: reconvergence points for _Z11dprintstats5Graph...
GPGPU-Sim PTX:  1 (potential) branch divergence @  PC=0x208 (_1.ptx:232) @!%p1 bra $Lt_1_12034;
GPGPU-Sim PTX:    immediate post dominator      @  PC=0x398 (_1.ptx:299) @!%p1 bra $Lt_1_12290;
GPGPU-Sim PTX:  2 (potential) branch divergence @  PC=0x270 (_1.ptx:248) @%p2 bra $Lt_1_9218;
GPGPU-Sim PTX:    immediate post dominator      @  PC=0x280 (_1.ptx:253) setp.le.u32 %p3, %r3, %r6;
GPGPU-Sim PTX:  3 (potential) branch divergence @  PC=0x288 (_1.ptx:254) @%p3 bra $Lt_1_9730;
GPGPU-Sim PTX:    immediate post dominator      @  PC=0x338 (_1.ptx:282) ld.global.u32 %r17, [%rd3+0];
GPGPU-Sim PTX:  4 (potential) branch divergence @  PC=0x2a8 (_1.ptx:259) bra.uni $LDWendi__ZN5Graph11getInDegreeEj_182_1;
GPGPU-Sim PTX:    immediate post dominator      @  PC=0x338 (_1.ptx:282) ld.global.u32 %r17, [%rd3+0];
GPGPU-Sim PTX:  5 (potential) branch divergence @  PC=0x350 (_1.ptx:285) @%p4 bra $Lt_1_10242;
GPGPU-Sim PTX:    immediate post dominator      @  PC=0x360 (_1.ptx:289) add.u32 %r6, %r6, 1;
GPGPU-Sim PTX:  6 (potential) branch divergence @  PC=0x378 (_1.ptx:292) @%p5 bra $Lt_1_8962;
GPGPU-Sim PTX:    immediate post dominator      @  PC=0x380 (_1.ptx:293) bra.uni $Lt_1_8450;
GPGPU-Sim PTX:  7 (potential) branch divergence @  PC=0x380 (_1.ptx:293) bra.uni $Lt_1_8450;
GPGPU-Sim PTX:    immediate post dominator      @  PC=0x398 (_1.ptx:299) @!%p1 bra $Lt_1_12290;
GPGPU-Sim PTX:  8 (potential) branch divergence @  PC=0x398 (_1.ptx:299) @!%p1 bra $Lt_1_12290;
GPGPU-Sim PTX:    immediate post dominator      @  PC=0x440 (_1.ptx:329) cvta.local.u64 %rd12, __cuda___cuda_local_var_75907_7_non_const_prefix_320;
GPGPU-Sim PTX:  9 (potential) branch divergence @  PC=0x3d8 (_1.ptx:310) @%p6 bra $Lt_1_12546;
GPGPU-Sim PTX:    immediate post dominator      @  PC=0x408 (_1.ptx:319) mov.s32 %r21, %r24;
GPGPU-Sim PTX: 10 (potential) branch divergence @  PC=0x3e8 (_1.ptx:312) @%p7 bra $Lt_1_12546;
GPGPU-Sim PTX:    immediate post dominator      @  PC=0x408 (_1.ptx:319) mov.s32 %r21, %r24;
GPGPU-Sim PTX: 11 (potential) branch divergence @  PC=0x3f8 (_1.ptx:314) bra.uni $L_1_7682;
GPGPU-Sim PTX:    immediate post dominator      @  PC=0x408 (_1.ptx:319) mov.s32 %r21, %r24;
GPGPU-Sim PTX: 12 (potential) branch divergence @  PC=0x428 (_1.ptx:323) @%p8 bra $Lt_1_11522;
GPGPU-Sim PTX:    immediate post dominator      @  PC=0x430 (_1.ptx:324) bra.uni $Lt_1_11010;
GPGPU-Sim PTX: 13 (potential) branch divergence @  PC=0x430 (_1.ptx:324) bra.uni $Lt_1_11010;
GPGPU-Sim PTX:    immediate post dominator      @  PC=0x440 (_1.ptx:329) cvta.local.u64 %rd12, __cuda___cuda_local_var_75907_7_non_const_prefix_320;
GPGPU-Sim PTX: ... end of reconvergence points for _Z11dprintstats5Graph
GPGPU-Sim PTX: ... done pre-decoding instructions for '_Z11dprintstats5Graph'.
GPGPU-Sim PTX: allocating global region for "__constant882" from 0x480 to 0x4be (global memory space)
GPGPU-Sim PTX: allocating global region for "__constant884" from 0x500 to 0x535 (global memory space)
GPGPU-Sim PTX: allocating global region for "__constant887" from 0x580 to 0x59f (global memory space)
GPGPU-Sim PTX: allocating stack frame region for .local "__cuda___cuda__temp__valist_array_55_16264" from 0x0 to 0x18
GPGPU-Sim PTX: allocating stack frame region for .local "__cuda___cuda__temp__valist_array_49_40288" from 0x80 to 0x9c
GPGPU-Sim PTX: allocating stack frame region for .local "__cuda___cuda__temp__valist_array_57_72320" from 0x100 to 0x114
GPGPU-Sim PTX: allocating stack frame region for .param "__cudaparma1_vprintf" from 0x114 to 0x11c
GPGPU-Sim PTX: allocating stack frame region for .param "__cudaparma2_vprintf" from 0x11c to 0x124
GPGPU-Sim PTX: instruction assembly for function '_Z14dcomputelevels5GraphPb'...   done.
GPGPU-Sim PTX: finding reconvergence points for '_Z14dcomputelevels5GraphPb'...
GPGPU-Sim PTX: Finding dominators for '_Z14dcomputelevels5GraphPb'...
GPGPU-Sim PTX: Finding immediate dominators for '_Z14dcomputelevels5GraphPb'...
GPGPU-Sim PTX: Finding postdominators for '_Z14dcomputelevels5GraphPb'...
GPGPU-Sim PTX: Finding immediate postdominators for '_Z14dcomputelevels5GraphPb'...
GPGPU-Sim PTX: pre-decoding instructions for '_Z14dcomputelevels5GraphPb'...
GPGPU-Sim PTX: reconvergence points for _Z14dcomputelevels5GraphPb...
GPGPU-Sim PTX:  1 (potential) branch divergence @  PC=0x5e0 (_1.ptx:408) @%p1 bra $Lt_2_17410;
GPGPU-Sim PTX:    immediate post dominator      @  PC=0x960 (_1.ptx:555) mov.u32 %r36, 0;
GPGPU-Sim PTX:  2 (potential) branch divergence @  PC=0x638 (_1.ptx:421) @%p2 bra $Lt_2_22018;
GPGPU-Sim PTX:    immediate post dominator      @  PC=0x960 (_1.ptx:555) mov.u32 %r36, 0;
GPGPU-Sim PTX:  3 (potential) branch divergence @  PC=0x678 (_1.ptx:432) @%p3 bra $Lt_2_7170;
GPGPU-Sim PTX:    immediate post dominator      @  PC=0x868 (_1.ptx:511) setp.ge.u32 %p7, %r30, %r6;
GPGPU-Sim PTX:  4 (potential) branch divergence @  PC=0x690 (_1.ptx:436) @%p4 bra $Lt_2_22274;
GPGPU-Sim PTX:    immediate post dominator      @  PC=0x758 (_1.ptx:468) add.u32 %r20, %r17, %r11;
GPGPU-Sim PTX:  5 (potential) branch divergence @  PC=0x6b8 (_1.ptx:441) @%p5 bra $Lt_2_22274;
GPGPU-Sim PTX:    immediate post dominator      @  PC=0x758 (_1.ptx:468) add.u32 %r20, %r17, %r11;
GPGPU-Sim PTX:  6 (potential) branch divergence @  PC=0x6e8 (_1.ptx:448) bra.uni $LDWendi__ZN5Graph12getFirstEdgeEj_184_4;
GPGPU-Sim PTX:    immediate post dominator      @  PC=0x758 (_1.ptx:468) add.u32 %r20, %r17, %r11;
GPGPU-Sim PTX:  7 (potential) branch divergence @  PC=0x7b0 (_1.ptx:479) @%p6 bra $Lt_2_18946;
GPGPU-Sim PTX:    immediate post dominator      @  PC=0x868 (_1.ptx:511) setp.ge.u32 %p7, %r30, %r6;
GPGPU-Sim PTX:  8 (potential) branch divergence @  PC=0x7e0 (_1.ptx:486) bra.uni $LDWendi__ZN5Graph14getDestinationEjj_184_1;
GPGPU-Sim PTX:    immediate post dominator      @  PC=0x868 (_1.ptx:511) setp.ge.u32 %p7, %r30, %r6;
GPGPU-Sim PTX:  9 (potential) branch divergence @  PC=0x7f0 (_1.ptx:490) bra.uni $LDWendi__ZN5Graph14getDestinationEjj_184_1;
GPGPU-Sim PTX:    immediate post dominator      @  PC=0x868 (_1.ptx:511) setp.ge.u32 %p7, %r30, %r6;
GPGPU-Sim PTX: 10 (potential) branch divergence @  PC=0x870 (_1.ptx:512) @%p7 bra $Lt_2_22786;
GPGPU-Sim PTX:    immediate post dominator      @  PC=0x928 (_1.ptx:544) add.u32 %r11, %r11, 1;
GPGPU-Sim PTX: 11 (potential) branch divergence @  PC=0x8a8 (_1.ptx:519) @%p8 bra $Lt_2_22786;
GPGPU-Sim PTX:    immediate post dominator      @  PC=0x928 (_1.ptx:544) add.u32 %r11, %r11, 1;
GPGPU-Sim PTX: 12 (potential) branch divergence @  PC=0x8c0 (_1.ptx:524) bra.uni $Lt_2_20482;
GPGPU-Sim PTX:    immediate post dominator      @  PC=0x928 (_1.ptx:544) add.u32 %r11, %r11, 1;
GPGPU-Sim PTX: 13 (potential) branch divergence @  PC=0x8d0 (_1.ptx:529) @%p9 bra $Lt_2_20482;
GPGPU-Sim PTX:    immediate post dominator      @  PC=0x928 (_1.ptx:544) add.u32 %r11, %r11, 1;
GPGPU-Sim PTX: 14 (potential) branch divergence @  PC=0x938 (_1.ptx:546) @%p10 bra $Lt_2_18178;
GPGPU-Sim PTX:    immediate post dominator      @  PC=0x940 (_1.ptx:547) bra.uni $Lt_2_17154;
GPGPU-Sim PTX: 15 (potential) branch divergence @  PC=0x940 (_1.ptx:547) bra.uni $Lt_2_17154;
GPGPU-Sim PTX:    immediate post dominator      @  PC=0x960 (_1.ptx:555) mov.u32 %r36, 0;
GPGPU-Sim PTX: 16 (potential) branch divergence @  PC=0x950 (_1.ptx:550) bra.uni $Lt_2_17154;
GPGPU-Sim PTX:    immediate post dominator      @  PC=0x960 (_1.ptx:555) mov.u32 %r36, 0;
GPGPU-Sim PTX: 17 (potential) branch divergence @  PC=0x970 (_1.ptx:557) @%p11 bra $Lt_2_21250;
GPGPU-Sim PTX:    immediate post dominator      @  PC=0x990 (_1.ptx:564) exit;
GPGPU-Sim PTX: ... end of reconvergence points for _Z14dcomputelevels5GraphPb
GPGPU-Sim PTX: ... done pre-decoding instructions for '_Z14dcomputelevels5GraphPb'.
GPGPU-Sim PTX: instruction assembly for function '_Z11dinitlevels5Graph'...   done.
GPGPU-Sim PTX: finding reconvergence points for '_Z11dinitlevels5Graph'...
GPGPU-Sim PTX: Finding dominators for '_Z11dinitlevels5Graph'...
GPGPU-Sim PTX: Finding immediate dominators for '_Z11dinitlevels5Graph'...
GPGPU-Sim PTX: Finding postdominators for '_Z11dinitlevels5Graph'...
GPGPU-Sim PTX: Finding immediate postdominators for '_Z11dinitlevels5Graph'...
GPGPU-Sim PTX: pre-decoding instructions for '_Z11dinitlevels5Graph'...
GPGPU-Sim PTX: reconvergence points for _Z11dinitlevels5Graph...
GPGPU-Sim PTX:  1 (potential) branch divergence @  PC=0x9d0 (_1.ptx:584) @%p1 bra $Lt_3_1026;
GPGPU-Sim PTX:    immediate post dominator      @  PC=0xa00 (_1.ptx:593) exit;
GPGPU-Sim PTX: ... end of reconvergence points for _Z11dinitlevels5Graph
GPGPU-Sim PTX: ... done pre-decoding instructions for '_Z11dinitlevels5Graph'.
GPGPU-Sim PTX: allocating global region for "__constant872" from 0x600 to 0x607 (global memory space)
GPGPU-Sim PTX: allocating global region for "__constant876" from 0x680 to 0x68a (global memory space)
GPGPU-Sim PTX: allocating global region for "__constant877" from 0x700 to 0x724 (global memory space)
GPGPU-Sim PTX: allocating stack frame region for .local "__cuda___cuda__temp__valist_array_43_16552" from 0x0 to 0xc
GPGPU-Sim PTX: allocating stack frame region for .local "__cuda___cuda__temp__valist_array_55_32568" from 0x80 to 0x98
GPGPU-Sim PTX: allocating stack frame region for .local "__cuda___cuda__temp__valist_array_49_56592" from 0x100 to 0x11c
GPGPU-Sim PTX: allocating stack frame region for .local "__cuda___cuda__temp__valist_array_55_88624" from 0x180 to 0x198
GPGPU-Sim PTX: allocating stack frame region for .local "__cuda___cuda__temp__valist_array_51_112648" from 0x200 to 0x21c
GPGPU-Sim PTX: allocating stack frame region for .param "__cudaparma1_vprintf" from 0x21c to 0x224
GPGPU-Sim PTX: allocating stack frame region for .param "__cudaparma2_vprintf" from 0x224 to 0x22c
GPGPU-Sim PTX: instruction assembly for function '_Z9dprint1x15Graph'...   done.
GPGPU-Sim PTX: finding reconvergence points for '_Z9dprint1x15Graph'...
GPGPU-Sim PTX: Finding dominators for '_Z9dprint1x15Graph'...
GPGPU-Sim PTX: Finding immediate dominators for '_Z9dprint1x15Graph'...
GPGPU-Sim PTX: Finding postdominators for '_Z9dprint1x15Graph'...
GPGPU-Sim PTX: Finding immediate postdominators for '_Z9dprint1x15Graph'...
GPGPU-Sim PTX: pre-decoding instructions for '_Z9dprint1x15Graph'...
GPGPU-Sim PTX: reconvergence points for _Z9dprint1x15Graph...
GPGPU-Sim PTX:  1 (potential) branch divergence @  PC=0xa60 (_1.ptx:628) @%p1 bra $Lt_4_32002;
GPGPU-Sim PTX:    immediate post dominator      @  PC=0x10e8 (_1.ptx:890) setp.eq.u32 %p14, %r2, %r6;
GPGPU-Sim PTX:  2 (potential) branch divergence @  PC=0xac0 (_1.ptx:643) @%p2 bra $Lt_4_25858;
GPGPU-Sim PTX:    immediate post dominator      @  PC=0x10b8 (_1.ptx:882) add.u32 %r5, %r5, 1;
GPGPU-Sim PTX:  3 (potential) branch divergence @  PC=0xae8 (_1.ptx:651) @!%p3 bra $Lt_4_32514;
GPGPU-Sim PTX:    immediate post dominator      @  PC=0xda0 (_1.ptx:759) @!%p3 bra $Lt_4_33538;
GPGPU-Sim PTX:  4 (potential) branch divergence @  PC=0xb00 (_1.ptx:655) @%p4 bra $Lt_4_32514;
GPGPU-Sim PTX:    immediate post dominator      @  PC=0xda0 (_1.ptx:759) @!%p3 bra $Lt_4_33538;
GPGPU-Sim PTX:  5 (potential) branch divergence @  PC=0xb18 (_1.ptx:659) @%p5 bra $Lt_4_33026;
GPGPU-Sim PTX:    immediate post dominator      @  PC=0xc08 (_1.ptx:696) add.u32 %r24, %r16, %r11;
GPGPU-Sim PTX:  6 (potential) branch divergence @  PC=0xb40 (_1.ptx:664) @%p6 bra $Lt_4_33026;
GPGPU-Sim PTX:    immediate post dominator      @  PC=0xc08 (_1.ptx:696) add.u32 %r24, %r16, %r11;
GPGPU-Sim PTX:  7 (potential) branch divergence @  PC=0xb70 (_1.ptx:671) bra.uni $LDWendi__ZN5Graph12getFirstEdgeEj_188_14;
GPGPU-Sim PTX:    immediate post dominator      @  PC=0xc08 (_1.ptx:696) add.u32 %r24, %r16, %r11;
GPGPU-Sim PTX:  8 (potential) branch divergence @  PC=0xc58 (_1.ptx:706) @%p7 bra $Lt_4_27138;
GPGPU-Sim PTX:    immediate post dominator      @  PC=0xda0 (_1.ptx:759) @!%p3 bra $Lt_4_33538;
GPGPU-Sim PTX:  9 (potential) branch divergence @  PC=0xc88 (_1.ptx:713) bra.uni $LDWendi__ZN5Graph14getDestinationEjj_188_11;
GPGPU-Sim PTX:    immediate post dominator      @  PC=0xda0 (_1.ptx:759) @!%p3 bra $Lt_4_33538;
GPGPU-Sim PTX: 10 (potential) branch divergence @  PC=0xc98 (_1.ptx:717) bra.uni $LDWendi__ZN5Graph14getDestinationEjj_188_11;
GPGPU-Sim PTX:    immediate post dominator      @  PC=0xda0 (_1.ptx:759) @!%p3 bra $Lt_4_33538;
GPGPU-Sim PTX: 11 (potential) branch divergence @  PC=0xcc8 (_1.ptx:725) @!%p3 bra $Lt_4_27906;
GPGPU-Sim PTX:    immediate post dominator      @  PC=0xd98 (_1.ptx:756) mov.s32 %r33, %r1;
GPGPU-Sim PTX: 12 (potential) branch divergence @  PC=0xd38 (_1.ptx:740) bra.uni $Lt_4_27650;
GPGPU-Sim PTX:    immediate post dominator      @  PC=0xd98 (_1.ptx:756) mov.s32 %r33, %r1;
GPGPU-Sim PTX: 13 (potential) branch divergence @  PC=0xda0 (_1.ptx:759) @!%p3 bra $Lt_4_33538;
GPGPU-Sim PTX:    immediate post dominator      @  PC=0x1058 (_1.ptx:867) st.local.u32 [__cuda___cuda__temp__valist_array_43_16552+0], %r5;
GPGPU-Sim PTX: 14 (potential) branch divergence @  PC=0xdb8 (_1.ptx:763) @%p8 bra $Lt_4_33538;
GPGPU-Sim PTX:    immediate post dominator      @  PC=0x1058 (_1.ptx:867) st.local.u32 [__cuda___cuda__temp__valist_array_43_16552+0], %r5;
GPGPU-Sim PTX: 15 (potential) branch divergence @  PC=0xdd0 (_1.ptx:767) @%p9 bra $Lt_4_34050;
GPGPU-Sim PTX:    immediate post dominator      @  PC=0xec0 (_1.ptx:804) add.u32 %r52, %r44, %r11;
GPGPU-Sim PTX: 16 (potential) branch divergence @  PC=0xdf8 (_1.ptx:772) @%p10 bra $Lt_4_34050;
GPGPU-Sim PTX:    immediate post dominator      @  PC=0xec0 (_1.ptx:804) add.u32 %r52, %r44, %r11;
GPGPU-Sim PTX: 17 (potential) branch divergence @  PC=0xe28 (_1.ptx:779) bra.uni $LDWendi__ZN5Graph12getFirstEdgeEj_188_4;
GPGPU-Sim PTX:    immediate post dominator      @  PC=0xec0 (_1.ptx:804) add.u32 %r52, %r44, %r11;
GPGPU-Sim PTX: 18 (potential) branch divergence @  PC=0xf10 (_1.ptx:814) @%p11 bra $Lt_4_29186;
GPGPU-Sim PTX:    immediate post dominator      @  PC=0x1058 (_1.ptx:867) st.local.u32 [__cuda___cuda__temp__valist_array_43_16552+0], %r5;
GPGPU-Sim PTX: 19 (potential) branch divergence @  PC=0xf40 (_1.ptx:821) bra.uni $LDWendi__ZN5Graph9getWeightEjj_188_1;
GPGPU-Sim PTX:    immediate post dominator      @  PC=0x1058 (_1.ptx:867) st.local.u32 [__cuda___cuda__temp__valist_array_43_16552+0], %r5;
GPGPU-Sim PTX: 20 (potential) branch divergence @  PC=0xf50 (_1.ptx:825) bra.uni $LDWendi__ZN5Graph9getWeightEjj_188_1;
GPGPU-Sim PTX:    immediate post dominator      @  PC=0x1058 (_1.ptx:867) st.local.u32 [__cuda___cuda__temp__valist_array_43_16552+0], %r5;
GPGPU-Sim PTX: 21 (potential) branch divergence @  PC=0xf80 (_1.ptx:833) @!%p3 bra $Lt_4_29954;
GPGPU-Sim PTX:    immediate post dominator      @  PC=0x1050 (_1.ptx:864) mov.u32 %r61, 1000000000;
GPGPU-Sim PTX: 22 (potential) branch divergence @  PC=0xff0 (_1.ptx:848) bra.uni $Lt_4_29698;
GPGPU-Sim PTX:    immediate post dominator      @  PC=0x1050 (_1.ptx:864) mov.u32 %r61, 1000000000;
GPGPU-Sim PTX: 23 (potential) branch divergence @  PC=0x10b0 (_1.ptx:880) @%p12 bra $Lt_4_26370;
GPGPU-Sim PTX:    immediate post dominator      @  PC=0x10b8 (_1.ptx:882) add.u32 %r5, %r5, 1;
GPGPU-Sim PTX: 24 (potential) branch divergence @  PC=0x10d0 (_1.ptx:885) @%p13 bra $Lt_4_25602;
GPGPU-Sim PTX:    immediate post dominator      @  PC=0x10d8 (_1.ptx:886) bra.uni $Lt_4_25090;
GPGPU-Sim PTX: 25 (potential) branch divergence @  PC=0x10d8 (_1.ptx:886) bra.uni $Lt_4_25090;
GPGPU-Sim PTX:    immediate post dominator      @  PC=0x10e8 (_1.ptx:890) setp.eq.u32 %p14, %r2, %r6;
GPGPU-Sim PTX: 26 (potential) branch divergence @  PC=0x10f0 (_1.ptx:891) @%p14 bra $Lt_4_31234;
GPGPU-Sim PTX:    immediate post dominator      @  PC=0x1130 (_1.ptx:902) exit;
GPGPU-Sim PTX: ... end of reconvergence points for _Z9dprint1x15Graph
GPGPU-Sim PTX: ... done pre-decoding instructions for '_Z9dprint1x15Graph'.
GPGPU-Sim PTX: allocating global region for "__constant908" from 0x780 to 0x795 (global memory space)
GPGPU-Sim PTX: allocating global region for "__constant909" from 0x800 to 0x80c (global memory space)
GPGPU-Sim PTX: allocating stack frame region for .local "__cuda___cuda__temp__valist_array_68_2456" from 0x0 to 0x8
GPGPU-Sim PTX: allocating stack frame region for .param "__cudaparma1_vprintf" from 0x8 to 0x10
GPGPU-Sim PTX: allocating stack frame region for .param "__cudaparma2_vprintf" from 0x10 to 0x18
GPGPU-Sim PTX: instruction assembly for function '_Z8print1x114ComponentSpace'...   done.
GPGPU-Sim PTX: finding reconvergence points for '_Z8print1x114ComponentSpace'...
GPGPU-Sim PTX: Finding dominators for '_Z8print1x114ComponentSpace'...
GPGPU-Sim PTX: Finding immediate dominators for '_Z8print1x114ComponentSpace'...
GPGPU-Sim PTX: Finding postdominators for '_Z8print1x114ComponentSpace'...
GPGPU-Sim PTX: Finding immediate postdominators for '_Z8print1x114ComponentSpace'...
GPGPU-Sim PTX: pre-decoding instructions for '_Z8print1x114ComponentSpace'...
GPGPU-Sim PTX: reconvergence points for _Z8print1x114ComponentSpace...
GPGPU-Sim PTX:  1 (potential) branch divergence @  PC=0x1180 (_1.ptx:930) @%p1 bra $Lt_5_1282;
GPGPU-Sim PTX:    immediate post dominator      @  PC=0x1210 (_1.ptx:953) cvta.global.u64 %rd8, __constant908;
GPGPU-Sim PTX:  2 (potential) branch divergence @  PC=0x1200 (_1.ptx:949) @%p2 bra $Lt_5_1794;
GPGPU-Sim PTX:    immediate post dominator      @  PC=0x1208 (_1.ptx:950) cvta.local.u64 %rd1, __cuda___cuda__temp__valist_array_68_2456;
GPGPU-Sim PTX: ... end of reconvergence points for _Z8print1x114ComponentSpace
GPGPU-Sim PTX: ... done pre-decoding instructions for '_Z8print1x114ComponentSpace'.
GPGPU-Sim PTX: instruction assembly for function '_Z7dinitcsjPjS_'...   done.
GPGPU-Sim PTX: finding reconvergence points for '_Z7dinitcsjPjS_'...
GPGPU-Sim PTX: Finding dominators for '_Z7dinitcsjPjS_'...
GPGPU-Sim PTX: Finding immediate dominators for '_Z7dinitcsjPjS_'...
GPGPU-Sim PTX: Finding postdominators for '_Z7dinitcsjPjS_'...
GPGPU-Sim PTX: Finding immediate postdominators for '_Z7dinitcsjPjS_'...
GPGPU-Sim PTX: pre-decoding instructions for '_Z7dinitcsjPjS_'...
GPGPU-Sim PTX: reconvergence points for _Z7dinitcsjPjS_...
GPGPU-Sim PTX:  1 (potential) branch divergence @  PC=0x1278 (_1.ptx:980) @%p1 bra $Lt_6_1026;
GPGPU-Sim PTX:    immediate post dominator      @  PC=0x12c8 (_1.ptx:994) exit;
GPGPU-Sim PTX: ... end of reconvergence points for _Z7dinitcsjPjS_
GPGPU-Sim PTX: ... done pre-decoding instructions for '_Z7dinitcsjPjS_'.
GPGPU-Sim PTX: instruction assembly for function '_Z5dinitjPfS_S_'...   done.
GPGPU-Sim PTX: finding reconvergence points for '_Z5dinitjPfS_S_'...
GPGPU-Sim PTX: Finding dominators for '_Z5dinitjPfS_S_'...
GPGPU-Sim PTX: Finding immediate dominators for '_Z5dinitjPfS_S_'...
GPGPU-Sim PTX: Finding postdominators for '_Z5dinitjPfS_S_'...
GPGPU-Sim PTX: Finding immediate postdominators for '_Z5dinitjPfS_S_'...
GPGPU-Sim PTX: pre-decoding instructions for '_Z5dinitjPfS_S_'...
GPGPU-Sim PTX: reconvergence points for _Z5dinitjPfS_S_...
GPGPU-Sim PTX:  1 (potential) branch divergence @  PC=0x1308 (_1.ptx:1017) @%p1 bra $Lt_7_1026;
GPGPU-Sim PTX:    immediate post dominator      @  PC=0x1380 (_1.ptx:1035) exit;
GPGPU-Sim PTX: ... end of reconvergence points for _Z5dinitjPfS_S_
GPGPU-Sim PTX: ... done pre-decoding instructions for '_Z5dinitjPfS_S_'.
GPGPU-Sim PTX: instruction assembly for function '_Z11dupdatebiasjjjjjPjS_S_PfPbS0_S1_S1_S0_S0_S0_S_S0_S0_S_'...   done.
GPGPU-Sim PTX: finding reconvergence points for '_Z11dupdatebiasjjjjjPjS_S_PfPbS0_S1_S1_S0_S0_S0_S_S0_S0_S_'...
GPGPU-Sim PTX: Finding dominators for '_Z11dupdatebiasjjjjjPjS_S_PfPbS0_S1_S1_S0_S0_S0_S_S0_S0_S_'...
GPGPU-Sim PTX: Finding immediate dominators for '_Z11dupdatebiasjjjjjPjS_S_PfPbS0_S1_S1_S0_S0_S0_S_S0_S0_S_'...
GPGPU-Sim PTX: Finding postdominators for '_Z11dupdatebiasjjjjjPjS_S_PfPbS0_S1_S1_S0_S0_S0_S_S0_S0_S_'...
GPGPU-Sim PTX: Finding immediate postdominators for '_Z11dupdatebiasjjjjjPjS_S_PfPbS0_S1_S1_S0_S0_S0_S_S0_S0_S_'...
GPGPU-Sim PTX: pre-decoding instructions for '_Z11dupdatebiasjjjjjPjS_S_PfPbS0_S1_S1_S0_S0_S0_S_S0_S0_S_'...
GPGPU-Sim PTX: reconvergence points for _Z11dupdatebiasjjjjjPjS_S_PfPbS0_S1_S1_S0_S0_S0_S_S0_S0_S_...
GPGPU-Sim PTX:  1 (potential) branch divergence @  PC=0x13f8 (_1.ptx:1082) @%p1 bra $Lt_8_6658;
GPGPU-Sim PTX:    immediate post dominator      @  PC=0x16e8 (_1.ptx:1201) exit;
GPGPU-Sim PTX:  2 (potential) branch divergence @  PC=0x1410 (_1.ptx:1085) @%p2 bra $Lt_8_10242;
GPGPU-Sim PTX:    immediate post dominator      @  PC=0x1658 (_1.ptx:1174) ld.param.u64 %rd16, [__cudaparm__Z11dupdatebiasjjjjjPjS_S_PfPbS0_S1_S1_S0_S0_S0_S_S0_S0_S__gMaxBias];
GPGPU-Sim PTX:  3 (potential) branch divergence @  PC=0x1480 (_1.ptx:1101) @%p3 bra $Lt_8_8450;
GPGPU-Sim PTX:    immediate post dominator      @  PC=0x1620 (_1.ptx:1165) add.u32 %r16, %r16, 1;
GPGPU-Sim PTX:  4 (potential) branch divergence @  PC=0x15f8 (_1.ptx:1157) @!%p6 bra $Lt_8_8450;
GPGPU-Sim PTX:    immediate post dominator      @  PC=0x1620 (_1.ptx:1165) add.u32 %r16, %r16, 1;
GPGPU-Sim PTX:  5 (potential) branch divergence @  PC=0x1630 (_1.ptx:1167) @%p7 bra $Lt_8_7682;
GPGPU-Sim PTX:    immediate post dominator      @  PC=0x1638 (_1.ptx:1168) bra.uni $Lt_8_7170;
GPGPU-Sim PTX:  6 (potential) branch divergence @  PC=0x1638 (_1.ptx:1168) bra.uni $Lt_8_7170;
GPGPU-Sim PTX:    immediate post dominator      @  PC=0x1658 (_1.ptx:1174) ld.param.u64 %rd16, [__cudaparm__Z11dupdatebiasjjjjjPjS_S_PfPbS0_S1_S1_S0_S0_S0_S_S0_S0_S__gMaxBias];
GPGPU-Sim PTX:  7 (potential) branch divergence @  PC=0x1670 (_1.ptx:1177) @!%p8 bra $Lt_8_9474;
GPGPU-Sim PTX:    immediate post dominator      @  PC=0x1690 (_1.ptx:1184) st.global.f32 [%rd16+0], %f17;
GPGPU-Sim PTX:  8 (potential) branch divergence @  PC=0x1680 (_1.ptx:1180) bra.uni $Lt_8_9218;
GPGPU-Sim PTX:    immediate post dominator      @  PC=0x1690 (_1.ptx:1184) st.global.f32 [%rd16+0], %f17;
GPGPU-Sim PTX:  9 (potential) branch divergence @  PC=0x16b0 (_1.ptx:1188) @!%p9 bra $Lt_8_9986;
GPGPU-Sim PTX:    immediate post dominator      @  PC=0x16d0 (_1.ptx:1195) st.global.f32 [%rd17+0], %f19;
GPGPU-Sim PTX: 10 (potential) branch divergence @  PC=0x16c0 (_1.ptx:1191) bra.uni $Lt_8_9730;
GPGPU-Sim PTX:    immediate post dominator      @  PC=0x16d0 (_1.ptx:1195) st.global.f32 [%rd17+0], %f19;
GPGPU-Sim PTX: ... end of reconvergence points for _Z11dupdatebiasjjjjjPjS_S_PfPbS0_S1_S1_S0_S0_S0_S_S0_S0_S_
GPGPU-Sim PTX: ... done pre-decoding instructions for '_Z11dupdatebiasjjjjjPjS_S_PfPbS0_S1_S1_S0_S0_S0_S_S0_S0_S_'.
GPGPU-Sim PTX: instruction assembly for function '_Z10dupdateetajjjjjPjS_S_PfPbS0_S1_S1_S0_S0_S0_S_S_'...   done.
GPGPU-Sim PTX: finding reconvergence points for '_Z10dupdateetajjjjjPjS_S_PfPbS0_S1_S1_S0_S0_S0_S_S_'...
GPGPU-Sim PTX: Finding dominators for '_Z10dupdateetajjjjjPjS_S_PfPbS0_S1_S1_S0_S0_S0_S_S_'...
GPGPU-Sim PTX: Finding immediate dominators for '_Z10dupdateetajjjjjPjS_S_PfPbS0_S1_S1_S0_S0_S0_S_S_'...
GPGPU-Sim PTX: Finding postdominators for '_Z10dupdateetajjjjjPjS_S_PfPbS0_S1_S1_S0_S0_S0_S_S_'...
GPGPU-Sim PTX: Finding immediate postdominators for '_Z10dupdateetajjjjjPjS_S_PfPbS0_S1_S1_S0_S0_S0_S_S_'...
GPGPU-Sim PTX: pre-decoding instructions for '_Z10dupdateetajjjjjPjS_S_PfPbS0_S1_S1_S0_S0_S0_S_S_'...
GPGPU-Sim PTX: reconvergence points for _Z10dupdateetajjjjjPjS_S_PfPbS0_S1_S1_S0_S0_S0_S_S_...
GPGPU-Sim PTX:  1 (potential) branch divergence @  PC=0x1760 (_1.ptx:1246) @%p1 bra $Lt_9_8962;
GPGPU-Sim PTX:    immediate post dominator      @  PC=0x1b68 (_1.ptx:1400) mov.u32 %r33, 0;
GPGPU-Sim PTX:  2 (potential) branch divergence @  PC=0x1778 (_1.ptx:1249) @%p2 bra $Lt_9_15362;
GPGPU-Sim PTX:    immediate post dominator      @  PC=0x1b68 (_1.ptx:1400) mov.u32 %r33, 0;
GPGPU-Sim PTX:  3 (potential) branch divergence @  PC=0x1818 (_1.ptx:1274) @%p3 bra $Lt_9_12802;
GPGPU-Sim PTX:    immediate post dominator      @  PC=0x1b18 (_1.ptx:1387) add.u32 %r21, %r21, 1;
GPGPU-Sim PTX:  4 (potential) branch divergence @  PC=0x1840 (_1.ptx:1280) @%p4 bra $Lt_9_11522;
GPGPU-Sim PTX:    immediate post dominator      @  PC=0x18b8 (_1.ptx:1298) add.u32 %r27, %r17, 1;
GPGPU-Sim PTX:  5 (potential) branch divergence @  PC=0x18a8 (_1.ptx:1294) bra.uni $Lt_9_11266;
GPGPU-Sim PTX:    immediate post dominator      @  PC=0x18b8 (_1.ptx:1298) add.u32 %r27, %r17, 1;
GPGPU-Sim PTX:  6 (potential) branch divergence @  PC=0x18c8 (_1.ptx:1300) @%p5 bra $Lt_9_11778;
GPGPU-Sim PTX:    immediate post dominator      @  PC=0x1938 (_1.ptx:1315) add.u32 %r29, %r17, 2;
GPGPU-Sim PTX:  7 (potential) branch divergence @  PC=0x1948 (_1.ptx:1317) @%p6 bra $Lt_9_12290;
GPGPU-Sim PTX:    immediate post dominator      @  PC=0x19b8 (_1.ptx:1332) sub.f32 %f9, %f1, %f4;
GPGPU-Sim PTX:  8 (potential) branch divergence @  PC=0x19e0 (_1.ptx:1337) @!%p7 bra $Lt_9_12802;
GPGPU-Sim PTX:    immediate post dominator      @  PC=0x1b18 (_1.ptx:1387) add.u32 %r21, %r21, 1;
GPGPU-Sim PTX:  9 (potential) branch divergence @  PC=0x1a38 (_1.ptx:1350) @!%p8 bra $Lt_9_13314;
GPGPU-Sim PTX:    immediate post dominator      @  PC=0x1a58 (_1.ptx:1357) mul.lo.u64 %rd32, %rd6, 4;
GPGPU-Sim PTX: 10 (potential) branch divergence @  PC=0x1ab0 (_1.ptx:1368) @%p9 bra $Lt_9_14082;
GPGPU-Sim PTX:    immediate post dominator      @  PC=0x1b10 (_1.ptx:1384) mov.s32 %r19, 1;
GPGPU-Sim PTX: 11 (potential) branch divergence @  PC=0x1ae0 (_1.ptx:1375) bra.uni $Lt_9_13826;
GPGPU-Sim PTX:    immediate post dominator      @  PC=0x1b10 (_1.ptx:1384) mov.s32 %r19, 1;
GPGPU-Sim PTX: 12 (potential) branch divergence @  PC=0x1b28 (_1.ptx:1389) @%p10 bra $Lt_9_10498;
GPGPU-Sim PTX:    immediate post dominator      @  PC=0x1b30 (_1.ptx:1390) mov.s32 %r17, %r22;
GPGPU-Sim PTX: 13 (potential) branch divergence @  PC=0x1b40 (_1.ptx:1392) @%p11 bra $Lt_9_9730;
GPGPU-Sim PTX:    immediate post dominator      @  PC=0x1b48 (_1.ptx:1393) bra.uni $Lt_9_8706;
GPGPU-Sim PTX: 14 (potential) branch divergence @  PC=0x1b48 (_1.ptx:1393) bra.uni $Lt_9_8706;
GPGPU-Sim PTX:    immediate post dominator      @  PC=0x1b68 (_1.ptx:1400) mov.u32 %r33, 0;
GPGPU-Sim PTX: 15 (potential) branch divergence @  PC=0x1b58 (_1.ptx:1396) bra.uni $Lt_9_8706;
GPGPU-Sim PTX:    immediate post dominator      @  PC=0x1b68 (_1.ptx:1400) mov.u32 %r33, 0;
GPGPU-Sim PTX: 16 (potential) branch divergence @  PC=0x1b78 (_1.ptx:1402) @%p12 bra $Lt_9_14850;
GPGPU-Sim PTX:    immediate post dominator      @  PC=0x1b98 (_1.ptx:1409) exit;
GPGPU-Sim PTX: ... end of reconvergence points for _Z10dupdateetajjjjjPjS_S_PfPbS0_S1_S1_S0_S0_S0_S_S_
GPGPU-Sim PTX: ... done pre-decoding instructions for '_Z10dupdateetajjjjjPjS_S_PfPbS0_S1_S1_S0_S0_S0_S_S_'.
GPGPU-Sim PTX: instruction assembly for function '_Z9ddecimatejjjjjPjS_S_PfPbS0_S1_S1_S0_S0_S0_S_S0_S0_S_'...   done.
GPGPU-Sim PTX: finding reconvergence points for '_Z9ddecimatejjjjjPjS_S_PfPbS0_S1_S1_S0_S0_S0_S_S0_S0_S_'...
GPGPU-Sim PTX: Finding dominators for '_Z9ddecimatejjjjjPjS_S_PfPbS0_S1_S1_S0_S0_S0_S_S0_S0_S_'...
GPGPU-Sim PTX: Finding immediate dominators for '_Z9ddecimatejjjjjPjS_S_PfPbS0_S1_S1_S0_S0_S0_S_S0_S0_S_'...
GPGPU-Sim PTX: Finding postdominators for '_Z9ddecimatejjjjjPjS_S_PfPbS0_S1_S1_S0_S0_S0_S_S0_S0_S_'...
GPGPU-Sim PTX: Finding immediate postdominators for '_Z9ddecimatejjjjjPjS_S_PfPbS0_S1_S1_S0_S0_S0_S_S0_S0_S_'...
GPGPU-Sim PTX: pre-decoding instructions for '_Z9ddecimatejjjjjPjS_S_PfPbS0_S1_S1_S0_S0_S0_S_S0_S0_S_'...
GPGPU-Sim PTX: reconvergence points for _Z9ddecimatejjjjjPjS_S_PfPbS0_S1_S1_S0_S0_S0_S_S0_S0_S_...
GPGPU-Sim PTX:  1 (potential) branch divergence @  PC=0x1c10 (_1.ptx:1456) @%p1 bra $Lt_10_6658;
GPGPU-Sim PTX:    immediate post dominator      @  PC=0x1dc8 (_1.ptx:1527) exit;
GPGPU-Sim PTX:  2 (potential) branch divergence @  PC=0x1c28 (_1.ptx:1459) @%p2 bra $Lt_10_5890;
GPGPU-Sim PTX:    immediate post dominator      @  PC=0x1cd8 (_1.ptx:1487) bar.sync 0;
GPGPU-Sim PTX:  3 (potential) branch divergence @  PC=0x1c60 (_1.ptx:1466) @%p3 bra $Lt_10_6402;
GPGPU-Sim PTX:    immediate post dominator      @  PC=0x1cd8 (_1.ptx:1487) bar.sync 0;
GPGPU-Sim PTX:  4 (potential) branch divergence @  PC=0x1cb8 (_1.ptx:1478) bra.uni $Lt_10_5634;
GPGPU-Sim PTX:    immediate post dominator      @  PC=0x1cd8 (_1.ptx:1487) bar.sync 0;
GPGPU-Sim PTX:  5 (potential) branch divergence @  PC=0x1cc8 (_1.ptx:1482) bra.uni $Lt_10_5634;
GPGPU-Sim PTX:    immediate post dominator      @  PC=0x1cd8 (_1.ptx:1487) bar.sync 0;
GPGPU-Sim PTX:  6 (potential) branch divergence @  PC=0x1cf0 (_1.ptx:1490) @%p4 bra $Lt_10_6658;
GPGPU-Sim PTX:    immediate post dominator      @  PC=0x1dc8 (_1.ptx:1527) exit;
GPGPU-Sim PTX:  7 (potential) branch divergence @  PC=0x1d48 (_1.ptx:1504) @%p5 bra $Lt_10_7938;
GPGPU-Sim PTX:    immediate post dominator      @  PC=0x1db0 (_1.ptx:1521) add.u32 %r19, %r19, 1;
GPGPU-Sim PTX:  8 (potential) branch divergence @  PC=0x1d78 (_1.ptx:1510) @!%p6 bra $Lt_10_7938;
GPGPU-Sim PTX:    immediate post dominator      @  PC=0x1db0 (_1.ptx:1521) add.u32 %r19, %r19, 1;
GPGPU-Sim PTX:  9 (potential) branch divergence @  PC=0x1dc0 (_1.ptx:1523) @%p7 bra $Lt_10_7170;
GPGPU-Sim PTX:    immediate post dominator      @  PC=0x1dc8 (_1.ptx:1527) exit;
GPGPU-Sim PTX: ... end of reconvergence points for _Z9ddecimatejjjjjPjS_S_PfPbS0_S1_S1_S0_S0_S0_S_S0_S0_S_
GPGPU-Sim PTX: ... done pre-decoding instructions for '_Z9ddecimatejjjjjPjS_S_PfPbS0_S1_S1_S0_S0_S0_S_S0_S0_S_'.
GPGPU-Sim PTX: instruction assembly for function '_Z15dverifysolutionjjjjjPjS_S_PfPbS0_S1_S1_S0_S0_S0_S_'...   done.
GPGPU-Sim PTX: finding reconvergence points for '_Z15dverifysolutionjjjjjPjS_S_PfPbS0_S1_S1_S0_S0_S0_S_'...
GPGPU-Sim PTX: Finding dominators for '_Z15dverifysolutionjjjjjPjS_S_PfPbS0_S1_S1_S0_S0_S0_S_'...
GPGPU-Sim PTX: Finding immediate dominators for '_Z15dverifysolutionjjjjjPjS_S_PfPbS0_S1_S1_S0_S0_S0_S_'...
GPGPU-Sim PTX: Finding postdominators for '_Z15dverifysolutionjjjjjPjS_S_PfPbS0_S1_S1_S0_S0_S0_S_'...
GPGPU-Sim PTX: Finding immediate postdominators for '_Z15dverifysolutionjjjjjPjS_S_PfPbS0_S1_S1_S0_S0_S0_S_'...
GPGPU-Sim PTX: pre-decoding instructions for '_Z15dverifysolutionjjjjjPjS_S_PfPbS0_S1_S1_S0_S0_S0_S_'...
GPGPU-Sim PTX: reconvergence points for _Z15dverifysolutionjjjjjPjS_S_PfPbS0_S1_S1_S0_S0_S0_S_...
GPGPU-Sim PTX:  1 (potential) branch divergence @  PC=0x1e40 (_1.ptx:1569) @%p1 bra $Lt_11_5634;
GPGPU-Sim PTX:    immediate post dominator      @  PC=0x2010 (_1.ptx:1647) exit;
GPGPU-Sim PTX:  2 (potential) branch divergence @  PC=0x1e58 (_1.ptx:1572) @%p2 bra $Lt_11_8194;
GPGPU-Sim PTX:    immediate post dominator      @  PC=0x2000 (_1.ptx:1643) ld.param.u64 %rd13, [__cudaparm__Z15dverifysolutionjjjjjPjS_S_PfPbS0_S1_S1_S0_S0_S0_S__changed];
GPGPU-Sim PTX:  3 (potential) branch divergence @  PC=0x1e98 (_1.ptx:1582) @!%p3 bra $Lt_11_6914;
GPGPU-Sim PTX:    immediate post dominator      @  PC=0x1fd8 (_1.ptx:1635) add.u32 %r18, %r18, 1;
GPGPU-Sim PTX:  4 (potential) branch divergence @  PC=0x1f20 (_1.ptx:1602) @%p4 bra $L_11_5378;
GPGPU-Sim PTX:    immediate post dominator      @  PC=0x1fd8 (_1.ptx:1635) add.u32 %r18, %r18, 1;
GPGPU-Sim PTX:  5 (potential) branch divergence @  PC=0x1f58 (_1.ptx:1609) @%p5 bra $L_11_5122;
GPGPU-Sim PTX:    immediate post dominator      @  PC=0x1fd8 (_1.ptx:1635) add.u32 %r18, %r18, 1;
GPGPU-Sim PTX:  6 (potential) branch divergence @  PC=0x1f70 (_1.ptx:1613) @%p6 bra $Lt_11_9218;
GPGPU-Sim PTX:    immediate post dominator      @  PC=0x1fd8 (_1.ptx:1635) add.u32 %r18, %r18, 1;
GPGPU-Sim PTX:  7 (potential) branch divergence @  PC=0x1fa8 (_1.ptx:1620) @%p7 bra $Lt_11_9218;
GPGPU-Sim PTX:    immediate post dominator      @  PC=0x1fd8 (_1.ptx:1635) add.u32 %r18, %r18, 1;
GPGPU-Sim PTX:  8 (potential) branch divergence @  PC=0x1fb8 (_1.ptx:1625) bra.uni $Lt_11_6914;
GPGPU-Sim PTX:    immediate post dominator      @  PC=0x1fd8 (_1.ptx:1635) add.u32 %r18, %r18, 1;
GPGPU-Sim PTX:  9 (potential) branch divergence @  PC=0x1fd0 (_1.ptx:1631) @%p8 bra $Lt_11_7426;
GPGPU-Sim PTX:    immediate post dominator      @  PC=0x1fd8 (_1.ptx:1635) add.u32 %r18, %r18, 1;
GPGPU-Sim PTX: 10 (potential) branch divergence @  PC=0x1fe8 (_1.ptx:1637) @%p9 bra $Lt_11_6658;
GPGPU-Sim PTX:    immediate post dominator      @  PC=0x1ff0 (_1.ptx:1638) bra.uni $Lt_11_6146;
GPGPU-Sim PTX: 11 (potential) branch divergence @  PC=0x1ff0 (_1.ptx:1638) bra.uni $Lt_11_6146;
GPGPU-Sim PTX:    immediate post dominator      @  PC=0x2000 (_1.ptx:1643) ld.param.u64 %rd13, [__cudaparm__Z15dverifysolutionjjjjjPjS_S_PfPbS0_S1_S1_S0_S0_S0_S__changed];
GPGPU-Sim PTX: ... end of reconvergence points for _Z15dverifysolutionjjjjjPjS_S_PfPbS0_S1_S1_S0_S0_S0_S_
GPGPU-Sim PTX: ... done pre-decoding instructions for '_Z15dverifysolutionjjjjjPjS_S_PfPbS0_S1_S1_S0_S0_S0_S_'.
GPGPU-Sim PTX: instruction assembly for function '_Z15dverifyliteralsjjjjjPjS_S_PfPbS0_S1_S1_S0_S0_S0_S_S_'...   done.
GPGPU-Sim PTX: finding reconvergence points for '_Z15dverifyliteralsjjjjjPjS_S_PfPbS0_S1_S1_S0_S0_S0_S_S_'...
GPGPU-Sim PTX: Finding dominators for '_Z15dverifyliteralsjjjjjPjS_S_PfPbS0_S1_S1_S0_S0_S0_S_S_'...
GPGPU-Sim PTX: Finding immediate dominators for '_Z15dverifyliteralsjjjjjPjS_S_PfPbS0_S1_S1_S0_S0_S0_S_S_'...
GPGPU-Sim PTX: Finding postdominators for '_Z15dverifyliteralsjjjjjPjS_S_PfPbS0_S1_S1_S0_S0_S0_S_S_'...
GPGPU-Sim PTX: Finding immediate postdominators for '_Z15dverifyliteralsjjjjjPjS_S_PfPbS0_S1_S1_S0_S0_S0_S_S_'...
GPGPU-Sim PTX: pre-decoding instructions for '_Z15dverifyliteralsjjjjjPjS_S_PfPbS0_S1_S1_S0_S0_S0_S_S_'...
GPGPU-Sim PTX: reconvergence points for _Z15dverifyliteralsjjjjjPjS_S_PfPbS0_S1_S1_S0_S0_S0_S_S_...
GPGPU-Sim PTX:  1 (potential) branch divergence @  PC=0x2088 (_1.ptx:1690) @%p1 bra $Lt_12_3842;
GPGPU-Sim PTX:    immediate post dominator      @  PC=0x2158 (_1.ptx:1724) exit;
GPGPU-Sim PTX:  2 (potential) branch divergence @  PC=0x20a0 (_1.ptx:1693) @%p2 bra $Lt_12_5378;
GPGPU-Sim PTX:    immediate post dominator      @  PC=0x2138 (_1.ptx:1718) ld.param.u64 %rd4, [__cudaparm__Z15dverifyliteralsjjjjjPjS_S_PfPbS0_S1_S1_S0_S0_S0_S_S__changed];
GPGPU-Sim PTX:  3 (potential) branch divergence @  PC=0x2120 (_1.ptx:1712) @%p4 bra $Lt_12_4866;
GPGPU-Sim PTX:    immediate post dominator      @  PC=0x2128 (_1.ptx:1713) bra.uni $Lt_12_4354;
GPGPU-Sim PTX:  4 (potential) branch divergence @  PC=0x2128 (_1.ptx:1713) bra.uni $Lt_12_4354;
GPGPU-Sim PTX:    immediate post dominator      @  PC=0x2138 (_1.ptx:1718) ld.param.u64 %rd4, [__cudaparm__Z15dverifyliteralsjjjjjPjS_S_PfPbS0_S1_S1_S0_S0_S0_S_S__changed];
GPGPU-Sim PTX: ... end of reconvergence points for _Z15dverifyliteralsjjjjjPjS_S_PfPbS0_S1_S1_S0_S0_S0_S_S_
GPGPU-Sim PTX: ... done pre-decoding instructions for '_Z15dverifyliteralsjjjjjPjS_S_PfPbS0_S1_S1_S0_S0_S0_S_S_'.
GPGPU-Sim PTX: allocating stack frame region for .local "__cuda___cuda__temp__valist_array_47_401432" from 0x80 to 0x98
GPGPU-Sim PTX: allocating stack frame region for .local "__cuda___cuda__temp__valist_array_41_641456" from 0x100 to 0x114
GPGPU-Sim PTX: allocating stack frame region for .local "__cuda___cuda_local_var_75907_7_non_const_prefix_3280" from 0x114 to 0x116
GPGPU-Sim PTX: allocating stack frame region for .param "__cudaparma1_vprintf" from 0x116 to 0x11e
GPGPU-Sim PTX: allocating stack frame region for .param "__cudaparma2_vprintf" from 0x11e to 0x126
GPGPU-Sim PTX: instruction assembly for function '_ZN5Graph13printStats1x1Ev'...   done.
GPGPU-Sim PTX: finding reconvergence points for '_ZN5Graph13printStats1x1Ev'...
GPGPU-Sim PTX: Finding dominators for '_ZN5Graph13printStats1x1Ev'...
GPGPU-Sim PTX: Finding immediate dominators for '_ZN5Graph13printStats1x1Ev'...
GPGPU-Sim PTX: Finding postdominators for '_ZN5Graph13printStats1x1Ev'...
GPGPU-Sim PTX: Finding immediate postdominators for '_ZN5Graph13printStats1x1Ev'...
GPGPU-Sim PTX: pre-decoding instructions for '_ZN5Graph13printStats1x1Ev'...
GPGPU-Sim PTX: reconvergence points for _ZN5Graph13printStats1x1Ev...
GPGPU-Sim PTX:  1 (potential) branch divergence @  PC=0x21a8 (_1.ptx:1751) @!%p1 bra $Lt_13_8450;
GPGPU-Sim PTX:    immediate post dominator      @  PC=0x2330 (_1.ptx:1816) @!%p1 bra $Lt_13_12290;
GPGPU-Sim PTX:  2 (potential) branch divergence @  PC=0x21f8 (_1.ptx:1763) @%p2 bra $Lt_13_9218;
GPGPU-Sim PTX:    immediate post dominator      @  PC=0x2210 (_1.ptx:1769) setp.le.u32 %p3, %r3, %r5;
GPGPU-Sim PTX:  3 (potential) branch divergence @  PC=0x2218 (_1.ptx:1770) @%p3 bra $Lt_13_9730;
GPGPU-Sim PTX:    immediate post dominator      @  PC=0x22d0 (_1.ptx:1799) ld.u64 %rd12, [%rd2+88];
GPGPU-Sim PTX:  4 (potential) branch divergence @  PC=0x2238 (_1.ptx:1775) bra.uni $LDWendi__ZN5Graph11getInDegreeEj_183_1;
GPGPU-Sim PTX:    immediate post dominator      @  PC=0x22d0 (_1.ptx:1799) ld.u64 %rd12, [%rd2+88];
GPGPU-Sim PTX:  5 (potential) branch divergence @  PC=0x22e8 (_1.ptx:1802) @%p4 bra $Lt_13_10242;
GPGPU-Sim PTX:    immediate post dominator      @  PC=0x22f8 (_1.ptx:1807) add.u32 %r5, %r5, 1;
GPGPU-Sim PTX:  6 (potential) branch divergence @  PC=0x2318 (_1.ptx:1811) @%p5 bra $Lt_13_8962;
GPGPU-Sim PTX:    immediate post dominator      @  PC=0x2320 (_1.ptx:1812) mov.u32 %r17, 0;
GPGPU-Sim PTX:  7 (potential) branch divergence @  PC=0x2330 (_1.ptx:1816) @!%p1 bra $Lt_13_12290;
GPGPU-Sim PTX:    immediate post dominator      @  PC=0x23e0 (_1.ptx:1847) cvta.local.u64 %rd15, __cuda___cuda_local_var_75907_7_non_const_prefix_3280;
GPGPU-Sim PTX:  8 (potential) branch divergence @  PC=0x2378 (_1.ptx:1828) @%p6 bra $Lt_13_12546;
GPGPU-Sim PTX:    immediate post dominator      @  PC=0x23a8 (_1.ptx:1837) mov.s32 %r20, %r23;
GPGPU-Sim PTX:  9 (potential) branch divergence @  PC=0x2388 (_1.ptx:1830) @%p7 bra $Lt_13_12546;
GPGPU-Sim PTX:    immediate post dominator      @  PC=0x23a8 (_1.ptx:1837) mov.s32 %r20, %r23;
GPGPU-Sim PTX: 10 (potential) branch divergence @  PC=0x2398 (_1.ptx:1832) bra.uni $L_13_7682;
GPGPU-Sim PTX:    immediate post dominator      @  PC=0x23a8 (_1.ptx:1837) mov.s32 %r20, %r23;
GPGPU-Sim PTX: 11 (potential) branch divergence @  PC=0x23c8 (_1.ptx:1841) @%p8 bra $Lt_13_11522;
GPGPU-Sim PTX:    immediate post dominator      @  PC=0x23d0 (_1.ptx:1842) bra.uni $Lt_13_11010;
GPGPU-Sim PTX: 12 (potential) branch divergence @  PC=0x23d0 (_1.ptx:1842) bra.uni $Lt_13_11010;
GPGPU-Sim PTX:    immediate post dominator      @  PC=0x23e0 (_1.ptx:1847) cvta.local.u64 %rd15, __cuda___cuda_local_var_75907_7_non_const_prefix_3280;
GPGPU-Sim PTX: ... end of reconvergence points for _ZN5Graph13printStats1x1Ev
GPGPU-Sim PTX: ... done pre-decoding instructions for '_ZN5Graph13printStats1x1Ev'.
GPGPU-Sim PTX: allocating stack frame region for .local "__cuda___cuda__temp__valist_array_43_161480" from 0x80 to 0x8c
GPGPU-Sim PTX: allocating stack frame region for .local "__cuda___cuda__temp__valist_array_45_321496" from 0x100 to 0x118
GPGPU-Sim PTX: allocating stack frame region for .local "__cuda___cuda__temp__valist_array_55_561520" from 0x180 to 0x198
GPGPU-Sim PTX: allocating stack frame region for .local "__cuda___cuda__temp__valist_array_49_801544" from 0x200 to 0x21c
GPGPU-Sim PTX: allocating stack frame region for .local "__cuda___cuda__temp__valist_array_45_1121576" from 0x280 to 0x298
GPGPU-Sim PTX: allocating stack frame region for .local "__cuda___cuda__temp__valist_array_55_1361600" from 0x300 to 0x318
GPGPU-Sim PTX: allocating stack frame region for .local "__cuda___cuda__temp__valist_array_51_1601624" from 0x380 to 0x39c
GPGPU-Sim PTX: allocating stack frame region for .local "__cuda___cuda__temp__valist_array_45_1921656" from 0x400 to 0x418
GPGPU-Sim PTX: allocating stack frame region for .param "__cudaparma1_vprintf" from 0x418 to 0x420
GPGPU-Sim PTX: allocating stack frame region for .param "__cudaparma2_vprintf" from 0x420 to 0x428
GPGPU-Sim PTX: instruction assembly for function '_ZN5Graph8print1x1Ev'...   done.
GPGPU-Sim PTX: finding reconvergence points for '_ZN5Graph8print1x1Ev'...
GPGPU-Sim PTX: Finding dominators for '_ZN5Graph8print1x1Ev'...
GPGPU-Sim PTX: Finding immediate dominators for '_ZN5Graph8print1x1Ev'...
GPGPU-Sim PTX: Finding postdominators for '_ZN5Graph8print1x1Ev'...
GPGPU-Sim PTX: Finding immediate postdominators for '_ZN5Graph8print1x1Ev'...
GPGPU-Sim PTX: pre-decoding instructions for '_ZN5Graph8print1x1Ev'...
GPGPU-Sim PTX: reconvergence points for _ZN5Graph8print1x1Ev...
GPGPU-Sim PTX:  1 (potential) branch divergence @  PC=0x2618 (_1.ptx:1945) @!%p1 bra $Lt_14_32002;
GPGPU-Sim PTX:    immediate post dominator      @  PC=0x2ee0 (_1.ptx:2298) ld.u32 %r73, [%rd2+8];
GPGPU-Sim PTX:  2 (potential) branch divergence @  PC=0x2648 (_1.ptx:1953) @!%p2 bra $Lt_14_26626;
GPGPU-Sim PTX:    immediate post dominator      @  PC=0x2710 (_1.ptx:1984) mov.u32 %r15, 0;
GPGPU-Sim PTX:  3 (potential) branch divergence @  PC=0x2678 (_1.ptx:1960) bra.uni $LDWendi__ZN5Graph12getOutDegreeEj_189_21;
GPGPU-Sim PTX:    immediate post dominator      @  PC=0x2710 (_1.ptx:1984) mov.u32 %r15, 0;
GPGPU-Sim PTX:  4 (potential) branch divergence @  PC=0x2720 (_1.ptx:1986) @%p5 bra $Lt_14_27138;
GPGPU-Sim PTX:    immediate post dominator      @  PC=0x2eb0 (_1.ptx:2290) add.u32 %r5, %r5, 1;
GPGPU-Sim PTX:  5 (potential) branch divergence @  PC=0x2750 (_1.ptx:1995) @!%p2 bra $Lt_14_32514;
GPGPU-Sim PTX:    immediate post dominator      @  PC=0x2ae0 (_1.ptx:2137) @!%p2 bra $Lt_14_34050;
GPGPU-Sim PTX:  6 (potential) branch divergence @  PC=0x2788 (_1.ptx:2003) @%p6 bra $Lt_14_32514;
GPGPU-Sim PTX:    immediate post dominator      @  PC=0x2ae0 (_1.ptx:2137) @!%p2 bra $Lt_14_34050;
GPGPU-Sim PTX:  7 (potential) branch divergence @  PC=0x27a0 (_1.ptx:2007) @%p7 bra $Lt_14_33026;
GPGPU-Sim PTX:    immediate post dominator      @  PC=0x28a0 (_1.ptx:2046) neg.s32 %r30, %r22;
GPGPU-Sim PTX:  8 (potential) branch divergence @  PC=0x27c8 (_1.ptx:2012) @%p8 bra $Lt_14_33026;
GPGPU-Sim PTX:    immediate post dominator      @  PC=0x28a0 (_1.ptx:2046) neg.s32 %r30, %r22;
GPGPU-Sim PTX:  9 (potential) branch divergence @  PC=0x27f8 (_1.ptx:2019) bra.uni $LDWendi__ZN5Graph12getFirstEdgeEj_189_14;
GPGPU-Sim PTX:    immediate post dominator      @  PC=0x28a0 (_1.ptx:2046) neg.s32 %r30, %r22;
GPGPU-Sim PTX: 10 (potential) branch divergence @  PC=0x28b0 (_1.ptx:2048) @%p9 bra $Lt_14_33538;
GPGPU-Sim PTX:    immediate post dominator      @  PC=0x2ae0 (_1.ptx:2137) @!%p2 bra $Lt_14_34050;
GPGPU-Sim PTX: 11 (potential) branch divergence @  PC=0x28d8 (_1.ptx:2053) @%p10 bra $Lt_14_33538;
GPGPU-Sim PTX:    immediate post dominator      @  PC=0x2ae0 (_1.ptx:2137) @!%p2 bra $Lt_14_34050;
GPGPU-Sim PTX: 12 (potential) branch divergence @  PC=0x2908 (_1.ptx:2060) bra.uni $LDWendi__ZN5Graph14getDestinationEjj_189_11;
GPGPU-Sim PTX:    immediate post dominator      @  PC=0x2ae0 (_1.ptx:2137) @!%p2 bra $Lt_14_34050;
GPGPU-Sim PTX: 13 (potential) branch divergence @  PC=0x2918 (_1.ptx:2065) bra.uni $LDWendi__ZN5Graph14getDestinationEjj_189_11;
GPGPU-Sim PTX:    immediate post dominator      @  PC=0x2ae0 (_1.ptx:2137) @!%p2 bra $Lt_14_34050;
GPGPU-Sim PTX: 14 (potential) branch divergence @  PC=0x2948 (_1.ptx:2073) @!%p2 bra $Lt_14_28674;
GPGPU-Sim PTX:    immediate post dominator      @  PC=0x2ac8 (_1.ptx:2132) ld.u32 %r3, [%rd2+4];
GPGPU-Sim PTX: 15 (potential) branch divergence @  PC=0x2990 (_1.ptx:2083) @%p11 bra $Lt_14_28930;
GPGPU-Sim PTX:    immediate post dominator      @  PC=0x2a30 (_1.ptx:2109) st.local.u32 [__cuda___cuda__temp__valist_array_49_801544+24], %r42;
GPGPU-Sim PTX: 16 (potential) branch divergence @  PC=0x29c0 (_1.ptx:2090) bra.uni $LDWendi__ZN5Graph12getOutDegreeEj_189_12;
GPGPU-Sim PTX:    immediate post dominator      @  PC=0x2a30 (_1.ptx:2109) st.local.u32 [__cuda___cuda__temp__valist_array_49_801544+24], %r42;
GPGPU-Sim PTX: 17 (potential) branch divergence @  PC=0x2a60 (_1.ptx:2115) bra.uni $Lt_14_28418;
GPGPU-Sim PTX:    immediate post dominator      @  PC=0x2ac8 (_1.ptx:2132) ld.u32 %r3, [%rd2+4];
GPGPU-Sim PTX: 18 (potential) branch divergence @  PC=0x2ae0 (_1.ptx:2137) @!%p2 bra $Lt_14_34050;
GPGPU-Sim PTX:    immediate post dominator      @  PC=0x2e50 (_1.ptx:2275) st.local.u32 [__cuda___cuda__temp__valist_array_43_161480+0], %r5;
GPGPU-Sim PTX: 19 (potential) branch divergence @  PC=0x2b18 (_1.ptx:2145) @%p12 bra $Lt_14_34050;
GPGPU-Sim PTX:    immediate post dominator      @  PC=0x2e50 (_1.ptx:2275) st.local.u32 [__cuda___cuda__temp__valist_array_43_161480+0], %r5;
GPGPU-Sim PTX: 20 (potential) branch divergence @  PC=0x2b30 (_1.ptx:2149) @%p13 bra $Lt_14_34562;
GPGPU-Sim PTX:    immediate post dominator      @  PC=0x2c20 (_1.ptx:2186) neg.s32 %r57, %r49;
GPGPU-Sim PTX: 21 (potential) branch divergence @  PC=0x2b58 (_1.ptx:2154) @%p14 bra $Lt_14_34562;
GPGPU-Sim PTX:    immediate post dominator      @  PC=0x2c20 (_1.ptx:2186) neg.s32 %r57, %r49;
GPGPU-Sim PTX: 22 (potential) branch divergence @  PC=0x2b88 (_1.ptx:2161) bra.uni $LDWendi__ZN5Graph12getFirstEdgeEj_189_4;
GPGPU-Sim PTX:    immediate post dominator      @  PC=0x2c20 (_1.ptx:2186) neg.s32 %r57, %r49;
GPGPU-Sim PTX: 23 (potential) branch divergence @  PC=0x2c30 (_1.ptx:2188) @%p15 bra $Lt_14_35074;
GPGPU-Sim PTX:    immediate post dominator      @  PC=0x2e50 (_1.ptx:2275) st.local.u32 [__cuda___cuda__temp__valist_array_43_161480+0], %r5;
GPGPU-Sim PTX: 24 (potential) branch divergence @  PC=0x2c58 (_1.ptx:2193) @%p16 bra $Lt_14_35074;
GPGPU-Sim PTX:    immediate post dominator      @  PC=0x2e50 (_1.ptx:2275) st.local.u32 [__cuda___cuda__temp__valist_array_43_161480+0], %r5;
GPGPU-Sim PTX: 25 (potential) branch divergence @  PC=0x2c88 (_1.ptx:2200) bra.uni $LDWendi__ZN5Graph9getWeightEjj_189_1;
GPGPU-Sim PTX:    immediate post dominator      @  PC=0x2e50 (_1.ptx:2275) st.local.u32 [__cuda___cuda__temp__valist_array_43_161480+0], %r5;
GPGPU-Sim PTX: 26 (potential) branch divergence @  PC=0x2c98 (_1.ptx:2205) bra.uni $LDWendi__ZN5Graph9getWeightEjj_189_1;
GPGPU-Sim PTX:    immediate post dominator      @  PC=0x2e50 (_1.ptx:2275) st.local.u32 [__cuda___cuda__temp__valist_array_43_161480+0], %r5;
GPGPU-Sim PTX: 27 (potential) branch divergence @  PC=0x2cc8 (_1.ptx:2213) @!%p2 bra $Lt_14_30210;
GPGPU-Sim PTX:    immediate post dominator      @  PC=0x2e48 (_1.ptx:2272) mov.u32 %r61, 1000000000;
GPGPU-Sim PTX: 28 (potential) branch divergence @  PC=0x2d10 (_1.ptx:2223) @%p17 bra $Lt_14_30466;
GPGPU-Sim PTX:    immediate post dominator      @  PC=0x2db0 (_1.ptx:2249) st.local.u32 [__cuda___cuda__temp__valist_array_51_1601624+24], %r68;
GPGPU-Sim PTX: 29 (potential) branch divergence @  PC=0x2d40 (_1.ptx:2230) bra.uni $LDWendi__ZN5Graph12getOutDegreeEj_189_2;
GPGPU-Sim PTX:    immediate post dominator      @  PC=0x2db0 (_1.ptx:2249) st.local.u32 [__cuda___cuda__temp__valist_array_51_1601624+24], %r68;
GPGPU-Sim PTX: 30 (potential) branch divergence @  PC=0x2de0 (_1.ptx:2255) bra.uni $Lt_14_29954;
GPGPU-Sim PTX:    immediate post dominator      @  PC=0x2e48 (_1.ptx:2272) mov.u32 %r61, 1000000000;
GPGPU-Sim PTX: 31 (potential) branch divergence @  PC=0x2ea8 (_1.ptx:2287) @%p18 bra $Lt_14_27650;
GPGPU-Sim PTX:    immediate post dominator      @  PC=0x2eb0 (_1.ptx:2290) add.u32 %r5, %r5, 1;
GPGPU-Sim PTX: 32 (potential) branch divergence @  PC=0x2ec8 (_1.ptx:2293) @%p2 bra $Lt_14_26370;
GPGPU-Sim PTX:    immediate post dominator      @  PC=0x2ed0 (_1.ptx:2294) bra.uni $Lt_14_25858;
GPGPU-Sim PTX: 33 (potential) branch divergence @  PC=0x2ed0 (_1.ptx:2294) bra.uni $Lt_14_25858;
GPGPU-Sim PTX:    immediate post dominator      @  PC=0x2ee0 (_1.ptx:2298) ld.u32 %r73, [%rd2+8];
GPGPU-Sim PTX: 34 (potential) branch divergence @  PC=0x2ef0 (_1.ptx:2300) @%p19 bra $Lt_14_31490;
GPGPU-Sim PTX:    immediate post dominator      @  PC=0x2f30 (_1.ptx:2311) ret;
GPGPU-Sim PTX: ... end of reconvergence points for _ZN5Graph8print1x1Ev
GPGPU-Sim PTX: ... done pre-decoding instructions for '_ZN5Graph8print1x1Ev'.
GPGPU-Sim PTX: allocating stack frame region for .local "__cuda___cuda__temp__valist_array_45_161680" from 0x80 to 0x98
GPGPU-Sim PTX: allocating stack frame region for .param "__cudaparma1_vprintf" from 0x98 to 0xa0
GPGPU-Sim PTX: allocating stack frame region for .param "__cudaparma2_vprintf" from 0xa0 to 0xa8
GPGPU-Sim PTX: instruction assembly for function '_ZN5Graph12getOutDegreeEj'...   done.
GPGPU-Sim PTX: finding reconvergence points for '_ZN5Graph12getOutDegreeEj'...
GPGPU-Sim PTX: Finding dominators for '_ZN5Graph12getOutDegreeEj'...
GPGPU-Sim PTX: Finding immediate dominators for '_ZN5Graph12getOutDegreeEj'...
GPGPU-Sim PTX: Finding postdominators for '_ZN5Graph12getOutDegreeEj'...
GPGPU-Sim PTX: Finding immediate postdominators for '_ZN5Graph12getOutDegreeEj'...
GPGPU-Sim PTX: pre-decoding instructions for '_ZN5Graph12getOutDegreeEj'...
GPGPU-Sim PTX: reconvergence points for _ZN5Graph12getOutDegreeEj...
GPGPU-Sim PTX:  1 (potential) branch divergence @  PC=0x2f68 (_1.ptx:2331) @%p1 bra $Lt_15_1026;
GPGPU-Sim PTX:    immediate post dominator      @  PC=0x3038 (_1.ptx:2362) mov.s32 %r12, %r4;
GPGPU-Sim PTX:  2 (potential) branch divergence @  PC=0x2f98 (_1.ptx:2338) bra.uni $LBB5__ZN5Graph12getOutDegreeEj;
GPGPU-Sim PTX:    immediate post dominator      @  PC=0x3038 (_1.ptx:2362) mov.s32 %r12, %r4;
GPGPU-Sim PTX: ... end of reconvergence points for _ZN5Graph12getOutDegreeEj
GPGPU-Sim PTX: ... done pre-decoding instructions for '_ZN5Graph12getOutDegreeEj'.
GPGPU-Sim PTX: allocating stack frame region for .local "__cuda___cuda__temp__valist_array_47_161704" from 0x80 to 0x98
GPGPU-Sim PTX: allocating stack frame region for .param "__cudaparma1_vprintf" from 0x98 to 0xa0
GPGPU-Sim PTX: allocating stack frame region for .param "__cudaparma2_vprintf" from 0xa0 to 0xa8
GPGPU-Sim PTX: instruction assembly for function '_ZN5Graph11getInDegreeEj'...   done.
GPGPU-Sim PTX: finding reconvergence points for '_ZN5Graph11getInDegreeEj'...
GPGPU-Sim PTX: Finding dominators for '_ZN5Graph11getInDegreeEj'...
GPGPU-Sim PTX: Finding immediate dominators for '_ZN5Graph11getInDegreeEj'...
GPGPU-Sim PTX: Finding postdominators for '_ZN5Graph11getInDegreeEj'...
GPGPU-Sim PTX: Finding immediate postdominators for '_ZN5Graph11getInDegreeEj'...
GPGPU-Sim PTX: pre-decoding instructions for '_ZN5Graph11getInDegreeEj'...
GPGPU-Sim PTX: reconvergence points for _ZN5Graph11getInDegreeEj...
GPGPU-Sim PTX:  1 (potential) branch divergence @  PC=0x3080 (_1.ptx:2384) @%p1 bra $Lt_16_1026;
GPGPU-Sim PTX:    immediate post dominator      @  PC=0x3150 (_1.ptx:2415) mov.s32 %r12, %r4;
GPGPU-Sim PTX:  2 (potential) branch divergence @  PC=0x30b0 (_1.ptx:2391) bra.uni $LBB5__ZN5Graph11getInDegreeEj;
GPGPU-Sim PTX:    immediate post dominator      @  PC=0x3150 (_1.ptx:2415) mov.s32 %r12, %r4;
GPGPU-Sim PTX: ... end of reconvergence points for _ZN5Graph11getInDegreeEj
[...]
GPGPU-Sim uArch: cycles simulated: 1756436  inst.: 47367993 (ipc=15.8) sim_rate=44813 (inst/sec) elapsed = 0:0:17:37 / Tue Mar 22 13:18:37 2016
GPGPU-Sim PTX: 50300000 instructions simulated : ctaid=(172,0,0) tid=(35,0,0)
GPGPU-Sim uArch: Shader 1 finished CTA #0 (1609829,147436), 1 CTAs running
GPGPU-Sim uArch: core:  1, cta: 0 initialized @(1609830,147436)
GPGPU-Sim uArch: Shader 0 finished CTA #0 (1610374,147436), 1 CTAs running
GPGPU-Sim uArch: core:  0, cta: 0 initialized @(1610375,147436)
GPGPU-Sim uArch: cycles simulated: 1757936  inst.: 47400340 (ipc=15.8) sim_rate=44801 (inst/sec) elapsed = 0:0:17:38 / Tue Mar 22 13:18:38 2016
GPGPU-Sim uArch: Shader 7 finished CTA #0 (1611883,147436), 1 CTAs running
GPGPU-Sim uArch: core:  7, cta: 0 initialized @(1611884,147436)
GPGPU-Sim uArch: cycles simulated: 1759936  inst.: 47436099 (ipc=15.8) sim_rate=44793 (inst/sec) elapsed = 0:0:17:39 / Tue Mar 22 13:18:39 2016
GPGPU-Sim uArch: cycles simulated: 1761436  inst.: 47458854 (ipc=15.8) sim_rate=44772 (inst/sec) elapsed = 0:0:17:40 / Tue Mar 22 13:18:40 2016
GPGPU-Sim PTX: 50400000 instructions simulated : ctaid=(178,0,0) tid=(423,0,0)
GPGPU-Sim uArch: cycles simulated: 1762936  inst.: 47487822 (ipc=15.8) sim_rate=44757 (inst/sec) elapsed = 0:0:17:41 / Tue Mar 22 13:18:41 2016
GPGPU-Sim uArch: Shader 3 finished CTA #0 (1616034,147436), 1 CTAs running
GPGPU-Sim uArch: core:  3, cta: 0 initialized @(1616035,147436)
GPGPU-Sim uArch: cycles simulated: 1764436  inst.: 47513105 (ipc=15.8) sim_rate=44739 (inst/sec) elapsed = 0:0:17:42 / Tue Mar 22 13:18:42 2016
GPGPU-Sim uArch: Shader 10 finished CTA #0 (1617369,147436), 1 CTAs running
GPGPU-Sim uArch: core: 10, cta: 0 initialized @(1617370,147436)
GPGPU-Sim uArch: cycles simulated: 1765936  inst.: 47533258 (ipc=15.8) sim_rate=44716 (inst/sec) elapsed = 0:0:17:43 / Tue Mar 22 13:18:43 2016
GPGPU-Sim PTX: 50500000 instructions simulated : ctaid=(172,0,0) tid=(235,0,0)
GPGPU-Sim uArch: cycles simulated: 1767436  inst.: 47572730 (ipc=15.8) sim_rate=44711 (inst/sec) elapsed = 0:0:17:44 / Tue Mar 22 13:18:44 2016
GPGPU-Sim uArch: cycles simulated: 1768936  inst.: 47596824 (ipc=15.8) sim_rate=44691 (inst/sec) elapsed = 0:0:17:45 / Tue Mar 22 13:18:45 2016
GPGPU-Sim uArch: Shader 2 finished CTA #0 (1621727,147436), 1 CTAs running
GPGPU-Sim uArch: core:  2, cta: 0 initialized @(1621728,147436)
GPGPU-Sim uArch: Shader 13 finished CTA #0 (1621735,147436), 1 CTAs running
GPGPU-Sim uArch: core: 13, cta: 0 initialized @(1621736,147436)
GPGPU-Sim uArch: cycles simulated: 1770436  inst.: 47624320 (ipc=15.8) sim_rate=44675 (inst/sec) elapsed = 0:0:17:46 / Tue Mar 22 13:18:46 2016
GPGPU-Sim uArch: Shader 5 finished CTA #0 (1623918,147436), 1 CTAs running
GPGPU-Sim uArch: core:  5, cta: 0 initialized @(1623919,147436)
GPGPU-Sim uArch: cycles simulated: 1771936  inst.: 47655053 (ipc=15.8) sim_rate=44662 (inst/sec) elapsed = 0:0:17:47 / Tue Mar 22 13:18:47 2016
GPGPU-Sim PTX: 50600000 instructions simulated : ctaid=(185,0,0) tid=(66,0,0)
GPGPU-Sim uArch: Shader 14 finished CTA #0 (1624755,147436), 1 CTAs running
GPGPU-Sim uArch: core: 14, cta: 0 initialized @(1624756,147436)
GPGPU-Sim uArch: Shader 6 finished CTA #0 (1625370,147436), 1 CTAs running
GPGPU-Sim uArch: core:  6, cta: 0 initialized @(1625371,147436)
GPGPU-Sim uArch: Shader 4 finished CTA #0 (1625885,147436), 1 CTAs running
GPGPU-Sim uArch: core:  4, cta: 0 initialized @(1625886,147436)
GPGPU-Sim uArch: cycles simulated: 1773436  inst.: 47688570 (ipc=15.8) sim_rate=44652 (inst/sec) elapsed = 0:0:17:48 / Tue Mar 22 13:18:48 2016
GPGPU-Sim uArch: cycles simulated: 1774936  inst.: 47731345 (ipc=15.8) sim_rate=44650 (inst/sec) elapsed = 0:0:17:49 / Tue Mar 22 13:18:49 2016
GPGPU-Sim uArch: Shader 8 finished CTA #0 (1627762,147436), 1 CTAs running
GPGPU-Sim uArch: core:  8, cta: 0 initialized @(1627763,147436)
GPGPU-Sim uArch: Shader 9 finished CTA #0 (1627985,147436), 1 CTAs running
GPGPU-Sim uArch: core:  9, cta: 0 initialized @(1627986,147436)
GPGPU-Sim PTX: 50700000 instructions simulated : ctaid=(190,0,0) tid=(283,0,0)
GPGPU-Sim uArch: cycles simulated: 1776436  inst.: 47761082 (ipc=15.8) sim_rate=44636 (inst/sec) elapsed = 0:0:17:50 / Tue Mar 22 13:18:50 2016
GPGPU-Sim uArch: Shader 12 finished CTA #0 (1630025,147436), 1 CTAs running
GPGPU-Sim uArch: core: 12, cta: 0 initialized @(1630026,147436)
GPGPU-Sim uArch: cycles simulated: 1777936  inst.: 47791350 (ipc=15.8) sim_rate=44623 (inst/sec) elapsed = 0:0:17:51 / Tue Mar 22 13:18:51 2016
GPGPU-Sim uArch: cycles simulated: 1778936  inst.: 47811677 (ipc=15.8) sim_rate=44600 (inst/sec) elapsed = 0:0:17:52 / Tue Mar 22 13:18:52 2016
GPGPU-Sim uArch: Shader 11 finished CTA #0 (1632889,147436), 1 CTAs running
GPGPU-Sim uArch: core: 11, cta: 0 initialized @(1632890,147436)
GPGPU-Sim uArch: cycles simulated: 1780436  inst.: 47836917 (ipc=15.8) sim_rate=44582 (inst/sec) elapsed = 0:0:17:53 / Tue Mar 22 13:18:53 2016
GPGPU-Sim PTX: 50800000 instructions simulated : ctaid=(175,0,0) tid=(116,0,0)
GPGPU-Sim uArch: cycles simulated: 1781936  inst.: 47863818 (ipc=15.8) sim_rate=44565 (inst/sec) elapsed = 0:0:17:54 / Tue Mar 22 13:18:54 2016
GPGPU-Sim uArch: cycles simulated: 1783436  inst.: 47892515 (ipc=15.8) sim_rate=44551 (inst/sec) elapsed = 0:0:17:55 / Tue Mar 22 13:18:55 2016
GPGPU-Sim uArch: cycles simulated: 1784436  inst.: 47911653 (ipc=15.8) sim_rate=44527 (inst/sec) elapsed = 0:0:17:56 / Tue Mar 22 13:18:56 2016
GPGPU-Sim uArch: cycles simulated: 1785936  inst.: 47929650 (ipc=15.8) sim_rate=44502 (inst/sec) elapsed = 0:0:17:57 / Tue Mar 22 13:18:57 2016
GPGPU-Sim PTX: 50900000 instructions simulated : ctaid=(188,0,0) tid=(155,0,0)
GPGPU-Sim uArch: cycles simulated: 1786936  inst.: 47948365 (ipc=15.8) sim_rate=44479 (inst/sec) elapsed = 0:0:17:58 / Tue Mar 22 13:18:58 2016
GPGPU-Sim uArch: cycles simulated: 1788436  inst.: 47971924 (ipc=15.8) sim_rate=44459 (inst/sec) elapsed = 0:0:17:59 / Tue Mar 22 13:18:59 2016
GPGPU-Sim uArch: cycles simulated: 1789936  inst.: 47992411 (ipc=15.8) sim_rate=44437 (inst/sec) elapsed = 0:0:18:00 / Tue Mar 22 13:19:00 2016
GPGPU-Sim uArch: cycles simulated: 1791436  inst.: 48017996 (ipc=15.8) sim_rate=44419 (inst/sec) elapsed = 0:0:18:01 / Tue Mar 22 13:19:01 2016
GPGPU-Sim PTX: 51000000 instructions simulated : ctaid=(182,0,0) tid=(129,0,0)
GPGPU-Sim uArch: cycles simulated: 1793436  inst.: 48045432 (ipc=15.8) sim_rate=44404 (inst/sec) elapsed = 0:0:18:02 / Tue Mar 22 13:19:02 2016
GPGPU-Sim uArch: cycles simulated: 1794936  inst.: 48067761 (ipc=15.8) sim_rate=44383 (inst/sec) elapsed = 0:0:18:03 / Tue Mar 22 13:19:03 2016
GPGPU-Sim uArch: cycles simulated: 1796436  inst.: 48085132 (ipc=15.8) sim_rate=44358 (inst/sec) elapsed = 0:0:18:04 / Tue Mar 22 13:19:04 2016
GPGPU-Sim uArch: cycles simulated: 1797936  inst.: 48109374 (ipc=15.8) sim_rate=44340 (inst/sec) elapsed = 0:0:18:05 / Tue Mar 22 13:19:05 2016
GPGPU-Sim PTX: 51100000 instructions simulated : ctaid=(180,0,0) tid=(407,0,0)
GPGPU-Sim uArch: cycles simulated: 1799436  inst.: 48130116 (ipc=15.8) sim_rate=44318 (inst/sec) elapsed = 0:0:18:06 / Tue Mar 22 13:19:06 2016
GPGPU-Sim uArch: cycles simulated: 1800936  inst.: 48148609 (ipc=15.8) sim_rate=44294 (inst/sec) elapsed = 0:0:18:07 / Tue Mar 22 13:19:07 2016
GPGPU-Sim uArch: cycles simulated: 1802936  inst.: 48178818 (ipc=15.8) sim_rate=44282 (inst/sec) elapsed = 0:0:18:08 / Tue Mar 22 13:19:08 2016
GPGPU-Sim uArch: cycles simulated: 1804436  inst.: 48198656 (ipc=15.8) sim_rate=44259 (inst/sec) elapsed = 0:0:18:09 / Tue Mar 22 13:19:09 2016
GPGPU-Sim PTX: 51200000 instructions simulated : ctaid=(183,0,0) tid=(211,0,0)
GPGPU-Sim uArch: cycles simulated: 1805936  inst.: 48220549 (ipc=15.8) sim_rate=44239 (inst/sec) elapsed = 0:0:18:10 / Tue Mar 22 13:19:10 2016
GPGPU-Sim uArch: cycles simulated: 1807936  inst.: 48245966 (ipc=15.8) sim_rate=44221 (inst/sec) elapsed = 0:0:18:11 / Tue Mar 22 13:19:11 2016
GPGPU-Sim uArch: cycles simulated: 1809436  inst.: 48267553 (ipc=15.8) sim_rate=44201 (inst/sec) elapsed = 0:0:18:12 / Tue Mar 22 13:19:12 2016
GPGPU-Sim uArch: cycles simulated: 1810936  inst.: 48287190 (ipc=15.8) sim_rate=44178 (inst/sec) elapsed = 0:0:18:13 / Tue Mar 22 13:19:13 2016
GPGPU-Sim PTX: 51300000 instructions simulated : ctaid=(183,0,0) tid=(388,0,0)
GPGPU-Sim uArch: cycles simulated: 1812936  inst.: 48317519 (ipc=15.8) sim_rate=44165 (inst/sec) elapsed = 0:0:18:14 / Tue Mar 22 13:19:14 2016
GPGPU-Sim uArch: cycles simulated: 1814436  inst.: 48336020 (ipc=15.8) sim_rate=44142 (inst/sec) elapsed = 0:0:18:15 / Tue Mar 22 13:19:15 2016
GPGPU-Sim uArch: cycles simulated: 1816436  inst.: 48363407 (ipc=15.8) sim_rate=44127 (inst/sec) elapsed = 0:0:18:16 / Tue Mar 22 13:19:16 2016
GPGPU-Sim uArch: cycles simulated: 1817936  inst.: 48381243 (ipc=15.8) sim_rate=44103 (inst/sec) elapsed = 0:0:18:17 / Tue Mar 22 13:19:17 2016
GPGPU-Sim uArch: cycles simulated: 1819936  inst.: 48403172 (ipc=15.8) sim_rate=44083 (inst/sec) elapsed = 0:0:18:18 / Tue Mar 22 13:19:18 2016
GPGPU-Sim PTX: 51400000 instructions simulated : ctaid=(186,0,0) tid=(81,0,0)
GPGPU-Sim uArch: cycles simulated: 1821936  inst.: 48428056 (ipc=15.8) sim_rate=44065 (inst/sec) elapsed = 0:0:18:19 / Tue Mar 22 13:19:19 2016
GPGPU-Sim uArch: cycles simulated: 1823436  inst.: 48449086 (ipc=15.8) sim_rate=44044 (inst/sec) elapsed = 0:0:18:20 / Tue Mar 22 13:19:20 2016
GPGPU-Sim uArch: cycles simulated: 1825436  inst.: 48479261 (ipc=15.8) sim_rate=44032 (inst/sec) elapsed = 0:0:18:21 / Tue Mar 22 13:19:21 2016
GPGPU-Sim PTX: 51500000 instructions simulated : ctaid=(179,0,0) tid=(308,0,0)
GPGPU-Sim uArch: cycles simulated: 1826936  inst.: 48499972 (ipc=15.8) sim_rate=44010 (inst/sec) elapsed = 0:0:18:22 / Tue Mar 22 13:19:22 2016
GPGPU-Sim uArch: cycles simulated: 1828936  inst.: 48524587 (ipc=15.8) sim_rate=43993 (inst/sec) elapsed = 0:0:18:23 / Tue Mar 22 13:19:23 2016
GPGPU-Sim uArch: cycles simulated: 1830436  inst.: 48552916 (ipc=15.8) sim_rate=43979 (inst/sec) elapsed = 0:0:18:24 / Tue Mar 22 13:19:24 2016
GPGPU-Sim uArch: cycles simulated: 1832436  inst.: 48581479 (ipc=15.8) sim_rate=43965 (inst/sec) elapsed = 0:0:18:25 / Tue Mar 22 13:19:25 2016
GPGPU-Sim PTX: 51600000 instructions simulated : ctaid=(192,0,0) tid=(335,0,0)
GPGPU-Sim uArch: cycles simulated: 1834436  inst.: 48603273 (ipc=15.8) sim_rate=43945 (inst/sec) elapsed = 0:0:18:26 / Tue Mar 22 13:19:26 2016
GPGPU-Sim uArch: cycles simulated: 1835936  inst.: 48624776 (ipc=15.8) sim_rate=43924 (inst/sec) elapsed = 0:0:18:27 / Tue Mar 22 13:19:27 2016
GPGPU-Sim uArch: cycles simulated: 1837936  inst.: 48658171 (ipc=15.8) sim_rate=43915 (inst/sec) elapsed = 0:0:18:28 / Tue Mar 22 13:19:28 2016
GPGPU-Sim uArch: cycles simulated: 1839936  inst.: 48680043 (ipc=15.8) sim_rate=43895 (inst/sec) elapsed = 0:0:18:29 / Tue Mar 22 13:19:29 2016
GPGPU-Sim PTX: 51700000 instructions simulated : ctaid=(194,0,0) tid=(23,0,0)
GPGPU-Sim uArch: cycles simulated: 1841436  inst.: 48699498 (ipc=15.8) sim_rate=43873 (inst/sec) elapsed = 0:0:18:30 / Tue Mar 22 13:19:30 2016
GPGPU-Sim uArch: cycles simulated: 1843436  inst.: 48739684 (ipc=15.8) sim_rate=43870 (inst/sec) elapsed = 0:0:18:31 / Tue Mar 22 13:19:31 2016
GPGPU-Sim uArch: cycles simulated: 1844936  inst.: 48764602 (ipc=15.8) sim_rate=43853 (inst/sec) elapsed = 0:0:18:32 / Tue Mar 22 13:19:32 2016
GPGPU-Sim PTX: 51800000 instructions simulated : ctaid=(181,0,0) tid=(43,0,0)
GPGPU-Sim uArch: cycles simulated: 1846936  inst.: 48791164 (ipc=15.8) sim_rate=43837 (inst/sec) elapsed = 0:0:18:33 / Tue Mar 22 13:19:33 2016
GPGPU-Sim uArch: cycles simulated: 1848436  inst.: 48812258 (ipc=15.8) sim_rate=43817 (inst/sec) elapsed = 0:0:18:34 / Tue Mar 22 13:19:34 2016
GPGPU-Sim uArch: cycles simulated: 1850436  inst.: 48840725 (ipc=15.8) sim_rate=43803 (inst/sec) elapsed = 0:0:18:35 / Tue Mar 22 13:19:35 2016
GPGPU-Sim PTX: 51900000 instructions simulated : ctaid=(186,0,0) tid=(215,0,0)
GPGPU-Sim uArch: cycles simulated: 1852436  inst.: 48873296 (ipc=15.8) sim_rate=43793 (inst/sec) elapsed = 0:0:18:36 / Tue Mar 22 13:19:36 2016
GPGPU-Sim uArch: cycles simulated: 1853936  inst.: 48897205 (ipc=15.8) sim_rate=43775 (inst/sec) elapsed = 0:0:18:37 / Tue Mar 22 13:19:37 2016
GPGPU-Sim uArch: cycles simulated: 1855936  inst.: 48928496 (ipc=15.8) sim_rate=43764 (inst/sec) elapsed = 0:0:18:38 / Tue Mar 22 13:19:38 2016
GPGPU-Sim uArch: cycles simulated: 1857936  inst.: 48956095 (ipc=15.8) sim_rate=43749 (inst/sec) elapsed = 0:0:18:39 / Tue Mar 22 13:19:39 2016
GPGPU-Sim PTX: 52000000 instructions simulated : ctaid=(188,0,0) tid=(406,0,0)
GPGPU-Sim uArch: cycles simulated: 1859436  inst.: 48977955 (ipc=15.8) sim_rate=43730 (inst/sec) elapsed = 0:0:18:40 / Tue Mar 22 13:19:40 2016
GPGPU-Sim uArch: cycles simulated: 1861436  inst.: 49015037 (ipc=15.8) sim_rate=43724 (inst/sec) elapsed = 0:0:18:41 / Tue Mar 22 13:19:41 2016
GPGPU-Sim uArch: cycles simulated: 1863436  inst.: 49045458 (ipc=15.8) sim_rate=43712 (inst/sec) elapsed = 0:0:18:42 / Tue Mar 22 13:19:42 2016
GPGPU-Sim PTX: 52100000 instructions simulated : ctaid=(178,0,0) tid=(487,0,0)
GPGPU-Sim uArch: cycles simulated: 1864936  inst.: 49072148 (ipc=15.8) sim_rate=43697 (inst/sec) elapsed = 0:0:18:43 / Tue Mar 22 13:19:43 2016
GPGPU-Sim uArch: cycles simulated: 1866936  inst.: 49107322 (ipc=15.8) sim_rate=43689 (inst/sec) elapsed = 0:0:18:44 / Tue Mar 22 13:19:44 2016
GPGPU-Sim uArch: cycles simulated: 1868936  inst.: 49142969 (ipc=15.8) sim_rate=43682 (inst/sec) elapsed = 0:0:18:45 / Tue Mar 22 13:19:45 2016
GPGPU-Sim PTX: 52200000 instructions simulated : ctaid=(168,0,0) tid=(490,0,0)
GPGPU-Sim uArch: cycles simulated: 1870936  inst.: 49172239 (ipc=15.8) sim_rate=43669 (inst/sec) elapsed = 0:0:18:46 / Tue Mar 22 13:19:46 2016
GPGPU-Sim uArch: cycles simulated: 1872936  inst.: 49206805 (ipc=15.8) sim_rate=43661 (inst/sec) elapsed = 0:0:18:47 / Tue Mar 22 13:19:47 2016
GPGPU-Sim uArch: cycles simulated: 1874936  inst.: 49236639 (ipc=15.8) sim_rate=43649 (inst/sec) elapsed = 0:0:18:48 / Tue Mar 22 13:19:48 2016
GPGPU-Sim PTX: 52300000 instructions simulated : ctaid=(177,0,0) tid=(299,0,0)
GPGPU-Sim uArch: cycles simulated: 1876936  inst.: 49277205 (ipc=15.8) sim_rate=43646 (inst/sec) elapsed = 0:0:18:49 / Tue Mar 22 13:19:49 2016
GPGPU-Sim uArch: cycles simulated: 1878936  inst.: 49304495 (ipc=15.8) sim_rate=43632 (inst/sec) elapsed = 0:0:18:50 / Tue Mar 22 13:19:50 2016
GPGPU-Sim PTX: 52400000 instructions simulated : ctaid=(188,0,0) tid=(230,0,0)
GPGPU-Sim uArch: cycles simulated: 1880936  inst.: 49334746 (ipc=15.8) sim_rate=43620 (inst/sec) elapsed = 0:0:18:51 / Tue Mar 22 13:19:51 2016
GPGPU-Sim uArch: cycles simulated: 1882936  inst.: 49366587 (ipc=15.8) sim_rate=43610 (inst/sec) elapsed = 0:0:18:52 / Tue Mar 22 13:19:52 2016
GPGPU-Sim uArch: cycles simulated: 1884936  inst.: 49401160 (ipc=15.8) sim_rate=43602 (inst/sec) elapsed = 0:0:18:53 / Tue Mar 22 13:19:53 2016
GPGPU-Sim PTX: 52500000 instructions simulated : ctaid=(186,0,0) tid=(425,0,0)
GPGPU-Sim uArch: cycles simulated: 1887436  inst.: 49433851 (ipc=15.8) sim_rate=43592 (inst/sec) elapsed = 0:0:18:54 / Tue Mar 22 13:19:54 2016
GPGPU-Sim uArch: cycles simulated: 1889436  inst.: 49464365 (ipc=15.8) sim_rate=43580 (inst/sec) elapsed = 0:0:18:55 / Tue Mar 22 13:19:55 2016
GPGPU-Sim uArch: cycles simulated: 1891436  inst.: 49490510 (ipc=15.8) sim_rate=43565 (inst/sec) elapsed = 0:0:18:56 / Tue Mar 22 13:19:56 2016
GPGPU-Sim PTX: 52600000 instructions simulated : ctaid=(183,0,0) tid=(312,0,0)
GPGPU-Sim uArch: cycles simulated: 1893436  inst.: 49520962 (ipc=15.8) sim_rate=43554 (inst/sec) elapsed = 0:0:18:57 / Tue Mar 22 13:19:57 2016
GPGPU-Sim uArch: Shader 7 finished CTA #1 (1748384,147436), 1 CTAs running
GPGPU-Sim uArch: core:  7, cta: 1 initialized @(1748385,147436)
GPGPU-Sim uArch: cycles simulated: 1895936  inst.: 49560695 (ipc=15.8) sim_rate=43550 (inst/sec) elapsed = 0:0:18:58 / Tue Mar 22 13:19:58 2016
GPGPU-Sim uArch: cycles simulated: 1897436  inst.: 49582455 (ipc=15.8) sim_rate=43531 (inst/sec) elapsed = 0:0:18:59 / Tue Mar 22 13:19:59 2016
GPGPU-Sim PTX: 52700000 instructions simulated : ctaid=(195,0,0) tid=(337,0,0)
GPGPU-Sim uArch: cycles simulated: 1899436  inst.: 49612147 (ipc=15.8) sim_rate=43519 (inst/sec) elapsed = 0:0:19:00 / Tue Mar 22 13:20:00 2016
GPGPU-Sim uArch: Shader 8 finished CTA #1 (1753041,147436), 1 CTAs running
GPGPU-Sim uArch: core:  8, cta: 1 initialized @(1753042,147436)
GPGPU-Sim uArch: cycles simulated: 1901436  inst.: 49649631 (ipc=15.8) sim_rate=43514 (inst/sec) elapsed = 0:0:19:01 / Tue Mar 22 13:20:01 2016
GPGPU-Sim uArch: cycles simulated: 1902936  inst.: 49670750 (ipc=15.8) sim_rate=43494 (inst/sec) elapsed = 0:0:19:02 / Tue Mar 22 13:20:02 2016
GPGPU-Sim uArch: cycles simulated: 1904436  inst.: 49692965 (ipc=15.8) sim_rate=43475 (inst/sec) elapsed = 0:0:19:03 / Tue Mar 22 13:20:03 2016
GPGPU-Sim PTX: 52800000 instructions simulated : ctaid=(187,0,0) tid=(373,0,0)
GPGPU-Sim uArch: cycles simulated: 1906436  inst.: 49725293 (ipc=15.8) sim_rate=43466 (inst/sec) elapsed = 0:0:19:04 / Tue Mar 22 13:20:04 2016
GPGPU-Sim uArch: Shader 5 finished CTA #1 (1759621,147436), 1 CTAs running
GPGPU-Sim uArch: core:  5, cta: 1 initialized @(1759622,147436)
GPGPU-Sim uArch: Shader 2 finished CTA #1 (1759629,147436), 1 CTAs running
GPGPU-Sim uArch: core:  2, cta: 1 initialized @(1759630,147436)
GPGPU-Sim uArch: Shader 0 finished CTA #1 (1759701,147436), 1 CTAs running
GPGPU-Sim uArch: core:  0, cta: 1 initialized @(1759702,147436)
GPGPU-Sim uArch: Shader 13 finished CTA #1 (1760257,147436), 1 CTAs running
GPGPU-Sim uArch: core: 13, cta: 1 initialized @(1760258,147436)
GPGPU-Sim uArch: cycles simulated: 1907936  inst.: 49759248 (ipc=15.8) sim_rate=43457 (inst/sec) elapsed = 0:0:19:05 / Tue Mar 22 13:20:05 2016
GPGPU-Sim uArch: Shader 1 finished CTA #1 (1760540,147436), 1 CTAs running
GPGPU-Sim uArch: core:  1, cta: 1 initialized @(1760541,147436)
GPGPU-Sim PTX: 52900000 instructions simulated : ctaid=(180,0,0) tid=(120,0,0)
GPGPU-Sim uArch: cycles simulated: 1909436  inst.: 49797215 (ipc=15.8) sim_rate=43453 (inst/sec) elapsed = 0:0:19:06 / Tue Mar 22 13:20:06 2016
GPGPU-Sim uArch: Shader 4 finished CTA #1 (1763211,147436), 1 CTAs running
GPGPU-Sim uArch: core:  4, cta: 1 initialized @(1763212,147436)
GPGPU-Sim uArch: cycles simulated: 1910936  inst.: 49834860 (ipc=15.8) sim_rate=43448 (inst/sec) elapsed = 0:0:19:07 / Tue Mar 22 13:20:07 2016
GPGPU-Sim uArch: Shader 14 finished CTA #1 (1764100,147436), 1 CTAs running
GPGPU-Sim uArch: core: 14, cta: 1 initialized @(1764101,147436)
GPGPU-Sim uArch: Shader 12 finished CTA #1 (1764258,147436), 1 CTAs running
GPGPU-Sim uArch: core: 12, cta: 1 initialized @(1764259,147436)
GPGPU-Sim uArch: cycles simulated: 1912436  inst.: 49856170 (ipc=15.8) sim_rate=43428 (inst/sec) elapsed = 0:0:19:08 / Tue Mar 22 13:20:08 2016
GPGPU-Sim uArch: Shader 3 finished CTA #1 (1766467,147436), 1 CTAs running
GPGPU-Sim uArch: core:  3, cta: 1 initialized @(1766468,147436)
GPGPU-Sim PTX: 53000000 instructions simulated : ctaid=(205,0,0) tid=(25,0,0)
GPGPU-Sim uArch: cycles simulated: 1913936  inst.: 49889447 (ipc=15.8) sim_rate=43419 (inst/sec) elapsed = 0:0:19:09 / Tue Mar 22 13:20:09 2016
GPGPU-Sim uArch: cycles simulated: 1914936  inst.: 49919985 (ipc=15.8) sim_rate=43408 (inst/sec) elapsed = 0:0:19:10 / Tue Mar 22 13:20:10 2016
GPGPU-Sim uArch: Shader 6 finished CTA #1 (1767637,147436), 1 CTAs running
GPGPU-Sim uArch: core:  6, cta: 1 initialized @(1767638,147436)
GPGPU-Sim uArch: cycles simulated: 1916436  inst.: 49950536 (ipc=15.8) sim_rate=43397 (inst/sec) elapsed = 0:0:19:11 / Tue Mar 22 13:20:11 2016
GPGPU-Sim PTX: 53100000 instructions simulated : ctaid=(206,0,0) tid=(256,0,0)
GPGPU-Sim uArch: cycles simulated: 1917936  inst.: 49982186 (ipc=15.8) sim_rate=43387 (inst/sec) elapsed = 0:0:19:12 / Tue Mar 22 13:20:12 2016
