

        *** GPGPU-Sim Simulator Version 3.2.2  [build 0] ***


GPGPU-Sim PTX: simulation mode 0 (can change with PTX_SIM_MODE_FUNC environment variable:
               1=functional simulation only, 0=detailed performance simulator)
GPGPU-Sim: Configuration options:

-network_mode                           1 # Interconnection network mode
-inter_config_file   config_fermi_islip.icnt # Interconnection network config file
-gpgpu_ptx_use_cuobjdump                    1 # Use cuobjdump to extract ptx and sass from binaries
-gpgpu_experimental_lib_support                    0 # Try to extract code from cuda libraries [Broken because of unknown cudaGetExportTable]
-gpgpu_ptx_convert_to_ptxplus                    0 # Convert SASS (native ISA) to ptxplus and run ptxplus
-gpgpu_ptx_force_max_capability                   20 # Force maximum compute capability
-gpgpu_ptx_inst_debug_to_file                    0 # Dump executed instructions' debug information to file
-gpgpu_ptx_inst_debug_file       inst_debug.txt # Executed instructions' debug output file
-gpgpu_ptx_inst_debug_thread_uid                    1 # Thread UID for executed instructions' debug output
-gpgpu_simd_model                       1 # 1 = post-dominator
-gpgpu_shader_core_pipeline              1536:32 # shader core pipeline config, i.e., {<nthread>:<warpsize>}
-gpgpu_tex_cache:l1  4:128:24,L:R:m:N:L,F:128:4,128:2 # per-shader L1 texture cache  (READ-ONLY) config  {<nsets>:<bsize>:<assoc>,<rep>:<wr>:<alloc>:<wr_alloc>,<mshr>:<N>:<merge>,<mq>:<rf>}
-gpgpu_const_cache:l1 64:64:2,L:R:f:N:L,A:2:32,4 # per-shader L1 constant memory cache  (READ-ONLY) config  {<nsets>:<bsize>:<assoc>,<rep>:<wr>:<alloc>:<wr_alloc>,<mshr>:<N>:<merge>,<mq>} 
-gpgpu_cache:il1     4:128:4,L:R:f:N:L,A:2:32,4 # shader L1 instruction cache config  {<nsets>:<bsize>:<assoc>,<rep>:<wr>:<alloc>:<wr_alloc>,<mshr>:<N>:<merge>,<mq>} 
-gpgpu_cache:dl1     32:128:4,L:L:m:N:H,A:32:8,8:2,0,1:0:1:1:0:1,1:4:8:16:32:64,/sciclone/data10/hwang07/GPU_RESEARCH/swl/swl_outputs/RESULTS/swl2/ # per-shader L1 data cache config  {<nsets>:<bsize>:<assoc>,<rep>:<wr>:<alloc>:<wr_alloc>,<mshr>:<N>:<merge>,<mq> | none}
-gpgpu_cache:dl1PrefL1                 none # per-shader L1 data cache config  {<nsets>:<bsize>:<assoc>,<rep>:<wr>:<alloc>:<wr_alloc>,<mshr>:<N>:<merge>,<mq> | none}
-gpgpu_cache:dl1PreShared                 none # per-shader L1 data cache config  {<nsets>:<bsize>:<assoc>,<rep>:<wr>:<alloc>:<wr_alloc>,<mshr>:<N>:<merge>,<mq> | none}
-gmem_skip_L1D                          0 # global memory access skip L1D cache (implements -Xptxas -dlcm=cg, default=no skip)
-gpgpu_perfect_mem                      0 # enable perfect memory mode (no cache miss)
-n_regfile_gating_group                    4 # group of lanes that should be read/written together)
-gpgpu_clock_gated_reg_file                    0 # enable clock gated reg file for power calculations
-gpgpu_clock_gated_lanes                    0 # enable clock gated lanes for power calculations
-gpgpu_shader_registers                32768 # Number of registers per shader core. Limits number of concurrent CTAs. (default 8192)
-gpgpu_shader_cta                       8 # Maximum number of concurrent CTAs in shader (default 8)
-gpgpu_num_cta_barriers                   16 # Maximum number of named barriers per CTA (default 16)
-gpgpu_n_clusters                      15 # number of processing clusters
-gpgpu_n_cores_per_cluster                    1 # number of simd cores per cluster
-gpgpu_n_cluster_ejection_buffer_size                    8 # number of packets in ejection buffer
-gpgpu_n_ldst_response_buffer_size                    2 # number of response packets in ld/st unit ejection buffer
-gpgpu_shmem_size                   16384 # Size of shared memory per shader core (default 16kB)
-gpgpu_shmem_size                   49152 # Size of shared memory per shader core (default 16kB)
-gpgpu_shmem_size_PrefL1                16384 # Size of shared memory per shader core (default 16kB)
-gpgpu_shmem_size_PrefShared                16384 # Size of shared memory per shader core (default 16kB)
-gpgpu_shmem_num_banks                   32 # Number of banks in the shared memory in each shader core (default 16)
-gpgpu_shmem_limited_broadcast                    0 # Limit shared memory to do one broadcast per cycle (default on)
-gpgpu_shmem_warp_parts                    1 # Number of portions a warp is divided into for shared memory bank conflict check 
-gpgpu_warpdistro_shader                   -1 # Specify which shader core to collect the warp size distribution from
-gpgpu_warp_issue_shader                    0 # Specify which shader core to collect the warp issue distribution from
-gpgpu_local_mem_map                    1 # Mapping from local memory space address to simulated GPU physical address space (default = enabled)
-gpgpu_num_reg_banks                   16 # Number of register banks (default = 8)
-gpgpu_reg_bank_use_warp_id                    0 # Use warp ID in mapping registers to banks (default = off)
-gpgpu_operand_collector_num_units_sp                    6 # number of collector units (default = 4)
-gpgpu_operand_collector_num_units_sfu                    8 # number of collector units (default = 4)
-gpgpu_operand_collector_num_units_mem                    2 # number of collector units (default = 2)
-gpgpu_operand_collector_num_units_gen                    0 # number of collector units (default = 0)
-gpgpu_operand_collector_num_in_ports_sp                    2 # number of collector unit in ports (default = 1)
-gpgpu_operand_collector_num_in_ports_sfu                    1 # number of collector unit in ports (default = 1)
-gpgpu_operand_collector_num_in_ports_mem                    1 # number of collector unit in ports (default = 1)
-gpgpu_operand_collector_num_in_ports_gen                    0 # number of collector unit in ports (default = 0)
-gpgpu_operand_collector_num_out_ports_sp                    2 # number of collector unit in ports (default = 1)
-gpgpu_operand_collector_num_out_ports_sfu                    1 # number of collector unit in ports (default = 1)
-gpgpu_operand_collector_num_out_ports_mem                    1 # number of collector unit in ports (default = 1)
-gpgpu_operand_collector_num_out_ports_gen                    0 # number of collector unit in ports (default = 0)
-gpgpu_coalesce_arch                   13 # Coalescing arch (default = 13, anything else is off for now)
-gpgpu_num_sched_per_core                    2 # Number of warp schedulers per core
-gpgpu_max_insn_issue_per_warp                    1 # Max number of instructions that can be issued per warp in one cycle by scheduler
-gpgpu_simt_core_sim_order                    1 # Select the simulation order of cores in a cluster (0=Fix, 1=Round-Robin)
-gpgpu_pipeline_widths        2,1,1,2,1,1,2 # Pipeline widths ID_OC_SP,ID_OC_SFU,ID_OC_MEM,OC_EX_SP,OC_EX_SFU,OC_EX_MEM,EX_WB
-gpgpu_num_sp_units                     2 # Number of SP units (default=1)
-gpgpu_num_sfu_units                    1 # Number of SF units (default=1)
-gpgpu_num_mem_units                    1 # Number if ldst units (default=1) WARNING: not hooked up to anything
-gpgpu_scheduler        warp_limiting:2:2 # Scheduler configuration: < lrr | gto | two_level_active > If two_level_active:<num_active_warps>:<inner_prioritization>:<outer_prioritization>For complete list of prioritization values see shader.h enum scheduler_prioritization_typeDefault: gto
-gpgpu_dram_scheduler                    1 # 0 = fifo, 1 = FR-FCFS (defaul)
-gpgpu_dram_partition_queues              8:8:8:8 # i2$:$2d:d2$:$2i
-l2_ideal                               0 # Use a ideal L2 cache that always hit
-gpgpu_cache:dl2     64:128:8,L:B:m:W:L,A:32:4,4:0,32 # unified banked L2 data cache config  {<nsets>:<bsize>:<assoc>,<rep>:<wr>:<alloc>:<wr_alloc>,<mshr>:<N>:<merge>,<mq>}
-gpgpu_cache:dl2_texture_only                    0 # L2 cache used for texture only
-gpgpu_n_mem                            6 # number of memory modules (e.g. memory controllers) in gpu
-gpgpu_n_sub_partition_per_mchannel                    2 # number of memory subpartition in each memory module
-gpgpu_n_mem_per_ctrlr                    2 # number of memory chips per memory controller
-gpgpu_memlatency_stat                   14 # track and display latency statistics 0x2 enables MC, 0x4 enables queue logs
-gpgpu_frfcfs_dram_sched_queue_size                   16 # 0 = unlimited (default); # entries per chip
-gpgpu_dram_return_queue_size                  116 # 0 = unlimited (default); # entries per chip
-gpgpu_dram_buswidth                    4 # default = 4 bytes (8 bytes per cycle at DDR)
-gpgpu_dram_burst_length                    8 # Burst length of each DRAM request (default = 4 data bus cycle)
-dram_data_command_freq_ratio                    4 # Frequency ratio between DRAM data bus and command bus (default = 2 times, i.e. DDR)
-gpgpu_dram_timing_opt nbk=16:CCD=2:RRD=6:RCD=12:RAS=28:RP=12:RC=40: CL=12:WL=4:CDLR=5:WR=12:nbkgrp=4:CCDL=3:RTPL=2 # DRAM timing parameters = {nbk:tCCD:tRRD:tRCD:tRAS:tRP:tRC:CL:WL:tCDLR:tWR:nbkgrp:tCCDL:tRTPL}
-rop_latency                          120 # ROP queue latency (default 85)
-dram_latency                         100 # DRAM latency (default 30)
-gpgpu_mem_addr_mapping dramid@8;00000000.00000000.00000000.00000000.0000RRRR.RRRRRRRR.BBBCCCCB.CCSSSSSS # mapping memory address to dram model {dramid@<start bit>;<memory address map>}
-gpgpu_mem_addr_test                    0 # run sweep test to check address mapping for aliased address
-gpgpu_mem_address_mask                    1 # 0 = old addressing mask, 1 = new addressing mask, 2 = new add. mask + flipped bank sel and chip sel bits
-gpuwattch_xml_file  gpuwattch_gtx480.xml # GPUWattch XML file
-power_simulation_enabled                    0 # Turn on power simulator (1=On, 0=Off)
-power_per_cycle_dump                    0 # Dump detailed power output each cycle
-power_trace_enabled                    0 # produce a file for the power trace (1=On, 0=Off)
-power_trace_zlevel                     6 # Compression level of the power trace output log (0=no comp, 9=highest)
-steady_power_levels_enabled                    0 # produce a file for the steady power levels (1=On, 0=Off)
-steady_state_definition                  8:4 # allowed deviation:number of samples
-gpgpu_max_cycle                        0 # terminates gpu simulation early (0 = no limit)
-gpgpu_max_insn                         0 # terminates gpu simulation early (0 = no limit)
-gpgpu_max_cta                          0 # terminates gpu simulation early (0 = no limit)
-gpgpu_runtime_stat                   500 # display runtime statistics such as dram utilization {<freq>:<flag>}
-liveness_message_freq                    1 # Minimum number of seconds between simulation liveness messages (0 = always print)
-gpgpu_flush_l1_cache                    0 # Flush L1 cache at the end of each kernel call
-gpgpu_flush_l2_cache                    0 # Flush L2 cache at the end of each kernel call
-gpgpu_deadlock_detect                    1 # Stop the simulation at deadlock (1=on (default), 0=off)
-gpgpu_ptx_instruction_classification                    0 # if enabled will classify ptx instruction types per kernel (Max 255 kernels now)
-gpgpu_ptx_sim_mode                     0 # Select between Performance (default) or Functional simulation (1)
-gpgpu_clock_domains 700.0:700.0:700.0:924.0 # Clock Domain Frequencies in MhZ {<Core Clock>:<ICNT Clock>:<L2 Clock>:<DRAM Clock>}
-gpgpu_max_concurrent_kernel                    8 # maximum kernels that can run concurrently on GPU
-gpgpu_cflog_interval                    0 # Interval between each snapshot in control flow logger
-visualizer_enabled                     0 # Turn on visualizer output (1=On, 0=Off)
-visualizer_outputfile                 NULL # Specifies the output log file for visualizer
-visualizer_zlevel                      6 # Compression level of the visualizer output log (0=no comp, 9=highest)
-trace_enabled                          0 # Turn on traces
-trace_components                    none # comma seperated list of traces to enable. Complete list found in trace_streams.tup. Default none
-trace_sampling_core                    0 # The core which is printed using CORE_DPRINTF. Default 0
-trace_sampling_memory_partition                   -1 # The memory partition which is printed using MEMPART_DPRINTF. Default -1 (i.e. all)
-enable_ptx_file_line_stats                    1 # Turn on PTX source line statistic profiling. (1 = On)
-ptx_line_stats_filename gpgpu_inst_stats.txt # Output file for PTX source line statistics.
-save_embedded_ptx                      0 # saves ptx files embedded in binary as <n>.ptx
-keep                                   0 # keep intermediate files created by GPGPU-Sim when interfacing with external programs
-gpgpu_ptx_save_converted_ptxplus                    0 # Saved converted ptxplus to a file
-ptx_opcode_latency_int         4,13,4,5,145 # Opcode latencies for integers <ADD,MAX,MUL,MAD,DIV>Default 1,1,19,25,145
-ptx_opcode_latency_fp          4,13,4,5,39 # Opcode latencies for single precision floating points <ADD,MAX,MUL,MAD,DIV>Default 1,1,1,1,30
-ptx_opcode_latency_dp         8,19,8,8,330 # Opcode latencies for double precision floating points <ADD,MAX,MUL,MAD,DIV>Default 8,8,8,8,335
-ptx_opcode_initiation_int            1,2,2,1,8 # Opcode initiation intervals for integers <ADD,MAX,MUL,MAD,DIV>Default 1,1,4,4,32
-ptx_opcode_initiation_fp            1,2,1,1,4 # Opcode initiation intervals for single precision floating points <ADD,MAX,MUL,MAD,DIV>Default 1,1,1,1,5
-ptx_opcode_initiation_dp         8,16,8,8,130 # Opcode initiation intervals for double precision floating points <ADD,MAX,MUL,MAD,DIV>Default 8,8,8,8,130
DRAM Timing Options:
nbk                                    16 # number of banks
CCD                                     2 # column to column delay
RRD                                     6 # minimal delay between activation of rows in different banks
RCD                                    12 # row to column delay
RAS                                    28 # time needed to activate row
RP                                     12 # time needed to precharge (deactivate) row
RC                                     40 # row cycle time
CDLR                                    5 # switching from write to read (changes tWTR)
WR                                     12 # last data-in to row precharge
CL                                     12 # CAS latency
WL                                      4 # Write latency
nbkgrp                                  4 # number of bank groups
CCDL                                    3 # column to column delay between accesses to different bank groups
RTPL                                    2 # read to precharge delay between accesses to different bank groups
Total number of memory sub partition = 12
addr_dec_mask[CHIP]  = 0000000000000000 	high:64 low:0
addr_dec_mask[BK]    = 000000000000e100 	high:16 low:8
addr_dec_mask[ROW]   = 000000000fff0000 	high:28 low:16
addr_dec_mask[COL]   = 0000000000001eff 	high:13 low:0
addr_dec_mask[BURST] = 000000000000003f 	high:6 low:0
sub_partition_id_mask = 0000000000000100
GPGPU-Sim uArch: clock freqs: 700000000.000000:700000000.000000:700000000.000000:924000000.000000
GPGPU-Sim uArch: clock periods: 0.00000000142857142857:0.00000000142857142857:0.00000000142857142857:0.00000000108225108225
*** Initializing Memory Statistics ***
GPGPU-Sim uArch: interconnect node map (shaderID+MemID to icntID)
GPGPU-Sim uArch: Memory nodes ID start from index: 15
GPGPU-Sim uArch:    0   1   2   3   4
GPGPU-Sim uArch:    5   6   7   8   9
GPGPU-Sim uArch:   10  11  12  13  14
GPGPU-Sim uArch:   15  16  17  18  19
GPGPU-Sim uArch:   20  21  22  23  24
GPGPU-Sim uArch:   25  26
GPGPU-Sim uArch: interconnect node reverse map (icntID to shaderID+MemID)
GPGPU-Sim uArch: Memory nodes start from ID: 15
GPGPU-Sim uArch:    0   1   2   3   4
GPGPU-Sim uArch:    5   6   7   8   9
GPGPU-Sim uArch:   10  11  12  13  14
GPGPU-Sim uArch:   15  16  17  18  19
GPGPU-Sim uArch:   20  21  22  23  24
GPGPU-Sim uArch:   25  26
7fda3539671ef22924a0c4c414b8a557  /sciclone/data10/hwang07/adwait/applications/benchmarks/shoc/bin/Serial/CUDA/MD
GPGPU-Sim uArch: performance model initialization complete.
GPGPU-Sim PTX: __cudaRegisterFatBinary, fat_cubin_handle = 1, filename=MD.cu
self exe links to: /sciclone/data10/hwang07/adwait/applications/benchmarks/shoc/bin/Serial/CUDA/MD
Running md5sum using "md5sum /sciclone/data10/hwang07/adwait/applications/benchmarks/shoc/bin/Serial/CUDA/MD "
Parsing file _cuobjdump_complete_output_EuGpr9
######### cuobjdump parser ########
## Adding new section ELF
Adding arch: sm_12
Adding identifier: MD.cu
## Adding new section ELF
Adding arch: sm_20
Adding identifier: MD.cu
## Adding new section PTX
Adding ptx filename: _cuobjdump_1.ptx
Adding arch: sm_20
Adding identifier: MD.cu
## Adding new section ELF
Adding arch: sm_13
Adding identifier: MD.cu
Done parsing!!!
GPGPU-Sim PTX: __cudaRegisterFunction _Z16compute_lj_forceId7double37double4Lb1E12texReader_dpEvPT0_PKT1_iPKiT_SA_SA_i : hostFun 0x0x406e30, fat_cubin_handle = 1
GPGPU-Sim PTX: allocating global region for "posTexture" from 0x100 to 0x104 (global memory space)
GPGPU-Sim PTX: instruction assembly for function '_Z16compute_lj_forceIf6float36float4Lb1E12texReader_spEvPT0_PKT1_iPKiT_SA_SA_i'...   done.
GPGPU-Sim PTX: finding reconvergence points for '_Z16compute_lj_forceIf6float36float4Lb1E12texReader_spEvPT0_PKT1_iPKiT_SA_SA_i'...
GPGPU-Sim PTX: Finding dominators for '_Z16compute_lj_forceIf6float36float4Lb1E12texReader_spEvPT0_PKT1_iPKiT_SA_SA_i'...
GPGPU-Sim PTX: Finding immediate dominators for '_Z16compute_lj_forceIf6float36float4Lb1E12texReader_spEvPT0_PKT1_iPKiT_SA_SA_i'...
GPGPU-Sim PTX: Finding postdominators for '_Z16compute_lj_forceIf6float36float4Lb1E12texReader_spEvPT0_PKT1_iPKiT_SA_SA_i'...
GPGPU-Sim PTX: Finding immediate postdominators for '_Z16compute_lj_forceIf6float36float4Lb1E12texReader_spEvPT0_PKT1_iPKiT_SA_SA_i'...
GPGPU-Sim PTX: pre-decoding instructions for '_Z16compute_lj_forceIf6float36float4Lb1E12texReader_spEvPT0_PKT1_iPKiT_SA_SA_i'...
GPGPU-Sim PTX: reconvergence points for _Z16compute_lj_forceIf6float36float4Lb1E12texReader_spEvPT0_PKT1_iPKiT_SA_SA_i...
GPGPU-Sim PTX:  1 (potential) branch divergence @  PC=0x068 (_1.ptx:82) @%p1 bra $Lt_0_4354;
GPGPU-Sim PTX:    immediate post dominator      @  PC=0x218 (_1.ptx:146) ld.param.u64 %rd10, [__cudaparm__Z16compute_lj_forceIf6float36float4Lb1E12texReader_spEvPT0_PKT1_iPKiT_SA_SA_i_force3];
GPGPU-Sim PTX:  2 (potential) branch divergence @  PC=0x170 (_1.ptx:118) @!%p2 bra $Lt_0_3586;
GPGPU-Sim PTX:    immediate post dominator      @  PC=0x1d8 (_1.ptx:135) add.s32 %r10, %r10, 1;
GPGPU-Sim PTX:  3 (potential) branch divergence @  PC=0x1f0 (_1.ptx:138) @%p3 bra $Lt_0_3330;
GPGPU-Sim PTX:    immediate post dominator      @  PC=0x1f8 (_1.ptx:139) bra.uni $Lt_0_2818;
GPGPU-Sim PTX:  4 (potential) branch divergence @  PC=0x1f8 (_1.ptx:139) bra.uni $Lt_0_2818;
GPGPU-Sim PTX:    immediate post dominator      @  PC=0x218 (_1.ptx:146) ld.param.u64 %rd10, [__cudaparm__Z16compute_lj_forceIf6float36float4Lb1E12texReader_spEvPT0_PKT1_iPKiT_SA_SA_i_force3];
GPGPU-Sim PTX: ... end of reconvergence points for _Z16compute_lj_forceIf6float36float4Lb1E12texReader_spEvPT0_PKT1_iPKiT_SA_SA_i
GPGPU-Sim PTX: ... done pre-decoding instructions for '_Z16compute_lj_forceIf6float36float4Lb1E12texReader_spEvPT0_PKT1_iPKiT_SA_SA_i'.
GPGPU-Sim PTX: allocating global region for "posTexture_dp" from 0x104 to 0x108 (global memory space)
GPGPU-Sim PTX: instruction assembly for function '_Z16compute_lj_forceId7double37double4Lb1E12texReader_dpEvPT0_PKT1_iPKiT_SA_SA_i'...   done.
GPGPU-Sim PTX: finding reconvergence points for '_Z16compute_lj_forceId7double37double4Lb1E12texReader_dpEvPT0_PKT1_iPKiT_SA_SA_i'...
GPGPU-Sim PTX: Finding dominators for '_Z16compute_lj_forceId7double37double4Lb1E12texReader_dpEvPT0_PKT1_iPKiT_SA_SA_i'...
GPGPU-Sim PTX: Finding immediate dominators for '_Z16compute_lj_forceId7double37double4Lb1E12texReader_dpEvPT0_PKT1_iPKiT_SA_SA_i'...
GPGPU-Sim PTX: Finding postdominators for '_Z16compute_lj_forceId7double37double4Lb1E12texReader_dpEvPT0_PKT1_iPKiT_SA_SA_i'...
GPGPU-Sim PTX: Finding immediate postdominators for '_Z16compute_lj_forceId7double37double4Lb1E12texReader_dpEvPT0_PKT1_iPKiT_SA_SA_i'...
GPGPU-Sim PTX: pre-decoding instructions for '_Z16compute_lj_forceId7double37double4Lb1E12texReader_dpEvPT0_PKT1_iPKiT_SA_SA_i'...
GPGPU-Sim PTX: reconvergence points for _Z16compute_lj_forceId7double37double4Lb1E12texReader_dpEvPT0_PKT1_iPKiT_SA_SA_i...
GPGPU-Sim PTX:  1 (potential) branch divergence @  PC=0x2c0 (_1.ptx:189) @%p1 bra $Lt_1_4354;
GPGPU-Sim PTX:    immediate post dominator      @  PC=0x4f0 (_1.ptx:270) ld.param.u64 %rd10, [__cudaparm__Z16compute_lj_forceId7double37double4Lb1E12texReader_dpEvPT0_PKT1_iPKiT_SA_SA_i_force3];
GPGPU-Sim PTX:  2 (potential) branch divergence @  PC=0x448 (_1.ptx:242) @!%p2 bra $Lt_1_3586;
GPGPU-Sim PTX:    immediate post dominator      @  PC=0x4b0 (_1.ptx:259) add.s32 %r10, %r10, 1;
GPGPU-Sim PTX:  3 (potential) branch divergence @  PC=0x4c8 (_1.ptx:262) @%p3 bra $Lt_1_3330;
GPGPU-Sim PTX:    immediate post dominator      @  PC=0x4d0 (_1.ptx:263) bra.uni $Lt_1_2818;
GPGPU-Sim PTX:  4 (potential) branch divergence @  PC=0x4d0 (_1.ptx:263) bra.uni $Lt_1_2818;
GPGPU-Sim PTX:    immediate post dominator      @  PC=0x4f0 (_1.ptx:270) ld.param.u64 %rd10, [__cudaparm__Z16compute_lj_forceId7double37double4Lb1E12texReader_dpEvPT0_PKT1_iPKiT_SA_SA_i_force3];
GPGPU-Sim PTX: ... end of reconvergence points for _Z16compute_lj_forceId7double37double4Lb1E12texReader_dpEvPT0_PKT1_iPKiT_SA_SA_i
GPGPU-Sim PTX: ... done pre-decoding instructions for '_Z16compute_lj_forceId7double37double4Lb1E12texReader_dpEvPT0_PKT1_iPKiT_SA_SA_i'.
GPGPU-Sim PTX: finished parsing EMBEDDED .ptx file _1.ptx
Adding _cuobjdump_1.ptx with cubin handle 1
GPGPU-Sim PTX: extracting embedded .ptx to temporary file "_ptx_YFoXmQ"
Running: cat _ptx_YFoXmQ | sed 's/.version 1.5/.version 1.4/' | sed 's/, texmode_independent//' | sed 's/\(\.extern \.const\[1\] .b8 \w\+\)\[\]/\1\[1\]/' | sed 's/const\[.\]/const\[0\]/g' > _ptx2_JTjKNB
GPGPU-Sim PTX: generating ptxinfo using "$CUDA_INSTALL_PATH/bin/ptxas --gpu-name=sm_20 -v _ptx2_JTjKNB --output-file  /dev/null 2> _ptx_YFoXmQinfo"
GPGPU-Sim PTX: Kernel '_Z16compute_lj_forceId7double37double4Lb1E12texReader_dpEvPT0_PKT1_iPKiT_SA_SA_i' : regs=37, lmem=0, smem=0, cmem=108
GPGPU-Sim PTX: Kernel '_Z16compute_lj_forceIf6float36float4Lb1E12texReader_spEvPT0_PKT1_iPKiT_SA_SA_i' : regs=26, lmem=0, smem=0, cmem=84
GPGPU-Sim PTX: removing ptxinfo using "rm -f _ptx_YFoXmQ _ptx2_JTjKNB _ptx_YFoXmQinfo"
GPGPU-Sim PTX: loading globals with explicit initializers... 
GPGPU-Sim PTX: finished loading globals (0 bytes total).
GPGPU-Sim PTX: loading constants with explicit initializers...  done.
GPGPU-Sim PTX: __cudaRegisterFunction _Z16compute_lj_forceIf6float36float4Lb1E12texReader_spEvPT0_PKT1_iPKiT_SA_SA_i : hostFun 0x0x406e20, fat_cubin_handle = 1
GPGPU-Sim PTX: in __cudaRegisterTexture:
GPGPU-Sim PTX:   int dim = 1
GPGPU-Sim PTX:   int norm = 0
GPGPU-Sim PTX:   int ext = 0
GPGPU-Sim PTX:   Execution warning: Not finished implementing "void __cudaRegisterTexture(void**, const textureReference*, const void**, const char*, int, int, int)"
GPGPU-Sim PTX: in __cudaRegisterTexture:
GPGPU-Sim PTX:   int dim = 1
GPGPU-Sim PTX:   int norm = 0
GPGPU-Sim PTX:   int ext = 0
GPGPU-Sim PTX:   Execution warning: Not finished implementing "void __cudaRegisterTexture(void**, const textureReference*, const void**, const char*, int, int, int)"
Chose device: name='GPGPU-Sim_vGPGPU-Sim Simulator Version 3.2.2 ' index=0
Running single precision test
Initializing test problem (this can take several minutes for large problems)
GPGPU-Sim PTX: in cudaBindTexture: sizeof(struct textureReference) = 104
GPGPU-Sim PTX:   size = 196608
GPGPU-Sim PTX:   texref = 0x61ee60, array = 0x1535960
GPGPU-Sim PTX:   devPtr32 = 80024000
GPGPU-Sim PTX:   Name corresponding to textureReference: posTexture
GPGPU-Sim PTX:   ChannelFormatDesc: x=32, y=32, z=32, w=32
GPGPU-Sim PTX:   Texture Normalized? = 0
GPGPU-Sim PTX:   texel size = 16
GPGPU-Sim PTX:   texture cache linesize = 128
GPGPU-Sim PTX:   Tx = 4; Ty = 2, Tx_numbits = 2, Ty_numbits = 1
GPGPU-Sim PTX:   Texel size = 16 bytes; texel_size_numbits = 4
GPGPU-Sim PTX:   Binding texture to array starting at devPtr32 = 0x80024000
GPGPU-Sim PTX:   Texel size = 16 bytes
GPGPU-Sim PTX: devPtr = 0xffffffff80024000
GPGPU-Sim PTX: in cudaBindTexture: sizeof(struct textureReference) = 104
GPGPU-Sim PTX:   size = 393216
GPGPU-Sim PTX:   texref = 0x61eee0, array = 0x153b560
GPGPU-Sim PTX:   devPtr32 = 80024000
GPGPU-Sim PTX:   Name corresponding to textureReference: posTexture_dp
GPGPU-Sim PTX:   ChannelFormatDesc: x=32, y=32, z=32, w=32
GPGPU-Sim PTX:   Texture Normalized? = 0
GPGPU-Sim PTX:   texel size = 16
GPGPU-Sim PTX:   texture cache linesize = 128
GPGPU-Sim PTX:   Tx = 4; Ty = 2, Tx_numbits = 2, Ty_numbits = 1
GPGPU-Sim PTX:   Texel size = 16 bytes; texel_size_numbits = 4
GPGPU-Sim PTX:   Binding texture to array starting at devPtr32 = 0x80024000
GPGPU-Sim PTX:   Texel size = 16 bytes
GPGPU-Sim PTX: devPtr = 0xffffffff80024000
  10% done
  20% done
  30% done
  40% done
  50% done
  60% done
  70% done
  80% done
  90% done
  100% done
Finished.
1570334 of 1572864 pairs within cutoff distance = 99.8391 %
event update
event update
GPGPU-Sim API: cudaEventSynchronize ** waiting for event
GPGPU-Sim API: cudaEventSynchronize ** event detected

GPGPU-Sim PTX: cudaLaunch for 0x0x406e20 (mode=performance simulation) on stream 0
GPGPU-Sim PTX: pushing kernel '_Z16compute_lj_forceIf6float36float4Lb1E12texReader_spEvPT0_PKT1_iPKiT_SA_SA_i' to stream 0, gridDim= (48,1,1) blockDim = (256,1,1) 
kernel '_Z16compute_lj_forceIf6float36float4Lb1E12texReader_spEvPT0_PKT1_iPKiT_SA_SA_i' transfer to GPU hardware scheduler
GPGPU-Sim uArch: Shader 1 bind to kernel 1 '_Z16compute_lj_forceIf6float36float4Lb1E12texReader_spEvPT0_PKT1_iPKiT_SA_SA_i'
GPGPU-Sim uArch: CTA/core = 4, limited by: regs
GPGPU-Sim uArch: core:  1, cta: 0 initialized @(1,0)
GPGPU-Sim uArch: Shader 2 bind to kernel 1 '_Z16compute_lj_forceIf6float36float4Lb1E12texReader_spEvPT0_PKT1_iPKiT_SA_SA_i'
GPGPU-Sim uArch: core:  2, cta: 0 initialized @(1,0)
GPGPU-Sim uArch: Shader 3 bind to kernel 1 '_Z16compute_lj_forceIf6float36float4Lb1E12texReader_spEvPT0_PKT1_iPKiT_SA_SA_i'
GPGPU-Sim uArch: core:  3, cta: 0 initialized @(1,0)
GPGPU-Sim uArch: Shader 4 bind to kernel 1 '_Z16compute_lj_forceIf6float36float4Lb1E12texReader_spEvPT0_PKT1_iPKiT_SA_SA_i'
GPGPU-Sim uArch: core:  4, cta: 0 initialized @(1,0)
GPGPU-Sim uArch: Shader 5 bind to kernel 1 '_Z16compute_lj_forceIf6float36float4Lb1E12texReader_spEvPT0_PKT1_iPKiT_SA_SA_i'
GPGPU-Sim uArch: core:  5, cta: 0 initialized @(1,0)
GPGPU-Sim uArch: Shader 6 bind to kernel 1 '_Z16compute_lj_forceIf6float36float4Lb1E12texReader_spEvPT0_PKT1_iPKiT_SA_SA_i'
GPGPU-Sim uArch: core:  6, cta: 0 initialized @(1,0)
GPGPU-Sim uArch: Shader 7 bind to kernel 1 '_Z16compute_lj_forceIf6float36float4Lb1E12texReader_spEvPT0_PKT1_iPKiT_SA_SA_i'
GPGPU-Sim uArch: core:  7, cta: 0 initialized @(1,0)
GPGPU-Sim uArch: Shader 8 bind to kernel 1 '_Z16compute_lj_forceIf6float36float4Lb1E12texReader_spEvPT0_PKT1_iPKiT_SA_SA_i'
GPGPU-Sim uArch: core:  8, cta: 0 initialized @(1,0)
GPGPU-Sim uArch: Shader 9 bind to kernel 1 '_Z16compute_lj_forceIf6float36float4Lb1E12texReader_spEvPT0_PKT1_iPKiT_SA_SA_i'
GPGPU-Sim uArch: core:  9, cta: 0 initialized @(1,0)
GPGPU-Sim uArch: Shader 10 bind to kernel 1 '_Z16compute_lj_forceIf6float36float4Lb1E12texReader_spEvPT0_PKT1_iPKiT_SA_SA_i'
GPGPU-Sim uArch: core: 10, cta: 0 initialized @(1,0)
GPGPU-Sim uArch: Shader 11 bind to kernel 1 '_Z16compute_lj_forceIf6float36float4Lb1E12texReader_spEvPT0_PKT1_iPKiT_SA_SA_i'
GPGPU-Sim uArch: core: 11, cta: 0 initialized @(1,0)
GPGPU-Sim uArch: Shader 12 bind to kernel 1 '_Z16compute_lj_forceIf6float36float4Lb1E12texReader_spEvPT0_PKT1_iPKiT_SA_SA_i'
GPGPU-Sim uArch: core: 12, cta: 0 initialized @(1,0)
GPGPU-Sim uArch: Shader 13 bind to kernel 1 '_Z16compute_lj_forceIf6float36float4Lb1E12texReader_spEvPT0_PKT1_iPKiT_SA_SA_i'
GPGPU-Sim uArch: core: 13, cta: 0 initialized @(1,0)
GPGPU-Sim uArch: Shader 14 bind to kernel 1 '_Z16compute_lj_forceIf6float36float4Lb1E12texReader_spEvPT0_PKT1_iPKiT_SA_SA_i'
GPGPU-Sim uArch: core: 14, cta: 0 initialized @(1,0)
GPGPU-Sim uArch: Shader 0 bind to kernel 1 '_Z16compute_lj_forceIf6float36float4Lb1E12texReader_spEvPT0_PKT1_iPKiT_SA_SA_i'
GPGPU-Sim uArch: core:  0, cta: 0 initialized @(1,0)
GPGPU-Sim uArch: core:  1, cta: 1 initialized @(2,0)
GPGPU-Sim uArch: core:  2, cta: 1 initialized @(2,0)
GPGPU-Sim uArch: core:  3, cta: 1 initialized @(2,0)
GPGPU-Sim uArch: core:  4, cta: 1 initialized @(2,0)
GPGPU-Sim uArch: core:  5, cta: 1 initialized @(2,0)
GPGPU-Sim uArch: core:  6, cta: 1 initialized @(2,0)
GPGPU-Sim uArch: core:  7, cta: 1 initialized @(2,0)
GPGPU-Sim uArch: core:  8, cta: 1 initialized @(2,0)
GPGPU-Sim uArch: core:  9, cta: 1 initialized @(2,0)
GPGPU-Sim uArch: core: 10, cta: 1 initialized @(2,0)
GPGPU-Sim uArch: core: 11, cta: 1 initialized @(2,0)
GPGPU-Sim uArch: core: 12, cta: 1 initialized @(2,0)
GPGPU-Sim uArch: core: 13, cta: 1 initialized @(2,0)
GPGPU-Sim uArch: core: 14, cta: 1 initialized @(2,0)
GPGPU-Sim uArch: core:  0, cta: 1 initialized @(2,0)
GPGPU-Sim uArch: core:  1, cta: 2 initialized @(3,0)
GPGPU-Sim uArch: core:  2, cta: 2 initialized @(3,0)
GPGPU-Sim uArch: core:  3, cta: 2 initialized @(3,0)
GPGPU-Sim uArch: core:  4, cta: 2 initialized @(3,0)
GPGPU-Sim uArch: core:  5, cta: 2 initialized @(3,0)
GPGPU-Sim uArch: core:  6, cta: 2 initialized @(3,0)
GPGPU-Sim uArch: core:  7, cta: 2 initialized @(3,0)
GPGPU-Sim uArch: core:  8, cta: 2 initialized @(3,0)
GPGPU-Sim uArch: core:  9, cta: 2 initialized @(3,0)
GPGPU-Sim uArch: core: 10, cta: 2 initialized @(3,0)
GPGPU-Sim uArch: core: 11, cta: 2 initialized @(3,0)
GPGPU-Sim uArch: core: 12, cta: 2 initialized @(3,0)
GPGPU-Sim uArch: core: 13, cta: 2 initialized @(3,0)
GPGPU-Sim uArch: core: 14, cta: 2 initialized @(3,0)
GPGPU-Sim uArch: core:  0, cta: 2 initialized @(3,0)
GPGPU-Sim uArch: core:  1, cta: 3 initialized @(4,0)
GPGPU-Sim uArch: core:  2, cta: 3 initialized @(4,0)
GPGPU-Sim uArch: core:  3, cta: 3 initialized @(4,0)
GPGPU-Sim uArch: cycles simulated: 500  inst.: 13440 (ipc=26.9) sim_rate=537 (inst/sec) elapsed = 0:0:00:25 / Tue Mar 22 12:44:31 2016
GPGPU-Sim uArch: cycles simulated: 1000  inst.: 27328 (ipc=27.3) sim_rate=1012 (inst/sec) elapsed = 0:0:00:27 / Tue Mar 22 12:44:33 2016
GPGPU-Sim uArch: cycles simulated: 3000  inst.: 81344 (ipc=27.1) sim_rate=2905 (inst/sec) elapsed = 0:0:00:28 / Tue Mar 22 12:44:34 2016
GPGPU-Sim PTX: 100000 instructions simulated : ctaid=(14,0,0) tid=(31,0,0)
GPGPU-Sim uArch: cycles simulated: 4500  inst.: 145216 (ipc=32.3) sim_rate=5007 (inst/sec) elapsed = 0:0:00:29 / Tue Mar 22 12:44:35 2016
GPGPU-Sim PTX: 200000 instructions simulated : ctaid=(10,0,0) tid=(127,0,0)
GPGPU-Sim uArch: cycles simulated: 6500  inst.: 221344 (ipc=34.1) sim_rate=7378 (inst/sec) elapsed = 0:0:00:30 / Tue Mar 22 12:44:36 2016
GPGPU-Sim PTX: 300000 instructions simulated : ctaid=(10,0,0) tid=(63,0,0)
GPGPU-Sim uArch: cycles simulated: 8500  inst.: 301856 (ipc=35.5) sim_rate=9737 (inst/sec) elapsed = 0:0:00:31 / Tue Mar 22 12:44:37 2016
GPGPU-Sim uArch: cycles simulated: 10000  inst.: 365856 (ipc=36.6) sim_rate=11433 (inst/sec) elapsed = 0:0:00:32 / Tue Mar 22 12:44:38 2016
GPGPU-Sim PTX: 400000 instructions simulated : ctaid=(0,0,0) tid=(63,0,0)
GPGPU-Sim uArch: cycles simulated: 12000  inst.: 457568 (ipc=38.1) sim_rate=13865 (inst/sec) elapsed = 0:0:00:33 / Tue Mar 22 12:44:39 2016
GPGPU-Sim PTX: 500000 instructions simulated : ctaid=(12,0,0) tid=(63,0,0)
GPGPU-Sim uArch: cycles simulated: 13500  inst.: 517408 (ipc=38.3) sim_rate=15217 (inst/sec) elapsed = 0:0:00:34 / Tue Mar 22 12:44:40 2016
GPGPU-Sim PTX: 600000 instructions simulated : ctaid=(4,0,0) tid=(127,0,0)
GPGPU-Sim uArch: cycles simulated: 16000  inst.: 617536 (ipc=38.6) sim_rate=17643 (inst/sec) elapsed = 0:0:00:35 / Tue Mar 22 12:44:41 2016
GPGPU-Sim PTX: 700000 instructions simulated : ctaid=(2,0,0) tid=(63,0,0)
GPGPU-Sim uArch: cycles simulated: 18500  inst.: 714176 (ipc=38.6) sim_rate=19838 (inst/sec) elapsed = 0:0:00:36 / Tue Mar 22 12:44:42 2016
GPGPU-Sim PTX: 800000 instructions simulated : ctaid=(14,0,0) tid=(95,0,0)
GPGPU-Sim uArch: cycles simulated: 21000  inst.: 813056 (ipc=38.7) sim_rate=21974 (inst/sec) elapsed = 0:0:00:37 / Tue Mar 22 12:44:43 2016
GPGPU-Sim PTX: 900000 instructions simulated : ctaid=(4,0,0) tid=(95,0,0)
GPGPU-Sim uArch: cycles simulated: 23500  inst.: 911744 (ipc=38.8) sim_rate=23993 (inst/sec) elapsed = 0:0:00:38 / Tue Mar 22 12:44:44 2016
GPGPU-Sim PTX: 1000000 instructions simulated : ctaid=(6,0,0) tid=(31,0,0)
GPGPU-Sim uArch: cycles simulated: 26000  inst.: 1011520 (ipc=38.9) sim_rate=25936 (inst/sec) elapsed = 0:0:00:39 / Tue Mar 22 12:44:45 2016
GPGPU-Sim PTX: 1100000 instructions simulated : ctaid=(10,0,0) tid=(127,0,0)
GPGPU-Sim uArch: cycles simulated: 27500  inst.: 1074464 (ipc=39.1) sim_rate=26861 (inst/sec) elapsed = 0:0:00:40 / Tue Mar 22 12:44:46 2016
GPGPU-Sim uArch: cycles simulated: 29500  inst.: 1159328 (ipc=39.3) sim_rate=28276 (inst/sec) elapsed = 0:0:00:41 / Tue Mar 22 12:44:47 2016
GPGPU-Sim PTX: 1200000 instructions simulated : ctaid=(9,0,0) tid=(127,0,0)
GPGPU-Sim uArch: cycles simulated: 32000  inst.: 1259264 (ipc=39.4) sim_rate=29982 (inst/sec) elapsed = 0:0:00:42 / Tue Mar 22 12:44:48 2016
GPGPU-Sim PTX: 1300000 instructions simulated : ctaid=(3,0,0) tid=(95,0,0)
GPGPU-Sim PTX: 1400000 instructions simulated : ctaid=(7,0,0) tid=(31,0,0)
GPGPU-Sim uArch: cycles simulated: 35000  inst.: 1371648 (ipc=39.2) sim_rate=31898 (inst/sec) elapsed = 0:0:00:43 / Tue Mar 22 12:44:49 2016
GPGPU-Sim uArch: cycles simulated: 37000  inst.: 1448576 (ipc=39.2) sim_rate=32922 (inst/sec) elapsed = 0:0:00:44 / Tue Mar 22 12:44:50 2016
GPGPU-Sim PTX: 1500000 instructions simulated : ctaid=(1,0,0) tid=(31,0,0)
GPGPU-Sim uArch: cycles simulated: 39500  inst.: 1549184 (ipc=39.2) sim_rate=34426 (inst/sec) elapsed = 0:0:00:45 / Tue Mar 22 12:44:51 2016
GPGPU-Sim PTX: 1600000 instructions simulated : ctaid=(12,0,0) tid=(63,0,0)
GPGPU-Sim PTX: 1700000 instructions simulated : ctaid=(1,0,0) tid=(31,0,0)
GPGPU-Sim uArch: cycles simulated: 42000  inst.: 1656576 (ipc=39.4) sim_rate=36012 (inst/sec) elapsed = 0:0:00:46 / Tue Mar 22 12:44:52 2016
GPGPU-Sim PTX: 1800000 instructions simulated : ctaid=(9,0,0) tid=(95,0,0)
GPGPU-Sim uArch: cycles simulated: 44500  inst.: 1761696 (ipc=39.6) sim_rate=37482 (inst/sec) elapsed = 0:0:00:47 / Tue Mar 22 12:44:53 2016
GPGPU-Sim PTX: 1900000 instructions simulated : ctaid=(3,0,0) tid=(63,0,0)
GPGPU-Sim uArch: cycles simulated: 47000  inst.: 1858944 (ipc=39.6) sim_rate=38728 (inst/sec) elapsed = 0:0:00:48 / Tue Mar 22 12:44:54 2016
GPGPU-Sim PTX: 2000000 instructions simulated : ctaid=(1,0,0) tid=(31,0,0)
GPGPU-Sim uArch: cycles simulated: 49500  inst.: 1961984 (ipc=39.6) sim_rate=40040 (inst/sec) elapsed = 0:0:00:49 / Tue Mar 22 12:44:55 2016
GPGPU-Sim PTX: 2100000 instructions simulated : ctaid=(11,0,0) tid=(127,0,0)
GPGPU-Sim uArch: cycles simulated: 52000  inst.: 2064992 (ipc=39.7) sim_rate=41299 (inst/sec) elapsed = 0:0:00:50 / Tue Mar 22 12:44:56 2016
GPGPU-Sim PTX: 2200000 instructions simulated : ctaid=(13,0,0) tid=(95,0,0)
GPGPU-Sim uArch: cycles simulated: 54000  inst.: 2148224 (ipc=39.8) sim_rate=42122 (inst/sec) elapsed = 0:0:00:51 / Tue Mar 22 12:44:57 2016
GPGPU-Sim PTX: 2300000 instructions simulated : ctaid=(5,0,0) tid=(63,0,0)
GPGPU-Sim uArch: cycles simulated: 56500  inst.: 2252000 (ipc=39.9) sim_rate=43307 (inst/sec) elapsed = 0:0:00:52 / Tue Mar 22 12:44:58 2016
GPGPU-Sim PTX: 2400000 instructions simulated : ctaid=(14,0,0) tid=(31,0,0)
GPGPU-Sim uArch: cycles simulated: 59000  inst.: 2356480 (ipc=39.9) sim_rate=44461 (inst/sec) elapsed = 0:0:00:53 / Tue Mar 22 12:44:59 2016
GPGPU-Sim PTX: 2500000 instructions simulated : ctaid=(7,0,0) tid=(95,0,0)
GPGPU-Sim uArch: cycles simulated: 61000  inst.: 2433472 (ipc=39.9) sim_rate=45064 (inst/sec) elapsed = 0:0:00:54 / Tue Mar 22 12:45:00 2016
GPGPU-Sim PTX: 2600000 instructions simulated : ctaid=(13,0,0) tid=(95,0,0)
GPGPU-Sim uArch: cycles simulated: 63500  inst.: 2533888 (ipc=39.9) sim_rate=46070 (inst/sec) elapsed = 0:0:00:55 / Tue Mar 22 12:45:01 2016
GPGPU-Sim PTX: 2700000 instructions simulated : ctaid=(11,0,0) tid=(95,0,0)
GPGPU-Sim uArch: cycles simulated: 66000  inst.: 2633920 (ipc=39.9) sim_rate=47034 (inst/sec) elapsed = 0:0:00:56 / Tue Mar 22 12:45:02 2016
GPGPU-Sim PTX: 2800000 instructions simulated : ctaid=(2,0,0) tid=(127,0,0)
GPGPU-Sim uArch: cycles simulated: 68500  inst.: 2731680 (ipc=39.9) sim_rate=47924 (inst/sec) elapsed = 0:0:00:57 / Tue Mar 22 12:45:03 2016
GPGPU-Sim PTX: 2900000 instructions simulated : ctaid=(13,0,0) tid=(127,0,0)
GPGPU-Sim uArch: cycles simulated: 71000  inst.: 2831584 (ipc=39.9) sim_rate=48820 (inst/sec) elapsed = 0:0:00:58 / Tue Mar 22 12:45:04 2016
GPGPU-Sim PTX: 3000000 instructions simulated : ctaid=(9,0,0) tid=(31,0,0)
GPGPU-Sim uArch: cycles simulated: 73500  inst.: 2933760 (ipc=39.9) sim_rate=49724 (inst/sec) elapsed = 0:0:00:59 / Tue Mar 22 12:45:05 2016
GPGPU-Sim PTX: 3100000 instructions simulated : ctaid=(13,0,0) tid=(95,0,0)
GPGPU-Sim uArch: cycles simulated: 76000  inst.: 3031200 (ipc=39.9) sim_rate=50520 (inst/sec) elapsed = 0:0:01:00 / Tue Mar 22 12:45:06 2016
GPGPU-Sim PTX: 3200000 instructions simulated : ctaid=(4,0,0) tid=(127,0,0)
GPGPU-Sim uArch: cycles simulated: 78500  inst.: 3134816 (ipc=39.9) sim_rate=51390 (inst/sec) elapsed = 0:0:01:01 / Tue Mar 22 12:45:07 2016
GPGPU-Sim PTX: 3300000 instructions simulated : ctaid=(5,0,0) tid=(95,0,0)
GPGPU-Sim uArch: cycles simulated: 81000  inst.: 3235328 (ipc=39.9) sim_rate=52182 (inst/sec) elapsed = 0:0:01:02 / Tue Mar 22 12:45:08 2016
GPGPU-Sim PTX: 3400000 instructions simulated : ctaid=(3,0,0) tid=(127,0,0)
GPGPU-Sim uArch: cycles simulated: 83500  inst.: 3335456 (ipc=39.9) sim_rate=52943 (inst/sec) elapsed = 0:0:01:03 / Tue Mar 22 12:45:09 2016
GPGPU-Sim PTX: 3500000 instructions simulated : ctaid=(4,0,0) tid=(127,0,0)
GPGPU-Sim uArch: cycles simulated: 86500  inst.: 3453920 (ipc=39.9) sim_rate=53967 (inst/sec) elapsed = 0:0:01:04 / Tue Mar 22 12:45:10 2016
GPGPU-Sim PTX: 3600000 instructions simulated : ctaid=(1,0,0) tid=(63,0,0)
GPGPU-Sim uArch: cycles simulated: 89000  inst.: 3552928 (ipc=39.9) sim_rate=54660 (inst/sec) elapsed = 0:0:01:05 / Tue Mar 22 12:45:11 2016
GPGPU-Sim PTX: 3700000 instructions simulated : ctaid=(8,0,0) tid=(63,0,0)
GPGPU-Sim uArch: cycles simulated: 91500  inst.: 3652320 (ipc=39.9) sim_rate=55338 (inst/sec) elapsed = 0:0:01:06 / Tue Mar 22 12:45:12 2016
GPGPU-Sim PTX: 3800000 instructions simulated : ctaid=(5,0,0) tid=(95,0,0)
GPGPU-Sim uArch: cycles simulated: 94000  inst.: 3748864 (ipc=39.9) sim_rate=55953 (inst/sec) elapsed = 0:0:01:07 / Tue Mar 22 12:45:13 2016
GPGPU-Sim PTX: 3900000 instructions simulated : ctaid=(0,0,0) tid=(95,0,0)
GPGPU-Sim uArch: cycles simulated: 96500  inst.: 3846624 (ipc=39.9) sim_rate=56568 (inst/sec) elapsed = 0:0:01:08 / Tue Mar 22 12:45:14 2016
GPGPU-Sim PTX: 4000000 instructions simulated : ctaid=(1,0,0) tid=(31,0,0)
GPGPU-Sim uArch: cycles simulated: 99000  inst.: 3953088 (ipc=39.9) sim_rate=57291 (inst/sec) elapsed = 0:0:01:09 / Tue Mar 22 12:45:15 2016
GPGPU-Sim PTX: 4100000 instructions simulated : ctaid=(14,0,0) tid=(31,0,0)
GPGPU-Sim uArch: cycles simulated: 101500  inst.: 4050016 (ipc=39.9) sim_rate=57857 (inst/sec) elapsed = 0:0:01:10 / Tue Mar 22 12:45:16 2016
GPGPU-Sim PTX: 4200000 instructions simulated : ctaid=(5,0,0) tid=(95,0,0)
GPGPU-Sim uArch: cycles simulated: 104000  inst.: 4151104 (ipc=39.9) sim_rate=58466 (inst/sec) elapsed = 0:0:01:11 / Tue Mar 22 12:45:17 2016
GPGPU-Sim PTX: 4300000 instructions simulated : ctaid=(4,0,0) tid=(95,0,0)
GPGPU-Sim uArch: cycles simulated: 106500  inst.: 4252992 (ipc=39.9) sim_rate=59069 (inst/sec) elapsed = 0:0:01:12 / Tue Mar 22 12:45:18 2016
GPGPU-Sim PTX: 4400000 instructions simulated : ctaid=(5,0,0) tid=(63,0,0)
GPGPU-Sim uArch: cycles simulated: 109000  inst.: 4349088 (ipc=39.9) sim_rate=59576 (inst/sec) elapsed = 0:0:01:13 / Tue Mar 22 12:45:19 2016
GPGPU-Sim PTX: 4500000 instructions simulated : ctaid=(4,0,0) tid=(63,0,0)
GPGPU-Sim uArch: cycles simulated: 111000  inst.: 4429408 (ipc=39.9) sim_rate=59856 (inst/sec) elapsed = 0:0:01:14 / Tue Mar 22 12:45:20 2016
GPGPU-Sim PTX: 4600000 instructions simulated : ctaid=(8,0,0) tid=(127,0,0)
GPGPU-Sim uArch: cycles simulated: 113500  inst.: 4530432 (ipc=39.9) sim_rate=60405 (inst/sec) elapsed = 0:0:01:15 / Tue Mar 22 12:45:21 2016
GPGPU-Sim PTX: 4700000 instructions simulated : ctaid=(7,0,0) tid=(63,0,0)
GPGPU-Sim uArch: cycles simulated: 115500  inst.: 4613408 (ipc=39.9) sim_rate=60702 (inst/sec) elapsed = 0:0:01:16 / Tue Mar 22 12:45:22 2016
GPGPU-Sim PTX: 4800000 instructions simulated : ctaid=(8,0,0) tid=(63,0,0)
GPGPU-Sim uArch: cycles simulated: 118000  inst.: 4716480 (ipc=40.0) sim_rate=61252 (inst/sec) elapsed = 0:0:01:17 / Tue Mar 22 12:45:23 2016
GPGPU-Sim PTX: 4900000 instructions simulated : ctaid=(8,0,0) tid=(127,0,0)
GPGPU-Sim uArch: cycles simulated: 120500  inst.: 4822656 (ipc=40.0) sim_rate=61828 (inst/sec) elapsed = 0:0:01:18 / Tue Mar 22 12:45:24 2016
GPGPU-Sim PTX: 5000000 instructions simulated : ctaid=(13,0,0) tid=(95,0,0)
GPGPU-Sim uArch: cycles simulated: 122500  inst.: 4908256 (ipc=40.1) sim_rate=62129 (inst/sec) elapsed = 0:0:01:19 / Tue Mar 22 12:45:25 2016
GPGPU-Sim PTX: 5100000 instructions simulated : ctaid=(3,0,0) tid=(95,0,0)
GPGPU-Sim uArch: cycles simulated: 125000  inst.: 5007712 (ipc=40.1) sim_rate=62596 (inst/sec) elapsed = 0:0:01:20 / Tue Mar 22 12:45:26 2016
GPGPU-Sim PTX: 5200000 instructions simulated : ctaid=(11,0,0) tid=(95,0,0)
GPGPU-Sim uArch: cycles simulated: 127500  inst.: 5103744 (ipc=40.0) sim_rate=63009 (inst/sec) elapsed = 0:0:01:21 / Tue Mar 22 12:45:27 2016
GPGPU-Sim PTX: 5300000 instructions simulated : ctaid=(7,0,0) tid=(127,0,0)
GPGPU-Sim uArch: cycles simulated: 130000  inst.: 5205216 (ipc=40.0) sim_rate=63478 (inst/sec) elapsed = 0:0:01:22 / Tue Mar 22 12:45:28 2016
GPGPU-Sim PTX: 5400000 instructions simulated : ctaid=(8,0,0) tid=(63,0,0)
GPGPU-Sim uArch: cycles simulated: 132500  inst.: 5311904 (ipc=40.1) sim_rate=63998 (inst/sec) elapsed = 0:0:01:23 / Tue Mar 22 12:45:29 2016
GPGPU-Sim PTX: 5500000 instructions simulated : ctaid=(13,0,0) tid=(31,0,0)
GPGPU-Sim uArch: cycles simulated: 135000  inst.: 5411648 (ipc=40.1) sim_rate=64424 (inst/sec) elapsed = 0:0:01:24 / Tue Mar 22 12:45:30 2016
GPGPU-Sim PTX: 5600000 instructions simulated : ctaid=(5,0,0) tid=(95,0,0)
GPGPU-Sim uArch: cycles simulated: 137500  inst.: 5511712 (ipc=40.1) sim_rate=64843 (inst/sec) elapsed = 0:0:01:25 / Tue Mar 22 12:45:31 2016
GPGPU-Sim PTX: 5700000 instructions simulated : ctaid=(2,0,0) tid=(63,0,0)
GPGPU-Sim uArch: cycles simulated: 140000  inst.: 5613120 (ipc=40.1) sim_rate=65268 (inst/sec) elapsed = 0:0:01:26 / Tue Mar 22 12:45:32 2016
GPGPU-Sim PTX: 5800000 instructions simulated : ctaid=(0,0,0) tid=(95,0,0)
GPGPU-Sim uArch: cycles simulated: 142500  inst.: 5714752 (ipc=40.1) sim_rate=65686 (inst/sec) elapsed = 0:0:01:27 / Tue Mar 22 12:45:33 2016
GPGPU-Sim PTX: 5900000 instructions simulated : ctaid=(1,0,0) tid=(31,0,0)
GPGPU-Sim uArch: cycles simulated: 145000  inst.: 5822496 (ipc=40.2) sim_rate=66164 (inst/sec) elapsed = 0:0:01:28 / Tue Mar 22 12:45:34 2016
GPGPU-Sim PTX: 6000000 instructions simulated : ctaid=(5,0,0) tid=(31,0,0)
GPGPU-Sim uArch: cycles simulated: 147500  inst.: 5919711 (ipc=40.1) sim_rate=66513 (inst/sec) elapsed = 0:0:01:29 / Tue Mar 22 12:45:35 2016
GPGPU-Sim PTX: 6100000 instructions simulated : ctaid=(6,0,0) tid=(75,0,0)
GPGPU-Sim uArch: cycles simulated: 150000  inst.: 6022026 (ipc=40.1) sim_rate=66911 (inst/sec) elapsed = 0:0:01:30 / Tue Mar 22 12:45:36 2016
GPGPU-Sim PTX: 6200000 instructions simulated : ctaid=(4,0,0) tid=(87,0,0)
GPGPU-Sim PTX: 6300000 instructions simulated : ctaid=(10,0,0) tid=(79,0,0)
GPGPU-Sim uArch: cycles simulated: 152500  inst.: 6125972 (ipc=40.2) sim_rate=67318 (inst/sec) elapsed = 0:0:01:31 / Tue Mar 22 12:45:37 2016
GPGPU-Sim PTX: 6400000 instructions simulated : ctaid=(3,0,0) tid=(39,0,0)
GPGPU-Sim uArch: cycles simulated: 155000  inst.: 6222398 (ipc=40.1) sim_rate=67634 (inst/sec) elapsed = 0:0:01:32 / Tue Mar 22 12:45:38 2016
GPGPU-Sim PTX: 6500000 instructions simulated : ctaid=(1,0,0) tid=(115,0,0)
GPGPU-Sim uArch: cycles simulated: 157500  inst.: 6318034 (ipc=40.1) sim_rate=67935 (inst/sec) elapsed = 0:0:01:33 / Tue Mar 22 12:45:39 2016
GPGPU-Sim PTX: 6600000 instructions simulated : ctaid=(14,0,0) tid=(75,0,0)
GPGPU-Sim uArch: cycles simulated: 160000  inst.: 6422365 (ipc=40.1) sim_rate=68323 (inst/sec) elapsed = 0:0:01:34 / Tue Mar 22 12:45:40 2016
GPGPU-Sim PTX: 6700000 instructions simulated : ctaid=(1,0,0) tid=(87,0,0)
GPGPU-Sim uArch: cycles simulated: 162500  inst.: 6526834 (ipc=40.2) sim_rate=68703 (inst/sec) elapsed = 0:0:01:35 / Tue Mar 22 12:45:41 2016
GPGPU-Sim PTX: 6800000 instructions simulated : ctaid=(5,0,0) tid=(68,0,0)
GPGPU-Sim uArch: cycles simulated: 165000  inst.: 6629628 (ipc=40.2) sim_rate=69058 (inst/sec) elapsed = 0:0:01:36 / Tue Mar 22 12:45:42 2016
GPGPU-Sim PTX: 6900000 instructions simulated : ctaid=(14,0,0) tid=(59,0,0)
GPGPU-Sim uArch: cycles simulated: 167500  inst.: 6739057 (ipc=40.2) sim_rate=69474 (inst/sec) elapsed = 0:0:01:37 / Tue Mar 22 12:45:43 2016
GPGPU-Sim PTX: 7000000 instructions simulated : ctaid=(7,0,0) tid=(71,0,0)
GPGPU-Sim uArch: cycles simulated: 170000  inst.: 6846914 (ipc=40.3) sim_rate=69866 (inst/sec) elapsed = 0:0:01:38 / Tue Mar 22 12:45:44 2016
GPGPU-Sim PTX: 7100000 instructions simulated : ctaid=(0,0,0) tid=(51,0,0)
GPGPU-Sim uArch: cycles simulated: 172500  inst.: 6947557 (ipc=40.3) sim_rate=70177 (inst/sec) elapsed = 0:0:01:39 / Tue Mar 22 12:45:45 2016
GPGPU-Sim PTX: 7200000 instructions simulated : ctaid=(7,0,0) tid=(43,0,0)
GPGPU-Sim uArch: cycles simulated: 175000  inst.: 7044431 (ipc=40.3) sim_rate=70444 (inst/sec) elapsed = 0:0:01:40 / Tue Mar 22 12:45:46 2016
GPGPU-Sim PTX: 7300000 instructions simulated : ctaid=(1,0,0) tid=(59,0,0)
GPGPU-Sim uArch: cycles simulated: 177500  inst.: 7144323 (ipc=40.2) sim_rate=70735 (inst/sec) elapsed = 0:0:01:41 / Tue Mar 22 12:45:47 2016
GPGPU-Sim PTX: 7400000 instructions simulated : ctaid=(5,0,0) tid=(87,0,0)
GPGPU-Sim uArch: cycles simulated: 180000  inst.: 7248459 (ipc=40.3) sim_rate=71063 (inst/sec) elapsed = 0:0:01:42 / Tue Mar 22 12:45:48 2016
GPGPU-Sim PTX: 7500000 instructions simulated : ctaid=(10,0,0) tid=(55,0,0)
GPGPU-Sim uArch: cycles simulated: 182500  inst.: 7345288 (ipc=40.2) sim_rate=71313 (inst/sec) elapsed = 0:0:01:43 / Tue Mar 22 12:45:49 2016
GPGPU-Sim PTX: 7600000 instructions simulated : ctaid=(3,0,0) tid=(47,0,0)
GPGPU-Sim uArch: cycles simulated: 185000  inst.: 7449945 (ipc=40.3) sim_rate=71634 (inst/sec) elapsed = 0:0:01:44 / Tue Mar 22 12:45:50 2016
GPGPU-Sim PTX: 7700000 instructions simulated : ctaid=(11,0,0) tid=(39,0,0)
GPGPU-Sim uArch: cycles simulated: 187500  inst.: 7547958 (ipc=40.3) sim_rate=71885 (inst/sec) elapsed = 0:0:01:45 / Tue Mar 22 12:45:51 2016
GPGPU-Sim PTX: 7800000 instructions simulated : ctaid=(4,0,0) tid=(50,0,0)
GPGPU-Sim uArch: cycles simulated: 190000  inst.: 7650738 (ipc=40.3) sim_rate=72176 (inst/sec) elapsed = 0:0:01:46 / Tue Mar 22 12:45:52 2016
GPGPU-Sim PTX: 7900000 instructions simulated : ctaid=(1,0,0) tid=(77,0,0)
GPGPU-Sim uArch: cycles simulated: 193000  inst.: 7772023 (ipc=40.3) sim_rate=72635 (inst/sec) elapsed = 0:0:01:47 / Tue Mar 22 12:45:53 2016
GPGPU-Sim PTX: 8000000 instructions simulated : ctaid=(7,0,0) tid=(35,0,0)
GPGPU-Sim uArch: cycles simulated: 195500  inst.: 7867653 (ipc=40.2) sim_rate=72848 (inst/sec) elapsed = 0:0:01:48 / Tue Mar 22 12:45:54 2016
GPGPU-Sim PTX: 8100000 instructions simulated : ctaid=(1,0,0) tid=(47,0,0)
GPGPU-Sim uArch: cycles simulated: 198000  inst.: 7961123 (ipc=40.2) sim_rate=73037 (inst/sec) elapsed = 0:0:01:49 / Tue Mar 22 12:45:55 2016
GPGPU-Sim PTX: 8200000 instructions simulated : ctaid=(10,0,0) tid=(91,0,0)
GPGPU-Sim uArch: cycles simulated: 200500  inst.: 8064743 (ipc=40.2) sim_rate=73315 (inst/sec) elapsed = 0:0:01:50 / Tue Mar 22 12:45:56 2016
GPGPU-Sim PTX: 8300000 instructions simulated : ctaid=(7,0,0) tid=(76,0,0)
GPGPU-Sim PTX: 8400000 instructions simulated : ctaid=(2,0,0) tid=(17,0,0)
GPGPU-Sim uArch: cycles simulated: 203000  inst.: 8166642 (ipc=40.2) sim_rate=73573 (inst/sec) elapsed = 0:0:01:51 / Tue Mar 22 12:45:57 2016
GPGPU-Sim uArch: cycles simulated: 205500  inst.: 8259001 (ipc=40.2) sim_rate=73741 (inst/sec) elapsed = 0:0:01:52 / Tue Mar 22 12:45:58 2016
GPGPU-Sim PTX: 8500000 instructions simulated : ctaid=(12,0,0) tid=(127,0,0)
GPGPU-Sim PTX: 8600000 instructions simulated : ctaid=(4,0,0) tid=(63,0,0)
GPGPU-Sim uArch: cycles simulated: 208000  inst.: 8366463 (ipc=40.2) sim_rate=74039 (inst/sec) elapsed = 0:0:01:53 / Tue Mar 22 12:45:59 2016
GPGPU-Sim PTX: 8700000 instructions simulated : ctaid=(3,0,0) tid=(7,0,0)
GPGPU-Sim uArch: cycles simulated: 210500  inst.: 8475262 (ipc=40.3) sim_rate=74344 (inst/sec) elapsed = 0:0:01:54 / Tue Mar 22 12:46:00 2016
GPGPU-Sim PTX: 8800000 instructions simulated : ctaid=(12,0,0) tid=(31,0,0)
GPGPU-Sim uArch: cycles simulated: 213000  inst.: 8580867 (ipc=40.3) sim_rate=74616 (inst/sec) elapsed = 0:0:01:55 / Tue Mar 22 12:46:01 2016
GPGPU-Sim PTX: 8900000 instructions simulated : ctaid=(13,0,0) tid=(85,0,0)
GPGPU-Sim uArch: cycles simulated: 215500  inst.: 8696876 (ipc=40.4) sim_rate=74973 (inst/sec) elapsed = 0:0:01:56 / Tue Mar 22 12:46:02 2016
GPGPU-Sim PTX: 9000000 instructions simulated : ctaid=(3,0,0) tid=(183,0,0)
GPGPU-Sim uArch: cycles simulated: 218000  inst.: 8803656 (ipc=40.4) sim_rate=75244 (inst/sec) elapsed = 0:0:01:57 / Tue Mar 22 12:46:03 2016
GPGPU-Sim PTX: 9100000 instructions simulated : ctaid=(8,0,0) tid=(139,0,0)
GPGPU-Sim uArch: cycles simulated: 220500  inst.: 8907580 (ipc=40.4) sim_rate=75487 (inst/sec) elapsed = 0:0:01:58 / Tue Mar 22 12:46:04 2016
GPGPU-Sim PTX: 9200000 instructions simulated : ctaid=(13,0,0) tid=(167,0,0)
GPGPU-Sim uArch: cycles simulated: 223500  inst.: 9030662 (ipc=40.4) sim_rate=75887 (inst/sec) elapsed = 0:0:01:59 / Tue Mar 22 12:46:05 2016
GPGPU-Sim PTX: 9300000 instructions simulated : ctaid=(9,0,0) tid=(231,0,0)
GPGPU-Sim uArch: cycles simulated: 225500  inst.: 9106182 (ipc=40.4) sim_rate=75884 (inst/sec) elapsed = 0:0:02:00 / Tue Mar 22 12:46:06 2016
GPGPU-Sim PTX: 9400000 instructions simulated : ctaid=(13,0,0) tid=(135,0,0)
GPGPU-Sim uArch: cycles simulated: 228500  inst.: 9226854 (ipc=40.4) sim_rate=76254 (inst/sec) elapsed = 0:0:02:01 / Tue Mar 22 12:46:07 2016
GPGPU-Sim PTX: 9500000 instructions simulated : ctaid=(8,0,0) tid=(231,0,0)
GPGPU-Sim uArch: cycles simulated: 231000  inst.: 9326694 (ipc=40.4) sim_rate=76448 (inst/sec) elapsed = 0:0:02:02 / Tue Mar 22 12:46:08 2016
GPGPU-Sim PTX: 9600000 instructions simulated : ctaid=(0,0,0) tid=(167,0,0)
GPGPU-Sim PTX: 9700000 instructions simulated : ctaid=(4,0,0) tid=(167,0,0)
GPGPU-Sim uArch: cycles simulated: 233500  inst.: 9427366 (ipc=40.4) sim_rate=76645 (inst/sec) elapsed = 0:0:02:03 / Tue Mar 22 12:46:09 2016
GPGPU-Sim PTX: 9800000 instructions simulated : ctaid=(10,0,0) tid=(167,0,0)
GPGPU-Sim uArch: cycles simulated: 236000  inst.: 9525350 (ipc=40.4) sim_rate=76817 (inst/sec) elapsed = 0:0:02:04 / Tue Mar 22 12:46:10 2016
GPGPU-Sim PTX: 9900000 instructions simulated : ctaid=(9,0,0) tid=(167,0,0)
GPGPU-Sim uArch: cycles simulated: 238500  inst.: 9627942 (ipc=40.4) sim_rate=77023 (inst/sec) elapsed = 0:0:02:05 / Tue Mar 22 12:46:11 2016
GPGPU-Sim PTX: 10000000 instructions simulated : ctaid=(6,0,0) tid=(199,0,0)
GPGPU-Sim uArch: cycles simulated: 241000  inst.: 9727110 (ipc=40.4) sim_rate=77199 (inst/sec) elapsed = 0:0:02:06 / Tue Mar 22 12:46:12 2016
GPGPU-Sim uArch: cycles simulated: 243000  inst.: 9811110 (ipc=40.4) sim_rate=77252 (inst/sec) elapsed = 0:0:02:07 / Tue Mar 22 12:46:13 2016
GPGPU-Sim PTX: 10100000 instructions simulated : ctaid=(14,0,0) tid=(231,0,0)
GPGPU-Sim PTX: 10200000 instructions simulated : ctaid=(6,0,0) tid=(135,0,0)
GPGPU-Sim uArch: cycles simulated: 245500  inst.: 9913894 (ipc=40.4) sim_rate=77452 (inst/sec) elapsed = 0:0:02:08 / Tue Mar 22 12:46:14 2016
GPGPU-Sim uArch: cycles simulated: 248000  inst.: 10006534 (ipc=40.3) sim_rate=77570 (inst/sec) elapsed = 0:0:02:09 / Tue Mar 22 12:46:15 2016
GPGPU-Sim PTX: 10300000 instructions simulated : ctaid=(3,0,0) tid=(231,0,0)
GPGPU-Sim PTX: 10400000 instructions simulated : ctaid=(10,0,0) tid=(231,0,0)
GPGPU-Sim uArch: cycles simulated: 250500  inst.: 10109382 (ipc=40.4) sim_rate=77764 (inst/sec) elapsed = 0:0:02:10 / Tue Mar 22 12:46:16 2016
GPGPU-Sim PTX: 10500000 instructions simulated : ctaid=(8,0,0) tid=(231,0,0)
GPGPU-Sim uArch: cycles simulated: 253000  inst.: 10205030 (ipc=40.3) sim_rate=77900 (inst/sec) elapsed = 0:0:02:11 / Tue Mar 22 12:46:17 2016
GPGPU-Sim PTX: 10600000 instructions simulated : ctaid=(9,0,0) tid=(135,0,0)
GPGPU-Sim uArch: cycles simulated: 255500  inst.: 10305382 (ipc=40.3) sim_rate=78071 (inst/sec) elapsed = 0:0:02:12 / Tue Mar 22 12:46:18 2016
GPGPU-Sim uArch: cycles simulated: 257500  inst.: 10385734 (ipc=40.3) sim_rate=78088 (inst/sec) elapsed = 0:0:02:13 / Tue Mar 22 12:46:19 2016
GPGPU-Sim PTX: 10700000 instructions simulated : ctaid=(2,0,0) tid=(231,0,0)
GPGPU-Sim uArch: cycles simulated: 260000  inst.: 10479398 (ipc=40.3) sim_rate=78204 (inst/sec) elapsed = 0:0:02:14 / Tue Mar 22 12:46:20 2016
GPGPU-Sim PTX: 10800000 instructions simulated : ctaid=(14,0,0) tid=(199,0,0)
GPGPU-Sim uArch: cycles simulated: 262500  inst.: 10584518 (ipc=40.3) sim_rate=78403 (inst/sec) elapsed = 0:0:02:15 / Tue Mar 22 12:46:21 2016
GPGPU-Sim PTX: 10900000 instructions simulated : ctaid=(11,0,0) tid=(167,0,0)
GPGPU-Sim uArch: cycles simulated: 265000  inst.: 10686598 (ipc=40.3) sim_rate=78577 (inst/sec) elapsed = 0:0:02:16 / Tue Mar 22 12:46:22 2016
GPGPU-Sim PTX: 11000000 instructions simulated : ctaid=(0,0,0) tid=(199,0,0)
GPGPU-Sim uArch: cycles simulated: 267500  inst.: 10785766 (ipc=40.3) sim_rate=78728 (inst/sec) elapsed = 0:0:02:17 / Tue Mar 22 12:46:23 2016
GPGPU-Sim PTX: 11100000 instructions simulated : ctaid=(3,0,0) tid=(167,0,0)
GPGPU-Sim PTX: 11200000 instructions simulated : ctaid=(10,0,0) tid=(167,0,0)
GPGPU-Sim uArch: cycles simulated: 270000  inst.: 10886502 (ipc=40.3) sim_rate=78887 (inst/sec) elapsed = 0:0:02:18 / Tue Mar 22 12:46:24 2016
GPGPU-Sim uArch: cycles simulated: 272500  inst.: 10978790 (ipc=40.3) sim_rate=78984 (inst/sec) elapsed = 0:0:02:19 / Tue Mar 22 12:46:25 2016
GPGPU-Sim PTX: 11300000 instructions simulated : ctaid=(10,0,0) tid=(167,0,0)
GPGPU-Sim uArch: cycles simulated: 275000  inst.: 11076326 (ipc=40.3) sim_rate=79116 (inst/sec) elapsed = 0:0:02:20 / Tue Mar 22 12:46:26 2016
GPGPU-Sim PTX: 11400000 instructions simulated : ctaid=(14,0,0) tid=(199,0,0)
GPGPU-Sim uArch: cycles simulated: 277000  inst.: 11168678 (ipc=40.3) sim_rate=79210 (inst/sec) elapsed = 0:0:02:21 / Tue Mar 22 12:46:27 2016
GPGPU-Sim PTX: 11500000 instructions simulated : ctaid=(1,0,0) tid=(167,0,0)
GPGPU-Sim uArch: cycles simulated: 279000  inst.: 11248806 (ipc=40.3) sim_rate=79216 (inst/sec) elapsed = 0:0:02:22 / Tue Mar 22 12:46:28 2016
GPGPU-Sim PTX: 11600000 instructions simulated : ctaid=(6,0,0) tid=(231,0,0)
GPGPU-Sim uArch: cycles simulated: 281500  inst.: 11348006 (ipc=40.3) sim_rate=79356 (inst/sec) elapsed = 0:0:02:23 / Tue Mar 22 12:46:29 2016
GPGPU-Sim PTX: 11700000 instructions simulated : ctaid=(10,0,0) tid=(167,0,0)
GPGPU-Sim uArch: cycles simulated: 283500  inst.: 11423110 (ipc=40.3) sim_rate=79327 (inst/sec) elapsed = 0:0:02:24 / Tue Mar 22 12:46:30 2016
GPGPU-Sim PTX: 11800000 instructions simulated : ctaid=(5,0,0) tid=(135,0,0)
GPGPU-Sim uArch: cycles simulated: 286000  inst.: 11519974 (ipc=40.3) sim_rate=79448 (inst/sec) elapsed = 0:0:02:25 / Tue Mar 22 12:46:31 2016
GPGPU-Sim PTX: 11900000 instructions simulated : ctaid=(0,0,0) tid=(199,0,0)
GPGPU-Sim uArch: cycles simulated: 288000  inst.: 11599174 (ipc=40.3) sim_rate=79446 (inst/sec) elapsed = 0:0:02:26 / Tue Mar 22 12:46:32 2016
GPGPU-Sim PTX: 12000000 instructions simulated : ctaid=(9,0,0) tid=(167,0,0)
GPGPU-Sim uArch: cycles simulated: 290000  inst.: 11679302 (ipc=40.3) sim_rate=79451 (inst/sec) elapsed = 0:0:02:27 / Tue Mar 22 12:46:33 2016
GPGPU-Sim uArch: cycles simulated: 292000  inst.: 11757542 (ipc=40.3) sim_rate=79442 (inst/sec) elapsed = 0:0:02:28 / Tue Mar 22 12:46:34 2016
GPGPU-Sim PTX: 12100000 instructions simulated : ctaid=(3,0,0) tid=(167,0,0)
GPGPU-Sim uArch: cycles simulated: 294500  inst.: 11855654 (ipc=40.3) sim_rate=79568 (inst/sec) elapsed = 0:0:02:29 / Tue Mar 22 12:46:35 2016
GPGPU-Sim PTX: 12200000 instructions simulated : ctaid=(0,0,0) tid=(167,0,0)
GPGPU-Sim uArch: cycles simulated: 296500  inst.: 11937318 (ipc=40.3) sim_rate=79582 (inst/sec) elapsed = 0:0:02:30 / Tue Mar 22 12:46:36 2016
GPGPU-Sim PTX: 12300000 instructions simulated : ctaid=(0,0,0) tid=(231,0,0)
GPGPU-Sim uArch: cycles simulated: 299000  inst.: 12033446 (ipc=40.2) sim_rate=79691 (inst/sec) elapsed = 0:0:02:31 / Tue Mar 22 12:46:37 2016
GPGPU-Sim PTX: 12400000 instructions simulated : ctaid=(11,0,0) tid=(135,0,0)
GPGPU-Sim uArch: cycles simulated: 301000  inst.: 12108422 (ipc=40.2) sim_rate=79660 (inst/sec) elapsed = 0:0:02:32 / Tue Mar 22 12:46:38 2016
GPGPU-Sim PTX: 12500000 instructions simulated : ctaid=(2,0,0) tid=(167,0,0)
GPGPU-Sim uArch: cycles simulated: 303000  inst.: 12195622 (ipc=40.2) sim_rate=79709 (inst/sec) elapsed = 0:0:02:33 / Tue Mar 22 12:46:39 2016
GPGPU-Sim PTX: 12600000 instructions simulated : ctaid=(13,0,0) tid=(231,0,0)
GPGPU-Sim uArch: cycles simulated: 304500  inst.: 12254502 (ipc=40.2) sim_rate=79574 (inst/sec) elapsed = 0:0:02:34 / Tue Mar 22 12:46:40 2016
GPGPU-Sim PTX: 12700000 instructions simulated : ctaid=(14,0,0) tid=(167,0,0)
GPGPU-Sim uArch: cycles simulated: 307000  inst.: 12359014 (ipc=40.3) sim_rate=79735 (inst/sec) elapsed = 0:0:02:35 / Tue Mar 22 12:46:41 2016
GPGPU-Sim PTX: 12800000 instructions simulated : ctaid=(9,0,0) tid=(199,0,0)
GPGPU-Sim uArch: cycles simulated: 309500  inst.: 12457062 (ipc=40.2) sim_rate=79852 (inst/sec) elapsed = 0:0:02:36 / Tue Mar 22 12:46:42 2016
GPGPU-Sim PTX: 12900000 instructions simulated : ctaid=(14,0,0) tid=(135,0,0)
GPGPU-Sim uArch: cycles simulated: 311500  inst.: 12542886 (ipc=40.3) sim_rate=79890 (inst/sec) elapsed = 0:0:02:37 / Tue Mar 22 12:46:43 2016
GPGPU-Sim uArch: cycles simulated: 313500  inst.: 12624454 (ipc=40.3) sim_rate=79901 (inst/sec) elapsed = 0:0:02:38 / Tue Mar 22 12:46:44 2016
GPGPU-Sim PTX: 13000000 instructions simulated : ctaid=(7,0,0) tid=(167,0,0)
GPGPU-Sim uArch: cycles simulated: 316000  inst.: 12722694 (ipc=40.3) sim_rate=80016 (inst/sec) elapsed = 0:0:02:39 / Tue Mar 22 12:46:45 2016
GPGPU-Sim PTX: 13100000 instructions simulated : ctaid=(11,0,0) tid=(199,0,0)
GPGPU-Sim uArch: cycles simulated: 318000  inst.: 12796102 (ipc=40.2) sim_rate=79975 (inst/sec) elapsed = 0:0:02:40 / Tue Mar 22 12:46:46 2016
GPGPU-Sim PTX: 13200000 instructions simulated : ctaid=(7,0,0) tid=(231,0,0)
GPGPU-Sim uArch: cycles simulated: 320500  inst.: 12897254 (ipc=40.2) sim_rate=80107 (inst/sec) elapsed = 0:0:02:41 / Tue Mar 22 12:46:47 2016
GPGPU-Sim PTX: 13300000 instructions simulated : ctaid=(8,0,0) tid=(231,0,0)
GPGPU-Sim uArch: cycles simulated: 323000  inst.: 12997670 (ipc=40.2) sim_rate=80232 (inst/sec) elapsed = 0:0:02:42 / Tue Mar 22 12:46:48 2016
GPGPU-Sim PTX: 13400000 instructions simulated : ctaid=(1,0,0) tid=(199,0,0)
GPGPU-Sim uArch: cycles simulated: 325000  inst.: 13076230 (ipc=40.2) sim_rate=80222 (inst/sec) elapsed = 0:0:02:43 / Tue Mar 22 12:46:49 2016
GPGPU-Sim PTX: 13500000 instructions simulated : ctaid=(8,0,0) tid=(231,0,0)
GPGPU-Sim uArch: cycles simulated: 327000  inst.: 13158822 (ipc=40.2) sim_rate=80236 (inst/sec) elapsed = 0:0:02:44 / Tue Mar 22 12:46:50 2016
GPGPU-Sim PTX: 13600000 instructions simulated : ctaid=(10,0,0) tid=(135,0,0)
GPGPU-Sim uArch: cycles simulated: 329000  inst.: 13246150 (ipc=40.3) sim_rate=80279 (inst/sec) elapsed = 0:0:02:45 / Tue Mar 22 12:46:51 2016
GPGPU-Sim PTX: 13700000 instructions simulated : ctaid=(7,0,0) tid=(135,0,0)
GPGPU-Sim uArch: cycles simulated: 331500  inst.: 13344102 (ipc=40.3) sim_rate=80386 (inst/sec) elapsed = 0:0:02:46 / Tue Mar 22 12:46:52 2016
GPGPU-Sim PTX: 13800000 instructions simulated : ctaid=(11,0,0) tid=(135,0,0)
GPGPU-Sim uArch: cycles simulated: 333500  inst.: 13424486 (ipc=40.3) sim_rate=80386 (inst/sec) elapsed = 0:0:02:47 / Tue Mar 22 12:46:53 2016
GPGPU-Sim uArch: cycles simulated: 335500  inst.: 13504838 (ipc=40.3) sim_rate=80385 (inst/sec) elapsed = 0:0:02:48 / Tue Mar 22 12:46:54 2016
GPGPU-Sim PTX: 13900000 instructions simulated : ctaid=(3,0,0) tid=(167,0,0)
GPGPU-Sim uArch: cycles simulated: 337500  inst.: 13580806 (ipc=40.2) sim_rate=80359 (inst/sec) elapsed = 0:0:02:49 / Tue Mar 22 12:46:55 2016
GPGPU-Sim PTX: 14000000 instructions simulated : ctaid=(11,0,0) tid=(167,0,0)
GPGPU-Sim uArch: cycles simulated: 340000  inst.: 13680582 (ipc=40.2) sim_rate=80474 (inst/sec) elapsed = 0:0:02:50 / Tue Mar 22 12:46:56 2016
GPGPU-Sim PTX: 14100000 instructions simulated : ctaid=(6,0,0) tid=(199,0,0)
GPGPU-Sim uArch: cycles simulated: 342000  inst.: 13758022 (ipc=40.2) sim_rate=80456 (inst/sec) elapsed = 0:0:02:51 / Tue Mar 22 12:46:57 2016
GPGPU-Sim PTX: 14200000 instructions simulated : ctaid=(2,0,0) tid=(167,0,0)
GPGPU-Sim uArch: cycles simulated: 344500  inst.: 13855910 (ipc=40.2) sim_rate=80557 (inst/sec) elapsed = 0:0:02:52 / Tue Mar 22 12:46:58 2016
GPGPU-Sim PTX: 14300000 instructions simulated : ctaid=(5,0,0) tid=(167,0,0)
GPGPU-Sim uArch: cycles simulated: 347000  inst.: 13950395 (ipc=40.2) sim_rate=80638 (inst/sec) elapsed = 0:0:02:53 / Tue Mar 22 12:46:59 2016
GPGPU-Sim PTX: 14400000 instructions simulated : ctaid=(10,0,0) tid=(255,0,0)
GPGPU-Sim uArch: cycles simulated: 349000  inst.: 14037221 (ipc=40.2) sim_rate=80673 (inst/sec) elapsed = 0:0:02:54 / Tue Mar 22 12:47:00 2016
GPGPU-Sim PTX: 14500000 instructions simulated : ctaid=(1,0,0) tid=(203,0,0)
GPGPU-Sim uArch: cycles simulated: 351500  inst.: 14137690 (ipc=40.2) sim_rate=80786 (inst/sec) elapsed = 0:0:02:55 / Tue Mar 22 12:47:01 2016
GPGPU-Sim PTX: 14600000 instructions simulated : ctaid=(0,0,0) tid=(163,0,0)
GPGPU-Sim uArch: cycles simulated: 353500  inst.: 14214255 (ipc=40.2) sim_rate=80762 (inst/sec) elapsed = 0:0:02:56 / Tue Mar 22 12:47:02 2016
GPGPU-Sim PTX: 14700000 instructions simulated : ctaid=(3,0,0) tid=(155,0,0)
GPGPU-Sim uArch: cycles simulated: 355500  inst.: 14298233 (ipc=40.2) sim_rate=80780 (inst/sec) elapsed = 0:0:02:57 / Tue Mar 22 12:47:03 2016
GPGPU-Sim PTX: 14800000 instructions simulated : ctaid=(7,0,0) tid=(199,0,0)
GPGPU-Sim uArch: cycles simulated: 357500  inst.: 14385486 (ipc=40.2) sim_rate=80817 (inst/sec) elapsed = 0:0:02:58 / Tue Mar 22 12:47:04 2016
GPGPU-Sim PTX: 14900000 instructions simulated : ctaid=(12,0,0) tid=(203,0,0)
GPGPU-Sim uArch: cycles simulated: 360000  inst.: 14485581 (ipc=40.2) sim_rate=80925 (inst/sec) elapsed = 0:0:02:59 / Tue Mar 22 12:47:05 2016
GPGPU-Sim PTX: 15000000 instructions simulated : ctaid=(1,0,0) tid=(230,0,0)
GPGPU-Sim uArch: cycles simulated: 362500  inst.: 14587276 (ipc=40.2) sim_rate=81040 (inst/sec) elapsed = 0:0:03:00 / Tue Mar 22 12:47:06 2016
GPGPU-Sim PTX: 15100000 instructions simulated : ctaid=(8,0,0) tid=(221,0,0)
GPGPU-Sim uArch: cycles simulated: 365000  inst.: 14689664 (ipc=40.2) sim_rate=81158 (inst/sec) elapsed = 0:0:03:01 / Tue Mar 22 12:47:07 2016
GPGPU-Sim uArch: cycles simulated: 367000  inst.: 14770548 (ipc=40.2) sim_rate=81156 (inst/sec) elapsed = 0:0:03:02 / Tue Mar 22 12:47:08 2016
GPGPU-Sim PTX: 15200000 instructions simulated : ctaid=(2,0,0) tid=(143,0,0)
GPGPU-Sim PTX: 15300000 instructions simulated : ctaid=(6,0,0) tid=(195,0,0)
GPGPU-Sim uArch: cycles simulated: 369500  inst.: 14872455 (ipc=40.3) sim_rate=81270 (inst/sec) elapsed = 0:0:03:03 / Tue Mar 22 12:47:09 2016
GPGPU-Sim uArch: cycles simulated: 371000  inst.: 14938213 (ipc=40.3) sim_rate=81185 (inst/sec) elapsed = 0:0:03:04 / Tue Mar 22 12:47:10 2016
GPGPU-Sim PTX: 15400000 instructions simulated : ctaid=(5,0,0) tid=(223,0,0)
GPGPU-Sim uArch: cycles simulated: 373000  inst.: 15018106 (ipc=40.3) sim_rate=81178 (inst/sec) elapsed = 0:0:03:05 / Tue Mar 22 12:47:11 2016
GPGPU-Sim PTX: 15500000 instructions simulated : ctaid=(7,0,0) tid=(231,0,0)
GPGPU-Sim uArch: cycles simulated: 375500  inst.: 15120290 (ipc=40.3) sim_rate=81291 (inst/sec) elapsed = 0:0:03:06 / Tue Mar 22 12:47:12 2016
GPGPU-Sim PTX: 15600000 instructions simulated : ctaid=(14,0,0) tid=(163,0,0)
GPGPU-Sim uArch: cycles simulated: 378000  inst.: 15221558 (ipc=40.3) sim_rate=81398 (inst/sec) elapsed = 0:0:03:07 / Tue Mar 22 12:47:13 2016
GPGPU-Sim PTX: 15700000 instructions simulated : ctaid=(11,0,0) tid=(151,0,0)
GPGPU-Sim uArch: cycles simulated: 380500  inst.: 15319006 (ipc=40.3) sim_rate=81484 (inst/sec) elapsed = 0:0:03:08 / Tue Mar 22 12:47:14 2016
GPGPU-Sim PTX: 15800000 instructions simulated : ctaid=(3,0,0) tid=(211,0,0)
GPGPU-Sim uArch: cycles simulated: 382500  inst.: 15397746 (ipc=40.3) sim_rate=81469 (inst/sec) elapsed = 0:0:03:09 / Tue Mar 22 12:47:15 2016
GPGPU-Sim PTX: 15900000 instructions simulated : ctaid=(10,0,0) tid=(135,0,0)
GPGPU-Sim uArch: cycles simulated: 385000  inst.: 15496165 (ipc=40.2) sim_rate=81558 (inst/sec) elapsed = 0:0:03:10 / Tue Mar 22 12:47:16 2016
GPGPU-Sim PTX: 16000000 instructions simulated : ctaid=(10,0,0) tid=(217,0,0)
GPGPU-Sim uArch: cycles simulated: 387500  inst.: 15589069 (ipc=40.2) sim_rate=81618 (inst/sec) elapsed = 0:0:03:11 / Tue Mar 22 12:47:17 2016
GPGPU-Sim PTX: 16100000 instructions simulated : ctaid=(11,0,0) tid=(163,0,0)
GPGPU-Sim uArch: cycles simulated: 390000  inst.: 15686358 (ipc=40.2) sim_rate=81699 (inst/sec) elapsed = 0:0:03:12 / Tue Mar 22 12:47:18 2016
GPGPU-Sim PTX: 16200000 instructions simulated : ctaid=(4,0,0) tid=(152,0,0)
GPGPU-Sim uArch: cycles simulated: 392500  inst.: 15785225 (ipc=40.2) sim_rate=81788 (inst/sec) elapsed = 0:0:03:13 / Tue Mar 22 12:47:19 2016
GPGPU-Sim PTX: 16300000 instructions simulated : ctaid=(14,0,0) tid=(247,0,0)
GPGPU-Sim uArch: cycles simulated: 395000  inst.: 15885745 (ipc=40.2) sim_rate=81885 (inst/sec) elapsed = 0:0:03:14 / Tue Mar 22 12:47:20 2016
GPGPU-Sim PTX: 16400000 instructions simulated : ctaid=(8,0,0) tid=(203,0,0)
GPGPU-Sim uArch: cycles simulated: 397500  inst.: 15993899 (ipc=40.2) sim_rate=82019 (inst/sec) elapsed = 0:0:03:15 / Tue Mar 22 12:47:21 2016
GPGPU-Sim PTX: 16500000 instructions simulated : ctaid=(12,0,0) tid=(131,0,0)
GPGPU-Sim uArch: cycles simulated: 399500  inst.: 16075738 (ipc=40.2) sim_rate=82019 (inst/sec) elapsed = 0:0:03:16 / Tue Mar 22 12:47:22 2016
GPGPU-Sim PTX: 16600000 instructions simulated : ctaid=(12,0,0) tid=(239,0,0)
GPGPU-Sim uArch: cycles simulated: 402000  inst.: 16177907 (ipc=40.2) sim_rate=82121 (inst/sec) elapsed = 0:0:03:17 / Tue Mar 22 12:47:23 2016
GPGPU-Sim PTX: 16700000 instructions simulated : ctaid=(1,0,0) tid=(167,0,0)
GPGPU-Sim uArch: cycles simulated: 404500  inst.: 16278671 (ipc=40.2) sim_rate=82215 (inst/sec) elapsed = 0:0:03:18 / Tue Mar 22 12:47:24 2016
GPGPU-Sim PTX: 16800000 instructions simulated : ctaid=(4,0,0) tid=(171,0,0)
GPGPU-Sim uArch: cycles simulated: 407000  inst.: 16382484 (ipc=40.3) sim_rate=82324 (inst/sec) elapsed = 0:0:03:19 / Tue Mar 22 12:47:25 2016
GPGPU-Sim PTX: 16900000 instructions simulated : ctaid=(5,0,0) tid=(187,0,0)
GPGPU-Sim uArch: cycles simulated: 409500  inst.: 16490022 (ipc=40.3) sim_rate=82450 (inst/sec) elapsed = 0:0:03:20 / Tue Mar 22 12:47:26 2016
GPGPU-Sim PTX: 17000000 instructions simulated : ctaid=(6,0,0) tid=(183,0,0)
GPGPU-Sim uArch: cycles simulated: 411500  inst.: 16571042 (ipc=40.3) sim_rate=82442 (inst/sec) elapsed = 0:0:03:21 / Tue Mar 22 12:47:27 2016
GPGPU-Sim PTX: 17100000 instructions simulated : ctaid=(10,0,0) tid=(247,0,0)
GPGPU-Sim uArch: cycles simulated: 414000  inst.: 16671549 (ipc=40.3) sim_rate=82532 (inst/sec) elapsed = 0:0:03:22 / Tue Mar 22 12:47:28 2016
GPGPU-Sim PTX: 17200000 instructions simulated : ctaid=(5,0,0) tid=(213,0,0)
GPGPU-Sim uArch: cycles simulated: 416000  inst.: 16749133 (ipc=40.3) sim_rate=82508 (inst/sec) elapsed = 0:0:03:23 / Tue Mar 22 12:47:29 2016
GPGPU-Sim PTX: 17300000 instructions simulated : ctaid=(2,0,0) tid=(231,0,0)
GPGPU-Sim uArch: cycles simulated: 418500  inst.: 16848040 (ipc=40.3) sim_rate=82588 (inst/sec) elapsed = 0:0:03:24 / Tue Mar 22 12:47:30 2016
GPGPU-Sim PTX: 17400000 instructions simulated : ctaid=(6,0,0) tid=(247,0,0)
GPGPU-Sim uArch: cycles simulated: 420500  inst.: 16934570 (ipc=40.3) sim_rate=82607 (inst/sec) elapsed = 0:0:03:25 / Tue Mar 22 12:47:31 2016
GPGPU-Sim PTX: 17500000 instructions simulated : ctaid=(5,0,0) tid=(169,0,0)
GPGPU-Sim uArch: cycles simulated: 423000  inst.: 17031683 (ipc=40.3) sim_rate=82678 (inst/sec) elapsed = 0:0:03:26 / Tue Mar 22 12:47:32 2016
GPGPU-Sim PTX: 17600000 instructions simulated : ctaid=(1,0,0) tid=(207,0,0)
GPGPU-Sim uArch: cycles simulated: 425000  inst.: 17120489 (ipc=40.3) sim_rate=82707 (inst/sec) elapsed = 0:0:03:27 / Tue Mar 22 12:47:33 2016
GPGPU-Sim uArch: cycles simulated: 427000  inst.: 17200496 (ipc=40.3) sim_rate=82694 (inst/sec) elapsed = 0:0:03:28 / Tue Mar 22 12:47:34 2016
GPGPU-Sim PTX: 17700000 instructions simulated : ctaid=(13,0,0) tid=(230,0,0)
GPGPU-Sim uArch: Shader 1 finished CTA #0 (429089,0), 3 CTAs running
GPGPU-Sim PTX: 17800000 instructions simulated : ctaid=(19,0,0) tid=(3,0,0)
GPGPU-Sim uArch: cycles simulated: 429500  inst.: 17302551 (ipc=40.3) sim_rate=82787 (inst/sec) elapsed = 0:0:03:29 / Tue Mar 22 12:47:35 2016
GPGPU-Sim PTX: 17900000 instructions simulated : ctaid=(12,0,0) tid=(244,0,0)
GPGPU-Sim uArch: cycles simulated: 432000  inst.: 17410566 (ipc=40.3) sim_rate=82907 (inst/sec) elapsed = 0:0:03:30 / Tue Mar 22 12:47:36 2016
GPGPU-Sim uArch: Shader 10 finished CTA #0 (433007,0), 2 CTAs running
GPGPU-Sim uArch: Shader 8 finished CTA #0 (433057,0), 2 CTAs running
GPGPU-Sim uArch: Shader 4 finished CTA #0 (433113,0), 2 CTAs running
GPGPU-Sim uArch: Shader 14 finished CTA #0 (433165,0), 2 CTAs running
GPGPU-Sim uArch: Shader 5 finished CTA #0 (433303,0), 2 CTAs running
GPGPU-Sim uArch: Shader 7 finished CTA #0 (433421,0), 2 CTAs running
GPGPU-Sim uArch: Shader 12 finished CTA #0 (433797,0), 2 CTAs running
GPGPU-Sim PTX: 18000000 instructions simulated : ctaid=(2,0,0) tid=(215,0,0)
GPGPU-Sim uArch: cycles simulated: 434000  inst.: 17495506 (ipc=40.3) sim_rate=82917 (inst/sec) elapsed = 0:0:03:31 / Tue Mar 22 12:47:37 2016
GPGPU-Sim uArch: Shader 11 finished CTA #0 (434609,0), 2 CTAs running
GPGPU-Sim uArch: Shader 2 finished CTA #0 (435881,0), 3 CTAs running
GPGPU-Sim uArch: cycles simulated: 436000  inst.: 17583248 (ipc=40.3) sim_rate=82939 (inst/sec) elapsed = 0:0:03:32 / Tue Mar 22 12:47:38 2016
GPGPU-Sim PTX: 18100000 instructions simulated : ctaid=(19,0,0) tid=(31,0,0)
GPGPU-Sim uArch: Shader 13 finished CTA #0 (437059,0), 2 CTAs running
GPGPU-Sim uArch: Shader 0 finished CTA #0 (437343,0), 2 CTAs running
GPGPU-Sim uArch: Shader 9 finished CTA #0 (437999,0), 2 CTAs running
GPGPU-Sim uArch: cycles simulated: 438000  inst.: 17667866 (ipc=40.3) sim_rate=82947 (inst/sec) elapsed = 0:0:03:33 / Tue Mar 22 12:47:39 2016
GPGPU-Sim PTX: 18200000 instructions simulated : ctaid=(21,0,0) tid=(119,0,0)
GPGPU-Sim uArch: Shader 6 finished CTA #0 (440177,0), 2 CTAs running
GPGPU-Sim uArch: cycles simulated: 440500  inst.: 17771930 (ipc=40.3) sim_rate=83046 (inst/sec) elapsed = 0:0:03:34 / Tue Mar 22 12:47:40 2016
GPGPU-Sim PTX: 18300000 instructions simulated : ctaid=(22,0,0) tid=(87,0,0)
GPGPU-Sim uArch: Shader 3 finished CTA #0 (442841,0), 3 CTAs running
GPGPU-Sim uArch: cycles simulated: 443000  inst.: 17869626 (ipc=40.3) sim_rate=83114 (inst/sec) elapsed = 0:0:03:35 / Tue Mar 22 12:47:41 2016
GPGPU-Sim PTX: 18400000 instructions simulated : ctaid=(28,0,0) tid=(87,0,0)
GPGPU-Sim uArch: cycles simulated: 445000  inst.: 17946554 (ipc=40.3) sim_rate=83085 (inst/sec) elapsed = 0:0:03:36 / Tue Mar 22 12:47:42 2016
GPGPU-Sim PTX: 18500000 instructions simulated : ctaid=(21,0,0) tid=(23,0,0)
GPGPU-Sim uArch: cycles simulated: 447000  inst.: 18020186 (ipc=40.3) sim_rate=83042 (inst/sec) elapsed = 0:0:03:37 / Tue Mar 22 12:47:43 2016
GPGPU-Sim PTX: 18600000 instructions simulated : ctaid=(23,0,0) tid=(87,0,0)
GPGPU-Sim uArch: cycles simulated: 449500  inst.: 18114170 (ipc=40.3) sim_rate=83092 (inst/sec) elapsed = 0:0:03:38 / Tue Mar 22 12:47:44 2016
GPGPU-Sim PTX: 18700000 instructions simulated : ctaid=(28,0,0) tid=(23,0,0)
GPGPU-Sim uArch: cycles simulated: 452000  inst.: 18221466 (ipc=40.3) sim_rate=83203 (inst/sec) elapsed = 0:0:03:39 / Tue Mar 22 12:47:45 2016
GPGPU-Sim PTX: 18800000 instructions simulated : ctaid=(19,0,0) tid=(23,0,0)
GPGPU-Sim uArch: cycles simulated: 454500  inst.: 18324346 (ipc=40.3) sim_rate=83292 (inst/sec) elapsed = 0:0:03:40 / Tue Mar 22 12:47:46 2016
GPGPU-Sim PTX: 18900000 instructions simulated : ctaid=(19,0,0) tid=(55,0,0)
GPGPU-Sim uArch: cycles simulated: 457000  inst.: 18426394 (ipc=40.3) sim_rate=83377 (inst/sec) elapsed = 0:0:03:41 / Tue Mar 22 12:47:47 2016
GPGPU-Sim PTX: 19000000 instructions simulated : ctaid=(28,0,0) tid=(23,0,0)
GPGPU-Sim uArch: cycles simulated: 459500  inst.: 18524954 (ipc=40.3) sim_rate=83445 (inst/sec) elapsed = 0:0:03:42 / Tue Mar 22 12:47:48 2016
GPGPU-Sim PTX: 19100000 instructions simulated : ctaid=(18,0,0) tid=(55,0,0)
GPGPU-Sim uArch: cycles simulated: 462000  inst.: 18625274 (ipc=40.3) sim_rate=83521 (inst/sec) elapsed = 0:0:03:43 / Tue Mar 22 12:47:49 2016
GPGPU-Sim PTX: 19200000 instructions simulated : ctaid=(21,0,0) tid=(55,0,0)
GPGPU-Sim uArch: cycles simulated: 464500  inst.: 18725882 (ipc=40.3) sim_rate=83597 (inst/sec) elapsed = 0:0:03:44 / Tue Mar 22 12:47:50 2016
GPGPU-Sim PTX: 19300000 instructions simulated : ctaid=(23,0,0) tid=(119,0,0)
GPGPU-Sim uArch: cycles simulated: 467000  inst.: 18824442 (ipc=40.3) sim_rate=83664 (inst/sec) elapsed = 0:0:03:45 / Tue Mar 22 12:47:51 2016
GPGPU-Sim PTX: 19400000 instructions simulated : ctaid=(16,0,0) tid=(23,0,0)
GPGPU-Sim uArch: cycles simulated: 469500  inst.: 18927514 (ipc=40.3) sim_rate=83750 (inst/sec) elapsed = 0:0:03:46 / Tue Mar 22 12:47:52 2016
GPGPU-Sim PTX: 19500000 instructions simulated : ctaid=(17,0,0) tid=(119,0,0)
GPGPU-Sim uArch: cycles simulated: 472000  inst.: 19024378 (ipc=40.3) sim_rate=83807 (inst/sec) elapsed = 0:0:03:47 / Tue Mar 22 12:47:53 2016
GPGPU-Sim PTX: 19600000 instructions simulated : ctaid=(23,0,0) tid=(87,0,0)
GPGPU-Sim uArch: cycles simulated: 474500  inst.: 19119610 (ipc=40.3) sim_rate=83857 (inst/sec) elapsed = 0:0:03:48 / Tue Mar 22 12:47:54 2016
GPGPU-Sim PTX: 19700000 instructions simulated : ctaid=(16,0,0) tid=(23,0,0)
GPGPU-Sim uArch: cycles simulated: 477000  inst.: 19220730 (ipc=40.3) sim_rate=83933 (inst/sec) elapsed = 0:0:03:49 / Tue Mar 22 12:47:55 2016
GPGPU-Sim PTX: 19800000 instructions simulated : ctaid=(24,0,0) tid=(119,0,0)
GPGPU-Sim uArch: cycles simulated: 479500  inst.: 19321050 (ipc=40.3) sim_rate=84004 (inst/sec) elapsed = 0:0:03:50 / Tue Mar 22 12:47:56 2016
GPGPU-Sim PTX: 19900000 instructions simulated : ctaid=(23,0,0) tid=(87,0,0)
GPGPU-Sim PTX: 20000000 instructions simulated : ctaid=(19,0,0) tid=(23,0,0)
GPGPU-Sim uArch: cycles simulated: 482500  inst.: 19442106 (ipc=40.3) sim_rate=84164 (inst/sec) elapsed = 0:0:03:51 / Tue Mar 22 12:47:57 2016
GPGPU-Sim PTX: 20100000 instructions simulated : ctaid=(16,0,0) tid=(119,0,0)
GPGPU-Sim uArch: cycles simulated: 485000  inst.: 19539962 (ipc=40.3) sim_rate=84223 (inst/sec) elapsed = 0:0:03:52 / Tue Mar 22 12:47:58 2016
GPGPU-Sim PTX: 20200000 instructions simulated : ctaid=(18,0,0) tid=(23,0,0)
GPGPU-Sim uArch: cycles simulated: 487500  inst.: 19645658 (ipc=40.3) sim_rate=84316 (inst/sec) elapsed = 0:0:03:53 / Tue Mar 22 12:47:59 2016
GPGPU-Sim PTX: 20300000 instructions simulated : ctaid=(19,0,0) tid=(23,0,0)
GPGPU-Sim uArch: cycles simulated: 490000  inst.: 19743546 (ipc=40.3) sim_rate=84374 (inst/sec) elapsed = 0:0:03:54 / Tue Mar 22 12:48:00 2016
GPGPU-Sim uArch: cycles simulated: 492000  inst.: 19823546 (ipc=40.3) sim_rate=84355 (inst/sec) elapsed = 0:0:03:55 / Tue Mar 22 12:48:01 2016
GPGPU-Sim PTX: 20400000 instructions simulated : ctaid=(17,0,0) tid=(87,0,0)
GPGPU-Sim PTX: 20500000 instructions simulated : ctaid=(19,0,0) tid=(55,0,0)
GPGPU-Sim uArch: cycles simulated: 494500  inst.: 19928954 (ipc=40.3) sim_rate=84444 (inst/sec) elapsed = 0:0:03:56 / Tue Mar 22 12:48:02 2016
GPGPU-Sim PTX: 20600000 instructions simulated : ctaid=(25,0,0) tid=(55,0,0)
GPGPU-Sim uArch: cycles simulated: 497500  inst.: 20049306 (ipc=40.3) sim_rate=84596 (inst/sec) elapsed = 0:0:03:57 / Tue Mar 22 12:48:03 2016
GPGPU-Sim PTX: 20700000 instructions simulated : ctaid=(26,0,0) tid=(23,0,0)
GPGPU-Sim uArch: cycles simulated: 499500  inst.: 20132602 (ipc=40.3) sim_rate=84590 (inst/sec) elapsed = 0:0:03:58 / Tue Mar 22 12:48:04 2016
GPGPU-Sim PTX: 20800000 instructions simulated : ctaid=(17,0,0) tid=(87,0,0)
GPGPU-Sim uArch: cycles simulated: 502000  inst.: 20242458 (ipc=40.3) sim_rate=84696 (inst/sec) elapsed = 0:0:03:59 / Tue Mar 22 12:48:05 2016
GPGPU-Sim PTX: 20900000 instructions simulated : ctaid=(23,0,0) tid=(87,0,0)
GPGPU-Sim uArch: cycles simulated: 504500  inst.: 20341818 (ipc=40.3) sim_rate=84757 (inst/sec) elapsed = 0:0:04:00 / Tue Mar 22 12:48:06 2016
GPGPU-Sim PTX: 21000000 instructions simulated : ctaid=(19,0,0) tid=(23,0,0)
GPGPU-Sim uArch: cycles simulated: 507000  inst.: 20445242 (ipc=40.3) sim_rate=84835 (inst/sec) elapsed = 0:0:04:01 / Tue Mar 22 12:48:07 2016
GPGPU-Sim PTX: 21100000 instructions simulated : ctaid=(22,0,0) tid=(55,0,0)
GPGPU-Sim uArch: cycles simulated: 510000  inst.: 20570458 (ipc=40.3) sim_rate=85001 (inst/sec) elapsed = 0:0:04:02 / Tue Mar 22 12:48:08 2016
GPGPU-Sim PTX: 21200000 instructions simulated : ctaid=(19,0,0) tid=(23,0,0)
GPGPU-Sim uArch: cycles simulated: 512000  inst.: 20653562 (ipc=40.3) sim_rate=84994 (inst/sec) elapsed = 0:0:04:03 / Tue Mar 22 12:48:09 2016
GPGPU-Sim PTX: 21300000 instructions simulated : ctaid=(29,0,0) tid=(55,0,0)
GPGPU-Sim uArch: cycles simulated: 514500  inst.: 20748090 (ipc=40.3) sim_rate=85033 (inst/sec) elapsed = 0:0:04:04 / Tue Mar 22 12:48:10 2016
GPGPU-Sim PTX: 21400000 instructions simulated : ctaid=(28,0,0) tid=(87,0,0)
GPGPU-Sim uArch: cycles simulated: 517000  inst.: 20844058 (ipc=40.3) sim_rate=85077 (inst/sec) elapsed = 0:0:04:05 / Tue Mar 22 12:48:11 2016
GPGPU-Sim PTX: 21500000 instructions simulated : ctaid=(19,0,0) tid=(119,0,0)
GPGPU-Sim uArch: cycles simulated: 519500  inst.: 20945178 (ipc=40.3) sim_rate=85143 (inst/sec) elapsed = 0:0:04:06 / Tue Mar 22 12:48:12 2016
GPGPU-Sim PTX: 21600000 instructions simulated : ctaid=(27,0,0) tid=(119,0,0)
GPGPU-Sim uArch: cycles simulated: 522000  inst.: 21046682 (ipc=40.3) sim_rate=85209 (inst/sec) elapsed = 0:0:04:07 / Tue Mar 22 12:48:13 2016
GPGPU-Sim PTX: 21700000 instructions simulated : ctaid=(29,0,0) tid=(55,0,0)
GPGPU-Sim uArch: cycles simulated: 524500  inst.: 21150074 (ipc=40.3) sim_rate=85282 (inst/sec) elapsed = 0:0:04:08 / Tue Mar 22 12:48:14 2016
[...]
traffic_breakdown_coretomem[GLOBAL_ACC_R] = 811008 {8:101376,}
traffic_breakdown_coretomem[GLOBAL_ACC_W] = 940032 {136:6912,}
traffic_breakdown_coretomem[INST_ACC_R] = 600 {8:75,}
traffic_breakdown_coretomem[TEXTURE_ACC_R] = 23593200 {8:2949150,}
traffic_breakdown_memtocore[CONST_ACC_R] = 1080 {72:15,}
traffic_breakdown_memtocore[GLOBAL_ACC_R] = 13787136 {136:101376,}
traffic_breakdown_memtocore[GLOBAL_ACC_W] = 55296 {8:6912,}
traffic_breakdown_memtocore[INST_ACC_R] = 10200 {136:75,}
traffic_breakdown_memtocore[TEXTURE_ACC_R] = 401084400 {136:2949150,}
maxmrqlatency = 164 
maxdqlatency = 0 
maxmflatency = 2280 
averagemflatency = 397 
max_icnt2mem_latency = 1813 
max_icnt2sh_latency = 3157713 
mrq_lat_table:98281 	3555 	975 	1254 	2782 	1307 	300 	23 	0 	0 	0 	0 	0 	0 	0 	0 	0 	0 	0 	0 	0 	0 	0 	0 	0 	0 	0 	0 	0 	0 	0 	0 	
dq_lat_table:0 	0 	0 	0 	0 	0 	0 	0 	0 	0 	0 	0 	0 	0 	0 	0 	0 	0 	0 	0 	0 	0 	0 	0 	0 	0 	0 	0 	0 	0 	0 	0 	
mf_lat_table:0 	0 	0 	0 	13593 	53054 	158855 	521775 	1470366 	836392 	3415 	3 	0 	0 	0 	0 	0 	0 	0 	0 	0 	0 	0 	0 	0 	0 	0 	0 	0 	0 	0 	0 	
icnt2mem_lat_table:0 	0 	0 	129449 	167810 	265221 	409908 	908499 	1064344 	111935 	362 	0 	0 	0 	0 	0 	0 	0 	0 	0 	0 	0 	0 	0 	
icnt2sh_lat_table:0 	0 	0 	69985 	1439821 	1246316 	250769 	43635 	15 	0 	0 	0 	0 	0 	0 	0 	0 	540 	540 	1080 	2376 	2376 	0 	0 	
mf_lat_pw_table:0 	0 	0 	0 	0 	0 	24 	767 	5465 	58 	0 	0 	0 	0 	0 	0 	0 	0 	0 	0 	0 	0 	0 	0 	0 	0 	0 	0 	0 	0 	0 	0 	
maximum concurrent accesses to same row:
dram[0]:        32        32        32        32        35        33        78        63        64        62        55        60        32        32        32        32 
dram[1]:        26        32        32        32        40        34        76        63        64        64        40        24        32        32        32        32 
dram[2]:        32        32        32        30        28        44        57        56        50        34        59        22        32        32        32        32 
dram[3]:        32        32        32        30        17        38        44        62        30        28        24        24        32        32        32        32 
dram[4]:        32        32        32        30        25        30        31        58        50        50        56        40        32        32        32        32 
dram[5]:        32        32        32        30        24        28        44        55        50        42        62        19        32        32        32        32 
maximum service time to same row:
dram[0]:    228866    229385    237904    242577    229193    226174    224334    212733    224603    229125    229675    228721    229856    228788    229006    229173 
dram[1]:    229515    230022    241925    241774    230557    229775    228818    221188    229772    228231    229679    230366    229403    230227    229673    230061 
dram[2]:    226443    229244    235519    231086    226916    228155    213451    226137    220868    225947    226529    228958    226481    228983    226632    229377 
dram[3]:    230050    231534    236505    230332    228787    231291    220750    223240    223981    224725    230106    231290    230260    231413    230091    232012 
dram[4]:    237672    229929    240457    231703    239972    231884    239144    230566    226884    221364    229363    222791    238432    229713    238068    229473 
dram[5]:    233306    230537    242487    234357    237690    229662    237544    229495    228615    226047    231274    229525    234833    230246    234429    229871 
average row accesses per activate:
dram[0]:  6.777070  7.781022  6.907895  8.007633  7.306667  7.723404  7.072626  7.443787  6.584210  7.580838  7.566879  8.485915  7.006622  7.816176  6.928104  7.717391 
dram[1]:  6.439759  7.625899  6.635220  7.671533  7.077922  7.328859  6.728724  6.783784  6.518135  6.923497  6.850574  7.818182  6.915033  7.737226  6.794872  7.688406 
dram[2]:  6.503067  6.708861  6.441718  6.375758  6.403509  6.792683  5.980861  6.248756  6.102439  5.057613  7.215569  6.439560  6.537037  6.276471  6.371257  6.561728 
dram[3]:  7.816176  5.283582  7.858209  5.261307  7.213333  5.740932  6.038462  5.122449  5.980861  4.675472  7.459627  5.161572  8.130769  5.061905  8.022727  5.252475 
dram[4]:  7.917911  5.643617  7.792593  5.898876  7.537931  5.817708  7.061798  5.557522  6.912088  5.390558  8.710145  5.896039  7.710145  5.938202  8.186047  5.910614 
dram[5]:  7.786765  5.861878  7.623188  5.898876  7.794326  5.631313  7.289017  5.707207  7.529762  5.225000  8.867647  5.566038  7.851852  5.949438  7.816176  5.829670 
average row locality = 108477/16380 = 6.622528
number of total memory accesses made:
dram[0]:         0         0         0         0         0         0         0         0         0         0         0         0         0         0         0         0 
dram[1]:         0         0         0         0         0         0         0         0         0         0         0         0         0         0         0         0 
dram[2]:         0         0         0         0         0         0         0         0         0         0         0         0         0         0         0         0 
dram[3]:         0         0         0         0         0         0         0         0         0         0         0         0         0         0         0         0 
dram[4]:         0         0         0         0         0         0         0         0         0         0         0         0         0         0         0         0 
dram[5]:         0         0         0         0         0         0         0         0         0         0         0         0         0         0         0         0 
total accesses: 0
min_bank_accesses = 0!
min_chip_accesses = 0!
number of total read accesses:
dram[0]:      1064      1066      1050      1049      1044      1044      1088      1088      1088      1088      1078      1078      1058      1063      1060      1065 
dram[1]:      1069      1060      1055      1051      1044      1044      1088      1088      1088      1088      1078      1078      1058      1060      1060      1061 
dram[2]:      1060      1060      1050      1052      1044      1048      1088      1088      1088      1088      1078      1076      1059      1067      1064      1063 
dram[3]:      1063      1062      1053      1047      1044      1048      1088      1088      1088      1088      1078      1076      1057      1063      1059      1061 
dram[4]:      1061      1061      1052      1050      1044      1048      1088      1088      1088      1088      1078      1076      1064      1057      1056      1058 
dram[5]:      1059      1061      1052      1050      1044      1048      1088      1088      1088      1088      1078      1076      1060      1059      1063      1061 
total reads: 102397
bank skew: 1088/1044 = 1.04
chip skew: 17073/17057 = 1.00
number of total write accesses:
dram[0]:         0         0         0         0        52        45       178       170       163       178       110       127         0         0         0         0 
dram[1]:         0         0         0         0        46        48       177       167       170       179       114       126         0         0         0         0 
dram[2]:         0         0         0         0        51        66       162       168       163       141       127        96         0         0         0         0 
dram[3]:         0         0         0         0        38        60       168       167       162       151       123       106         0         0         0         0 
dram[4]:         0         0         0         0        49        69       169       168       170       168       124       115         0         0         0         0 
dram[5]:         0         0         0         0        55        67       173       179       177       166       128       104         0         0         0         0 
total reads: 6080
min_bank_accesses = 0!
chip skew: 1049/974 = 1.08
average mf latency per bank:
dram[0]:      21153     22549     13916     14985       592       618       569       612       579       582      7215      7602     24113     25878     22744     24017
dram[1]:      21921     21850     14244     14635       592       636       579       639       600       601      7322      7485     24299     25095     23520     24269
dram[2]:      22418     22094     14576     13180       619       614       602       600       603       632      7313      8969     25112     24778     23842     23194
dram[3]:      22774     22458     15012     13595       632       618       624       602       613       624      7250      8970     25516     25078     24419     24092
dram[4]:      21227     22565     14215     13897       612       610       597       597       577       604      7210      8761     24660     25825     23456     24161
dram[5]:      22357     20894     14346     12277       603       590       601       572       592       598      7284      8490     24745     23728     23646     22334
maximum mf latency per bank:
dram[0]:       1546      1380      1518      1500      1499      1596      1579      1801      1634      1460      1556      1651      1894      1326      1771      1892
dram[1]:       1634      1414      1326      1432      1678      1637      1498      1568      1620      1486      2016      1575      1721      2280      1490      1554
dram[2]:       1642      1930      1675      1702      1509      1480      1842      1950      1658      1646      1480      1761      1685      1550      1589      1445
dram[3]:       1638      1577      1683      2154      1696      1529      1820      1706      2043      1760      1552      1586      2026      1410      1659      1488
dram[4]:       1499      1496      2250      1766      1728      1710      1716      1781      1694      1581      1608      1404      1823      1653      1518      1615
dram[5]:       1623      1840      1590      1432      1433      1696      1728      1636      1802      1489      1506      1708      1799      1440      1890      1587

Number of Memory Banks Accessed per Memory Operation per Warp (from 0):
0	0	0	0	0	0	0	0	0	0	0	0	0	0	0	0	0	0	0	0	0	0	0	0	0	0	0	0	0	0	0	0	0	0	0	0	0	0	0	0	0	0	0	0	0	0	0	0	0	0	0	0	0	0	0	0	0	0	0	0	0	0	0	0	0	0	0	0	0	0	0	0	0	0	0	0	0	0	0	0	0	0	0	0	0	0	0	0	0	0	0	0	0	0	0	0	
Average # of Memory Banks Accessed per Memory Operation per Warp=-nan

position of mrq chosen
0	0	0	0	0	0	0	0	0	0	0	0	0	0	0	0	

average position of mrq chosen = -nan
Memory Partition 0: 
Cache L2_bank_000:
MSHR contents

Cache L2_bank_001:
MSHR contents

In Dram Latency Queue (total = 0): 
DRAM[0]: 16 bks, busW=4 BL=8 CL=12, tRRD=2 tCCD=6, tRCD=12 tRAS=28 tRP=12 tRC=40
n_cmd=4168181 n_nop=4127109 n_act=2450 n_pre=2434 n_req=18094 n_rd=34142 n_write=2046 bw_util=0.01736
n_activity=320660 dram_eff=0.2257
bk0: 2128a 4159610i bk1: 2132a 4159936i bk2: 2100a 4159471i bk3: 2098a 4159997i bk4: 2088a 4159190i bk5: 2088a 4159431i bk6: 2176a 4156673i bk7: 2176a 4156948i bk8: 2176a 4157039i bk9: 2176a 4157424i bk10: 2156a 4158231i bk11: 2156a 4158403i bk12: 2116a 4159442i bk13: 2126a 4159650i bk14: 2120a 4159253i bk15: 2130a 4159497i 
dram_util_bins: 0 0 0 0 0 0 0 0 0 0
dram_eff_bins: 0 0 0 0 0 0 0 0 0 0
mrqq: max=16 avg=0.00471525
Memory Partition 1: 
Cache L2_bank_002:
MSHR contents

Cache L2_bank_003:
MSHR contents

In Dram Latency Queue (total = 0): 
DRAM[1]: 16 bks, busW=4 BL=8 CL=12, tRRD=2 tCCD=6, tRCD=12 tRAS=28 tRP=12 tRC=40
n_cmd=4168181 n_nop=4126873 n_act=2565 n_pre=2549 n_req=18097 n_rd=34140 n_write=2054 bw_util=0.01737
n_activity=321090 dram_eff=0.2254
bk0: 2138a 4159374i bk1: 2120a 4159813i bk2: 2110a 4159279i bk3: 2102a 4159697i bk4: 2088a 4159171i bk5: 2088a 4159028i bk6: 2176a 4156268i bk7: 2176a 4156081i bk8: 2176a 4156618i bk9: 2176a 4156392i bk10: 2156a 4157386i bk11: 2156a 4157690i bk12: 2116a 4159324i bk13: 2120a 4159500i bk14: 2120a 4159177i bk15: 2122a 4159418i 
dram_util_bins: 0 0 0 0 0 0 0 0 0 0
dram_eff_bins: 0 0 0 0 0 0 0 0 0 0
mrqq: max=16 avg=0.010584
Memory Partition 2: 
Cache L2_bank_004:
MSHR contents

Cache L2_bank_005:
MSHR contents

In Dram Latency Queue (total = 0): 
DRAM[2]: 16 bks, busW=4 BL=8 CL=12, tRRD=2 tCCD=6, tRCD=12 tRAS=28 tRP=12 tRC=40
n_cmd=4168181 n_nop=4126399 n_act=2852 n_pre=2836 n_req=18047 n_rd=34146 n_write=1948 bw_util=0.01732
n_activity=330208 dram_eff=0.2186
bk0: 2120a 4159486i bk1: 2120a 4159368i bk2: 2100a 4159226i bk3: 2104a 4159199i bk4: 2088a 4158623i bk5: 2096a 4158510i bk6: 2176a 4156074i bk7: 2176a 4155785i bk8: 2176a 4156177i bk9: 2176a 4155347i bk10: 2156a 4157476i bk11: 2152a 4157451i bk12: 2118a 4159113i bk13: 2134a 4158816i bk14: 2128a 4158943i bk15: 2126a 4158774i 
dram_util_bins: 0 0 0 0 0 0 0 0 0 0
dram_eff_bins: 0 0 0 0 0 0 0 0 0 0
mrqq: max=16 avg=0.00945856
Memory Partition 3: 
Cache L2_bank_006:
MSHR contents

Cache L2_bank_007:
MSHR contents

In Dram Latency Queue (total = 0): 
DRAM[3]: 16 bks, busW=4 BL=8 CL=12, tRRD=2 tCCD=6, tRCD=12 tRAS=28 tRP=12 tRC=40
n_cmd=4168181 n_nop=4126113 n_act=3004 n_pre=2988 n_req=18038 n_rd=34126 n_write=1950 bw_util=0.01731
n_activity=335460 dram_eff=0.2151
bk0: 2126a 4160074i bk1: 2124a 4158411i bk2: 2106a 4159852i bk3: 2094a 4158300i bk4: 2088a 4159157i bk5: 2096a 4157810i bk6: 2176a 4155893i bk7: 2176a 4155096i bk8: 2176a 4156135i bk9: 2176a 4155076i bk10: 2156a 4157789i bk11: 2152a 4156227i bk12: 2114a 4159823i bk13: 2126a 4157946i bk14: 2118a 4159631i bk15: 2122a 4158088i 
dram_util_bins: 0 0 0 0 0 0 0 0 0 0
dram_eff_bins: 0 0 0 0 0 0 0 0 0 0
mrqq: max=16 avg=0.00680345
Memory Partition 4: 
Cache L2_bank_008:
MSHR contents

Cache L2_bank_009:
MSHR contents

In Dram Latency Queue (total = 0): 
DRAM[4]: 16 bks, busW=4 BL=8 CL=12, tRRD=2 tCCD=6, tRCD=12 tRAS=28 tRP=12 tRC=40
n_cmd=4168181 n_nop=4126509 n_act=2755 n_pre=2739 n_req=18089 n_rd=34114 n_write=2064 bw_util=0.01736
n_activity=328719 dram_eff=0.2201
bk0: 2122a 4160204i bk1: 2122a 4158703i bk2: 2104a 4159858i bk3: 2100a 4158836i bk4: 2088a 4159270i bk5: 2096a 4157727i bk6: 2176a 4156482i bk7: 2176a 4155434i bk8: 2176a 4156740i bk9: 2176a 4155546i bk10: 2156a 4158260i bk11: 2152a 4156730i bk12: 2128a 4159607i bk13: 2114a 4158634i bk14: 2112a 4159863i bk15: 2116a 4158553i 
dram_util_bins: 0 0 0 0 0 0 0 0 0 0
dram_eff_bins: 0 0 0 0 0 0 0 0 0 0
mrqq: max=16 avg=0.0103047
Memory Partition 5: 
Cache L2_bank_010:
MSHR contents

Cache L2_bank_011:
MSHR contents

In Dram Latency Queue (total = 0): 
DRAM[5]: 16 bks, busW=4 BL=8 CL=12, tRRD=2 tCCD=6, tRCD=12 tRAS=28 tRP=12 tRC=40
n_cmd=4168181 n_nop=4126465 n_act=2754 n_pre=2738 n_req=18112 n_rd=34126 n_write=2098 bw_util=0.01738
n_activity=328480 dram_eff=0.2206
bk0: 2118a 4160083i bk1: 2122a 4158938i bk2: 2104a 4159818i bk3: 2100a 4158829i bk4: 2088a 4159302i bk5: 2096a 4157657i bk6: 2176a 4156752i bk7: 2176a 4155591i bk8: 2176a 4157129i bk9: 2176a 4155172i bk10: 2156a 4158258i bk11: 2152a 4156659i bk12: 2120a 4159658i bk13: 2118a 4158679i bk14: 2126a 4159615i bk15: 2122a 4158628i 
dram_util_bins: 0 0 0 0 0 0 0 0 0 0
dram_eff_bins: 0 0 0 0 0 0 0 0 0 0
mrqq: max=16 avg=0.0109535

========= L2 cache stats =========
L2_cache_bank[0]: Access = 253415, Miss = 8530, Miss_rate = 0.034, Pending_hits = 282, Reservation_fails = 344
L2_cache_bank[1]: Access = 256318, Miss = 8541, Miss_rate = 0.033, Pending_hits = 293, Reservation_fails = 5
L2_cache_bank[2]: Access = 254333, Miss = 8540, Miss_rate = 0.034, Pending_hits = 278, Reservation_fails = 155
L2_cache_bank[3]: Access = 254646, Miss = 8530, Miss_rate = 0.033, Pending_hits = 283, Reservation_fails = 28
L2_cache_bank[4]: Access = 255367, Miss = 8531, Miss_rate = 0.033, Pending_hits = 266, Reservation_fails = 20
L2_cache_bank[5]: Access = 254868, Miss = 8542, Miss_rate = 0.034, Pending_hits = 214, Reservation_fails = 109
L2_cache_bank[6]: Access = 255018, Miss = 8530, Miss_rate = 0.033, Pending_hits = 237, Reservation_fails = 8
L2_cache_bank[7]: Access = 256145, Miss = 8533, Miss_rate = 0.033, Pending_hits = 241, Reservation_fails = 73
L2_cache_bank[8]: Access = 254948, Miss = 8531, Miss_rate = 0.033, Pending_hits = 261, Reservation_fails = 38
L2_cache_bank[9]: Access = 255209, Miss = 8526, Miss_rate = 0.033, Pending_hits = 254, Reservation_fails = 25
L2_cache_bank[10]: Access = 254635, Miss = 8532, Miss_rate = 0.034, Pending_hits = 310, Reservation_fails = 27
L2_cache_bank[11]: Access = 252626, Miss = 8531, Miss_rate = 0.034, Pending_hits = 273, Reservation_fails = 64
L2_total_cache_accesses = 3057528
L2_total_cache_misses = 102397
L2_total_cache_miss_rate = 0.0335
L2_total_cache_pending_hits = 3192
L2_total_cache_reservation_fails = 896
L2_total_cache_breakdown:
	L2_cache_stats_breakdown[GLOBAL_ACC_R][HIT] = 2832
	L2_cache_stats_breakdown[GLOBAL_ACC_R][MISS] = 98544
	L2_cache_stats_breakdown[CONST_ACC_R][HIT] = 11
	L2_cache_stats_breakdown[CONST_ACC_R][HIT_RESERVED] = 3
	L2_cache_stats_breakdown[CONST_ACC_R][MISS] = 1
	L2_cache_stats_breakdown[CONST_ACC_R][RESERVATION_FAIL] = 103
	L2_cache_stats_breakdown[TEXTURE_ACC_R][HIT] = 2947396
	L2_cache_stats_breakdown[TEXTURE_ACC_R][HIT_RESERVED] = 211
	L2_cache_stats_breakdown[TEXTURE_ACC_R][MISS] = 1543
	L2_cache_stats_breakdown[TEXTURE_ACC_R][RESERVATION_FAIL] = 241
	L2_cache_stats_breakdown[GLOBAL_ACC_W][HIT] = 1640
	L2_cache_stats_breakdown[GLOBAL_ACC_W][HIT_RESERVED] = 2968
	L2_cache_stats_breakdown[GLOBAL_ACC_W][MISS] = 2304
	L2_cache_stats_breakdown[GLOBAL_ACC_W][RESERVATION_FAIL] = 222
	L2_cache_stats_breakdown[INST_ACC_R][HIT] = 60
	L2_cache_stats_breakdown[INST_ACC_R][HIT_RESERVED] = 10
	L2_cache_stats_breakdown[INST_ACC_R][MISS] = 5
	L2_cache_stats_breakdown[INST_ACC_R][RESERVATION_FAIL] = 330
L2_cache_data_port_util = 0.312
L2_cache_fill_port_util = 0.011

icnt_total_pkts_mem_to_simt=15259962
icnt_total_pkts_simt_to_mem=3085176
LD_mem_lat_dist  0 0 0 0 0 0 0 0 0 0 0 0 0 0 0 0 0 0 0 0 0 0 0 0 0 0 0
ST_mem_lat_dist  0 0 0 0 0 0 0 0 0 0 0 0 0 0 0 0 0 0 0 0 0 0 0 0 0 0 0
----------------------------Interconnect-DETAILS--------------------------------
Class 0:
Packet latency average = 80.6769
	minimum = 6
	maximum = 1140
Network latency average = 50.2714
	minimum = 6
	maximum = 708
Slowest packet = 3057541
Flit latency average = 28.6674
	minimum = 6
	maximum = 708
Slowest flit = 15270817
Fragmentation average = 0.00949209
	minimum = 0
	maximum = 183
Injected packet rate average = 0.0715708
	minimum = 0.0603107 (at node 2)
	maximum = 0.0810069 (at node 16)
Accepted packet rate average = 0.0715708
	minimum = 0.0603107 (at node 2)
	maximum = 0.0810069 (at node 16)
Injected flit rate average = 0.214712
	minimum = 0.0608568 (at node 2)
	maximum = 0.404307 (at node 16)
Accepted flit rate average= 0.214712
	minimum = 0.0805253 (at node 26)
	maximum = 0.402155 (at node 6)
Injected packet length average = 3
Accepted packet length average = 3
Total in-flight flits = 0 (0 measured)
====== Overall Traffic Statistics ======
====== Traffic class 0 ======
Packet latency average = 80.7187 (2 samples)
	minimum = 6 (2 samples)
	maximum = 1080.5 (2 samples)
Network latency average = 50.2739 (2 samples)
	minimum = 6 (2 samples)
	maximum = 719 (2 samples)
Flit latency average = 28.6388 (2 samples)
	minimum = 6 (2 samples)
	maximum = 719 (2 samples)
Fragmentation average = 0.00927857 (2 samples)
	minimum = 0 (2 samples)
	maximum = 190 (2 samples)
Injected packet rate average = 0.0717242 (2 samples)
	minimum = 0.0604535 (2 samples)
	maximum = 0.0811724 (2 samples)
Accepted packet rate average = 0.0717242 (2 samples)
	minimum = 0.0604535 (2 samples)
	maximum = 0.0811724 (2 samples)
Injected flit rate average = 0.215172 (2 samples)
	minimum = 0.0610008 (2 samples)
	maximum = 0.405132 (2 samples)
Accepted flit rate average = 0.215172 (2 samples)
	minimum = 0.0807329 (2 samples)
	maximum = 0.402918 (2 samples)
Injected packet size average = 3 (2 samples)
Accepted packet size average = 3 (2 samples)
Hops average = 1 (2 samples)
