

        *** GPGPU-Sim Simulator Version 3.2.2  [build 0] ***


GPGPU-Sim PTX: simulation mode 0 (can change with PTX_SIM_MODE_FUNC environment variable:
               1=functional simulation only, 0=detailed performance simulator)
GPGPU-Sim: Configuration options:

-network_mode                           1 # Interconnection network mode
-inter_config_file   config_fermi_islip.icnt # Interconnection network config file
-gpgpu_ptx_use_cuobjdump                    1 # Use cuobjdump to extract ptx and sass from binaries
-gpgpu_experimental_lib_support                    0 # Try to extract code from cuda libraries [Broken because of unknown cudaGetExportTable]
-gpgpu_ptx_convert_to_ptxplus                    0 # Convert SASS (native ISA) to ptxplus and run ptxplus
-gpgpu_ptx_force_max_capability                   20 # Force maximum compute capability
-gpgpu_ptx_inst_debug_to_file                    0 # Dump executed instructions' debug information to file
-gpgpu_ptx_inst_debug_file       inst_debug.txt # Executed instructions' debug output file
-gpgpu_ptx_inst_debug_thread_uid                    1 # Thread UID for executed instructions' debug output
-gpgpu_simd_model                       1 # 1 = post-dominator
-gpgpu_shader_core_pipeline              1536:32 # shader core pipeline config, i.e., {<nthread>:<warpsize>}
-gpgpu_tex_cache:l1  4:128:24,L:R:m:N:L,F:128:4,128:2 # per-shader L1 texture cache  (READ-ONLY) config  {<nsets>:<bsize>:<assoc>,<rep>:<wr>:<alloc>:<wr_alloc>,<mshr>:<N>:<merge>,<mq>:<rf>}
-gpgpu_const_cache:l1 64:64:2,L:R:f:N:L,A:2:32,4 # per-shader L1 constant memory cache  (READ-ONLY) config  {<nsets>:<bsize>:<assoc>,<rep>:<wr>:<alloc>:<wr_alloc>,<mshr>:<N>:<merge>,<mq>} 
-gpgpu_cache:il1     4:128:4,L:R:f:N:L,A:2:32,4 # shader L1 instruction cache config  {<nsets>:<bsize>:<assoc>,<rep>:<wr>:<alloc>:<wr_alloc>,<mshr>:<N>:<merge>,<mq>} 
-gpgpu_cache:dl1     32:128:4,L:L:m:N:H,A:32:8,8:2,0,1:0:1:1:0:1,1:4:8:16:32:64,/sciclone/data10/hwang07/GPU_RESEARCH/swl/swl_outputs/RESULTS/gto/ # per-shader L1 data cache config  {<nsets>:<bsize>:<assoc>,<rep>:<wr>:<alloc>:<wr_alloc>,<mshr>:<N>:<merge>,<mq> | none}
-gpgpu_cache:dl1PrefL1                 none # per-shader L1 data cache config  {<nsets>:<bsize>:<assoc>,<rep>:<wr>:<alloc>:<wr_alloc>,<mshr>:<N>:<merge>,<mq> | none}
-gpgpu_cache:dl1PreShared                 none # per-shader L1 data cache config  {<nsets>:<bsize>:<assoc>,<rep>:<wr>:<alloc>:<wr_alloc>,<mshr>:<N>:<merge>,<mq> | none}
-gmem_skip_L1D                          0 # global memory access skip L1D cache (implements -Xptxas -dlcm=cg, default=no skip)
-gpgpu_perfect_mem                      0 # enable perfect memory mode (no cache miss)
-n_regfile_gating_group                    4 # group of lanes that should be read/written together)
-gpgpu_clock_gated_reg_file                    0 # enable clock gated reg file for power calculations
-gpgpu_clock_gated_lanes                    0 # enable clock gated lanes for power calculations
-gpgpu_shader_registers                32768 # Number of registers per shader core. Limits number of concurrent CTAs. (default 8192)
-gpgpu_shader_cta                       8 # Maximum number of concurrent CTAs in shader (default 8)
-gpgpu_num_cta_barriers                   16 # Maximum number of named barriers per CTA (default 16)
-gpgpu_n_clusters                      15 # number of processing clusters
-gpgpu_n_cores_per_cluster                    1 # number of simd cores per cluster
-gpgpu_n_cluster_ejection_buffer_size                    8 # number of packets in ejection buffer
-gpgpu_n_ldst_response_buffer_size                    2 # number of response packets in ld/st unit ejection buffer
-gpgpu_shmem_size                   16384 # Size of shared memory per shader core (default 16kB)
-gpgpu_shmem_size                   49152 # Size of shared memory per shader core (default 16kB)
-gpgpu_shmem_size_PrefL1                16384 # Size of shared memory per shader core (default 16kB)
-gpgpu_shmem_size_PrefShared                16384 # Size of shared memory per shader core (default 16kB)
-gpgpu_shmem_num_banks                   32 # Number of banks in the shared memory in each shader core (default 16)
-gpgpu_shmem_limited_broadcast                    0 # Limit shared memory to do one broadcast per cycle (default on)
-gpgpu_shmem_warp_parts                    1 # Number of portions a warp is divided into for shared memory bank conflict check 
-gpgpu_warpdistro_shader                   -1 # Specify which shader core to collect the warp size distribution from
-gpgpu_warp_issue_shader                    0 # Specify which shader core to collect the warp issue distribution from
-gpgpu_local_mem_map                    1 # Mapping from local memory space address to simulated GPU physical address space (default = enabled)
-gpgpu_num_reg_banks                   16 # Number of register banks (default = 8)
-gpgpu_reg_bank_use_warp_id                    0 # Use warp ID in mapping registers to banks (default = off)
-gpgpu_operand_collector_num_units_sp                    6 # number of collector units (default = 4)
-gpgpu_operand_collector_num_units_sfu                    8 # number of collector units (default = 4)
-gpgpu_operand_collector_num_units_mem                    2 # number of collector units (default = 2)
-gpgpu_operand_collector_num_units_gen                    0 # number of collector units (default = 0)
-gpgpu_operand_collector_num_in_ports_sp                    2 # number of collector unit in ports (default = 1)
-gpgpu_operand_collector_num_in_ports_sfu                    1 # number of collector unit in ports (default = 1)
-gpgpu_operand_collector_num_in_ports_mem                    1 # number of collector unit in ports (default = 1)
-gpgpu_operand_collector_num_in_ports_gen                    0 # number of collector unit in ports (default = 0)
-gpgpu_operand_collector_num_out_ports_sp                    2 # number of collector unit in ports (default = 1)
-gpgpu_operand_collector_num_out_ports_sfu                    1 # number of collector unit in ports (default = 1)
-gpgpu_operand_collector_num_out_ports_mem                    1 # number of collector unit in ports (default = 1)
-gpgpu_operand_collector_num_out_ports_gen                    0 # number of collector unit in ports (default = 0)
-gpgpu_coalesce_arch                   13 # Coalescing arch (default = 13, anything else is off for now)
-gpgpu_num_sched_per_core                    2 # Number of warp schedulers per core
-gpgpu_max_insn_issue_per_warp                    1 # Max number of instructions that can be issued per warp in one cycle by scheduler
-gpgpu_simt_core_sim_order                    1 # Select the simulation order of cores in a cluster (0=Fix, 1=Round-Robin)
-gpgpu_pipeline_widths        2,1,1,2,1,1,2 # Pipeline widths ID_OC_SP,ID_OC_SFU,ID_OC_MEM,OC_EX_SP,OC_EX_SFU,OC_EX_MEM,EX_WB
-gpgpu_num_sp_units                     2 # Number of SP units (default=1)
-gpgpu_num_sfu_units                    1 # Number of SF units (default=1)
-gpgpu_num_mem_units                    1 # Number if ldst units (default=1) WARNING: not hooked up to anything
-gpgpu_scheduler                      gto # Scheduler configuration: < lrr | gto | two_level_active > If two_level_active:<num_active_warps>:<inner_prioritization>:<outer_prioritization>For complete list of prioritization values see shader.h enum scheduler_prioritization_typeDefault: gto
-gpgpu_dram_scheduler                    1 # 0 = fifo, 1 = FR-FCFS (defaul)
-gpgpu_dram_partition_queues              8:8:8:8 # i2$:$2d:d2$:$2i
-l2_ideal                               0 # Use a ideal L2 cache that always hit
-gpgpu_cache:dl2     64:128:8,L:B:m:W:L,A:32:4,4:0,32 # unified banked L2 data cache config  {<nsets>:<bsize>:<assoc>,<rep>:<wr>:<alloc>:<wr_alloc>,<mshr>:<N>:<merge>,<mq>}
-gpgpu_cache:dl2_texture_only                    0 # L2 cache used for texture only
-gpgpu_n_mem                            6 # number of memory modules (e.g. memory controllers) in gpu
-gpgpu_n_sub_partition_per_mchannel                    2 # number of memory subpartition in each memory module
-gpgpu_n_mem_per_ctrlr                    2 # number of memory chips per memory controller
-gpgpu_memlatency_stat                   14 # track and display latency statistics 0x2 enables MC, 0x4 enables queue logs
-gpgpu_frfcfs_dram_sched_queue_size                   16 # 0 = unlimited (default); # entries per chip
-gpgpu_dram_return_queue_size                  116 # 0 = unlimited (default); # entries per chip
-gpgpu_dram_buswidth                    4 # default = 4 bytes (8 bytes per cycle at DDR)
-gpgpu_dram_burst_length                    8 # Burst length of each DRAM request (default = 4 data bus cycle)
-dram_data_command_freq_ratio                    4 # Frequency ratio between DRAM data bus and command bus (default = 2 times, i.e. DDR)
-gpgpu_dram_timing_opt nbk=16:CCD=2:RRD=6:RCD=12:RAS=28:RP=12:RC=40: CL=12:WL=4:CDLR=5:WR=12:nbkgrp=4:CCDL=3:RTPL=2 # DRAM timing parameters = {nbk:tCCD:tRRD:tRCD:tRAS:tRP:tRC:CL:WL:tCDLR:tWR:nbkgrp:tCCDL:tRTPL}
-rop_latency                          120 # ROP queue latency (default 85)
-dram_latency                         100 # DRAM latency (default 30)
-gpgpu_mem_addr_mapping dramid@8;00000000.00000000.00000000.00000000.0000RRRR.RRRRRRRR.BBBCCCCB.CCSSSSSS # mapping memory address to dram model {dramid@<start bit>;<memory address map>}
-gpgpu_mem_addr_test                    0 # run sweep test to check address mapping for aliased address
-gpgpu_mem_address_mask                    1 # 0 = old addressing mask, 1 = new addressing mask, 2 = new add. mask + flipped bank sel and chip sel bits
-gpuwattch_xml_file  gpuwattch_gtx480.xml # GPUWattch XML file
-power_simulation_enabled                    0 # Turn on power simulator (1=On, 0=Off)
-power_per_cycle_dump                    0 # Dump detailed power output each cycle
-power_trace_enabled                    0 # produce a file for the power trace (1=On, 0=Off)
-power_trace_zlevel                     6 # Compression level of the power trace output log (0=no comp, 9=highest)
-steady_power_levels_enabled                    0 # produce a file for the steady power levels (1=On, 0=Off)
-steady_state_definition                  8:4 # allowed deviation:number of samples
-gpgpu_max_cycle                        0 # terminates gpu simulation early (0 = no limit)
-gpgpu_max_insn                         0 # terminates gpu simulation early (0 = no limit)
-gpgpu_max_cta                          0 # terminates gpu simulation early (0 = no limit)
-gpgpu_runtime_stat                   500 # display runtime statistics such as dram utilization {<freq>:<flag>}
-liveness_message_freq                    1 # Minimum number of seconds between simulation liveness messages (0 = always print)
-gpgpu_flush_l1_cache                    0 # Flush L1 cache at the end of each kernel call
-gpgpu_flush_l2_cache                    0 # Flush L2 cache at the end of each kernel call
-gpgpu_deadlock_detect                    1 # Stop the simulation at deadlock (1=on (default), 0=off)
-gpgpu_ptx_instruction_classification                    0 # if enabled will classify ptx instruction types per kernel (Max 255 kernels now)
-gpgpu_ptx_sim_mode                     0 # Select between Performance (default) or Functional simulation (1)
-gpgpu_clock_domains 700.0:700.0:700.0:924.0 # Clock Domain Frequencies in MhZ {<Core Clock>:<ICNT Clock>:<L2 Clock>:<DRAM Clock>}
-gpgpu_max_concurrent_kernel                    8 # maximum kernels that can run concurrently on GPU
-gpgpu_cflog_interval                    0 # Interval between each snapshot in control flow logger
-visualizer_enabled                     0 # Turn on visualizer output (1=On, 0=Off)
-visualizer_outputfile                 NULL # Specifies the output log file for visualizer
-visualizer_zlevel                      6 # Compression level of the visualizer output log (0=no comp, 9=highest)
-trace_enabled                          0 # Turn on traces
-trace_components                    none # comma seperated list of traces to enable. Complete list found in trace_streams.tup. Default none
-trace_sampling_core                    0 # The core which is printed using CORE_DPRINTF. Default 0
-trace_sampling_memory_partition                   -1 # The memory partition which is printed using MEMPART_DPRINTF. Default -1 (i.e. all)
-enable_ptx_file_line_stats                    1 # Turn on PTX source line statistic profiling. (1 = On)
-ptx_line_stats_filename gpgpu_inst_stats.txt # Output file for PTX source line statistics.
-save_embedded_ptx                      0 # saves ptx files embedded in binary as <n>.ptx
-keep                                   0 # keep intermediate files created by GPGPU-Sim when interfacing with external programs
-gpgpu_ptx_save_converted_ptxplus                    0 # Saved converted ptxplus to a file
-ptx_opcode_latency_int         4,13,4,5,145 # Opcode latencies for integers <ADD,MAX,MUL,MAD,DIV>Default 1,1,19,25,145
-ptx_opcode_latency_fp          4,13,4,5,39 # Opcode latencies for single precision floating points <ADD,MAX,MUL,MAD,DIV>Default 1,1,1,1,30
-ptx_opcode_latency_dp         8,19,8,8,330 # Opcode latencies for double precision floating points <ADD,MAX,MUL,MAD,DIV>Default 8,8,8,8,335
-ptx_opcode_initiation_int            1,2,2,1,8 # Opcode initiation intervals for integers <ADD,MAX,MUL,MAD,DIV>Default 1,1,4,4,32
-ptx_opcode_initiation_fp            1,2,1,1,4 # Opcode initiation intervals for single precision floating points <ADD,MAX,MUL,MAD,DIV>Default 1,1,1,1,5
-ptx_opcode_initiation_dp         8,16,8,8,130 # Opcode initiation intervals for double precision floating points <ADD,MAX,MUL,MAD,DIV>Default 8,8,8,8,130
DRAM Timing Options:
nbk                                    16 # number of banks
CCD                                     2 # column to column delay
RRD                                     6 # minimal delay between activation of rows in different banks
RCD                                    12 # row to column delay
RAS                                    28 # time needed to activate row
RP                                     12 # time needed to precharge (deactivate) row
RC                                     40 # row cycle time
CDLR                                    5 # switching from write to read (changes tWTR)
WR                                     12 # last data-in to row precharge
CL                                     12 # CAS latency
WL                                      4 # Write latency
nbkgrp                                  4 # number of bank groups
CCDL                                    3 # column to column delay between accesses to different bank groups
RTPL                                    2 # read to precharge delay between accesses to different bank groups
Total number of memory sub partition = 12
addr_dec_mask[CHIP]  = 0000000000000000 	high:64 low:0
addr_dec_mask[BK]    = 000000000000e100 	high:16 low:8
addr_dec_mask[ROW]   = 000000000fff0000 	high:28 low:16
addr_dec_mask[COL]   = 0000000000001eff 	high:13 low:0
addr_dec_mask[BURST] = 000000000000003f 	high:6 low:0
sub_partition_id_mask = 0000000000000100
GPGPU-Sim uArch: clock freqs: 700000000.000000:700000000.000000:700000000.000000:924000000.000000
GPGPU-Sim uArch: clock periods: 0.00000000142857142857:0.00000000142857142857:0.00000000142857142857:0.00000000108225108225
*** Initializing Memory Statistics ***
GPGPU-Sim uArch: interconnect node map (shaderID+MemID to icntID)
GPGPU-Sim uArch: Memory nodes ID start from index: 15
GPGPU-Sim uArch:    0   1   2   3   4
GPGPU-Sim uArch:    5   6   7   8   9
GPGPU-Sim uArch:   10  11  12  13  14
GPGPU-Sim uArch:   15  16  17  18  19
GPGPU-Sim uArch:   20  21  22  23  24
GPGPU-Sim uArch:   25  26
GPGPU-Sim uArch: interconnect node reverse map (icntID to shaderID+MemID)
GPGPU-Sim uArch: Memory nodes start from ID: 15
GPGPU-Sim uArch:    0   1   2   3   4
GPGPU-Sim uArch:    5   6   7   8   9
GPGPU-Sim uArch:   10  11  12  13  14
GPGPU-Sim uArch:   15  16  17  18  19
GPGPU-Sim uArch:   20  21  22  23  24
GPGPU-Sim uArch:   25  26
80b50253bde6f17c5205a361ba46a5eb  /sciclone/data10/hwang07/adwait/applications/benchmarks/CUDA/FWT/gpgpu_ptx_sim__FWT
GPGPU-Sim uArch: performance model initialization complete.
GPGPU-Sim PTX: __cudaRegisterFatBinary, fat_cubin_handle = 1, filename=fastWalshTransform.cu
self exe links to: /sciclone/data10/hwang07/adwait/applications/benchmarks/CUDA/FWT/gpgpu_ptx_sim__FWT
Running md5sum using "md5sum /sciclone/data10/hwang07/adwait/applications/benchmarks/CUDA/FWT/gpgpu_ptx_sim__FWT "
Parsing file _cuobjdump_complete_output_MejJl0
######### cuobjdump parser ########
## Adding new section ELF
Adding arch: sm_20
Adding identifier: fastWalshTransform.cu
## Adding new section PTX
Adding ptx filename: _cuobjdump_1.ptx
Adding arch: sm_20
Adding identifier: fastWalshTransform.cu
Done parsing!!!
GPGPU-Sim PTX: __cudaRegisterFunction _Z14modulateKernelPfS_i : hostFun 0x0x405645, fat_cubin_handle = 1
GPGPU-Sim PTX: allocating shared region for "s_data" from 0x0 to 0x0 (shared memory space)
GPGPU-Sim PTX: instruction assembly for function '_Z15fwtBatch1KernelPfS_i'...   done.
GPGPU-Sim PTX: finding reconvergence points for '_Z15fwtBatch1KernelPfS_i'...
GPGPU-Sim PTX: Finding dominators for '_Z15fwtBatch1KernelPfS_i'...
GPGPU-Sim PTX: Finding immediate dominators for '_Z15fwtBatch1KernelPfS_i'...
GPGPU-Sim PTX: Finding postdominators for '_Z15fwtBatch1KernelPfS_i'...
GPGPU-Sim PTX: Finding immediate postdominators for '_Z15fwtBatch1KernelPfS_i'...
GPGPU-Sim PTX: pre-decoding instructions for '_Z15fwtBatch1KernelPfS_i'...
GPGPU-Sim PTX: reconvergence points for _Z15fwtBatch1KernelPfS_i...
GPGPU-Sim PTX:  1 (potential) branch divergence @  PC=0x028 (_1.ptx:69) @!%p1 bra $Lt_0_5122;
GPGPU-Sim PTX:    immediate post dominator      @  PC=0x0d8 (_1.ptx:95) mov.u64 %rd1, s_data;
GPGPU-Sim PTX:  2 (potential) branch divergence @  PC=0x0d0 (_1.ptx:93) @%p2 bra $Lt_0_5634;
GPGPU-Sim PTX:    immediate post dominator      @  PC=0x0d8 (_1.ptx:95) mov.u64 %rd1, s_data;
GPGPU-Sim PTX:  3 (potential) branch divergence @  PC=0x100 (_1.ptx:101) @%p3 bra $Lt_0_6146;
GPGPU-Sim PTX:    immediate post dominator      @  PC=0x250 (_1.ptx:155) and.b32 %r20, %r3, 1;
GPGPU-Sim PTX:  4 (potential) branch divergence @  PC=0x248 (_1.ptx:153) @%p4 bra $Lt_0_6658;
GPGPU-Sim PTX:    immediate post dominator      @  PC=0x250 (_1.ptx:155) and.b32 %r20, %r3, 1;
GPGPU-Sim PTX:  5 (potential) branch divergence @  PC=0x268 (_1.ptx:158) @%p5 bra $Lt_0_7170;
GPGPU-Sim PTX:    immediate post dominator      @  PC=0x328 (_1.ptx:193) bar.sync 0;
GPGPU-Sim PTX:  6 (potential) branch divergence @  PC=0x2b0 (_1.ptx:169) @%p6 bra $Lt_0_7682;
GPGPU-Sim PTX:    immediate post dominator      @  PC=0x328 (_1.ptx:193) bar.sync 0;
GPGPU-Sim PTX:  7 (potential) branch divergence @  PC=0x320 (_1.ptx:189) @%p7 bra $Lt_0_8194;
GPGPU-Sim PTX:    immediate post dominator      @  PC=0x328 (_1.ptx:193) bar.sync 0;
GPGPU-Sim PTX:  8 (potential) branch divergence @  PC=0x338 (_1.ptx:196) @!%p1 bra $Lt_0_8706;
GPGPU-Sim PTX:    immediate post dominator      @  PC=0x3e0 (_1.ptx:222) exit;
GPGPU-Sim PTX:  9 (potential) branch divergence @  PC=0x3d8 (_1.ptx:219) @%p8 bra $Lt_0_9218;
GPGPU-Sim PTX:    immediate post dominator      @  PC=0x3e0 (_1.ptx:222) exit;
GPGPU-Sim PTX: ... end of reconvergence points for _Z15fwtBatch1KernelPfS_i
GPGPU-Sim PTX: ... done pre-decoding instructions for '_Z15fwtBatch1KernelPfS_i'.
GPGPU-Sim PTX: instruction assembly for function '_Z15fwtBatch2KernelPfS_i'...   done.
GPGPU-Sim PTX: finding reconvergence points for '_Z15fwtBatch2KernelPfS_i'...
GPGPU-Sim PTX: Finding dominators for '_Z15fwtBatch2KernelPfS_i'...
GPGPU-Sim PTX: Finding immediate dominators for '_Z15fwtBatch2KernelPfS_i'...
GPGPU-Sim PTX: Finding postdominators for '_Z15fwtBatch2KernelPfS_i'...
GPGPU-Sim PTX: Finding immediate postdominators for '_Z15fwtBatch2KernelPfS_i'...
GPGPU-Sim PTX: pre-decoding instructions for '_Z15fwtBatch2KernelPfS_i'...
GPGPU-Sim PTX: reconvergence points for _Z15fwtBatch2KernelPfS_i...
GPGPU-Sim PTX: ... end of reconvergence points for _Z15fwtBatch2KernelPfS_i
GPGPU-Sim PTX: ... done pre-decoding instructions for '_Z15fwtBatch2KernelPfS_i'.
GPGPU-Sim PTX: instruction assembly for function '_Z14modulateKernelPfS_i'...   done.
GPGPU-Sim PTX: finding reconvergence points for '_Z14modulateKernelPfS_i'...
GPGPU-Sim PTX: Finding dominators for '_Z14modulateKernelPfS_i'...
GPGPU-Sim PTX: Finding immediate dominators for '_Z14modulateKernelPfS_i'...
GPGPU-Sim PTX: Finding postdominators for '_Z14modulateKernelPfS_i'...
GPGPU-Sim PTX: Finding immediate postdominators for '_Z14modulateKernelPfS_i'...
GPGPU-Sim PTX: pre-decoding instructions for '_Z14modulateKernelPfS_i'...
GPGPU-Sim PTX: reconvergence points for _Z14modulateKernelPfS_i...
GPGPU-Sim PTX:  1 (potential) branch divergence @  PC=0x5f8 (_1.ptx:326) @%p1 bra $Lt_2_1282;
GPGPU-Sim PTX:    immediate post dominator      @  PC=0x6b0 (_1.ptx:354) exit;
GPGPU-Sim PTX:  2 (potential) branch divergence @  PC=0x6a8 (_1.ptx:351) @%p2 bra $Lt_2_1794;
GPGPU-Sim PTX:    immediate post dominator      @  PC=0x6b0 (_1.ptx:354) exit;
GPGPU-Sim PTX: ... end of reconvergence points for _Z14modulateKernelPfS_i
GPGPU-Sim PTX: ... done pre-decoding instructions for '_Z14modulateKernelPfS_i'.
GPGPU-Sim PTX: finished parsing EMBEDDED .ptx file _1.ptx
Adding _cuobjdump_1.ptx with cubin handle 1
GPGPU-Sim PTX: extracting embedded .ptx to temporary file "_ptx_zOztCn"
Running: cat _ptx_zOztCn | sed 's/.version 1.5/.version 1.4/' | sed 's/, texmode_independent//' | sed 's/\(\.extern \.const\[1\] .b8 \w\+\)\[\]/\1\[1\]/' | sed 's/const\[.\]/const\[0\]/g' > _ptx2_nmLc6M
GPGPU-Sim PTX: generating ptxinfo using "$CUDA_INSTALL_PATH/bin/ptxas --gpu-name=sm_20 -v _ptx2_nmLc6M --output-file  /dev/null 2> _ptx_zOztCninfo"
GPGPU-Sim PTX: Kernel '_Z14modulateKernelPfS_i' : regs=14, lmem=0, smem=0, cmem=56
GPGPU-Sim PTX: Kernel '_Z15fwtBatch2KernelPfS_i' : regs=21, lmem=0, smem=0, cmem=52
GPGPU-Sim PTX: Kernel '_Z15fwtBatch1KernelPfS_i' : regs=14, lmem=0, smem=0, cmem=52
GPGPU-Sim PTX: removing ptxinfo using "rm -f _ptx_zOztCn _ptx2_nmLc6M _ptx_zOztCninfo"
GPGPU-Sim PTX: loading globals with explicit initializers... 
GPGPU-Sim PTX: finished loading globals (0 bytes total).
GPGPU-Sim PTX: loading constants with explicit initializers...  done.
GPGPU-Sim PTX: __cudaRegisterFunction _Z15fwtBatch2KernelPfS_i : hostFun 0x0x405586, fat_cubin_handle = 1
GPGPU-Sim PTX: __cudaRegisterFunction _Z15fwtBatch1KernelPfS_i : hostFun 0x0x4054c7, fat_cubin_handle = 1
Initializing data...
...allocating CPU memory
...allocating GPU memory
...generating data
Data length: 8388608; kernel length: 128
Running GPU dyadic convolution using Fast Walsh Transform...
GPGPU-Sim: synchronize waiting for inactive GPU simulation
GPGPU-Sim API: Stream Manager State
GPGPU-Sim: detected inactive GPU simulation thread

GPGPU-Sim PTX: cudaLaunch for 0x0x405586 (mode=performance simulation) on stream 0
GPGPU-Sim PTX: pushing kernel '_Z15fwtBatch2KernelPfS_i' to stream 0, gridDim= (8192,1,1) blockDim = (256,1,1) 
kernel '_Z15fwtBatch2KernelPfS_i' transfer to GPU hardware scheduler
GPGPU-Sim uArch: Shader 1 bind to kernel 1 '_Z15fwtBatch2KernelPfS_i'
GPGPU-Sim uArch: CTA/core = 5, limited by: regs
GPGPU-Sim uArch: core:  1, cta: 0 initialized @(1,0)
GPGPU-Sim uArch: Shader 2 bind to kernel 1 '_Z15fwtBatch2KernelPfS_i'
GPGPU-Sim uArch: core:  2, cta: 0 initialized @(1,0)
GPGPU-Sim uArch: Shader 3 bind to kernel 1 '_Z15fwtBatch2KernelPfS_i'
GPGPU-Sim uArch: core:  3, cta: 0 initialized @(1,0)
GPGPU-Sim uArch: Shader 4 bind to kernel 1 '_Z15fwtBatch2KernelPfS_i'
GPGPU-Sim uArch: core:  4, cta: 0 initialized @(1,0)
GPGPU-Sim uArch: Shader 5 bind to kernel 1 '_Z15fwtBatch2KernelPfS_i'
GPGPU-Sim uArch: core:  5, cta: 0 initialized @(1,0)
GPGPU-Sim uArch: Shader 6 bind to kernel 1 '_Z15fwtBatch2KernelPfS_i'
GPGPU-Sim uArch: core:  6, cta: 0 initialized @(1,0)
GPGPU-Sim uArch: Shader 7 bind to kernel 1 '_Z15fwtBatch2KernelPfS_i'
GPGPU-Sim uArch: core:  7, cta: 0 initialized @(1,0)
GPGPU-Sim uArch: Shader 8 bind to kernel 1 '_Z15fwtBatch2KernelPfS_i'
GPGPU-Sim uArch: core:  8, cta: 0 initialized @(1,0)
GPGPU-Sim uArch: Shader 9 bind to kernel 1 '_Z15fwtBatch2KernelPfS_i'
GPGPU-Sim uArch: core:  9, cta: 0 initialized @(1,0)
GPGPU-Sim uArch: Shader 10 bind to kernel 1 '_Z15fwtBatch2KernelPfS_i'
GPGPU-Sim uArch: core: 10, cta: 0 initialized @(1,0)
GPGPU-Sim uArch: Shader 11 bind to kernel 1 '_Z15fwtBatch2KernelPfS_i'
GPGPU-Sim uArch: core: 11, cta: 0 initialized @(1,0)
GPGPU-Sim uArch: Shader 12 bind to kernel 1 '_Z15fwtBatch2KernelPfS_i'
GPGPU-Sim uArch: core: 12, cta: 0 initialized @(1,0)
GPGPU-Sim uArch: Shader 13 bind to kernel 1 '_Z15fwtBatch2KernelPfS_i'
GPGPU-Sim uArch: core: 13, cta: 0 initialized @(1,0)
GPGPU-Sim uArch: Shader 14 bind to kernel 1 '_Z15fwtBatch2KernelPfS_i'
GPGPU-Sim uArch: core: 14, cta: 0 initialized @(1,0)
GPGPU-Sim uArch: Shader 0 bind to kernel 1 '_Z15fwtBatch2KernelPfS_i'
GPGPU-Sim uArch: core:  0, cta: 0 initialized @(1,0)
GPGPU-Sim uArch: core:  1, cta: 1 initialized @(2,0)
GPGPU-Sim uArch: core:  2, cta: 1 initialized @(2,0)
GPGPU-Sim uArch: core:  3, cta: 1 initialized @(2,0)
GPGPU-Sim uArch: core:  4, cta: 1 initialized @(2,0)
GPGPU-Sim uArch: core:  5, cta: 1 initialized @(2,0)
GPGPU-Sim uArch: core:  6, cta: 1 initialized @(2,0)
GPGPU-Sim uArch: core:  7, cta: 1 initialized @(2,0)
GPGPU-Sim uArch: core:  8, cta: 1 initialized @(2,0)
GPGPU-Sim uArch: core:  9, cta: 1 initialized @(2,0)
GPGPU-Sim uArch: core: 10, cta: 1 initialized @(2,0)
GPGPU-Sim uArch: core: 11, cta: 1 initialized @(2,0)
GPGPU-Sim uArch: core: 12, cta: 1 initialized @(2,0)
GPGPU-Sim uArch: core: 13, cta: 1 initialized @(2,0)
GPGPU-Sim uArch: core: 14, cta: 1 initialized @(2,0)
GPGPU-Sim uArch: core:  0, cta: 1 initialized @(2,0)
GPGPU-Sim uArch: core:  1, cta: 2 initialized @(3,0)
GPGPU-Sim uArch: core:  2, cta: 2 initialized @(3,0)
GPGPU-Sim uArch: core:  3, cta: 2 initialized @(3,0)
GPGPU-Sim uArch: core:  4, cta: 2 initialized @(3,0)
GPGPU-Sim uArch: core:  5, cta: 2 initialized @(3,0)
GPGPU-Sim uArch: core:  6, cta: 2 initialized @(3,0)
GPGPU-Sim uArch: core:  7, cta: 2 initialized @(3,0)
GPGPU-Sim uArch: core:  8, cta: 2 initialized @(3,0)
GPGPU-Sim uArch: core:  9, cta: 2 initialized @(3,0)
GPGPU-Sim uArch: core: 10, cta: 2 initialized @(3,0)
GPGPU-Sim uArch: core: 11, cta: 2 initialized @(3,0)
GPGPU-Sim uArch: core: 12, cta: 2 initialized @(3,0)
GPGPU-Sim uArch: core: 13, cta: 2 initialized @(3,0)
GPGPU-Sim uArch: core: 14, cta: 2 initialized @(3,0)
GPGPU-Sim uArch: core:  0, cta: 2 initialized @(3,0)
GPGPU-Sim uArch: core:  1, cta: 3 initialized @(4,0)
GPGPU-Sim uArch: core:  2, cta: 3 initialized @(4,0)
GPGPU-Sim uArch: core:  3, cta: 3 initialized @(4,0)
GPGPU-Sim uArch: core:  4, cta: 3 initialized @(4,0)
GPGPU-Sim uArch: core:  5, cta: 3 initialized @(4,0)
GPGPU-Sim uArch: core:  6, cta: 3 initialized @(4,0)
GPGPU-Sim uArch: core:  7, cta: 3 initialized @(4,0)
GPGPU-Sim uArch: core:  8, cta: 3 initialized @(4,0)
GPGPU-Sim uArch: core:  9, cta: 3 initialized @(4,0)
GPGPU-Sim uArch: core: 10, cta: 3 initialized @(4,0)
GPGPU-Sim uArch: core: 11, cta: 3 initialized @(4,0)
GPGPU-Sim uArch: core: 12, cta: 3 initialized @(4,0)
GPGPU-Sim uArch: core: 13, cta: 3 initialized @(4,0)
GPGPU-Sim uArch: core: 14, cta: 3 initialized @(4,0)
GPGPU-Sim uArch: core:  0, cta: 3 initialized @(4,0)
GPGPU-Sim uArch: core:  1, cta: 4 initialized @(5,0)
GPGPU-Sim uArch: core:  2, cta: 4 initialized @(5,0)
GPGPU-Sim uArch: core:  3, cta: 4 initialized @(5,0)
GPGPU-Sim uArch: core:  4, cta: 4 initialized @(5,0)
GPGPU-Sim uArch: core:  5, cta: 4 initialized @(5,0)
GPGPU-Sim uArch: core:  6, cta: 4 initialized @(5,0)
GPGPU-Sim uArch: core:  7, cta: 4 initialized @(5,0)
GPGPU-Sim uArch: core:  8, cta: 4 initialized @(5,0)
GPGPU-Sim uArch: core:  9, cta: 4 initialized @(5,0)
GPGPU-Sim uArch: core: 10, cta: 4 initialized @(5,0)
GPGPU-Sim uArch: core: 11, cta: 4 initialized @(5,0)
GPGPU-Sim uArch: core: 12, cta: 4 initialized @(5,0)
GPGPU-Sim uArch: core: 13, cta: 4 initialized @(5,0)
GPGPU-Sim uArch: core: 14, cta: 4 initialized @(5,0)
GPGPU-Sim uArch: core:  0, cta: 4 initialized @(5,0)
GPGPU-Sim uArch: cycles simulated: 500  inst.: 57600 (ipc=115.2) sim_rate=9600 (inst/sec) elapsed = 0:0:00:06 / Tue Mar 22 07:36:54 2016
GPGPU-Sim PTX: 100000 instructions simulated : ctaid=(37,0,0) tid=(63,0,0)
GPGPU-Sim PTX: 200000 instructions simulated : ctaid=(12,0,0) tid=(95,0,0)
GPGPU-Sim PTX: 300000 instructions simulated : ctaid=(52,0,0) tid=(127,0,0)
GPGPU-Sim uArch: cycles simulated: 1000  inst.: 349248 (ipc=349.2) sim_rate=49892 (inst/sec) elapsed = 0:0:00:07 / Tue Mar 22 07:36:55 2016
GPGPU-Sim PTX: 400000 instructions simulated : ctaid=(32,0,0) tid=(31,0,0)
GPGPU-Sim PTX: 500000 instructions simulated : ctaid=(41,0,0) tid=(95,0,0)
GPGPU-Sim uArch: cycles simulated: 1500  inst.: 523104 (ipc=348.7) sim_rate=43592 (inst/sec) elapsed = 0:0:00:12 / Tue Mar 22 07:37:00 2016
GPGPU-Sim PTX: 600000 instructions simulated : ctaid=(20,0,0) tid=(127,0,0)
GPGPU-Sim uArch: cycles simulated: 2000  inst.: 611008 (ipc=305.5) sim_rate=47000 (inst/sec) elapsed = 0:0:00:13 / Tue Mar 22 07:37:01 2016
GPGPU-Sim PTX: 700000 instructions simulated : ctaid=(6,0,0) tid=(159,0,0)
GPGPU-Sim PTX: 800000 instructions simulated : ctaid=(38,0,0) tid=(159,0,0)
GPGPU-Sim uArch: cycles simulated: 3000  inst.: 832512 (ipc=277.5) sim_rate=59465 (inst/sec) elapsed = 0:0:00:14 / Tue Mar 22 07:37:02 2016
GPGPU-Sim PTX: 900000 instructions simulated : ctaid=(47,0,0) tid=(159,0,0)
GPGPU-Sim uArch: Shader 2 finished CTA #0 (3757,0), 4 CTAs running
GPGPU-Sim uArch: core:  2, cta: 0 initialized @(3758,0)
GPGPU-Sim uArch: Shader 1 finished CTA #0 (3779,0), 4 CTAs running
GPGPU-Sim uArch: core:  1, cta: 0 initialized @(3780,0)
GPGPU-Sim uArch: Shader 2 finished CTA #1 (3801,0), 4 CTAs running
GPGPU-Sim uArch: core:  2, cta: 1 initialized @(3802,0)
GPGPU-Sim uArch: Shader 11 finished CTA #0 (3807,0), 4 CTAs running
GPGPU-Sim uArch: core: 11, cta: 0 initialized @(3808,0)
GPGPU-Sim uArch: Shader 3 finished CTA #0 (3809,0), 4 CTAs running
GPGPU-Sim uArch: core:  3, cta: 0 initialized @(3810,0)
GPGPU-Sim uArch: Shader 4 finished CTA #0 (3825,0), 4 CTAs running
GPGPU-Sim uArch: core:  4, cta: 0 initialized @(3826,0)
GPGPU-Sim uArch: Shader 8 finished CTA #0 (3831,0), 4 CTAs running
GPGPU-Sim uArch: core:  8, cta: 0 initialized @(3832,0)
GPGPU-Sim uArch: Shader 9 finished CTA #0 (3860,0), 4 CTAs running
GPGPU-Sim uArch: core:  9, cta: 0 initialized @(3861,0)
GPGPU-Sim uArch: Shader 7 finished CTA #0 (3863,0), 4 CTAs running
GPGPU-Sim uArch: core:  7, cta: 0 initialized @(3864,0)
GPGPU-Sim uArch: Shader 5 finished CTA #0 (3885,0), 4 CTAs running
GPGPU-Sim uArch: core:  5, cta: 0 initialized @(3886,0)
GPGPU-Sim PTX: 1000000 instructions simulated : ctaid=(76,0,0) tid=(223,0,0)
GPGPU-Sim uArch: Shader 1 finished CTA #1 (3903,0), 4 CTAs running
GPGPU-Sim uArch: core:  1, cta: 1 initialized @(3904,0)
GPGPU-Sim uArch: Shader 6 finished CTA #0 (3945,0), 4 CTAs running
GPGPU-Sim uArch: Shader 11 finished CTA #1 (3945,0), 4 CTAs running
GPGPU-Sim uArch: core:  6, cta: 0 initialized @(3946,0)
GPGPU-Sim uArch: core: 11, cta: 1 initialized @(3946,0)
GPGPU-Sim uArch: Shader 9 finished CTA #1 (3959,0), 4 CTAs running
GPGPU-Sim uArch: core:  9, cta: 1 initialized @(3960,0)
GPGPU-Sim uArch: Shader 8 finished CTA #1 (3967,0), 4 CTAs running
GPGPU-Sim uArch: core:  8, cta: 1 initialized @(3968,0)
GPGPU-Sim uArch: Shader 10 finished CTA #0 (3979,0), 4 CTAs running
GPGPU-Sim uArch: core: 10, cta: 0 initialized @(3980,0)
GPGPU-Sim uArch: Shader 2 finished CTA #2 (3983,0), 4 CTAs running
GPGPU-Sim uArch: core:  2, cta: 2 initialized @(3984,0)
GPGPU-Sim uArch: Shader 7 finished CTA #1 (3994,0), 4 CTAs running
GPGPU-Sim uArch: core:  7, cta: 1 initialized @(3995,0)
GPGPU-Sim uArch: cycles simulated: 4000  inst.: 1040384 (ipc=260.1) sim_rate=69358 (inst/sec) elapsed = 0:0:00:15 / Tue Mar 22 07:37:03 2016
GPGPU-Sim uArch: Shader 3 finished CTA #1 (4011,0), 4 CTAs running
GPGPU-Sim uArch: core:  3, cta: 1 initialized @(4012,0)
GPGPU-Sim uArch: Shader 4 finished CTA #1 (4026,0), 4 CTAs running
GPGPU-Sim uArch: core:  4, cta: 1 initialized @(4027,0)
GPGPU-Sim uArch: Shader 13 finished CTA #0 (4040,0), 4 CTAs running
GPGPU-Sim uArch: core: 13, cta: 0 initialized @(4041,0)
GPGPU-Sim uArch: Shader 14 finished CTA #0 (4049,0), 4 CTAs running
GPGPU-Sim uArch: core: 14, cta: 0 initialized @(4050,0)
GPGPU-Sim uArch: Shader 0 finished CTA #0 (4055,0), 4 CTAs running
GPGPU-Sim uArch: core:  0, cta: 0 initialized @(4056,0)
GPGPU-Sim uArch: Shader 13 finished CTA #1 (4072,0), 4 CTAs running
GPGPU-Sim uArch: core: 13, cta: 1 initialized @(4073,0)
GPGPU-Sim PTX: 1100000 instructions simulated : ctaid=(59,0,0) tid=(127,0,0)
GPGPU-Sim uArch: Shader 1 finished CTA #2 (4082,0), 4 CTAs running
GPGPU-Sim uArch: core:  1, cta: 2 initialized @(4083,0)
GPGPU-Sim uArch: Shader 6 finished CTA #1 (4097,0), 4 CTAs running
GPGPU-Sim uArch: core:  6, cta: 1 initialized @(4098,0)
GPGPU-Sim uArch: Shader 5 finished CTA #1 (4128,0), 4 CTAs running
GPGPU-Sim uArch: core:  5, cta: 1 initialized @(4129,0)
GPGPU-Sim uArch: Shader 14 finished CTA #1 (4133,0), 4 CTAs running
GPGPU-Sim uArch: core: 14, cta: 1 initialized @(4134,0)
GPGPU-Sim uArch: Shader 10 finished CTA #1 (4157,0), 4 CTAs running
GPGPU-Sim uArch: core: 10, cta: 1 initialized @(4158,0)
GPGPU-Sim uArch: Shader 0 finished CTA #1 (4207,0), 4 CTAs running
GPGPU-Sim uArch: core:  0, cta: 1 initialized @(4208,0)
GPGPU-Sim uArch: Shader 8 finished CTA #2 (4223,0), 4 CTAs running
GPGPU-Sim uArch: core:  8, cta: 2 initialized @(4224,0)
GPGPU-Sim uArch: Shader 12 finished CTA #0 (4226,0), 4 CTAs running
GPGPU-Sim uArch: core: 12, cta: 0 initialized @(4227,0)
GPGPU-Sim PTX: 1200000 instructions simulated : ctaid=(76,0,0) tid=(127,0,0)
GPGPU-Sim uArch: Shader 12 finished CTA #1 (4387,0), 4 CTAs running
GPGPU-Sim uArch: core: 12, cta: 1 initialized @(4388,0)
GPGPU-Sim uArch: cycles simulated: 4500  inst.: 1255264 (ipc=278.9) sim_rate=78454 (inst/sec) elapsed = 0:0:00:16 / Tue Mar 22 07:37:04 2016
GPGPU-Sim PTX: 1300000 instructions simulated : ctaid=(44,0,0) tid=(255,0,0)
GPGPU-Sim uArch: Shader 3 finished CTA #2 (4781,0), 4 CTAs running
GPGPU-Sim uArch: core:  3, cta: 2 initialized @(4782,0)
GPGPU-Sim uArch: Shader 7 finished CTA #2 (4788,0), 4 CTAs running
GPGPU-Sim uArch: core:  7, cta: 2 initialized @(4789,0)
GPGPU-Sim uArch: Shader 2 finished CTA #3 (4795,0), 4 CTAs running
GPGPU-Sim uArch: core:  2, cta: 3 initialized @(4796,0)
GPGPU-Sim uArch: Shader 4 finished CTA #2 (4797,0), 4 CTAs running
GPGPU-Sim uArch: core:  4, cta: 2 initialized @(4798,0)
GPGPU-Sim uArch: Shader 9 finished CTA #2 (4825,0), 4 CTAs running
GPGPU-Sim uArch: core:  9, cta: 2 initialized @(4826,0)
GPGPU-Sim uArch: Shader 4 finished CTA #3 (4859,0), 4 CTAs running
GPGPU-Sim uArch: core:  4, cta: 3 initialized @(4860,0)
GPGPU-Sim uArch: Shader 3 finished CTA #3 (4913,0), 4 CTAs running
GPGPU-Sim uArch: core:  3, cta: 3 initialized @(4914,0)
GPGPU-Sim uArch: Shader 13 finished CTA #2 (4935,0), 4 CTAs running
GPGPU-Sim uArch: core: 13, cta: 2 initialized @(4936,0)
GPGPU-Sim uArch: Shader 5 finished CTA #2 (4949,0), 4 CTAs running
GPGPU-Sim uArch: core:  5, cta: 2 initialized @(4950,0)
GPGPU-Sim PTX: 1400000 instructions simulated : ctaid=(92,0,0) tid=(127,0,0)
GPGPU-Sim uArch: Shader 7 finished CTA #3 (4962,0), 4 CTAs running
GPGPU-Sim uArch: core:  7, cta: 3 initialized @(4963,0)
GPGPU-Sim uArch: Shader 6 finished CTA #2 (4972,0), 4 CTAs running
GPGPU-Sim uArch: core:  6, cta: 2 initialized @(4973,0)
GPGPU-Sim uArch: Shader 4 finished CTA #4 (4991,0), 4 CTAs running
GPGPU-Sim uArch: core:  4, cta: 4 initialized @(4992,0)
GPGPU-Sim uArch: cycles simulated: 5000  inst.: 1403616 (ipc=280.7) sim_rate=82565 (inst/sec) elapsed = 0:0:00:17 / Tue Mar 22 07:37:05 2016
GPGPU-Sim uArch: Shader 11 finished CTA #2 (5001,0), 4 CTAs running
GPGPU-Sim uArch: core: 11, cta: 2 initialized @(5002,0)
GPGPU-Sim uArch: Shader 2 finished CTA #4 (5033,0), 4 CTAs running
GPGPU-Sim uArch: core:  2, cta: 4 initialized @(5034,0)
GPGPU-Sim uArch: Shader 1 finished CTA #3 (5041,0), 4 CTAs running
GPGPU-Sim uArch: core:  1, cta: 3 initialized @(5042,0)
GPGPU-Sim uArch: Shader 13 finished CTA #3 (5057,0), 4 CTAs running
GPGPU-Sim uArch: core: 13, cta: 3 initialized @(5058,0)
GPGPU-Sim uArch: Shader 0 finished CTA #2 (5066,0), 4 CTAs running
GPGPU-Sim uArch: core:  0, cta: 2 initialized @(5067,0)
GPGPU-Sim uArch: Shader 12 finished CTA #2 (5068,0), 4 CTAs running
GPGPU-Sim uArch: core: 12, cta: 2 initialized @(5069,0)
GPGPU-Sim uArch: Shader 14 finished CTA #2 (5078,0), 4 CTAs running
GPGPU-Sim uArch: core: 14, cta: 2 initialized @(5079,0)
GPGPU-Sim uArch: Shader 7 finished CTA #4 (5104,0), 4 CTAs running
GPGPU-Sim uArch: core:  7, cta: 4 initialized @(5105,0)
GPGPU-Sim uArch: Shader 9 finished CTA #3 (5162,0), 4 CTAs running
GPGPU-Sim uArch: core:  9, cta: 3 initialized @(5163,0)
GPGPU-Sim uArch: Shader 10 finished CTA #2 (5168,0), 4 CTAs running
GPGPU-Sim uArch: core: 10, cta: 2 initialized @(5169,0)
GPGPU-Sim uArch: Shader 8 finished CTA #3 (5211,0), 4 CTAs running
GPGPU-Sim uArch: core:  8, cta: 3 initialized @(5212,0)
GPGPU-Sim uArch: Shader 3 finished CTA #4 (5212,0), 4 CTAs running
GPGPU-Sim uArch: core:  3, cta: 4 initialized @(5213,0)
GPGPU-Sim uArch: Shader 5 finished CTA #3 (5215,0), 4 CTAs running
GPGPU-Sim uArch: core:  5, cta: 3 initialized @(5216,0)
GPGPU-Sim uArch: Shader 6 finished CTA #3 (5218,0), 4 CTAs running
GPGPU-Sim uArch: core:  6, cta: 3 initialized @(5219,0)
GPGPU-Sim PTX: 1500000 instructions simulated : ctaid=(102,0,0) tid=(223,0,0)
GPGPU-Sim uArch: Shader 1 finished CTA #4 (5241,0), 4 CTAs running
GPGPU-Sim uArch: core:  1, cta: 4 initialized @(5242,0)
GPGPU-Sim uArch: Shader 11 finished CTA #3 (5350,0), 4 CTAs running
GPGPU-Sim uArch: core: 11, cta: 3 initialized @(5351,0)
GPGPU-Sim uArch: Shader 12 finished CTA #3 (5389,0), 4 CTAs running
GPGPU-Sim uArch: core: 12, cta: 3 initialized @(5390,0)
GPGPU-Sim uArch: Shader 5 finished CTA #4 (5398,0), 4 CTAs running
GPGPU-Sim uArch: core:  5, cta: 4 initialized @(5399,0)
GPGPU-Sim uArch: Shader 0 finished CTA #3 (5402,0), 4 CTAs running
GPGPU-Sim uArch: core:  0, cta: 3 initialized @(5403,0)
GPGPU-Sim uArch: Shader 13 finished CTA #4 (5444,0), 4 CTAs running
GPGPU-Sim uArch: core: 13, cta: 4 initialized @(5445,0)
GPGPU-Sim uArch: Shader 14 finished CTA #3 (5450,0), 4 CTAs running
GPGPU-Sim uArch: core: 14, cta: 3 initialized @(5451,0)
GPGPU-Sim PTX: 1600000 instructions simulated : ctaid=(139,0,0) tid=(191,0,0)
GPGPU-Sim uArch: Shader 10 finished CTA #3 (5465,0), 4 CTAs running
GPGPU-Sim uArch: core: 10, cta: 3 initialized @(5466,0)
GPGPU-Sim uArch: Shader 9 finished CTA #4 (5492,0), 4 CTAs running
GPGPU-Sim uArch: core:  9, cta: 4 initialized @(5493,0)
GPGPU-Sim uArch: Shader 6 finished CTA #4 (5584,0), 4 CTAs running
GPGPU-Sim uArch: core:  6, cta: 4 initialized @(5585,0)
GPGPU-Sim uArch: Shader 12 finished CTA #4 (5622,0), 4 CTAs running
GPGPU-Sim uArch: core: 12, cta: 4 initialized @(5623,0)
GPGPU-Sim uArch: Shader 0 finished CTA #4 (5624,0), 4 CTAs running
GPGPU-Sim uArch: core:  0, cta: 4 initialized @(5625,0)
GPGPU-Sim uArch: Shader 4 finished CTA #0 (5661,0), 4 CTAs running
GPGPU-Sim uArch: core:  4, cta: 0 initialized @(5662,0)
GPGPU-Sim PTX: 1700000 instructions simulated : ctaid=(99,0,0) tid=(127,0,0)
GPGPU-Sim uArch: Shader 14 finished CTA #4 (5715,0), 4 CTAs running
GPGPU-Sim uArch: core: 14, cta: 4 initialized @(5716,0)
GPGPU-Sim uArch: Shader 1 finished CTA #0 (5729,0), 4 CTAs running
GPGPU-Sim uArch: core:  1, cta: 0 initialized @(5730,0)
GPGPU-Sim uArch: Shader 3 finished CTA #0 (5740,0), 4 CTAs running
GPGPU-Sim uArch: core:  3, cta: 0 initialized @(5741,0)
GPGPU-Sim uArch: Shader 11 finished CTA #4 (5755,0), 4 CTAs running
GPGPU-Sim uArch: core: 11, cta: 4 initialized @(5756,0)
GPGPU-Sim uArch: Shader 2 finished CTA #0 (5771,0), 4 CTAs running
GPGPU-Sim uArch: core:  2, cta: 0 initialized @(5772,0)
GPGPU-Sim uArch: Shader 7 finished CTA #0 (5813,0), 4 CTAs running
GPGPU-Sim uArch: core:  7, cta: 0 initialized @(5814,0)
GPGPU-Sim uArch: Shader 8 finished CTA #4 (5832,0), 4 CTAs running
GPGPU-Sim uArch: core:  8, cta: 4 initialized @(5833,0)
GPGPU-Sim uArch: Shader 10 finished CTA #4 (5940,0), 4 CTAs running
GPGPU-Sim uArch: core: 10, cta: 4 initialized @(5941,0)
GPGPU-Sim PTX: 1800000 instructions simulated : ctaid=(143,0,0) tid=(223,0,0)
GPGPU-Sim uArch: cycles simulated: 6000  inst.: 1804736 (ipc=300.8) sim_rate=100263 (inst/sec) elapsed = 0:0:00:18 / Tue Mar 22 07:37:06 2016
GPGPU-Sim uArch: Shader 4 finished CTA #1 (6114,0), 4 CTAs running
GPGPU-Sim uArch: core:  4, cta: 1 initialized @(6115,0)
GPGPU-Sim uArch: Shader 5 finished CTA #0 (6303,0), 4 CTAs running
GPGPU-Sim uArch: core:  5, cta: 0 initialized @(6304,0)
GPGPU-Sim uArch: Shader 6 finished CTA #0 (6315,0), 4 CTAs running
GPGPU-Sim uArch: core:  6, cta: 0 initialized @(6316,0)
GPGPU-Sim PTX: 1900000 instructions simulated : ctaid=(154,0,0) tid=(95,0,0)
GPGPU-Sim uArch: Shader 13 finished CTA #0 (6372,0), 4 CTAs running
GPGPU-Sim uArch: core: 13, cta: 0 initialized @(6373,0)
GPGPU-Sim uArch: Shader 2 finished CTA #1 (6447,0), 4 CTAs running
GPGPU-Sim uArch: core:  2, cta: 1 initialized @(6448,0)
GPGPU-Sim uArch: Shader 1 finished CTA #1 (6454,0), 4 CTAs running
GPGPU-Sim uArch: core:  1, cta: 1 initialized @(6455,0)
GPGPU-Sim uArch: cycles simulated: 6500  inst.: 1936512 (ipc=297.9) sim_rate=101921 (inst/sec) elapsed = 0:0:00:19 / Tue Mar 22 07:37:07 2016
GPGPU-Sim uArch: Shader 9 finished CTA #0 (6664,0), 4 CTAs running
GPGPU-Sim uArch: core:  9, cta: 0 initialized @(6665,0)
GPGPU-Sim PTX: 2000000 instructions simulated : ctaid=(161,0,0) tid=(31,0,0)
GPGPU-Sim uArch: Shader 7 finished CTA #1 (6685,0), 4 CTAs running
GPGPU-Sim uArch: core:  7, cta: 1 initialized @(6686,0)
GPGPU-Sim uArch: Shader 12 finished CTA #0 (6711,0), 4 CTAs running
GPGPU-Sim uArch: core: 12, cta: 0 initialized @(6712,0)
GPGPU-Sim uArch: Shader 3 finished CTA #1 (6740,0), 4 CTAs running
GPGPU-Sim uArch: core:  3, cta: 1 initialized @(6741,0)
GPGPU-Sim uArch: Shader 0 finished CTA #0 (6784,0), 4 CTAs running
GPGPU-Sim uArch: core:  0, cta: 0 initialized @(6785,0)
GPGPU-Sim uArch: Shader 10 finished CTA #0 (6932,0), 4 CTAs running
GPGPU-Sim uArch: core: 10, cta: 0 initialized @(6933,0)
GPGPU-Sim uArch: Shader 8 finished CTA #0 (6959,0), 4 CTAs running
GPGPU-Sim uArch: core:  8, cta: 0 initialized @(6960,0)
GPGPU-Sim uArch: Shader 11 finished CTA #0 (6962,0), 4 CTAs running
GPGPU-Sim uArch: core: 11, cta: 0 initialized @(6963,0)
GPGPU-Sim PTX: 2100000 instructions simulated : ctaid=(127,0,0) tid=(95,0,0)
GPGPU-Sim uArch: cycles simulated: 7000  inst.: 2089408 (ipc=298.5) sim_rate=104470 (inst/sec) elapsed = 0:0:00:20 / Tue Mar 22 07:37:08 2016
GPGPU-Sim uArch: Shader 1 finished CTA #2 (7022,0), 4 CTAs running
GPGPU-Sim uArch: core:  1, cta: 2 initialized @(7023,0)
GPGPU-Sim uArch: Shader 2 finished CTA #2 (7058,0), 4 CTAs running
GPGPU-Sim uArch: core:  2, cta: 2 initialized @(7059,0)
GPGPU-Sim uArch: Shader 8 finished CTA #1 (7078,0), 4 CTAs running
GPGPU-Sim uArch: core:  8, cta: 1 initialized @(7079,0)
GPGPU-Sim uArch: Shader 13 finished CTA #1 (7090,0), 4 CTAs running
GPGPU-Sim uArch: core: 13, cta: 1 initialized @(7091,0)
GPGPU-Sim uArch: Shader 6 finished CTA #1 (7119,0), 4 CTAs running
GPGPU-Sim uArch: core:  6, cta: 1 initialized @(7120,0)
GPGPU-Sim uArch: Shader 4 finished CTA #2 (7131,0), 4 CTAs running
GPGPU-Sim uArch: core:  4, cta: 2 initialized @(7132,0)
GPGPU-Sim uArch: Shader 14 finished CTA #0 (7134,0), 4 CTAs running
GPGPU-Sim uArch: core: 14, cta: 0 initialized @(7135,0)
GPGPU-Sim uArch: Shader 5 finished CTA #1 (7163,0), 4 CTAs running
GPGPU-Sim uArch: core:  5, cta: 1 initialized @(7164,0)
GPGPU-Sim uArch: Shader 10 finished CTA #1 (7208,0), 4 CTAs running
GPGPU-Sim uArch: core: 10, cta: 1 initialized @(7209,0)
GPGPU-Sim PTX: 2200000 instructions simulated : ctaid=(174,0,0) tid=(31,0,0)
GPGPU-Sim uArch: Shader 2 finished CTA #3 (7232,0), 4 CTAs running
GPGPU-Sim uArch: core:  2, cta: 3 initialized @(7233,0)
GPGPU-Sim uArch: Shader 1 finished CTA #3 (7345,0), 4 CTAs running
GPGPU-Sim uArch: core:  1, cta: 3 initialized @(7346,0)
GPGPU-Sim uArch: Shader 9 finished CTA #1 (7386,0), 4 CTAs running
GPGPU-Sim uArch: core:  9, cta: 1 initialized @(7387,0)
GPGPU-Sim uArch: Shader 0 finished CTA #1 (7392,0), 4 CTAs running
GPGPU-Sim uArch: core:  0, cta: 1 initialized @(7393,0)
GPGPU-Sim uArch: Shader 4 finished CTA #3 (7458,0), 4 CTAs running
GPGPU-Sim uArch: core:  4, cta: 3 initialized @(7459,0)
GPGPU-Sim PTX: 2300000 instructions simulated : ctaid=(177,0,0) tid=(31,0,0)
GPGPU-Sim uArch: cycles simulated: 7500  inst.: 2301376 (ipc=306.9) sim_rate=109589 (inst/sec) elapsed = 0:0:00:21 / Tue Mar 22 07:37:09 2016
GPGPU-Sim uArch: Shader 7 finished CTA #2 (7540,0), 4 CTAs running
GPGPU-Sim uArch: core:  7, cta: 2 initialized @(7541,0)
GPGPU-Sim uArch: Shader 12 finished CTA #1 (7573,0), 4 CTAs running
GPGPU-Sim uArch: core: 12, cta: 1 initialized @(7574,0)
GPGPU-Sim uArch: Shader 11 finished CTA #1 (7612,0), 4 CTAs running
GPGPU-Sim uArch: core: 11, cta: 1 initialized @(7613,0)
GPGPU-Sim uArch: Shader 6 finished CTA #2 (7641,0), 4 CTAs running
GPGPU-Sim uArch: core:  6, cta: 2 initialized @(7642,0)
GPGPU-Sim uArch: Shader 9 finished CTA #2 (7666,0), 4 CTAs running
GPGPU-Sim uArch: core:  9, cta: 2 initialized @(7667,0)
GPGPU-Sim uArch: Shader 8 finished CTA #2 (7702,0), 4 CTAs running
GPGPU-Sim uArch: core:  8, cta: 2 initialized @(7703,0)
GPGPU-Sim uArch: Shader 14 finished CTA #1 (7703,0), 4 CTAs running
GPGPU-Sim uArch: core: 14, cta: 1 initialized @(7704,0)
GPGPU-Sim PTX: 2400000 instructions simulated : ctaid=(177,0,0) tid=(31,0,0)
GPGPU-Sim uArch: Shader 9 finished CTA #3 (7828,0), 4 CTAs running
GPGPU-Sim uArch: core:  9, cta: 3 initialized @(7829,0)
GPGPU-Sim uArch: Shader 8 finished CTA #3 (7852,0), 4 CTAs running
GPGPU-Sim uArch: Shader 11 finished CTA #2 (7852,0), 4 CTAs running
GPGPU-Sim uArch: core: 11, cta: 2 initialized @(7853,0)
GPGPU-Sim uArch: core:  8, cta: 3 initialized @(7853,0)
GPGPU-Sim uArch: Shader 5 finished CTA #2 (7868,0), 4 CTAs running
GPGPU-Sim uArch: core:  5, cta: 2 initialized @(7869,0)
GPGPU-Sim uArch: Shader 3 finished CTA #2 (7896,0), 4 CTAs running
GPGPU-Sim uArch: core:  3, cta: 2 initialized @(7897,0)
GPGPU-Sim uArch: Shader 10 finished CTA #2 (7951,0), 4 CTAs running
GPGPU-Sim uArch: core: 10, cta: 2 initialized @(7952,0)
GPGPU-Sim uArch: Shader 13 finished CTA #2 (7963,0), 4 CTAs running
GPGPU-Sim uArch: core: 13, cta: 2 initialized @(7964,0)
GPGPU-Sim uArch: Shader 2 finished CTA #4 (7991,0), 4 CTAs running
GPGPU-Sim uArch: core:  2, cta: 4 initialized @(7992,0)
GPGPU-Sim PTX: 2500000 instructions simulated : ctaid=(195,0,0) tid=(95,0,0)
GPGPU-Sim uArch: cycles simulated: 8000  inst.: 2485632 (ipc=310.7) sim_rate=112983 (inst/sec) elapsed = 0:0:00:22 / Tue Mar 22 07:37:10 2016
GPGPU-Sim uArch: Shader 11 finished CTA #3 (8012,0), 4 CTAs running
GPGPU-Sim uArch: core: 11, cta: 3 initialized @(8013,0)
GPGPU-Sim uArch: Shader 0 finished CTA #2 (8185,0), 4 CTAs running
GPGPU-Sim uArch: core:  0, cta: 2 initialized @(8186,0)
GPGPU-Sim uArch: Shader 1 finished CTA #4 (8189,0), 4 CTAs running
GPGPU-Sim uArch: core:  1, cta: 4 initialized @(8190,0)
GPGPU-Sim uArch: Shader 12 finished CTA #2 (8199,0), 4 CTAs running
GPGPU-Sim uArch: core: 12, cta: 2 initialized @(8200,0)
GPGPU-Sim uArch: Shader 7 finished CTA #3 (8219,0), 4 CTAs running
GPGPU-Sim uArch: core:  7, cta: 3 initialized @(8220,0)
GPGPU-Sim PTX: 2600000 instructions simulated : ctaid=(172,0,0) tid=(127,0,0)
GPGPU-Sim uArch: Shader 3 finished CTA #3 (8351,0), 4 CTAs running
GPGPU-Sim uArch: core:  3, cta: 3 initialized @(8352,0)
GPGPU-Sim uArch: Shader 14 finished CTA #2 (8359,0), 4 CTAs running
GPGPU-Sim uArch: core: 14, cta: 2 initialized @(8360,0)
GPGPU-Sim uArch: Shader 10 finished CTA #3 (8482,0), 4 CTAs running
GPGPU-Sim uArch: core: 10, cta: 3 initialized @(8483,0)
GPGPU-Sim uArch: cycles simulated: 8500  inst.: 2674656 (ipc=314.7) sim_rate=116289 (inst/sec) elapsed = 0:0:00:23 / Tue Mar 22 07:37:11 2016
GPGPU-Sim PTX: 2700000 instructions simulated : ctaid=(159,0,0) tid=(127,0,0)
GPGPU-Sim uArch: Shader 1 finished CTA #0 (8535,0), 4 CTAs running
GPGPU-Sim uArch: core:  1, cta: 0 initialized @(8536,0)
GPGPU-Sim uArch: Shader 13 finished CTA #3 (8549,0), 4 CTAs running
GPGPU-Sim uArch: core: 13, cta: 3 initialized @(8550,0)
GPGPU-Sim uArch: Shader 11 finished CTA #4 (8575,0), 4 CTAs running
GPGPU-Sim uArch: core: 11, cta: 4 initialized @(8576,0)
GPGPU-Sim uArch: Shader 8 finished CTA #4 (8589,0), 4 CTAs running
GPGPU-Sim uArch: core:  8, cta: 4 initialized @(8590,0)
GPGPU-Sim uArch: Shader 6 finished CTA #3 (8617,0), 4 CTAs running
GPGPU-Sim uArch: core:  6, cta: 3 initialized @(8618,0)
GPGPU-Sim uArch: Shader 7 finished CTA #4 (8667,0), 4 CTAs running
GPGPU-Sim uArch: core:  7, cta: 4 initialized @(8668,0)
GPGPU-Sim uArch: Shader 2 finished CTA #0 (8699,0), 4 CTAs running
GPGPU-Sim uArch: core:  2, cta: 0 initialized @(8700,0)
GPGPU-Sim uArch: Shader 5 finished CTA #3 (8713,0), 4 CTAs running
GPGPU-Sim uArch: core:  5, cta: 3 initialized @(8714,0)
GPGPU-Sim uArch: Shader 4 finished CTA #4 (8715,0), 4 CTAs running
GPGPU-Sim uArch: core:  4, cta: 4 initialized @(8716,0)
GPGPU-Sim uArch: Shader 9 finished CTA #4 (8761,0), 4 CTAs running
GPGPU-Sim uArch: core:  9, cta: 4 initialized @(8762,0)
GPGPU-Sim PTX: 2800000 instructions simulated : ctaid=(212,0,0) tid=(159,0,0)
GPGPU-Sim uArch: Shader 12 finished CTA #3 (8797,0), 4 CTAs running
GPGPU-Sim uArch: core: 12, cta: 3 initialized @(8798,0)
GPGPU-Sim uArch: Shader 3 finished CTA #4 (8807,0), 4 CTAs running
GPGPU-Sim uArch: core:  3, cta: 4 initialized @(8808,0)
GPGPU-Sim uArch: Shader 11 finished CTA #0 (8928,0), 4 CTAs running
GPGPU-Sim uArch: core: 11, cta: 0 initialized @(8929,0)
GPGPU-Sim uArch: Shader 5 finished CTA #4 (8986,0), 4 CTAs running
GPGPU-Sim uArch: core:  5, cta: 4 initialized @(8987,0)
GPGPU-Sim uArch: cycles simulated: 9000  inst.: 2870144 (ipc=318.9) sim_rate=119589 (inst/sec) elapsed = 0:0:00:24 / Tue Mar 22 07:37:12 2016
GPGPU-Sim PTX: 2900000 instructions simulated : ctaid=(210,0,0) tid=(95,0,0)
GPGPU-Sim uArch: Shader 10 finished CTA #4 (9074,0), 4 CTAs running
GPGPU-Sim uArch: core: 10, cta: 4 initialized @(9075,0)
GPGPU-Sim uArch: Shader 9 finished CTA #0 (9076,0), 4 CTAs running
GPGPU-Sim uArch: core:  9, cta: 0 initialized @(9077,0)
GPGPU-Sim uArch: Shader 13 finished CTA #4 (9116,0), 4 CTAs running
GPGPU-Sim uArch: core: 13, cta: 4 initialized @(9117,0)
GPGPU-Sim uArch: Shader 14 finished CTA #3 (9166,0), 4 CTAs running
GPGPU-Sim uArch: core: 14, cta: 3 initialized @(9167,0)
GPGPU-Sim uArch: Shader 1 finished CTA #1 (9184,0), 4 CTAs running
GPGPU-Sim uArch: core:  1, cta: 1 initialized @(9185,0)
GPGPU-Sim uArch: Shader 0 finished CTA #3 (9254,0), 4 CTAs running
GPGPU-Sim uArch: core:  0, cta: 3 initialized @(9255,0)
GPGPU-Sim uArch: Shader 13 finished CTA #0 (9286,0), 4 CTAs running
GPGPU-Sim uArch: core: 13, cta: 0 initialized @(9287,0)
GPGPU-Sim PTX: 3000000 instructions simulated : ctaid=(224,0,0) tid=(223,0,0)
GPGPU-Sim uArch: Shader 11 finished CTA #1 (9333,0), 4 CTAs running
GPGPU-Sim uArch: core: 11, cta: 1 initialized @(9334,0)
GPGPU-Sim uArch: Shader 6 finished CTA #4 (9388,0), 4 CTAs running
GPGPU-Sim uArch: core:  6, cta: 4 initialized @(9389,0)
GPGPU-Sim uArch: Shader 12 finished CTA #4 (9391,0), 4 CTAs running
GPGPU-Sim uArch: core: 12, cta: 4 initialized @(9392,0)
GPGPU-Sim uArch: Shader 3 finished CTA #0 (9427,0), 4 CTAs running
GPGPU-Sim uArch: core:  3, cta: 0 initialized @(9428,0)
GPGPU-Sim uArch: Shader 8 finished CTA #0 (9432,0), 4 CTAs running
GPGPU-Sim uArch: core:  8, cta: 0 initialized @(9433,0)
GPGPU-Sim uArch: Shader 4 finished CTA #0 (9457,0), 4 CTAs running
GPGPU-Sim uArch: core:  4, cta: 0 initialized @(9458,0)
GPGPU-Sim uArch: Shader 0 finished CTA #4 (9462,0), 4 CTAs running
GPGPU-Sim uArch: core:  0, cta: 4 initialized @(9463,0)
GPGPU-Sim uArch: Shader 2 finished CTA #1 (9482,0), 4 CTAs running
GPGPU-Sim uArch: core:  2, cta: 1 initialized @(9483,0)
GPGPU-Sim uArch: cycles simulated: 9500  inst.: 3050144 (ipc=321.1) sim_rate=122005 (inst/sec) elapsed = 0:0:00:25 / Tue Mar 22 07:37:13 2016
GPGPU-Sim uArch: Shader 14 finished CTA #4 (9518,0), 4 CTAs running
GPGPU-Sim uArch: core: 14, cta: 4 initialized @(9519,0)
GPGPU-Sim PTX: 3100000 instructions simulated : ctaid=(234,0,0) tid=(223,0,0)
GPGPU-Sim uArch: Shader 10 finished CTA #0 (9631,0), 4 CTAs running
GPGPU-Sim uArch: core: 10, cta: 0 initialized @(9632,0)
GPGPU-Sim uArch: Shader 5 finished CTA #0 (9670,0), 4 CTAs running
GPGPU-Sim uArch: core:  5, cta: 0 initialized @(9671,0)
GPGPU-Sim uArch: Shader 7 finished CTA #0 (9688,0), 4 CTAs running
GPGPU-Sim uArch: core:  7, cta: 0 initialized @(9689,0)
GPGPU-Sim uArch: Shader 1 finished CTA #2 (9711,0), 4 CTAs running
GPGPU-Sim uArch: core:  1, cta: 2 initialized @(9712,0)
GPGPU-Sim uArch: Shader 12 finished CTA #0 (9712,0), 4 CTAs running
GPGPU-Sim uArch: core: 12, cta: 0 initialized @(9713,0)
GPGPU-Sim uArch: Shader 9 finished CTA #1 (9742,0), 4 CTAs running
GPGPU-Sim uArch: core:  9, cta: 1 initialized @(9743,0)
GPGPU-Sim uArch: Shader 2 finished CTA #2 (9815,0), 4 CTAs running
GPGPU-Sim uArch: core:  2, cta: 2 initialized @(9816,0)
GPGPU-Sim uArch: Shader 14 finished CTA #0 (9834,0), 4 CTAs running
GPGPU-Sim uArch: core: 14, cta: 0 initialized @(9835,0)
GPGPU-Sim PTX: 3200000 instructions simulated : ctaid=(237,0,0) tid=(223,0,0)
GPGPU-Sim uArch: Shader 3 finished CTA #1 (9852,0), 4 CTAs running
GPGPU-Sim uArch: core:  3, cta: 1 initialized @(9853,0)
GPGPU-Sim uArch: Shader 6 finished CTA #0 (9926,0), 4 CTAs running
GPGPU-Sim uArch: core:  6, cta: 0 initialized @(9927,0)
GPGPU-Sim uArch: cycles simulated: 10000  inst.: 3242912 (ipc=324.3) sim_rate=124727 (inst/sec) elapsed = 0:0:00:26 / Tue Mar 22 07:37:14 2016
GPGPU-Sim uArch: Shader 4 finished CTA #1 (10024,0), 4 CTAs running
GPGPU-Sim uArch: core:  4, cta: 1 initialized @(10025,0)
GPGPU-Sim uArch: Shader 0 finished CTA #0 (10046,0), 4 CTAs running
GPGPU-Sim uArch: core:  0, cta: 0 initialized @(10047,0)
GPGPU-Sim uArch: Shader 13 finished CTA #1 (10074,0), 4 CTAs running
GPGPU-Sim uArch: core: 13, cta: 1 initialized @(10075,0)
GPGPU-Sim PTX: 3300000 instructions simulated : ctaid=(246,0,0) tid=(95,0,0)
GPGPU-Sim uArch: Shader 7 finished CTA #1 (10151,0), 4 CTAs running
GPGPU-Sim uArch: core:  7, cta: 1 initialized @(10152,0)
GPGPU-Sim uArch: Shader 8 finished CTA #1 (10153,0), 4 CTAs running
GPGPU-Sim uArch: core:  8, cta: 1 initialized @(10154,0)
GPGPU-Sim uArch: Shader 1 finished CTA #3 (10240,0), 4 CTAs running
GPGPU-Sim uArch: core:  1, cta: 3 initialized @(10241,0)
GPGPU-Sim uArch: Shader 6 finished CTA #1 (10270,0), 4 CTAs running
GPGPU-Sim uArch: core:  6, cta: 1 initialized @(10271,0)
GPGPU-Sim uArch: Shader 5 finished CTA #1 (10290,0), 4 CTAs running
GPGPU-Sim uArch: core:  5, cta: 1 initialized @(10291,0)
GPGPU-Sim uArch: Shader 13 finished CTA #2 (10324,0), 4 CTAs running
GPGPU-Sim uArch: core: 13, cta: 2 initialized @(10325,0)
GPGPU-Sim uArch: Shader 10 finished CTA #1 (10341,0), 4 CTAs running
GPGPU-Sim uArch: core: 10, cta: 1 initialized @(10342,0)
GPGPU-Sim uArch: Shader 9 finished CTA #2 (10344,0), 4 CTAs running
GPGPU-Sim uArch: core:  9, cta: 2 initialized @(10345,0)
GPGPU-Sim PTX: 3400000 instructions simulated : ctaid=(249,0,0) tid=(95,0,0)
GPGPU-Sim uArch: Shader 3 finished CTA #2 (10408,0), 4 CTAs running
GPGPU-Sim uArch: core:  3, cta: 2 initialized @(10409,0)
GPGPU-Sim uArch: cycles simulated: 10500  inst.: 3426784 (ipc=326.4) sim_rate=122385 (inst/sec) elapsed = 0:0:00:28 / Tue Mar 22 07:37:16 2016
GPGPU-Sim uArch: Shader 11 finished CTA #2 (10542,0), 4 CTAs running
GPGPU-Sim uArch: core: 11, cta: 2 initialized @(10543,0)
GPGPU-Sim uArch: Shader 8 finished CTA #2 (10558,0), 4 CTAs running
GPGPU-Sim uArch: core:  8, cta: 2 initialized @(10559,0)
GPGPU-Sim uArch: Shader 7 finished CTA #2 (10610,0), 4 CTAs running
GPGPU-Sim uArch: core:  7, cta: 2 initialized @(10611,0)
GPGPU-Sim uArch: Shader 10 finished CTA #2 (10615,0), 4 CTAs running
GPGPU-Sim uArch: core: 10, cta: 2 initialized @(10616,0)
GPGPU-Sim uArch: Shader 12 finished CTA #1 (10656,0), 4 CTAs running
GPGPU-Sim uArch: core: 12, cta: 1 initialized @(10657,0)
GPGPU-Sim PTX: 3500000 instructions simulated : ctaid=(221,0,0) tid=(127,0,0)
GPGPU-Sim uArch: Shader 2 finished CTA #3 (10753,0), 4 CTAs running
GPGPU-Sim uArch: core:  2, cta: 3 initialized @(10754,0)
GPGPU-Sim uArch: Shader 0 finished CTA #1 (10809,0), 4 CTAs running
GPGPU-Sim uArch: core:  0, cta: 1 initialized @(10810,0)
GPGPU-Sim uArch: Shader 7 finished CTA #3 (10844,0), 4 CTAs running
GPGPU-Sim uArch: core:  7, cta: 3 initialized @(10845,0)
GPGPU-Sim uArch: Shader 3 finished CTA #3 (10845,0), 4 CTAs running
GPGPU-Sim uArch: core:  3, cta: 3 initialized @(10846,0)
GPGPU-Sim uArch: Shader 11 finished CTA #3 (10890,0), 4 CTAs running
GPGPU-Sim uArch: core: 11, cta: 3 initialized @(10891,0)
GPGPU-Sim uArch: Shader 14 finished CTA #1 (10895,0), 4 CTAs running
GPGPU-Sim uArch: core: 14, cta: 1 initialized @(10896,0)
GPGPU-Sim PTX: 3600000 instructions simulated : ctaid=(250,0,0) tid=(159,0,0)
GPGPU-Sim uArch: cycles simulated: 11000  inst.: 3588224 (ipc=326.2) sim_rate=123731 (inst/sec) elapsed = 0:0:00:29 / Tue Mar 22 07:37:17 2016
GPGPU-Sim uArch: Shader 9 finished CTA #3 (11014,0), 4 CTAs running
GPGPU-Sim uArch: core:  9, cta: 3 initialized @(11015,0)
GPGPU-Sim uArch: Shader 13 finished CTA #3 (11070,0), 4 CTAs running
GPGPU-Sim uArch: core: 13, cta: 3 initialized @(11071,0)
GPGPU-Sim uArch: Shader 10 finished CTA #3 (11075,0), 4 CTAs running
GPGPU-Sim uArch: core: 10, cta: 3 initialized @(11076,0)
GPGPU-Sim uArch: Shader 1 finished CTA #4 (11112,0), 4 CTAs running
GPGPU-Sim uArch: core:  1, cta: 4 initialized @(11113,0)
GPGPU-Sim uArch: Shader 4 finished CTA #2 (11124,0), 4 CTAs running
GPGPU-Sim uArch: core:  4, cta: 2 initialized @(11125,0)
GPGPU-Sim uArch: Shader 11 finished CTA #4 (11178,0), 4 CTAs running
GPGPU-Sim uArch: core: 11, cta: 4 initialized @(11179,0)
GPGPU-Sim uArch: Shader 7 finished CTA #4 (11199,0), 4 CTAs running
GPGPU-Sim uArch: core:  7, cta: 4 initialized @(11200,0)
GPGPU-Sim uArch: Shader 3 finished CTA #4 (11257,0), 4 CTAs running
GPGPU-Sim uArch: core:  3, cta: 4 initialized @(11258,0)
GPGPU-Sim uArch: Shader 0 finished CTA #2 (11265,0), 4 CTAs running
GPGPU-Sim uArch: core:  0, cta: 2 initialized @(11266,0)
GPGPU-Sim uArch: Shader 4 finished CTA #3 (11272,0), 4 CTAs running
GPGPU-Sim uArch: core:  4, cta: 3 initialized @(11273,0)
GPGPU-Sim PTX: 3700000 instructions simulated : ctaid=(272,0,0) tid=(95,0,0)
GPGPU-Sim uArch: Shader 5 finished CTA #2 (11328,0), 4 CTAs running
GPGPU-Sim uArch: core:  5, cta: 2 initialized @(11329,0)
GPGPU-Sim uArch: Shader 8 finished CTA #3 (11334,0), 4 CTAs running
GPGPU-Sim uArch: core:  8, cta: 3 initialized @(11335,0)
GPGPU-Sim uArch: Shader 1 finished CTA #0 (11405,0), 4 CTAs running
GPGPU-Sim uArch: core:  1, cta: 0 initialized @(11406,0)
GPGPU-Sim uArch: Shader 2 finished CTA #4 (11428,0), 4 CTAs running
GPGPU-Sim uArch: core:  2, cta: 4 initialized @(11429,0)
GPGPU-Sim uArch: cycles simulated: 11500  inst.: 3754368 (ipc=326.5) sim_rate=125145 (inst/sec) elapsed = 0:0:00:30 / Tue Mar 22 07:37:18 2016
GPGPU-Sim uArch: Shader 12 finished CTA #2 (11514,0), 4 CTAs running
GPGPU-Sim uArch: core: 12, cta: 2 initialized @(11515,0)
GPGPU-Sim uArch: Shader 3 finished CTA #0 (11529,0), 4 CTAs running
GPGPU-Sim uArch: core:  3, cta: 0 initialized @(11530,0)
GPGPU-Sim uArch: Shader 1 finished CTA #1 (11545,0), 4 CTAs running
GPGPU-Sim uArch: core:  1, cta: 1 initialized @(11546,0)
GPGPU-Sim PTX: 3800000 instructions simulated : ctaid=(264,0,0) tid=(95,0,0)
GPGPU-Sim uArch: Shader 8 finished CTA #4 (11627,0), 4 CTAs running
GPGPU-Sim uArch: core:  8, cta: 4 initialized @(11628,0)
GPGPU-Sim uArch: Shader 6 finished CTA #2 (11656,0), 4 CTAs running
GPGPU-Sim uArch: core:  6, cta: 2 initialized @(11657,0)
GPGPU-Sim uArch: Shader 9 finished CTA #4 (11666,0), 4 CTAs running
GPGPU-Sim uArch: core:  9, cta: 4 initialized @(11667,0)
GPGPU-Sim uArch: Shader 5 finished CTA #3 (11681,0), 4 CTAs running
GPGPU-Sim uArch: core:  5, cta: 3 initialized @(11682,0)
GPGPU-Sim uArch: Shader 14 finished CTA #2 (11755,0), 4 CTAs running
GPGPU-Sim uArch: core: 14, cta: 2 initialized @(11756,0)
GPGPU-Sim uArch: Shader 11 finished CTA #0 (11841,0), 4 CTAs running
GPGPU-Sim uArch: core: 11, cta: 0 initialized @(11842,0)
GPGPU-Sim uArch: Shader 10 finished CTA #4 (11848,0), 4 CTAs running
GPGPU-Sim uArch: core: 10, cta: 4 initialized @(11849,0)
GPGPU-Sim PTX: 3900000 instructions simulated : ctaid=(244,0,0) tid=(191,0,0)
GPGPU-Sim uArch: Shader 0 finished CTA #3 (11931,0), 4 CTAs running
GPGPU-Sim uArch: core:  0, cta: 3 initialized @(11932,0)
GPGPU-Sim uArch: Shader 8 finished CTA #0 (11948,0), 4 CTAs running
GPGPU-Sim uArch: core:  8, cta: 0 initialized @(11949,0)
GPGPU-Sim uArch: Shader 7 finished CTA #0 (11993,0), 4 CTAs running
GPGPU-Sim uArch: core:  7, cta: 0 initialized @(11994,0)
GPGPU-Sim uArch: cycles simulated: 12000  inst.: 3957440 (ipc=329.8) sim_rate=127659 (inst/sec) elapsed = 0:0:00:31 / Tue Mar 22 07:37:19 2016
GPGPU-Sim uArch: Shader 2 finished CTA #0 (12001,0), 4 CTAs running
GPGPU-Sim uArch: core:  2, cta: 0 initialized @(12002,0)
GPGPU-Sim uArch: Shader 12 finished CTA #3 (12023,0), 4 CTAs running
GPGPU-Sim uArch: core: 12, cta: 3 initialized @(12024,0)
GPGPU-Sim uArch: Shader 6 finished CTA #3 (12030,0), 4 CTAs running
GPGPU-Sim uArch: core:  6, cta: 3 initialized @(12031,0)
GPGPU-Sim PTX: 4000000 instructions simulated : ctaid=(286,0,0) tid=(31,0,0)
GPGPU-Sim uArch: Shader 4 finished CTA #4 (12159,0), 4 CTAs running
GPGPU-Sim uArch: core:  4, cta: 4 initialized @(12160,0)
GPGPU-Sim uArch: Shader 13 finished CTA #4 (12210,0), 4 CTAs running
GPGPU-Sim uArch: core: 13, cta: 4 initialized @(12211,0)
GPGPU-Sim uArch: Shader 5 finished CTA #4 (12416,0), 4 CTAs running
GPGPU-Sim PTX: 4100000 instructions simulated : ctaid=(249,0,0) tid=(255,0,0)
GPGPU-Sim uArch: core:  5, cta: 4 initialized @(12417,0)
GPGPU-Sim uArch: Shader 11 finished CTA #1 (12470,0), 4 CTAs running
GPGPU-Sim uArch: core: 11, cta: 1 initialized @(12471,0)
GPGPU-Sim uArch: Shader 0 finished CTA #4 (12476,0), 4 CTAs running
GPGPU-Sim uArch: core:  0, cta: 4 initialized @(12477,0)
GPGPU-Sim uArch: cycles simulated: 12500  inst.: 4100928 (ipc=328.1) sim_rate=128154 (inst/sec) elapsed = 0:0:00:32 / Tue Mar 22 07:37:20 2016
GPGPU-Sim uArch: Shader 10 finished CTA #0 (12576,0), 4 CTAs running
GPGPU-Sim uArch: core: 10, cta: 0 initialized @(12577,0)
GPGPU-Sim uArch: Shader 7 finished CTA #1 (12594,0), 4 CTAs running
GPGPU-Sim uArch: core:  7, cta: 1 initialized @(12595,0)
GPGPU-Sim uArch: Shader 3 finished CTA #1 (12608,0), 4 CTAs running
GPGPU-Sim uArch: core:  3, cta: 1 initialized @(12609,0)
GPGPU-Sim uArch: Shader 4 finished CTA #0 (12686,0), 4 CTAs running
GPGPU-Sim uArch: core:  4, cta: 0 initialized @(12687,0)
GPGPU-Sim uArch: Shader 1 finished CTA #2 (12738,0), 4 CTAs running
GPGPU-Sim uArch: core:  1, cta: 2 initialized @(12739,0)
GPGPU-Sim PTX: 4200000 instructions simulated : ctaid=(278,0,0) tid=(223,0,0)
GPGPU-Sim uArch: Shader 14 finished CTA #3 (12936,0), 4 CTAs running
GPGPU-Sim uArch: core: 14, cta: 3 initialized @(12937,0)
GPGPU-Sim uArch: Shader 6 finished CTA #4 (12944,0), 4 CTAs running
GPGPU-Sim uArch: core:  6, cta: 4 initialized @(12945,0)
GPGPU-Sim uArch: cycles simulated: 13000  inst.: 4254784 (ipc=327.3) sim_rate=128932 (inst/sec) elapsed = 0:0:00:33 / Tue Mar 22 07:37:21 2016
GPGPU-Sim uArch: Shader 2 finished CTA #1 (13047,0), 4 CTAs running
GPGPU-Sim uArch: core:  2, cta: 1 initialized @(13048,0)
GPGPU-Sim uArch: Shader 13 finished CTA #0 (13049,0), 4 CTAs running
GPGPU-Sim uArch: core: 13, cta: 0 initialized @(13050,0)
GPGPU-Sim uArch: Shader 5 finished CTA #0 (13077,0), 4 CTAs running
GPGPU-Sim uArch: core:  5, cta: 0 initialized @(13078,0)
GPGPU-Sim PTX: 4300000 instructions simulated : ctaid=(288,0,0) tid=(31,0,0)
GPGPU-Sim uArch: Shader 12 finished CTA #4 (13103,0), 4 CTAs running
GPGPU-Sim uArch: core: 12, cta: 4 initialized @(13104,0)
GPGPU-Sim uArch: Shader 10 finished CTA #1 (13117,0), 4 CTAs running
GPGPU-Sim uArch: core: 10, cta: 1 initialized @(13118,0)
GPGPU-Sim uArch: Shader 7 finished CTA #2 (13132,0), 4 CTAs running
GPGPU-Sim uArch: core:  7, cta: 2 initialized @(13133,0)
GPGPU-Sim uArch: Shader 0 finished CTA #0 (13135,0), 4 CTAs running
GPGPU-Sim uArch: core:  0, cta: 0 initialized @(13136,0)
GPGPU-Sim uArch: Shader 8 finished CTA #1 (13153,0), 4 CTAs running
GPGPU-Sim uArch: core:  8, cta: 1 initialized @(13154,0)
GPGPU-Sim uArch: Shader 11 finished CTA #2 (13163,0), 4 CTAs running
GPGPU-Sim uArch: core: 11, cta: 2 initialized @(13164,0)
GPGPU-Sim uArch: Shader 9 finished CTA #0 (13185,0), 4 CTAs running
GPGPU-Sim uArch: core:  9, cta: 0 initialized @(13186,0)
GPGPU-Sim uArch: Shader 12 finished CTA #0 (13281,0), 4 CTAs running
GPGPU-Sim uArch: core: 12, cta: 0 initialized @(13282,0)
GPGPU-Sim uArch: Shader 6 finished CTA #0 (13299,0), 4 CTAs running
GPGPU-Sim uArch: core:  6, cta: 0 initialized @(13300,0)
GPGPU-Sim uArch: Shader 2 finished CTA #2 (13331,0), 4 CTAs running
GPGPU-Sim uArch: core:  2, cta: 2 initialized @(13332,0)
GPGPU-Sim uArch: Shader 13 finished CTA #1 (13351,0), 4 CTAs running
GPGPU-Sim uArch: core: 13, cta: 1 initialized @(13352,0)
GPGPU-Sim uArch: Shader 4 finished CTA #1 (13353,0), 4 CTAs running
GPGPU-Sim uArch: core:  4, cta: 1 initialized @(13354,0)
GPGPU-Sim PTX: 4400000 instructions simulated : ctaid=(284,0,0) tid=(31,0,0)
GPGPU-Sim uArch: Shader 1 finished CTA #3 (13460,0), 4 CTAs running
GPGPU-Sim uArch: core:  1, cta: 3 initialized @(13461,0)
GPGPU-Sim uArch: cycles simulated: 13500  inst.: 4435488 (ipc=328.6) sim_rate=130455 (inst/sec) elapsed = 0:0:00:34 / Tue Mar 22 07:37:22 2016
GPGPU-Sim uArch: Shader 9 finished CTA #1 (13516,0), 4 CTAs running
GPGPU-Sim uArch: core:  9, cta: 1 initialized @(13517,0)
GPGPU-Sim uArch: Shader 10 finished CTA #2 (13591,0), 4 CTAs running
GPGPU-Sim uArch: core: 10, cta: 2 initialized @(13592,0)
GPGPU-Sim uArch: Shader 11 finished CTA #3 (13613,0), 4 CTAs running
GPGPU-Sim uArch: core: 11, cta: 3 initialized @(13614,0)
GPGPU-Sim uArch: Shader 3 finished CTA #2 (13638,0), 4 CTAs running
GPGPU-Sim uArch: core:  3, cta: 2 initialized @(13639,0)
GPGPU-Sim PTX: 4500000 instructions simulated : ctaid=(295,0,0) tid=(63,0,0)
GPGPU-Sim uArch: Shader 14 finished CTA #4 (13763,0), 4 CTAs running
GPGPU-Sim uArch: core: 14, cta: 4 initialized @(13764,0)
GPGPU-Sim uArch: Shader 10 finished CTA #3 (13818,0), 4 CTAs running
GPGPU-Sim uArch: core: 10, cta: 3 initialized @(13819,0)
GPGPU-Sim uArch: Shader 2 finished CTA #3 (13820,0), 4 CTAs running
GPGPU-Sim uArch: core:  2, cta: 3 initialized @(13821,0)
GPGPU-Sim uArch: Shader 5 finished CTA #1 (13864,0), 4 CTAs running
GPGPU-Sim uArch: core:  5, cta: 1 initialized @(13865,0)
GPGPU-Sim uArch: Shader 1 finished CTA #4 (13895,0), 4 CTAs running
GPGPU-Sim uArch: core:  1, cta: 4 initialized @(13896,0)
GPGPU-Sim uArch: Shader 8 finished CTA #2 (13916,0), 4 CTAs running
GPGPU-Sim uArch: core:  8, cta: 2 initialized @(13917,0)
GPGPU-Sim uArch: Shader 7 finished CTA #3 (13942,0), 4 CTAs running
GPGPU-Sim uArch: core:  7, cta: 3 initialized @(13943,0)
GPGPU-Sim PTX: 4600000 instructions simulated : ctaid=(309,0,0) tid=(127,0,0)
GPGPU-Sim uArch: cycles simulated: 14000  inst.: 4607840 (ipc=329.1) sim_rate=131652 (inst/sec) elapsed = 0:0:00:35 / Tue Mar 22 07:37:23 2016
GPGPU-Sim uArch: Shader 4 finished CTA #2 (14028,0), 4 CTAs running
GPGPU-Sim uArch: core:  4, cta: 2 initialized @(14029,0)
GPGPU-Sim uArch: Shader 13 finished CTA #2 (14034,0), 4 CTAs running
GPGPU-Sim uArch: core: 13, cta: 2 initialized @(14035,0)
GPGPU-Sim uArch: Shader 3 finished CTA #3 (14078,0), 4 CTAs running
GPGPU-Sim uArch: core:  3, cta: 3 initialized @(14079,0)
GPGPU-Sim uArch: Shader 14 finished CTA #0 (14085,0), 4 CTAs running
GPGPU-Sim uArch: core: 14, cta: 0 initialized @(14086,0)
GPGPU-Sim uArch: Shader 6 finished CTA #1 (14119,0), 4 CTAs running
GPGPU-Sim uArch: core:  6, cta: 1 initialized @(14120,0)
GPGPU-Sim uArch: Shader 0 finished CTA #1 (14165,0), 4 CTAs running
GPGPU-Sim uArch: core:  0, cta: 1 initialized @(14166,0)
GPGPU-Sim uArch: Shader 8 finished CTA #3 (14191,0), 4 CTAs running
GPGPU-Sim uArch: core:  8, cta: 3 initialized @(14192,0)
GPGPU-Sim uArch: Shader 12 finished CTA #1 (14199,0), 4 CTAs running
GPGPU-Sim uArch: core: 12, cta: 1 initialized @(14200,0)
GPGPU-Sim PTX: 4700000 instructions simulated : ctaid=(307,0,0) tid=(159,0,0)
GPGPU-Sim uArch: Shader 13 finished CTA #3 (14255,0), 4 CTAs running
GPGPU-Sim uArch: core: 13, cta: 3 initialized @(14256,0)
GPGPU-Sim uArch: Shader 1 finished CTA #0 (14295,0), 4 CTAs running
GPGPU-Sim uArch: core:  1, cta: 0 initialized @(14296,0)
GPGPU-Sim uArch: Shader 9 finished CTA #2 (14314,0), 4 CTAs running
GPGPU-Sim uArch: core:  9, cta: 2 initialized @(14315,0)
GPGPU-Sim uArch: Shader 2 finished CTA #4 (14444,0), 4 CTAs running
GPGPU-Sim uArch: core:  2, cta: 4 initialized @(14445,0)
GPGPU-Sim uArch: Shader 6 finished CTA #2 (14448,0), 4 CTAs running
GPGPU-Sim uArch: core:  6, cta: 2 initialized @(14449,0)
GPGPU-Sim uArch: cycles simulated: 14500  inst.: 4764800 (ipc=328.6) sim_rate=132355 (inst/sec) elapsed = 0:0:00:36 / Tue Mar 22 07:37:24 2016
GPGPU-Sim PTX: 4800000 instructions simulated : ctaid=(340,0,0) tid=(223,0,0)
GPGPU-Sim uArch: Shader 0 finished CTA #2 (14575,0), 4 CTAs running
GPGPU-Sim uArch: core:  0, cta: 2 initialized @(14576,0)
GPGPU-Sim uArch: Shader 9 finished CTA #3 (14599,0), 4 CTAs running
GPGPU-Sim uArch: core:  9, cta: 3 initialized @(14600,0)
GPGPU-Sim uArch: Shader 14 finished CTA #1 (14605,0), 4 CTAs running
GPGPU-Sim uArch: core: 14, cta: 1 initialized @(14606,0)
GPGPU-Sim uArch: Shader 4 finished CTA #3 (14696,0), 4 CTAs running
GPGPU-Sim uArch: core:  4, cta: 3 initialized @(14697,0)
GPGPU-Sim uArch: Shader 12 finished CTA #2 (14741,0), 4 CTAs running
GPGPU-Sim uArch: core: 12, cta: 2 initialized @(14742,0)
GPGPU-Sim uArch: Shader 13 finished CTA #4 (14762,0), 4 CTAs running
GPGPU-Sim uArch: core: 13, cta: 4 initialized @(14763,0)
GPGPU-Sim uArch: Shader 5 finished CTA #2 (14775,0), 4 CTAs running
GPGPU-Sim uArch: core:  5, cta: 2 initialized @(14776,0)
GPGPU-Sim uArch: Shader 11 finished CTA #4 (14787,0), 4 CTAs running
GPGPU-Sim uArch: core: 11, cta: 4 initialized @(14788,0)
GPGPU-Sim uArch: Shader 3 finished CTA #4 (14795,0), 4 CTAs running
GPGPU-Sim uArch: core:  3, cta: 4 initialized @(14796,0)
GPGPU-Sim PTX: 4900000 instructions simulated : ctaid=(321,0,0) tid=(223,0,0)
GPGPU-Sim uArch: Shader 1 finished CTA #1 (14807,0), 4 CTAs running
GPGPU-Sim uArch: core:  1, cta: 1 initialized @(14808,0)
GPGPU-Sim uArch: Shader 12 finished CTA #3 (14980,0), 4 CTAs running
GPGPU-Sim uArch: core: 12, cta: 3 initialized @(14981,0)
GPGPU-Sim uArch: Shader 3 finished CTA #0 (14992,0), 4 CTAs running
GPGPU-Sim uArch: core:  3, cta: 0 initialized @(14993,0)
GPGPU-Sim uArch: cycles simulated: 15000  inst.: 4960960 (ipc=330.7) sim_rate=130551 (inst/sec) elapsed = 0:0:00:38 / Tue Mar 22 07:37:26 2016
GPGPU-Sim uArch: Shader 7 finished CTA #4 (15000,0), 4 CTAs running
GPGPU-Sim uArch: core:  7, cta: 4 initialized @(15001,0)
GPGPU-Sim uArch: Shader 8 finished CTA #4 (15070,0), 4 CTAs running
GPGPU-Sim uArch: core:  8, cta: 4 initialized @(15071,0)
GPGPU-Sim uArch: Shader 14 finished CTA #2 (15071,0), 4 CTAs running
GPGPU-Sim uArch: core: 14, cta: 2 initialized @(15072,0)
GPGPU-Sim uArch: Shader 10 finished CTA #4 (15072,0), 4 CTAs running
GPGPU-Sim uArch: core: 10, cta: 4 initialized @(15073,0)
GPGPU-Sim PTX: 5000000 instructions simulated : ctaid=(365,0,0) tid=(31,0,0)
GPGPU-Sim uArch: Shader 2 finished CTA #0 (15154,0), 4 CTAs running
GPGPU-Sim uArch: core:  2, cta: 0 initialized @(15155,0)
GPGPU-Sim uArch: Shader 4 finished CTA #4 (15168,0), 4 CTAs running
GPGPU-Sim uArch: core:  4, cta: 4 initialized @(15169,0)
GPGPU-Sim uArch: Shader 1 finished CTA #2 (15294,0), 4 CTAs running
GPGPU-Sim uArch: core:  1, cta: 2 initialized @(15295,0)
GPGPU-Sim uArch: Shader 2 finished CTA #1 (15324,0), 4 CTAs running
GPGPU-Sim uArch: core:  2, cta: 1 initialized @(15325,0)
GPGPU-Sim uArch: Shader 9 finished CTA #4 (15372,0), 4 CTAs running
GPGPU-Sim uArch: core:  9, cta: 4 initialized @(15373,0)
GPGPU-Sim PTX: 5100000 instructions simulated : ctaid=(365,0,0) tid=(191,0,0)
GPGPU-Sim uArch: Shader 14 finished CTA #3 (15458,0), 4 CTAs running
GPGPU-Sim uArch: core: 14, cta: 3 initialized @(15459,0)
GPGPU-Sim uArch: cycles simulated: 15500  inst.: 5116256 (ipc=330.1) sim_rate=131186 (inst/sec) elapsed = 0:0:00:39 / Tue Mar 22 07:37:27 2016
GPGPU-Sim uArch: Shader 7 finished CTA #0 (15502,0), 4 CTAs running
GPGPU-Sim uArch: core:  7, cta: 0 initialized @(15503,0)
GPGPU-Sim uArch: Shader 10 finished CTA #0 (15690,0), 4 CTAs running
GPGPU-Sim uArch: core: 10, cta: 0 initialized @(15691,0)
GPGPU-Sim PTX: 5200000 instructions simulated : ctaid=(328,0,0) tid=(63,0,0)
GPGPU-Sim uArch: Shader 7 finished CTA #1 (15748,0), 4 CTAs running
GPGPU-Sim uArch: core:  7, cta: 1 initialized @(15749,0)
GPGPU-Sim uArch: Shader 11 finished CTA #0 (15861,0), 4 CTAs running
GPGPU-Sim uArch: core: 11, cta: 0 initialized @(15862,0)
GPGPU-Sim uArch: Shader 4 finished CTA #0 (15871,0), 4 CTAs running
GPGPU-Sim uArch: core:  4, cta: 0 initialized @(15872,0)
GPGPU-Sim uArch: Shader 0 finished CTA #3 (15902,0), 4 CTAs running
GPGPU-Sim uArch: core:  0, cta: 3 initialized @(15903,0)
GPGPU-Sim uArch: Shader 1 finished CTA #3 (15910,0), 4 CTAs running
GPGPU-Sim uArch: core:  1, cta: 3 initialized @(15911,0)
GPGPU-Sim uArch: Shader 5 finished CTA #3 (15976,0), 4 CTAs running
GPGPU-Sim uArch: core:  5, cta: 3 initialized @(15977,0)
GPGPU-Sim uArch: cycles simulated: 16000  inst.: 5264096 (ipc=329.0) sim_rate=131602 (inst/sec) elapsed = 0:0:00:40 / Tue Mar 22 07:37:28 2016
GPGPU-Sim uArch: Shader 11 finished CTA #1 (16025,0), 4 CTAs running
GPGPU-Sim uArch: core: 11, cta: 1 initialized @(16026,0)
GPGPU-Sim uArch: Shader 6 finished CTA #3 (16031,0), 4 CTAs running
GPGPU-Sim uArch: core:  6, cta: 3 initialized @(16032,0)
GPGPU-Sim uArch: Shader 3 finished CTA #1 (16039,0), 4 CTAs running
GPGPU-Sim uArch: core:  3, cta: 1 initialized @(16040,0)
GPGPU-Sim PTX: 5300000 instructions simulated : ctaid=(346,0,0) tid=(95,0,0)
GPGPU-Sim uArch: Shader 13 finished CTA #0 (16141,0), 4 CTAs running
GPGPU-Sim uArch: core: 13, cta: 0 initialized @(16142,0)
GPGPU-Sim uArch: Shader 8 finished CTA #0 (16173,0), 4 CTAs running
GPGPU-Sim uArch: core:  8, cta: 0 initialized @(16174,0)
GPGPU-Sim uArch: Shader 2 finished CTA #2 (16197,0), 4 CTAs running
GPGPU-Sim uArch: core:  2, cta: 2 initialized @(16198,0)
GPGPU-Sim uArch: Shader 1 finished CTA #4 (16235,0), 4 CTAs running
GPGPU-Sim uArch: core:  1, cta: 4 initialized @(16236,0)
GPGPU-Sim uArch: Shader 7 finished CTA #2 (16267,0), 4 CTAs running
GPGPU-Sim uArch: core:  7, cta: 2 initialized @(16268,0)
GPGPU-Sim uArch: Shader 5 finished CTA #4 (16297,0), 4 CTAs running
GPGPU-Sim uArch: core:  5, cta: 4 initialized @(16298,0)
GPGPU-Sim uArch: Shader 3 finished CTA #2 (16302,0), 4 CTAs running
GPGPU-Sim uArch: core:  3, cta: 2 initialized @(16303,0)
GPGPU-Sim uArch: Shader 9 finished CTA #0 (16329,0), 4 CTAs running
GPGPU-Sim uArch: core:  9, cta: 0 initialized @(16330,0)
GPGPU-Sim PTX: 5400000 instructions simulated : ctaid=(372,0,0) tid=(223,0,0)
GPGPU-Sim uArch: Shader 0 finished CTA #4 (16429,0), 4 CTAs running
GPGPU-Sim uArch: core:  0, cta: 4 initialized @(16430,0)
GPGPU-Sim uArch: Shader 14 finished CTA #4 (16474,0), 4 CTAs running
GPGPU-Sim uArch: core: 14, cta: 4 initialized @(16475,0)
GPGPU-Sim uArch: Shader 12 finished CTA #4 (16487,0), 4 CTAs running
GPGPU-Sim uArch: core: 12, cta: 4 initialized @(16488,0)
GPGPU-Sim uArch: cycles simulated: 16500  inst.: 5455744 (ipc=330.7) sim_rate=133066 (inst/sec) elapsed = 0:0:00:41 / Tue Mar 22 07:37:29 2016
GPGPU-Sim uArch: Shader 10 finished CTA #1 (16509,0), 4 CTAs running
GPGPU-Sim uArch: core: 10, cta: 1 initialized @(16510,0)
GPGPU-Sim uArch: Shader 13 finished CTA #1 (16521,0), 4 CTAs running
GPGPU-Sim uArch: core: 13, cta: 1 initialized @(16522,0)
GPGPU-Sim PTX: 5500000 instructions simulated : ctaid=(392,0,0) tid=(223,0,0)
GPGPU-Sim uArch: Shader 1 finished CTA #0 (16610,0), 4 CTAs running
GPGPU-Sim uArch: core:  1, cta: 0 initialized @(16611,0)
GPGPU-Sim uArch: Shader 6 finished CTA #4 (16621,0), 4 CTAs running
GPGPU-Sim uArch: core:  6, cta: 4 initialized @(16622,0)
GPGPU-Sim uArch: Shader 8 finished CTA #1 (16681,0), 4 CTAs running
GPGPU-Sim uArch: core:  8, cta: 1 initialized @(16682,0)
GPGPU-Sim uArch: Shader 14 finished CTA #0 (16719,0), 4 CTAs running
GPGPU-Sim uArch: core: 14, cta: 0 initialized @(16720,0)
GPGPU-Sim uArch: Shader 9 finished CTA #1 (16721,0), 4 CTAs running
GPGPU-Sim uArch: core:  9, cta: 1 initialized @(16722,0)
GPGPU-Sim uArch: Shader 13 finished CTA #2 (16731,0), 4 CTAs running
GPGPU-Sim uArch: core: 13, cta: 2 initialized @(16732,0)
GPGPU-Sim uArch: Shader 2 finished CTA #3 (16738,0), 4 CTAs running
GPGPU-Sim uArch: core:  2, cta: 3 initialized @(16739,0)
GPGPU-Sim uArch: Shader 12 finished CTA #0 (16753,0), 4 CTAs running
GPGPU-Sim uArch: core: 12, cta: 0 initialized @(16754,0)
GPGPU-Sim uArch: Shader 7 finished CTA #3 (16795,0), 4 CTAs running
GPGPU-Sim uArch: core:  7, cta: 3 initialized @(16796,0)
GPGPU-Sim uArch: Shader 0 finished CTA #0 (16879,0), 4 CTAs running
GPGPU-Sim uArch: core:  0, cta: 0 initialized @(16880,0)
GPGPU-Sim PTX: 5600000 instructions simulated : ctaid=(406,0,0) tid=(159,0,0)
GPGPU-Sim uArch: Shader 10 finished CTA #2 (16895,0), 4 CTAs running
GPGPU-Sim uArch: core: 10, cta: 2 initialized @(16896,0)
GPGPU-Sim uArch: Shader 11 finished CTA #2 (16908,0), 4 CTAs running
GPGPU-Sim uArch: core: 11, cta: 2 initialized @(16909,0)
GPGPU-Sim uArch: cycles simulated: 17000  inst.: 5618944 (ipc=330.5) sim_rate=133784 (inst/sec) elapsed = 0:0:00:42 / Tue Mar 22 07:37:30 2016
GPGPU-Sim uArch: Shader 4 finished CTA #1 (17014,0), 4 CTAs running
GPGPU-Sim uArch: core:  4, cta: 1 initialized @(17015,0)
GPGPU-Sim uArch: Shader 11 finished CTA #3 (17019,0), 4 CTAs running
GPGPU-Sim uArch: core: 11, cta: 3 initialized @(17020,0)
GPGPU-Sim uArch: Shader 7 finished CTA #4 (17060,0), 4 CTAs running
GPGPU-Sim uArch: core:  7, cta: 4 initialized @(17061,0)
GPGPU-Sim uArch: Shader 3 finished CTA #3 (17067,0), 4 CTAs running
GPGPU-Sim uArch: core:  3, cta: 3 initialized @(17068,0)
GPGPU-Sim PTX: 5700000 instructions simulated : ctaid=(398,0,0) tid=(95,0,0)
GPGPU-Sim uArch: Shader 4 finished CTA #2 (17154,0), 4 CTAs running
GPGPU-Sim uArch: core:  4, cta: 2 initialized @(17155,0)
GPGPU-Sim uArch: Shader 9 finished CTA #2 (17248,0), 4 CTAs running
GPGPU-Sim uArch: core:  9, cta: 2 initialized @(17249,0)
GPGPU-Sim uArch: Shader 1 finished CTA #1 (17337,0), 4 CTAs running
GPGPU-Sim uArch: core:  1, cta: 1 initialized @(17338,0)
GPGPU-Sim uArch: Shader 5 finished CTA #0 (17372,0), 4 CTAs running
GPGPU-Sim uArch: core:  5, cta: 0 initialized @(17373,0)
GPGPU-Sim PTX: 5800000 instructions simulated : ctaid=(397,0,0) tid=(31,0,0)
GPGPU-Sim uArch: cycles simulated: 17500  inst.: 5791744 (ipc=331.0) sim_rate=134691 (inst/sec) elapsed = 0:0:00:43 / Tue Mar 22 07:37:31 2016
[...]
gpgpu_stall_shd_mem[l_mem_st][icnt_rc] = 0
gpgpu_stall_shd_mem[l_mem_ld][wb_icnt_rc] = 0
gpgpu_stall_shd_mem[l_mem_ld][wb_rsrv_fail] = 0
gpu_reg_bank_conflict_stalls = 0
Warp Occupancy Distribution:
Stall:12311820	W0_Idle:42176	W0_Scoreboard:1032718	W1:0	W2:0	W3:0	W4:0	W5:0	W6:0	W7:0	W8:0	W9:0	W10:0	W11:0	W12:0	W13:0	W14:0	W15:0	W16:0	W17:0	W18:0	W19:0	W20:0	W21:0	W22:0	W23:0	W24:0	W25:0	W26:0	W27:0	W28:0	W29:0	W30:0	W31:0	W32:7602176
traffic_breakdown_coretomem[CONST_ACC_R] = 120 {8:15,}
traffic_breakdown_coretomem[GLOBAL_ACC_R] = 4194304 {8:524288,}
traffic_breakdown_coretomem[GLOBAL_ACC_W] = 71303168 {136:524288,}
traffic_breakdown_coretomem[INST_ACC_R] = 600 {8:75,}
traffic_breakdown_memtocore[CONST_ACC_R] = 1080 {72:15,}
traffic_breakdown_memtocore[GLOBAL_ACC_R] = 71303168 {136:524288,}
traffic_breakdown_memtocore[GLOBAL_ACC_W] = 4194304 {8:524288,}
traffic_breakdown_memtocore[INST_ACC_R] = 10200 {136:75,}
maxmrqlatency = 527 
maxdqlatency = 0 
maxmflatency = 1129 
averagemflatency = 321 
max_icnt2mem_latency = 413 
max_icnt2sh_latency = 700738 
mrq_lat_table:380560 	21276 	28126 	48146 	92069 	149373 	203183 	111405 	8299 	1 	0 	0 	0 	0 	0 	0 	0 	0 	0 	0 	0 	0 	0 	0 	0 	0 	0 	0 	0 	0 	0 	0 	
dq_lat_table:0 	0 	0 	0 	0 	0 	0 	0 	0 	0 	0 	0 	0 	0 	0 	0 	0 	0 	0 	0 	0 	0 	0 	0 	0 	0 	0 	0 	0 	0 	0 	0 	
mf_lat_table:0 	0 	0 	0 	0 	0 	0 	445638 	525065 	77884 	4 	0 	0 	0 	0 	0 	0 	0 	0 	0 	0 	0 	0 	0 	0 	0 	0 	0 	0 	0 	0 	0 	
icnt2mem_lat_table:0 	0 	0 	132266 	168181 	285713 	450191 	12028 	287 	0 	0 	0 	0 	0 	0 	0 	0 	0 	0 	0 	0 	0 	0 	0 	
icnt2sh_lat_table:0 	0 	0 	74246 	310412 	136813 	2831 	1 	0 	0 	0 	1638 	3063 	6159 	12390 	24661 	49163 	98699 	195824 	132691 	0 	0 	0 	0 	
mf_lat_pw_table:0 	0 	0 	0 	0 	0 	0 	6 	1392 	1 	0 	0 	0 	0 	0 	0 	0 	0 	0 	0 	0 	0 	0 	0 	0 	0 	0 	0 	0 	0 	0 	0 	
maximum concurrent accesses to same row:
dram[0]:        32        32        32        32        32        32        32        32        32        32        31        31        30        28        32        29 
dram[1]:        32        32        32        32        32        32        32        32        32        32        30        29        28        27        32        29 
dram[2]:        32        32        32        32        32        32        32        32        32        32        30        30        28        31        32        32 
dram[3]:        32        32        32        32        32        32        32        32        32        32        30        30        29        30        32        32 
dram[4]:        32        32        32        32        32        32        32        32        32        32        31        29        30        29        30        32 
dram[5]:        31        32        32        32        32        32        32        32        32        32        30        29        29        27        30        32 
maximum service time to same row:
dram[0]:      4119      4129      6052      6103      4009      4284      4725      4644      5914      6168      3445      3624      2765      2440      4357      4425 
dram[1]:      4139      4145      5895      6239      4094      3920      4896      4493      5939      5994      3411      3619      2519      2415      4359      4471 
dram[2]:      4177      4131      6332      6352      4219      3933      4812      4844      5514      6655      3424      3508      2676      2943      4363      4394 
dram[3]:      4021      4251      6140      5995      4166      3968      4623      5041      5499      5866      3447      3645      2803      2903      4360      4454 
dram[4]:      4145      4041      6029      6378      4229      4128      4627      5022      6123      5936      3504      3696      2646      3063      4403      4471 
dram[5]:      3140      4052      5947      6432      4250      3865      4531      4821      5890      6755      3432      3619      2594      2441      4413      4491 
average row accesses per activate:
dram[0]:  3.235979  3.127126  3.336826  3.100229  3.272672  3.128902  3.527805  3.418847  3.218144  3.128808  3.287224  3.119702  3.328058  3.131768  3.500802  3.443357 
dram[1]:  3.029888  2.959084  3.139461  3.025713  3.132523  3.044432  3.328628  3.265503  3.021855  2.976539  3.107051  2.972442  3.136546  3.006324  3.329875  3.274910 
dram[2]:  2.869577  3.472471  2.988683  3.630785  2.929905  3.551328  3.144348  3.945435  2.863516  3.499027  2.959217  3.620472  2.984443  3.641572  3.098240  3.799791 
dram[3]:  2.775390  3.273386  2.860011  3.477674  2.836259  3.331692  3.041211  3.624123  2.793059  3.318154  2.808774  3.379032  2.860806  3.414116  2.991228  3.520323 
dram[4]:  3.245588  3.106529  3.335490  3.230976  3.291578  3.157772  3.615667  3.388628  3.275433  3.105096  3.294224  3.165940  3.297738  3.205865  3.571849  3.365824 
dram[5]:  3.061512  2.968801  3.149215  3.065119  3.061651  3.033903  3.387570  3.244990  3.056973  2.963451  3.126866  3.037078  3.077984  3.046823  3.347239  3.266088 
average row locality = 1042438/326658 = 3.191221
number of total memory accesses made:
dram[0]:         0         0         0         0         0         0         0         0         0         0         0         0         0         0         0         0 
dram[1]:         0         0         0         0         0         0         0         0         0         0         0         0         0         0         0         0 
dram[2]:         0         0         0         0         0         0         0         0         0         0         0         0         0         0         0         0 
dram[3]:         0         0         0         0         0         0         0         0         0         0         0         0         0         0         0         0 
dram[4]:         0         0         0         0         0         0         0         0         0         0         0         0         0         0         0         0 
dram[5]:         0         0         0         0         0         0         0         0         0         0         0         0         0         0         0         0 
total accesses: 0
min_bank_accesses = 0!
min_chip_accesses = 0!
number of total read accesses:
dram[0]:      5441      5440      5440      5440      5440      5440      5440      5440      5440      5440      5480      5484      5504      5504      5504      5504 
dram[1]:      5440      5440      5440      5440      5440      5440      5440      5440      5440      5440      5480      5484      5504      5504      5504      5504 
dram[2]:      5440      5440      5440      5440      5440      5440      5440      5440      5440      5440      5480      5484      5504      5504      5504      5504 
dram[3]:      5441      5440      5440      5440      5440      5440      5440      5440      5440      5440      5480      5484      5504      5504      5504      5504 
dram[4]:      5442      5440      5440      5440      5440      5440      5440      5440      5440      5440      5484      5484      5504      5504      5504      5504 
dram[5]:      5442      5440      5440      5440      5440      5440      5440      5440      5440      5440      5484      5484      5504      5504      5504      5504 
total reads: 524294
bank skew: 5504/5440 = 1.01
chip skew: 87386/87380 = 1.00
number of total write accesses:
dram[0]:      5406      5408      5388      5386      5386      5386      5408      5408      5344      5345      5404      5410      5432      5429      5408      5408 
dram[1]:      5407      5408      5388      5386      5386      5386      5408      5408      5345      5344      5404      5410      5430      5430      5408      5408 
dram[2]:      5407      5408      5388      5387      5386      5388      5408      5406      5344      5344      5404      5410      5431      5428      5408      5409 
dram[3]:      5408      5408      5388      5386      5386      5388      5408      5407      5344      5344      5404      5410      5430      5428      5408      5409 
dram[4]:      5408      5408      5387      5387      5386      5388      5407      5407      5346      5344      5410      5410      5428      5428      5408      5408 
dram[5]:      5408      5408      5387      5386      5386      5388      5407      5408      5345      5344      5410      5410      5429      5428      5408      5408 
total reads: 518144
bank skew: 5432/5344 = 1.02
chip skew: 86360/86356 = 1.00
average mf latency per bank:
dram[0]:        314       321       313       320       317       328       327       338       311       321       317       323       319       328       328       339
dram[1]:        314       320       317       323       320       327       328       339       314       319       316       324       321       330       329       341
dram[2]:        315       317       317       320       320       323       327       337       316       317       317       321       321       325       329       337
dram[3]:        314       317       317       319       321       324       328       338       316       317       318       320       323       327       329       337
dram[4]:        312       320       313       320       318       325       325       337       311       318       316       324       318       327       328       338
dram[5]:        312       318       314       319       318       328       324       336       312       320       317       322       319       327       328       340
maximum mf latency per bank:
dram[0]:        860       815       799       844       909       849       871       910       727       735       934       832      1129       939       817       957
dram[1]:        777       823       780       879       839       868       842       911       722       908       844       857       953       812       955       908
dram[2]:        781       859       769       794       804       920       815       945       705       807       832      1042       807       926       796       903
dram[3]:        747       829       888       829       821       902       825       869       770       724       822       795       776       851       923       843
dram[4]:        918       922       774       828       958       816       982       911       687       812       921       827      1049       784       818       926
dram[5]:        783       746       716       876       740       922       806       884       805       793       769       860       784       931       818       905

Number of Memory Banks Accessed per Memory Operation per Warp (from 0):
0	0	0	0	0	0	0	0	0	0	0	0	0	0	0	0	0	0	0	0	0	0	0	0	0	0	0	0	0	0	0	0	0	0	0	0	0	0	0	0	0	0	0	0	0	0	0	0	0	0	0	0	0	0	0	0	0	0	0	0	0	0	0	0	0	0	0	0	0	0	0	0	0	0	0	0	0	0	0	0	0	0	0	0	0	0	0	0	0	0	0	0	0	0	0	0	
Average # of Memory Banks Accessed per Memory Operation per Warp=-nan

position of mrq chosen
0	0	0	0	0	0	0	0	0	0	0	0	0	0	0	0	

average position of mrq chosen = -nan
Memory Partition 0: 
Cache L2_bank_000:
MSHR contents

Cache L2_bank_001:
MSHR contents

In Dram Latency Queue (total = 0): 
DRAM[0]: 16 bks, busW=4 BL=8 CL=12, tRRD=2 tCCD=6, tRCD=12 tRAS=28 tRP=12 tRC=40
n_cmd=924974 n_nop=471038 n_act=53239 n_pre=53223 n_req=173737 n_rd=174762 n_write=172712 bw_util=0.7513
n_activity=919045 dram_eff=0.7562
bk0: 10882a 430694i bk1: 10880a 380510i bk2: 10880a 423698i bk3: 10880a 378487i bk4: 10880a 404113i bk5: 10880a 338652i bk6: 10880a 349036i bk7: 10880a 295375i bk8: 10880a 432166i bk9: 10880a 377724i bk10: 10960a 420174i bk11: 10968a 376959i bk12: 11008a 392853i bk13: 11008a 342689i bk14: 11008a 348478i bk15: 11008a 303169i 
dram_util_bins: 0 0 0 0 0 0 0 0 0 0
dram_eff_bins: 0 0 0 0 0 0 0 0 0 0
mrqq: max=16 avg=11.7481
Memory Partition 1: 
Cache L2_bank_002:
MSHR contents

Cache L2_bank_003:
MSHR contents

In Dram Latency Queue (total = 0): 
DRAM[1]: 16 bks, busW=4 BL=8 CL=12, tRRD=2 tCCD=6, tRCD=12 tRAS=28 tRP=12 tRC=40
n_cmd=924974 n_nop=465602 n_act=55958 n_pre=55942 n_req=173736 n_rd=174760 n_write=172712 bw_util=0.7513
n_activity=918811 dram_eff=0.7564
bk0: 10880a 420750i bk1: 10880a 381804i bk2: 10880a 414214i bk3: 10880a 371773i bk4: 10880a 387370i bk5: 10880a 343418i bk6: 10880a 344328i bk7: 10880a 289230i bk8: 10880a 430306i bk9: 10880a 386076i bk10: 10960a 419817i bk11: 10968a 364852i bk12: 11008a 389726i bk13: 11008a 334023i bk14: 11008a 340439i bk15: 11008a 290420i 
dram_util_bins: 0 0 0 0 0 0 0 0 0 0
dram_eff_bins: 0 0 0 0 0 0 0 0 0 0
mrqq: max=16 avg=11.8065
Memory Partition 2: 
Cache L2_bank_004:
MSHR contents

Cache L2_bank_005:
MSHR contents

In Dram Latency Queue (total = 0): 
DRAM[2]: 16 bks, busW=4 BL=8 CL=12, tRRD=2 tCCD=6, tRCD=12 tRAS=28 tRP=12 tRC=40
n_cmd=924974 n_nop=471424 n_act=53047 n_pre=53031 n_req=173736 n_rd=174760 n_write=172712 bw_util=0.7513
n_activity=918716 dram_eff=0.7564
bk0: 10880a 413964i bk1: 10880a 396065i bk2: 10880a 410892i bk3: 10880a 403727i bk4: 10880a 378159i bk5: 10880a 364324i bk6: 10880a 344194i bk7: 10880a 302996i bk8: 10880a 422549i bk9: 10880a 400497i bk10: 10960a 417485i bk11: 10968a 390561i bk12: 11008a 388214i bk13: 11008a 364509i bk14: 11008a 338147i bk15: 11008a 301123i 
dram_util_bins: 0 0 0 0 0 0 0 0 0 0
dram_eff_bins: 0 0 0 0 0 0 0 0 0 0
mrqq: max=16 avg=11.732
Memory Partition 3: 
Cache L2_bank_006:
MSHR contents

Cache L2_bank_007:
MSHR contents

In Dram Latency Queue (total = 0): 
DRAM[3]: 16 bks, busW=4 BL=8 CL=12, tRRD=2 tCCD=6, tRCD=12 tRAS=28 tRP=12 tRC=40
n_cmd=924974 n_nop=466054 n_act=55731 n_pre=55715 n_req=173737 n_rd=174762 n_write=172712 bw_util=0.7513
n_activity=918925 dram_eff=0.7563
bk0: 10882a 416783i bk1: 10880a 390671i bk2: 10880a 415154i bk3: 10880a 398664i bk4: 10880a 375200i bk5: 10880a 355094i bk6: 10880a 341799i bk7: 10880a 299335i bk8: 10880a 411336i bk9: 10880a 393818i bk10: 10960a 403225i bk11: 10968a 391663i bk12: 11008a 374408i bk13: 11008a 349110i bk14: 11008a 336571i bk15: 11008a 297375i 
dram_util_bins: 0 0 0 0 0 0 0 0 0 0
dram_eff_bins: 0 0 0 0 0 0 0 0 0 0
mrqq: max=16 avg=11.7136
Memory Partition 4: 
Cache L2_bank_008:
MSHR contents

Cache L2_bank_009:
MSHR contents

In Dram Latency Queue (total = 0): 
DRAM[4]: 16 bks, busW=4 BL=8 CL=12, tRRD=2 tCCD=6, tRCD=12 tRAS=28 tRP=12 tRC=40
n_cmd=924974 n_nop=471724 n_act=52887 n_pre=52871 n_req=173746 n_rd=174772 n_write=172720 bw_util=0.7514
n_activity=919084 dram_eff=0.7562
bk0: 10884a 433295i bk1: 10880a 387380i bk2: 10880a 430111i bk3: 10880a 387802i bk4: 10880a 401637i bk5: 10880a 345180i bk6: 10880a 351665i bk7: 10880a 298527i bk8: 10880a 440000i bk9: 10880a 388745i bk10: 10968a 423917i bk11: 10968a 380332i bk12: 11008a 396317i bk13: 11008a 341801i bk14: 11008a 351781i bk15: 11008a 296273i 
dram_util_bins: 0 0 0 0 0 0 0 0 0 0
dram_eff_bins: 0 0 0 0 0 0 0 0 0 0
mrqq: max=16 avg=11.6758
Memory Partition 5: 
Cache L2_bank_010:
MSHR contents

Cache L2_bank_011:
MSHR contents

In Dram Latency Queue (total = 0): 
DRAM[5]: 16 bks, busW=4 BL=8 CL=12, tRRD=2 tCCD=6, tRCD=12 tRAS=28 tRP=12 tRC=40
n_cmd=924974 n_nop=465904 n_act=55797 n_pre=55781 n_req=173746 n_rd=174772 n_write=172720 bw_util=0.7514
n_activity=918779 dram_eff=0.7564
bk0: 10884a 429921i bk1: 10880a 384247i bk2: 10880a 421431i bk3: 10880a 382976i bk4: 10880a 390185i bk5: 10880a 335182i bk6: 10880a 349176i bk7: 10880a 291035i bk8: 10880a 429220i bk9: 10880a 383711i bk10: 10968a 413542i bk11: 10968a 380527i bk12: 11008a 382363i bk13: 11008a 342278i bk14: 11008a 344810i bk15: 11008a 288227i 
dram_util_bins: 0 0 0 0 0 0 0 0 0 0
dram_eff_bins: 0 0 0 0 0 0 0 0 0 0
mrqq: max=16 avg=11.6409

========= L2 cache stats =========
L2_cache_bank[0]: Access = 87391, Miss = 43689, Miss_rate = 0.500, Pending_hits = 3, Reservation_fails = 663
L2_cache_bank[1]: Access = 87384, Miss = 43692, Miss_rate = 0.500, Pending_hits = 0, Reservation_fails = 293
L2_cache_bank[2]: Access = 87376, Miss = 43688, Miss_rate = 0.500, Pending_hits = 0, Reservation_fails = 275
L2_cache_bank[3]: Access = 87384, Miss = 43692, Miss_rate = 0.500, Pending_hits = 0, Reservation_fails = 214
L2_cache_bank[4]: Access = 87376, Miss = 43688, Miss_rate = 0.500, Pending_hits = 0, Reservation_fails = 147
L2_cache_bank[5]: Access = 87384, Miss = 43692, Miss_rate = 0.500, Pending_hits = 0, Reservation_fails = 939
L2_cache_bank[6]: Access = 87391, Miss = 43689, Miss_rate = 0.500, Pending_hits = 3, Reservation_fails = 229
L2_cache_bank[7]: Access = 87384, Miss = 43692, Miss_rate = 0.500, Pending_hits = 0, Reservation_fails = 436
L2_cache_bank[8]: Access = 87414, Miss = 43694, Miss_rate = 0.500, Pending_hits = 6, Reservation_fails = 764
L2_cache_bank[9]: Access = 87384, Miss = 43692, Miss_rate = 0.500, Pending_hits = 0, Reservation_fails = 328
L2_cache_bank[10]: Access = 87414, Miss = 43694, Miss_rate = 0.500, Pending_hits = 6, Reservation_fails = 398
L2_cache_bank[11]: Access = 87384, Miss = 43692, Miss_rate = 0.500, Pending_hits = 0, Reservation_fails = 227
L2_total_cache_accesses = 1048666
L2_total_cache_misses = 524294
L2_total_cache_miss_rate = 0.5000
L2_total_cache_pending_hits = 18
L2_total_cache_reservation_fails = 4913
L2_total_cache_breakdown:
	L2_cache_stats_breakdown[GLOBAL_ACC_R][MISS] = 524288
	L2_cache_stats_breakdown[GLOBAL_ACC_R][RESERVATION_FAIL] = 4362
	L2_cache_stats_breakdown[CONST_ACC_R][HIT] = 11
	L2_cache_stats_breakdown[CONST_ACC_R][HIT_RESERVED] = 3
	L2_cache_stats_breakdown[CONST_ACC_R][MISS] = 1
	L2_cache_stats_breakdown[CONST_ACC_R][RESERVATION_FAIL] = 100
	L2_cache_stats_breakdown[GLOBAL_ACC_W][HIT] = 524288
	L2_cache_stats_breakdown[INST_ACC_R][HIT] = 55
	L2_cache_stats_breakdown[INST_ACC_R][HIT_RESERVED] = 15
	L2_cache_stats_breakdown[INST_ACC_R][MISS] = 5
	L2_cache_stats_breakdown[INST_ACC_R][RESERVATION_FAIL] = 451
L2_cache_data_port_util = 0.496
L2_cache_fill_port_util = 0.249

icnt_total_pkts_mem_to_simt=3146148
icnt_total_pkts_simt_to_mem=3145818
LD_mem_lat_dist  0 0 0 0 0 0 0 0 0 0 0 0 0 0 0 0 0 0 0 0 0 0 0 0 0 0 0
ST_mem_lat_dist  0 0 0 0 0 0 0 0 0 0 0 0 0 0 0 0 0 0 0 0 0 0 0 0 0 0 0
----------------------------Interconnect-DETAILS--------------------------------
Class 0:
Packet latency average = 25.6011
	minimum = 6
	maximum = 257
Network latency average = 18.1689
	minimum = 6
	maximum = 244
Slowest packet = 1052275
Flit latency average = 14.9289
	minimum = 6
	maximum = 240
Slowest flit = 3156621
Fragmentation average = 0.00314426
	minimum = 0
	maximum = 162
Injected packet rate average = 0.11088
	minimum = 0.0972092 (at node 13)
	maximum = 0.124743 (at node 16)
Accepted packet rate average = 0.11088
	minimum = 0.0972092 (at node 13)
	maximum = 0.124743 (at node 16)
Injected flit rate average = 0.332639
	minimum = 0.291628 (at node 13)
	maximum = 0.37423 (at node 16)
Accepted flit rate average= 0.332639
	minimum = 0.291628 (at node 13)
	maximum = 0.37423 (at node 16)
Injected packet length average = 3
Accepted packet length average = 3
Total in-flight flits = 0 (0 measured)
====== Overall Traffic Statistics ======
====== Traffic class 0 ======
Packet latency average = 25.6446 (2 samples)
	minimum = 6 (2 samples)
	maximum = 276 (2 samples)
Network latency average = 18.1946 (2 samples)
	minimum = 6 (2 samples)
	maximum = 267 (2 samples)
Flit latency average = 14.9553 (2 samples)
	minimum = 6 (2 samples)
	maximum = 263 (2 samples)
Fragmentation average = 0.00360883 (2 samples)
	minimum = 0 (2 samples)
	maximum = 162.5 (2 samples)
Injected packet rate average = 0.110853 (2 samples)
	minimum = 0.0967295 (2 samples)
	maximum = 0.124745 (2 samples)
Accepted packet rate average = 0.110853 (2 samples)
	minimum = 0.0967295 (2 samples)
	maximum = 0.124745 (2 samples)
Injected flit rate average = 0.332557 (2 samples)
	minimum = 0.290171 (2 samples)
	maximum = 0.374322 (2 samples)
Accepted flit rate average = 0.332557 (2 samples)
	minimum = 0.290203 (2 samples)
	maximum = 0.374151 (2 samples)
Injected packet size average = 2.99999 (2 samples)
Accepted packet size average = 2.99999 (2 samples)
Hops average = 1 (2 samples)
