

        *** GPGPU-Sim Simulator Version 3.2.2  [build 0] ***


GPGPU-Sim PTX: simulation mode 0 (can change with PTX_SIM_MODE_FUNC environment variable:
               1=functional simulation only, 0=detailed performance simulator)
GPGPU-Sim: Configuration options:

-network_mode                           1 # Interconnection network mode
-inter_config_file   config_fermi_islip.icnt # Interconnection network config file
-gpgpu_ptx_use_cuobjdump                    1 # Use cuobjdump to extract ptx and sass from binaries
-gpgpu_experimental_lib_support                    0 # Try to extract code from cuda libraries [Broken because of unknown cudaGetExportTable]
-gpgpu_ptx_convert_to_ptxplus                    0 # Convert SASS (native ISA) to ptxplus and run ptxplus
-gpgpu_ptx_force_max_capability                   20 # Force maximum compute capability
-gpgpu_ptx_inst_debug_to_file                    0 # Dump executed instructions' debug information to file
-gpgpu_ptx_inst_debug_file       inst_debug.txt # Executed instructions' debug output file
-gpgpu_ptx_inst_debug_thread_uid                    1 # Thread UID for executed instructions' debug output
-gpgpu_simd_model                       1 # 1 = post-dominator
-gpgpu_shader_core_pipeline              1536:32 # shader core pipeline config, i.e., {<nthread>:<warpsize>}
-gpgpu_tex_cache:l1  4:128:24,L:R:m:N:L,F:128:4,128:2 # per-shader L1 texture cache  (READ-ONLY) config  {<nsets>:<bsize>:<assoc>,<rep>:<wr>:<alloc>:<wr_alloc>,<mshr>:<N>:<merge>,<mq>:<rf>}
-gpgpu_const_cache:l1 64:64:2,L:R:f:N:L,A:2:32,4 # per-shader L1 constant memory cache  (READ-ONLY) config  {<nsets>:<bsize>:<assoc>,<rep>:<wr>:<alloc>:<wr_alloc>,<mshr>:<N>:<merge>,<mq>} 
-gpgpu_cache:il1     4:128:4,L:R:f:N:L,A:2:32,4 # shader L1 instruction cache config  {<nsets>:<bsize>:<assoc>,<rep>:<wr>:<alloc>:<wr_alloc>,<mshr>:<N>:<merge>,<mq>} 
-gpgpu_cache:dl1     32:128:4,L:L:m:N:H,A:32:8,8:2,0,1:0:1:1:0:1,1:4:8:16:32:64,/sciclone/data10/hwang07/GPU_RESEARCH/swl/swl_outputs/RESULTS/swl1/ # per-shader L1 data cache config  {<nsets>:<bsize>:<assoc>,<rep>:<wr>:<alloc>:<wr_alloc>,<mshr>:<N>:<merge>,<mq> | none}
-gpgpu_cache:dl1PrefL1                 none # per-shader L1 data cache config  {<nsets>:<bsize>:<assoc>,<rep>:<wr>:<alloc>:<wr_alloc>,<mshr>:<N>:<merge>,<mq> | none}
-gpgpu_cache:dl1PreShared                 none # per-shader L1 data cache config  {<nsets>:<bsize>:<assoc>,<rep>:<wr>:<alloc>:<wr_alloc>,<mshr>:<N>:<merge>,<mq> | none}
-gmem_skip_L1D                          0 # global memory access skip L1D cache (implements -Xptxas -dlcm=cg, default=no skip)
-gpgpu_perfect_mem                      0 # enable perfect memory mode (no cache miss)
-n_regfile_gating_group                    4 # group of lanes that should be read/written together)
-gpgpu_clock_gated_reg_file                    0 # enable clock gated reg file for power calculations
-gpgpu_clock_gated_lanes                    0 # enable clock gated lanes for power calculations
-gpgpu_shader_registers                32768 # Number of registers per shader core. Limits number of concurrent CTAs. (default 8192)
-gpgpu_shader_cta                       8 # Maximum number of concurrent CTAs in shader (default 8)
-gpgpu_num_cta_barriers                   16 # Maximum number of named barriers per CTA (default 16)
-gpgpu_n_clusters                      15 # number of processing clusters
-gpgpu_n_cores_per_cluster                    1 # number of simd cores per cluster
-gpgpu_n_cluster_ejection_buffer_size                    8 # number of packets in ejection buffer
-gpgpu_n_ldst_response_buffer_size                    2 # number of response packets in ld/st unit ejection buffer
-gpgpu_shmem_size                   16384 # Size of shared memory per shader core (default 16kB)
-gpgpu_shmem_size                   49152 # Size of shared memory per shader core (default 16kB)
-gpgpu_shmem_size_PrefL1                16384 # Size of shared memory per shader core (default 16kB)
-gpgpu_shmem_size_PrefShared                16384 # Size of shared memory per shader core (default 16kB)
-gpgpu_shmem_num_banks                   32 # Number of banks in the shared memory in each shader core (default 16)
-gpgpu_shmem_limited_broadcast                    0 # Limit shared memory to do one broadcast per cycle (default on)
-gpgpu_shmem_warp_parts                    1 # Number of portions a warp is divided into for shared memory bank conflict check 
-gpgpu_warpdistro_shader                   -1 # Specify which shader core to collect the warp size distribution from
-gpgpu_warp_issue_shader                    0 # Specify which shader core to collect the warp issue distribution from
-gpgpu_local_mem_map                    1 # Mapping from local memory space address to simulated GPU physical address space (default = enabled)
-gpgpu_num_reg_banks                   16 # Number of register banks (default = 8)
-gpgpu_reg_bank_use_warp_id                    0 # Use warp ID in mapping registers to banks (default = off)
-gpgpu_operand_collector_num_units_sp                    6 # number of collector units (default = 4)
-gpgpu_operand_collector_num_units_sfu                    8 # number of collector units (default = 4)
-gpgpu_operand_collector_num_units_mem                    2 # number of collector units (default = 2)
-gpgpu_operand_collector_num_units_gen                    0 # number of collector units (default = 0)
-gpgpu_operand_collector_num_in_ports_sp                    2 # number of collector unit in ports (default = 1)
-gpgpu_operand_collector_num_in_ports_sfu                    1 # number of collector unit in ports (default = 1)
-gpgpu_operand_collector_num_in_ports_mem                    1 # number of collector unit in ports (default = 1)
-gpgpu_operand_collector_num_in_ports_gen                    0 # number of collector unit in ports (default = 0)
-gpgpu_operand_collector_num_out_ports_sp                    2 # number of collector unit in ports (default = 1)
-gpgpu_operand_collector_num_out_ports_sfu                    1 # number of collector unit in ports (default = 1)
-gpgpu_operand_collector_num_out_ports_mem                    1 # number of collector unit in ports (default = 1)
-gpgpu_operand_collector_num_out_ports_gen                    0 # number of collector unit in ports (default = 0)
-gpgpu_coalesce_arch                   13 # Coalescing arch (default = 13, anything else is off for now)
-gpgpu_num_sched_per_core                    2 # Number of warp schedulers per core
-gpgpu_max_insn_issue_per_warp                    1 # Max number of instructions that can be issued per warp in one cycle by scheduler
-gpgpu_simt_core_sim_order                    1 # Select the simulation order of cores in a cluster (0=Fix, 1=Round-Robin)
-gpgpu_pipeline_widths        2,1,1,2,1,1,2 # Pipeline widths ID_OC_SP,ID_OC_SFU,ID_OC_MEM,OC_EX_SP,OC_EX_SFU,OC_EX_MEM,EX_WB
-gpgpu_num_sp_units                     2 # Number of SP units (default=1)
-gpgpu_num_sfu_units                    1 # Number of SF units (default=1)
-gpgpu_num_mem_units                    1 # Number if ldst units (default=1) WARNING: not hooked up to anything
-gpgpu_scheduler        warp_limiting:2:1 # Scheduler configuration: < lrr | gto | two_level_active > If two_level_active:<num_active_warps>:<inner_prioritization>:<outer_prioritization>For complete list of prioritization values see shader.h enum scheduler_prioritization_typeDefault: gto
-gpgpu_dram_scheduler                    1 # 0 = fifo, 1 = FR-FCFS (defaul)
-gpgpu_dram_partition_queues              8:8:8:8 # i2$:$2d:d2$:$2i
-l2_ideal                               0 # Use a ideal L2 cache that always hit
-gpgpu_cache:dl2     64:128:8,L:B:m:W:L,A:32:4,4:0,32 # unified banked L2 data cache config  {<nsets>:<bsize>:<assoc>,<rep>:<wr>:<alloc>:<wr_alloc>,<mshr>:<N>:<merge>,<mq>}
-gpgpu_cache:dl2_texture_only                    0 # L2 cache used for texture only
-gpgpu_n_mem                            6 # number of memory modules (e.g. memory controllers) in gpu
-gpgpu_n_sub_partition_per_mchannel                    2 # number of memory subpartition in each memory module
-gpgpu_n_mem_per_ctrlr                    2 # number of memory chips per memory controller
-gpgpu_memlatency_stat                   14 # track and display latency statistics 0x2 enables MC, 0x4 enables queue logs
-gpgpu_frfcfs_dram_sched_queue_size                   16 # 0 = unlimited (default); # entries per chip
-gpgpu_dram_return_queue_size                  116 # 0 = unlimited (default); # entries per chip
-gpgpu_dram_buswidth                    4 # default = 4 bytes (8 bytes per cycle at DDR)
-gpgpu_dram_burst_length                    8 # Burst length of each DRAM request (default = 4 data bus cycle)
-dram_data_command_freq_ratio                    4 # Frequency ratio between DRAM data bus and command bus (default = 2 times, i.e. DDR)
-gpgpu_dram_timing_opt nbk=16:CCD=2:RRD=6:RCD=12:RAS=28:RP=12:RC=40: CL=12:WL=4:CDLR=5:WR=12:nbkgrp=4:CCDL=3:RTPL=2 # DRAM timing parameters = {nbk:tCCD:tRRD:tRCD:tRAS:tRP:tRC:CL:WL:tCDLR:tWR:nbkgrp:tCCDL:tRTPL}
-rop_latency                          120 # ROP queue latency (default 85)
-dram_latency                         100 # DRAM latency (default 30)
-gpgpu_mem_addr_mapping dramid@8;00000000.00000000.00000000.00000000.0000RRRR.RRRRRRRR.BBBCCCCB.CCSSSSSS # mapping memory address to dram model {dramid@<start bit>;<memory address map>}
-gpgpu_mem_addr_test                    0 # run sweep test to check address mapping for aliased address
-gpgpu_mem_address_mask                    1 # 0 = old addressing mask, 1 = new addressing mask, 2 = new add. mask + flipped bank sel and chip sel bits
-gpuwattch_xml_file  gpuwattch_gtx480.xml # GPUWattch XML file
-power_simulation_enabled                    0 # Turn on power simulator (1=On, 0=Off)
-power_per_cycle_dump                    0 # Dump detailed power output each cycle
-power_trace_enabled                    0 # produce a file for the power trace (1=On, 0=Off)
-power_trace_zlevel                     6 # Compression level of the power trace output log (0=no comp, 9=highest)
-steady_power_levels_enabled                    0 # produce a file for the steady power levels (1=On, 0=Off)
-steady_state_definition                  8:4 # allowed deviation:number of samples
-gpgpu_max_cycle                        0 # terminates gpu simulation early (0 = no limit)
-gpgpu_max_insn                         0 # terminates gpu simulation early (0 = no limit)
-gpgpu_max_cta                          0 # terminates gpu simulation early (0 = no limit)
-gpgpu_runtime_stat                   500 # display runtime statistics such as dram utilization {<freq>:<flag>}
-liveness_message_freq                    1 # Minimum number of seconds between simulation liveness messages (0 = always print)
-gpgpu_flush_l1_cache                    0 # Flush L1 cache at the end of each kernel call
-gpgpu_flush_l2_cache                    0 # Flush L2 cache at the end of each kernel call
-gpgpu_deadlock_detect                    1 # Stop the simulation at deadlock (1=on (default), 0=off)
-gpgpu_ptx_instruction_classification                    0 # if enabled will classify ptx instruction types per kernel (Max 255 kernels now)
-gpgpu_ptx_sim_mode                     0 # Select between Performance (default) or Functional simulation (1)
-gpgpu_clock_domains 700.0:700.0:700.0:924.0 # Clock Domain Frequencies in MhZ {<Core Clock>:<ICNT Clock>:<L2 Clock>:<DRAM Clock>}
-gpgpu_max_concurrent_kernel                    8 # maximum kernels that can run concurrently on GPU
-gpgpu_cflog_interval                    0 # Interval between each snapshot in control flow logger
-visualizer_enabled                     0 # Turn on visualizer output (1=On, 0=Off)
-visualizer_outputfile                 NULL # Specifies the output log file for visualizer
-visualizer_zlevel                      6 # Compression level of the visualizer output log (0=no comp, 9=highest)
-trace_enabled                          0 # Turn on traces
-trace_components                    none # comma seperated list of traces to enable. Complete list found in trace_streams.tup. Default none
-trace_sampling_core                    0 # The core which is printed using CORE_DPRINTF. Default 0
-trace_sampling_memory_partition                   -1 # The memory partition which is printed using MEMPART_DPRINTF. Default -1 (i.e. all)
-enable_ptx_file_line_stats                    1 # Turn on PTX source line statistic profiling. (1 = On)
-ptx_line_stats_filename gpgpu_inst_stats.txt # Output file for PTX source line statistics.
-save_embedded_ptx                      0 # saves ptx files embedded in binary as <n>.ptx
-keep                                   0 # keep intermediate files created by GPGPU-Sim when interfacing with external programs
-gpgpu_ptx_save_converted_ptxplus                    0 # Saved converted ptxplus to a file
-ptx_opcode_latency_int         4,13,4,5,145 # Opcode latencies for integers <ADD,MAX,MUL,MAD,DIV>Default 1,1,19,25,145
-ptx_opcode_latency_fp          4,13,4,5,39 # Opcode latencies for single precision floating points <ADD,MAX,MUL,MAD,DIV>Default 1,1,1,1,30
-ptx_opcode_latency_dp         8,19,8,8,330 # Opcode latencies for double precision floating points <ADD,MAX,MUL,MAD,DIV>Default 8,8,8,8,335
-ptx_opcode_initiation_int            1,2,2,1,8 # Opcode initiation intervals for integers <ADD,MAX,MUL,MAD,DIV>Default 1,1,4,4,32
-ptx_opcode_initiation_fp            1,2,1,1,4 # Opcode initiation intervals for single precision floating points <ADD,MAX,MUL,MAD,DIV>Default 1,1,1,1,5
-ptx_opcode_initiation_dp         8,16,8,8,130 # Opcode initiation intervals for double precision floating points <ADD,MAX,MUL,MAD,DIV>Default 8,8,8,8,130
DRAM Timing Options:
nbk                                    16 # number of banks
CCD                                     2 # column to column delay
RRD                                     6 # minimal delay between activation of rows in different banks
RCD                                    12 # row to column delay
RAS                                    28 # time needed to activate row
RP                                     12 # time needed to precharge (deactivate) row
RC                                     40 # row cycle time
CDLR                                    5 # switching from write to read (changes tWTR)
WR                                     12 # last data-in to row precharge
CL                                     12 # CAS latency
WL                                      4 # Write latency
nbkgrp                                  4 # number of bank groups
CCDL                                    3 # column to column delay between accesses to different bank groups
RTPL                                    2 # read to precharge delay between accesses to different bank groups
Total number of memory sub partition = 12
addr_dec_mask[CHIP]  = 0000000000000000 	high:64 low:0
addr_dec_mask[BK]    = 000000000000e100 	high:16 low:8
addr_dec_mask[ROW]   = 000000000fff0000 	high:28 low:16
addr_dec_mask[COL]   = 0000000000001eff 	high:13 low:0
addr_dec_mask[BURST] = 000000000000003f 	high:6 low:0
sub_partition_id_mask = 0000000000000100
GPGPU-Sim uArch: clock freqs: 700000000.000000:700000000.000000:700000000.000000:924000000.000000
GPGPU-Sim uArch: clock periods: 0.00000000142857142857:0.00000000142857142857:0.00000000142857142857:0.00000000108225108225
*** Initializing Memory Statistics ***
GPGPU-Sim uArch: interconnect node map (shaderID+MemID to icntID)
GPGPU-Sim uArch: Memory nodes ID start from index: 15
GPGPU-Sim uArch:    0   1   2   3   4
GPGPU-Sim uArch:    5   6   7   8   9
GPGPU-Sim uArch:   10  11  12  13  14
GPGPU-Sim uArch:   15  16  17  18  19
GPGPU-Sim uArch:   20  21  22  23  24
GPGPU-Sim uArch:   25  26
GPGPU-Sim uArch: interconnect node reverse map (icntID to shaderID+MemID)
GPGPU-Sim uArch: Memory nodes start from ID: 15
GPGPU-Sim uArch:    0   1   2   3   4
GPGPU-Sim uArch:    5   6   7   8   9
GPGPU-Sim uArch:   10  11  12  13  14
GPGPU-Sim uArch:   15  16  17  18  19
GPGPU-Sim uArch:   20  21  22  23  24
GPGPU-Sim uArch:   25  26
67265a35928c1e7333fb90cd2f70e437  /sciclone/data10/hwang07/adwait/applications/benchmarks/CUDA/STO/gpgpu_ptx_sim__STO
GPGPU-Sim uArch: performance model initialization complete.
GPGPU-Sim PTX: __cudaRegisterFatBinary, fat_cubin_handle = 1, filename=storeGPU.cu
self exe links to: /sciclone/data10/hwang07/adwait/applications/benchmarks/CUDA/STO/gpgpu_ptx_sim__STO
Running md5sum using "md5sum /sciclone/data10/hwang07/adwait/applications/benchmarks/CUDA/STO/gpgpu_ptx_sim__STO "
Parsing file _cuobjdump_complete_output_nhpb6D
######### cuobjdump parser ########
## Adding new section ELF
Adding arch: sm_20
Adding identifier: main.cu
## Adding new section PTX
Adding ptx filename: _cuobjdump_1.ptx
Adding arch: sm_20
Adding identifier: main.cu
## Adding new section ELF
Adding arch: sm_20
Adding identifier: storeGPU.cu
## Adding new section PTX
Adding ptx filename: _cuobjdump_2.ptx
Adding arch: sm_20
Adding identifier: storeGPU.cu
Done parsing!!!
GPGPU-Sim PTX: __cudaRegisterFunction _Z12sha1_overlapPhiiiiS_ : hostFun 0x0x40dfd2, fat_cubin_handle = 1
GPGPU-Sim PTX: allocating stack frame region for .param "__cudaretf__Z14macroRFunctioniPj" from 0x0 to 0x8
GPGPU-Sim PTX: allocating stack frame region for .param "__cudaparmf1__Z14macroRFunctioniPj" from 0x8 to 0xc
GPGPU-Sim PTX: allocating stack frame region for .param "__cudaparmf2__Z14macroRFunctioniPj" from 0xc to 0x14
GPGPU-Sim PTX: instruction assembly for function '_Z14macroRFunctioniPj'...   done.
GPGPU-Sim PTX: finding reconvergence points for '_Z14macroRFunctioniPj'...
GPGPU-Sim PTX: Finding dominators for '_Z14macroRFunctioniPj'...
GPGPU-Sim PTX: Finding immediate dominators for '_Z14macroRFunctioniPj'...
GPGPU-Sim PTX: Finding postdominators for '_Z14macroRFunctioniPj'...
GPGPU-Sim PTX: Finding immediate postdominators for '_Z14macroRFunctioniPj'...
GPGPU-Sim PTX: pre-decoding instructions for '_Z14macroRFunctioniPj'...
GPGPU-Sim PTX: reconvergence points for _Z14macroRFunctioniPj...
GPGPU-Sim PTX: ... end of reconvergence points for _Z14macroRFunctioniPj
GPGPU-Sim PTX: ... done pre-decoding instructions for '_Z14macroRFunctioniPj'.
GPGPU-Sim PTX: allocating shared region for "__cuda___cuda_local_var_34843_40_non_const_sharedMemory32" from 0x0 to 0x3f80 (shared memory space)
GPGPU-Sim PTX: instruction assembly for function '_Z3md5PhiiiS_'...   done.
GPGPU-Sim PTX: finding reconvergence points for '_Z3md5PhiiiS_'...
GPGPU-Sim PTX: Finding dominators for '_Z3md5PhiiiS_'...
GPGPU-Sim PTX: Finding immediate dominators for '_Z3md5PhiiiS_'...
GPGPU-Sim PTX: Finding postdominators for '_Z3md5PhiiiS_'...
GPGPU-Sim PTX: Finding immediate postdominators for '_Z3md5PhiiiS_'...
GPGPU-Sim PTX: pre-decoding instructions for '_Z3md5PhiiiS_'...
GPGPU-Sim PTX: reconvergence points for _Z3md5PhiiiS_...
GPGPU-Sim PTX:  1 (potential) branch divergence @  PC=0x190 (_1.ptx:127) @%p1 bra $Lt_1_4866;
GPGPU-Sim PTX:    immediate post dominator      @  PC=0x21f0 (_1.ptx:1283) exit;
GPGPU-Sim PTX:  2 (potential) branch divergence @  PC=0x198 (_1.ptx:128) bra.uni $LBB20__Z3md5PhiiiS_;
GPGPU-Sim PTX:    immediate post dominator      @  PC=0x21f0 (_1.ptx:1283) exit;
GPGPU-Sim PTX:  3 (potential) branch divergence @  PC=0x1f0 (_1.ptx:141) @%p3 bra $Lt_1_5634;
GPGPU-Sim PTX:    immediate post dominator      @  PC=0x290 (_1.ptx:167) shr.s32 %r23, %r15, 31;
GPGPU-Sim PTX:  4 (potential) branch divergence @  PC=0x200 (_1.ptx:143) @!%p2 bra $Lt_1_5378;
GPGPU-Sim PTX:    immediate post dominator      @  PC=0x290 (_1.ptx:167) shr.s32 %r23, %r15, 31;
GPGPU-Sim PTX:  5 (potential) branch divergence @  PC=0x278 (_1.ptx:161) @%p4 bra $Lt_1_6402;
GPGPU-Sim PTX:    immediate post dominator      @  PC=0x280 (_1.ptx:162) bra.uni $Lt_1_5378;
GPGPU-Sim PTX:  6 (potential) branch divergence @  PC=0x280 (_1.ptx:162) bra.uni $Lt_1_5378;
GPGPU-Sim PTX:    immediate post dominator      @  PC=0x290 (_1.ptx:167) shr.s32 %r23, %r15, 31;
GPGPU-Sim PTX:  7 (potential) branch divergence @  PC=0x2d0 (_1.ptx:175) @%p5 bra $Lt_1_8706;
GPGPU-Sim PTX:    immediate post dominator      @  PC=0x2198 (_1.ptx:1270) mul.lo.s32 %r234, %r5, 4;
GPGPU-Sim PTX:  8 (potential) branch divergence @  PC=0x4e8 (_1.ptx:257) @%p6 bra $Lt_1_7938;
GPGPU-Sim PTX:    immediate post dominator      @  PC=0x560 (_1.ptx:281) ld.shared.u8 %r69, [%rd20+0];
GPGPU-Sim PTX:  9 (potential) branch divergence @  PC=0x520 (_1.ptx:267) bra.uni $Lt_1_7682;
GPGPU-Sim PTX:    immediate post dominator      @  PC=0x560 (_1.ptx:281) ld.shared.u8 %r69, [%rd20+0];
GPGPU-Sim PTX: 10 (potential) branch divergence @  PC=0x2180 (_1.ptx:1264) @%p7 bra $Lt_1_7426;
GPGPU-Sim PTX:    immediate post dominator      @  PC=0x2188 (_1.ptx:1265) bra.uni $Lt_1_6914;
GPGPU-Sim PTX: 11 (potential) branch divergence @  PC=0x2188 (_1.ptx:1265) bra.uni $Lt_1_6914;
GPGPU-Sim PTX:    immediate post dominator      @  PC=0x2198 (_1.ptx:1270) mul.lo.s32 %r234, %r5, 4;
GPGPU-Sim PTX: ... end of reconvergence points for _Z3md5PhiiiS_
GPGPU-Sim PTX: ... done pre-decoding instructions for '_Z3md5PhiiiS_'.
GPGPU-Sim PTX: allocating shared region for "__cuda___cuda_local_var_34878_40_non_const_sharedMemory16320" from 0x0 to 0x3f80 (shared memory space)
GPGPU-Sim PTX: instruction assembly for function '_Z11md5_overlapPhiiiiS_'...   done.
GPGPU-Sim PTX: finding reconvergence points for '_Z11md5_overlapPhiiiiS_'...
GPGPU-Sim PTX: Finding dominators for '_Z11md5_overlapPhiiiiS_'...
GPGPU-Sim PTX: Finding immediate dominators for '_Z11md5_overlapPhiiiiS_'...
GPGPU-Sim PTX: Finding postdominators for '_Z11md5_overlapPhiiiiS_'...
GPGPU-Sim PTX: Finding immediate postdominators for '_Z11md5_overlapPhiiiiS_'...
GPGPU-Sim PTX: pre-decoding instructions for '_Z11md5_overlapPhiiiiS_'...
GPGPU-Sim PTX: reconvergence points for _Z11md5_overlapPhiiiiS_...
GPGPU-Sim PTX:  1 (potential) branch divergence @  PC=0x2230 (_1.ptx:1308) @%p1 bra $Lt_2_5634;
GPGPU-Sim PTX:    immediate post dominator      @  PC=0x43e8 (_1.ptx:2510) exit;
GPGPU-Sim PTX:  2 (potential) branch divergence @  PC=0x2238 (_1.ptx:1309) bra.uni $LBB23__Z11md5_overlapPhiiiiS_;
GPGPU-Sim PTX:    immediate post dominator      @  PC=0x43e8 (_1.ptx:2510) exit;
GPGPU-Sim PTX:  3 (potential) branch divergence @  PC=0x22b0 (_1.ptx:1326) @%p3 bra $Lt_2_9730;
GPGPU-Sim PTX:    immediate post dominator      @  PC=0x4390 (_1.ptx:2497) mul.lo.s32 %r260, %r5, 4;
GPGPU-Sim PTX:  4 (potential) branch divergence @  PC=0x2440 (_1.ptx:1378) @%p4 bra $Lt_2_7170;
GPGPU-Sim PTX:    immediate post dominator      @  PC=0x2768 (_1.ptx:1510) ld.shared.u8 %r95, [%rd15+0];
GPGPU-Sim PTX:  5 (potential) branch divergence @  PC=0x2488 (_1.ptx:1387) @%p5 bra $Lt_2_9986;
GPGPU-Sim PTX:    immediate post dominator      @  PC=0x2520 (_1.ptx:1411) mov.s32 %r62, 13;
GPGPU-Sim PTX:  6 (potential) branch divergence @  PC=0x2500 (_1.ptx:1405) @%p6 bra $Lt_2_7938;
GPGPU-Sim PTX:    immediate post dominator      @  PC=0x2508 (_1.ptx:1406) mov.s32 %r61, %r52;
GPGPU-Sim PTX:  7 (potential) branch divergence @  PC=0x2510 (_1.ptx:1407) bra.uni $Lt_2_7426;
GPGPU-Sim PTX:    immediate post dominator      @  PC=0x2520 (_1.ptx:1411) mov.s32 %r62, 13;
GPGPU-Sim PTX:  8 (potential) branch divergence @  PC=0x2540 (_1.ptx:1415) @%p7 bra $Lt_2_8450;
GPGPU-Sim PTX:    immediate post dominator      @  PC=0x25e0 (_1.ptx:1440) mov.u32 %r72, 128;
GPGPU-Sim PTX:  9 (potential) branch divergence @  PC=0x25d8 (_1.ptx:1437) @%p8 bra $Lt_2_8962;
GPGPU-Sim PTX:    immediate post dominator      @  PC=0x25e0 (_1.ptx:1440) mov.u32 %r72, 128;
GPGPU-Sim PTX: 10 (potential) branch divergence @  PC=0x2640 (_1.ptx:1454) bra.uni $Lt_2_6914;
GPGPU-Sim PTX:    immediate post dominator      @  PC=0x2768 (_1.ptx:1510) ld.shared.u8 %r95, [%rd15+0];
GPGPU-Sim PTX: 11 (potential) branch divergence @  PC=0x4378 (_1.ptx:2491) @%p9 bra $Lt_2_6658;
GPGPU-Sim PTX:    immediate post dominator      @  PC=0x4380 (_1.ptx:2492) bra.uni $Lt_2_6146;
GPGPU-Sim PTX: 12 (potential) branch divergence @  PC=0x4380 (_1.ptx:2492) bra.uni $Lt_2_6146;
GPGPU-Sim PTX:    immediate post dominator      @  PC=0x4390 (_1.ptx:2497) mul.lo.s32 %r260, %r5, 4;
GPGPU-Sim PTX: ... end of reconvergence points for _Z11md5_overlapPhiiiiS_
GPGPU-Sim PTX: ... done pre-decoding instructions for '_Z11md5_overlapPhiiiiS_'.
GPGPU-Sim PTX: allocating shared region for "__cuda___cuda_local_var_35732_40_non_const_sharedMemory32608" from 0x0 to 0x3f80 (shared memory space)
GPGPU-Sim PTX: instruction assembly for function '_Z4sha1PhiiiS_'...   done.
GPGPU-Sim PTX: finding reconvergence points for '_Z4sha1PhiiiS_'...
GPGPU-Sim PTX: Finding dominators for '_Z4sha1PhiiiS_'...
GPGPU-Sim PTX: Finding immediate dominators for '_Z4sha1PhiiiS_'...
GPGPU-Sim PTX: Finding postdominators for '_Z4sha1PhiiiS_'...
GPGPU-Sim PTX: Finding immediate postdominators for '_Z4sha1PhiiiS_'...
GPGPU-Sim PTX: pre-decoding instructions for '_Z4sha1PhiiiS_'...
GPGPU-Sim PTX: reconvergence points for _Z4sha1PhiiiS_...
GPGPU-Sim PTX:  1 (potential) branch divergence @  PC=0x4428 (_1.ptx:2534) @%p1 bra $Lt_3_4866;
GPGPU-Sim PTX:    immediate post dominator      @  PC=0x9018 (_1.ptx:5165) exit;
GPGPU-Sim PTX:  2 (potential) branch divergence @  PC=0x4430 (_1.ptx:2535) bra.uni $LBB20__Z4sha1PhiiiS_;
GPGPU-Sim PTX:    immediate post dominator      @  PC=0x9018 (_1.ptx:5165) exit;
GPGPU-Sim PTX:  3 (potential) branch divergence @  PC=0x4488 (_1.ptx:2548) @%p3 bra $Lt_3_5634;
GPGPU-Sim PTX:    immediate post dominator      @  PC=0x4528 (_1.ptx:2574) shr.u32 %r23, %r15, 6;
GPGPU-Sim PTX:  4 (potential) branch divergence @  PC=0x4498 (_1.ptx:2550) @!%p2 bra $Lt_3_5378;
GPGPU-Sim PTX:    immediate post dominator      @  PC=0x4528 (_1.ptx:2574) shr.u32 %r23, %r15, 6;
GPGPU-Sim PTX:  5 (potential) branch divergence @  PC=0x4510 (_1.ptx:2568) @%p4 bra $Lt_3_6402;
GPGPU-Sim PTX:    immediate post dominator      @  PC=0x4518 (_1.ptx:2569) bra.uni $Lt_3_5378;
GPGPU-Sim PTX:  6 (potential) branch divergence @  PC=0x4518 (_1.ptx:2569) bra.uni $Lt_3_5378;
GPGPU-Sim PTX:    immediate post dominator      @  PC=0x4528 (_1.ptx:2574) shr.u32 %r23, %r15, 6;
GPGPU-Sim PTX:  7 (potential) branch divergence @  PC=0x4548 (_1.ptx:2578) @%p5 bra $Lt_3_8706;
GPGPU-Sim PTX:    immediate post dominator      @  PC=0x8fc0 (_1.ptx:5152) mul.lo.s32 %r748, %r5, 4;
GPGPU-Sim PTX:  8 (potential) branch divergence @  PC=0x4730 (_1.ptx:2654) @%p6 bra $Lt_3_7938;
GPGPU-Sim PTX:    immediate post dominator      @  PC=0x4820 (_1.ptx:2693) ld.shared.u8 %r69, [%rd21+3];
GPGPU-Sim PTX:  9 (potential) branch divergence @  PC=0x47e0 (_1.ptx:2679) bra.uni $Lt_3_7682;
GPGPU-Sim PTX:    immediate post dominator      @  PC=0x4820 (_1.ptx:2693) ld.shared.u8 %r69, [%rd21+3];
GPGPU-Sim PTX: 10 (potential) branch divergence @  PC=0x8fa8 (_1.ptx:5146) @%p7 bra $Lt_3_7426;
GPGPU-Sim PTX:    immediate post dominator      @  PC=0x8fb0 (_1.ptx:5147) bra.uni $Lt_3_6914;
GPGPU-Sim PTX: 11 (potential) branch divergence @  PC=0x8fb0 (_1.ptx:5147) bra.uni $Lt_3_6914;
GPGPU-Sim PTX:    immediate post dominator      @  PC=0x8fc0 (_1.ptx:5152) mul.lo.s32 %r748, %r5, 4;
GPGPU-Sim PTX: ... end of reconvergence points for _Z4sha1PhiiiS_
GPGPU-Sim PTX: ... done pre-decoding instructions for '_Z4sha1PhiiiS_'.
GPGPU-Sim PTX: allocating shared region for "__cuda___cuda_local_var_35764_40_non_const_sharedMemory48896" from 0x0 to 0x3f80 (shared memory space)
GPGPU-Sim PTX: instruction assembly for function '_Z12sha1_overlapPhiiiiS_'...   done.
GPGPU-Sim PTX: finding reconvergence points for '_Z12sha1_overlapPhiiiiS_'...
GPGPU-Sim PTX: Finding dominators for '_Z12sha1_overlapPhiiiiS_'...
GPGPU-Sim PTX: Finding immediate dominators for '_Z12sha1_overlapPhiiiiS_'...
GPGPU-Sim PTX: Finding postdominators for '_Z12sha1_overlapPhiiiiS_'...
GPGPU-Sim PTX: Finding immediate postdominators for '_Z12sha1_overlapPhiiiiS_'...
GPGPU-Sim PTX: pre-decoding instructions for '_Z12sha1_overlapPhiiiiS_'...
GPGPU-Sim PTX: reconvergence points for _Z12sha1_overlapPhiiiiS_...
GPGPU-Sim PTX:  1 (potential) branch divergence @  PC=0x9058 (_1.ptx:5190) @%p1 bra $Lt_4_5634;
GPGPU-Sim PTX:    immediate post dominator      @  PC=0xde28 (_1.ptx:7884) exit;
GPGPU-Sim PTX:  2 (potential) branch divergence @  PC=0x9060 (_1.ptx:5191) bra.uni $LBB23__Z12sha1_overlapPhiiiiS_;
GPGPU-Sim PTX:    immediate post dominator      @  PC=0xde28 (_1.ptx:7884) exit;
GPGPU-Sim PTX:  3 (potential) branch divergence @  PC=0x90b8 (_1.ptx:5204) @%p3 bra $Lt_4_9730;
GPGPU-Sim PTX:    immediate post dominator      @  PC=0xddd0 (_1.ptx:7871) mul.lo.s32 %r783, %r5, 4;
GPGPU-Sim PTX:  4 (potential) branch divergence @  PC=0x9288 (_1.ptx:5264) @%p4 bra $Lt_4_7170;
GPGPU-Sim PTX:    immediate post dominator      @  PC=0x9628 (_1.ptx:5411) ld.shared.u8 %r101, [%rd15+3];
GPGPU-Sim PTX:  5 (potential) branch divergence @  PC=0x92d0 (_1.ptx:5273) @%p5 bra $Lt_4_9986;
GPGPU-Sim PTX:    immediate post dominator      @  PC=0x9368 (_1.ptx:5297) mov.s32 %r59, 13;
GPGPU-Sim PTX:  6 (potential) branch divergence @  PC=0x9348 (_1.ptx:5291) @%p6 bra $Lt_4_7938;
GPGPU-Sim PTX:    immediate post dominator      @  PC=0x9350 (_1.ptx:5292) mov.s32 %r58, %r49;
GPGPU-Sim PTX:  7 (potential) branch divergence @  PC=0x9358 (_1.ptx:5293) bra.uni $Lt_4_7426;
GPGPU-Sim PTX:    immediate post dominator      @  PC=0x9368 (_1.ptx:5297) mov.s32 %r59, 13;
GPGPU-Sim PTX:  8 (potential) branch divergence @  PC=0x9388 (_1.ptx:5301) @%p7 bra $Lt_4_8450;
GPGPU-Sim PTX:    immediate post dominator      @  PC=0x9428 (_1.ptx:5326) mov.u32 %r69, 128;
GPGPU-Sim PTX:  9 (potential) branch divergence @  PC=0x9420 (_1.ptx:5323) @%p8 bra $Lt_4_8962;
GPGPU-Sim PTX:    immediate post dominator      @  PC=0x9428 (_1.ptx:5326) mov.u32 %r69, 128;
GPGPU-Sim PTX: 10 (potential) branch divergence @  PC=0x9500 (_1.ptx:5355) bra.uni $Lt_4_6914;
GPGPU-Sim PTX:    immediate post dominator      @  PC=0x9628 (_1.ptx:5411) ld.shared.u8 %r101, [%rd15+3];
GPGPU-Sim PTX: 11 (potential) branch divergence @  PC=0xddb8 (_1.ptx:7865) @%p9 bra $Lt_4_6658;
GPGPU-Sim PTX:    immediate post dominator      @  PC=0xddc0 (_1.ptx:7866) bra.uni $Lt_4_6146;
GPGPU-Sim PTX: 12 (potential) branch divergence @  PC=0xddc0 (_1.ptx:7866) bra.uni $Lt_4_6146;
GPGPU-Sim PTX:    immediate post dominator      @  PC=0xddd0 (_1.ptx:7871) mul.lo.s32 %r783, %r5, 4;
GPGPU-Sim PTX: ... end of reconvergence points for _Z12sha1_overlapPhiiiiS_
GPGPU-Sim PTX: ... done pre-decoding instructions for '_Z12sha1_overlapPhiiiiS_'.
GPGPU-Sim PTX: allocating global region for "md5_padding" from 0x100 to 0x140 (global memory space)
GPGPU-Sim PTX: allocating global region for "sha1_padding" from 0x140 to 0x180 (global memory space)
GPGPU-Sim PTX: finished parsing EMBEDDED .ptx file _1.ptx
Adding _cuobjdump_2.ptx with cubin handle 1
GPGPU-Sim PTX: extracting embedded .ptx to temporary file "_ptx_bCFw06"
Running: cat _ptx_bCFw06 | sed 's/.version 1.5/.version 1.4/' | sed 's/, texmode_independent//' | sed 's/\(\.extern \.const\[1\] .b8 \w\+\)\[\]/\1\[1\]/' | sed 's/const\[.\]/const\[0\]/g' > _ptx2_NCTPnA
GPGPU-Sim PTX: generating ptxinfo using "$CUDA_INSTALL_PATH/bin/ptxas --gpu-name=sm_20 -v _ptx2_NCTPnA --output-file  /dev/null 2> _ptx_bCFw06info"
GPGPU-Sim PTX: Kernel '_Z12sha1_overlapPhiiiiS_' : regs=47, lmem=0, smem=16256, cmem=80
GPGPU-Sim PTX: Kernel '_Z4sha1PhiiiS_' : regs=45, lmem=0, smem=16256, cmem=80
GPGPU-Sim PTX: Kernel '_Z11md5_overlapPhiiiiS_' : regs=42, lmem=0, smem=16256, cmem=80
GPGPU-Sim PTX: Kernel '_Z3md5PhiiiS_' : regs=42, lmem=0, smem=16256, cmem=80
GPGPU-Sim PTX: removing ptxinfo using "rm -f _ptx_bCFw06 _ptx2_NCTPnA _ptx_bCFw06info"
GPGPU-Sim PTX: loading globals with explicit initializers... 
GPGPU-Sim PTX:     initializing 'md5_padding' ...  wrote 64 bytes
GPGPU-Sim PTX:     initializing 'sha1_padding' ...  wrote 64 bytes
GPGPU-Sim PTX: finished loading globals (128 bytes total).
GPGPU-Sim PTX: loading constants with explicit initializers...  done.
GPGPU-Sim PTX: __cudaRegisterFunction _Z4sha1PhiiiS_ : hostFun 0x0x40de87, fat_cubin_handle = 1
GPGPU-Sim PTX: __cudaRegisterFunction _Z11md5_overlapPhiiiiS_ : hostFun 0x0x40dd5c, fat_cubin_handle = 1
GPGPU-Sim PTX: __cudaRegisterFunction _Z3md5PhiiiS_ : hostFun 0x0x40dc11, fat_cubin_handle = 1
GPGPU-Sim PTX: __cudaRegisterVar: hostVar = 0x668920; deviceAddress = md5_padding; deviceName = md5_padding
GPGPU-Sim PTX: __cudaRegisterVar: Registering const memory space of 64 bytes
GPGPU-Sim PTX registering global md5_padding hostVar to name mapping
GPGPU-Sim PTX: __cudaRegisterVar: hostVar = 0x668960; deviceAddress = sha1_padding; deviceName = sha1_padding
GPGPU-Sim PTX: __cudaRegisterVar: Registering const memory space of 64 bytes
GPGPU-Sim PTX registering global sha1_padding hostVar to name mapping
GPGPU-Sim PTX: __cudaRegisterFatBinary, fat_cubin_handle = 2, filename=main.cu
Shared Memory Enabled
Pinned Memory Enabled
Reduced Hash Size Enabled
Running SHA1 Overlap Test..
SHA1 Overlap Test


== GPU Execution Context ==
Threads       : 128
Blocks        : 384
Total Threads : 49152
Total size    : 196656
Chunk Size    : 52
Padding       : 0


GPGPU-Sim PTX: cudaLaunch for 0x0x40dfd2 (mode=performance simulation) on stream 0
GPGPU-Sim PTX: pushing kernel '_Z12sha1_overlapPhiiiiS_' to stream 0, gridDim= (384,1,1) blockDim = (128,1,1) 
kernel '_Z12sha1_overlapPhiiiiS_' transfer to GPU hardware scheduler
GPGPU-Sim uArch: Shader 1 bind to kernel 1 '_Z12sha1_overlapPhiiiiS_'
GPGPU-Sim uArch: CTA/core = 3, limited by: shmem
GPGPU-Sim uArch: core:  1, cta: 0 initialized @(1,0)
GPGPU-Sim uArch: Shader 2 bind to kernel 1 '_Z12sha1_overlapPhiiiiS_'
GPGPU-Sim uArch: core:  2, cta: 0 initialized @(1,0)
GPGPU-Sim uArch: Shader 3 bind to kernel 1 '_Z12sha1_overlapPhiiiiS_'
GPGPU-Sim uArch: core:  3, cta: 0 initialized @(1,0)
GPGPU-Sim uArch: Shader 4 bind to kernel 1 '_Z12sha1_overlapPhiiiiS_'
GPGPU-Sim uArch: core:  4, cta: 0 initialized @(1,0)
GPGPU-Sim uArch: Shader 5 bind to kernel 1 '_Z12sha1_overlapPhiiiiS_'
GPGPU-Sim uArch: core:  5, cta: 0 initialized @(1,0)
GPGPU-Sim uArch: Shader 6 bind to kernel 1 '_Z12sha1_overlapPhiiiiS_'
GPGPU-Sim uArch: core:  6, cta: 0 initialized @(1,0)
GPGPU-Sim uArch: Shader 7 bind to kernel 1 '_Z12sha1_overlapPhiiiiS_'
GPGPU-Sim uArch: core:  7, cta: 0 initialized @(1,0)
GPGPU-Sim uArch: Shader 8 bind to kernel 1 '_Z12sha1_overlapPhiiiiS_'
GPGPU-Sim uArch: core:  8, cta: 0 initialized @(1,0)
GPGPU-Sim uArch: Shader 9 bind to kernel 1 '_Z12sha1_overlapPhiiiiS_'
GPGPU-Sim uArch: core:  9, cta: 0 initialized @(1,0)
GPGPU-Sim uArch: Shader 10 bind to kernel 1 '_Z12sha1_overlapPhiiiiS_'
GPGPU-Sim uArch: core: 10, cta: 0 initialized @(1,0)
GPGPU-Sim uArch: Shader 11 bind to kernel 1 '_Z12sha1_overlapPhiiiiS_'
GPGPU-Sim uArch: core: 11, cta: 0 initialized @(1,0)
GPGPU-Sim uArch: Shader 12 bind to kernel 1 '_Z12sha1_overlapPhiiiiS_'
GPGPU-Sim uArch: core: 12, cta: 0 initialized @(1,0)
GPGPU-Sim uArch: Shader 13 bind to kernel 1 '_Z12sha1_overlapPhiiiiS_'
GPGPU-Sim uArch: core: 13, cta: 0 initialized @(1,0)
GPGPU-Sim uArch: Shader 14 bind to kernel 1 '_Z12sha1_overlapPhiiiiS_'
GPGPU-Sim uArch: core: 14, cta: 0 initialized @(1,0)
GPGPU-Sim uArch: Shader 0 bind to kernel 1 '_Z12sha1_overlapPhiiiiS_'
GPGPU-Sim uArch: core:  0, cta: 0 initialized @(1,0)
GPGPU-Sim uArch: core:  1, cta: 1 initialized @(2,0)
GPGPU-Sim uArch: core:  2, cta: 1 initialized @(2,0)
GPGPU-Sim uArch: core:  3, cta: 1 initialized @(2,0)
GPGPU-Sim uArch: core:  4, cta: 1 initialized @(2,0)
GPGPU-Sim uArch: core:  5, cta: 1 initialized @(2,0)
GPGPU-Sim uArch: core:  6, cta: 1 initialized @(2,0)
GPGPU-Sim uArch: core:  7, cta: 1 initialized @(2,0)
GPGPU-Sim uArch: core:  8, cta: 1 initialized @(2,0)
GPGPU-Sim uArch: core:  9, cta: 1 initialized @(2,0)
GPGPU-Sim uArch: core: 10, cta: 1 initialized @(2,0)
GPGPU-Sim uArch: core: 11, cta: 1 initialized @(2,0)
GPGPU-Sim uArch: core: 12, cta: 1 initialized @(2,0)
GPGPU-Sim uArch: core: 13, cta: 1 initialized @(2,0)
GPGPU-Sim uArch: core: 14, cta: 1 initialized @(2,0)
GPGPU-Sim uArch: core:  0, cta: 1 initialized @(2,0)
GPGPU-Sim uArch: core:  1, cta: 2 initialized @(3,0)
GPGPU-Sim uArch: core:  2, cta: 2 initialized @(3,0)
GPGPU-Sim uArch: core:  3, cta: 2 initialized @(3,0)
GPGPU-Sim uArch: core:  4, cta: 2 initialized @(3,0)
GPGPU-Sim uArch: core:  5, cta: 2 initialized @(3,0)
GPGPU-Sim uArch: core:  6, cta: 2 initialized @(3,0)
GPGPU-Sim uArch: core:  7, cta: 2 initialized @(3,0)
GPGPU-Sim uArch: core:  8, cta: 2 initialized @(3,0)
GPGPU-Sim uArch: core:  9, cta: 2 initialized @(3,0)
GPGPU-Sim uArch: core: 10, cta: 2 initialized @(3,0)
GPGPU-Sim uArch: core: 11, cta: 2 initialized @(3,0)
GPGPU-Sim uArch: core: 12, cta: 2 initialized @(3,0)
GPGPU-Sim uArch: core: 13, cta: 2 initialized @(3,0)
GPGPU-Sim uArch: core: 14, cta: 2 initialized @(3,0)
GPGPU-Sim uArch: core:  0, cta: 2 initialized @(3,0)
GPGPU-Sim uArch: cycles simulated: 500  inst.: 4800 (ipc= 9.6) sim_rate=800 (inst/sec) elapsed = 0:0:00:06 / Tue Mar 22 12:39:43 2016
GPGPU-Sim PTX: 100000 instructions simulated : ctaid=(11,0,0) tid=(31,0,0)
GPGPU-Sim uArch: cycles simulated: 3000  inst.: 97920 (ipc=32.6) sim_rate=13988 (inst/sec) elapsed = 0:0:00:07 / Tue Mar 22 12:39:44 2016
GPGPU-Sim PTX: 200000 instructions simulated : ctaid=(6,0,0) tid=(31,0,0)
GPGPU-Sim uArch: cycles simulated: 4000  inst.: 213312 (ipc=53.3) sim_rate=26664 (inst/sec) elapsed = 0:0:00:08 / Tue Mar 22 12:39:45 2016
GPGPU-Sim PTX: 300000 instructions simulated : ctaid=(14,0,0) tid=(31,0,0)
GPGPU-Sim uArch: cycles simulated: 8000  inst.: 388864 (ipc=48.6) sim_rate=43207 (inst/sec) elapsed = 0:0:00:09 / Tue Mar 22 12:39:46 2016
GPGPU-Sim PTX: 400000 instructions simulated : ctaid=(2,0,0) tid=(63,0,0)
GPGPU-Sim PTX: 500000 instructions simulated : ctaid=(8,0,0) tid=(63,0,0)
GPGPU-Sim uArch: cycles simulated: 12000  inst.: 563520 (ipc=47.0) sim_rate=56352 (inst/sec) elapsed = 0:0:00:10 / Tue Mar 22 12:39:47 2016
GPGPU-Sim PTX: 600000 instructions simulated : ctaid=(6,0,0) tid=(31,0,0)
GPGPU-Sim PTX: 700000 instructions simulated : ctaid=(6,0,0) tid=(63,0,0)
GPGPU-Sim uArch: cycles simulated: 16000  inst.: 747840 (ipc=46.7) sim_rate=67985 (inst/sec) elapsed = 0:0:00:11 / Tue Mar 22 12:39:48 2016
GPGPU-Sim PTX: 800000 instructions simulated : ctaid=(4,0,0) tid=(31,0,0)
GPGPU-Sim PTX: 900000 instructions simulated : ctaid=(7,0,0) tid=(31,0,0)
GPGPU-Sim uArch: cycles simulated: 20000  inst.: 929184 (ipc=46.5) sim_rate=77432 (inst/sec) elapsed = 0:0:00:12 / Tue Mar 22 12:39:49 2016
GPGPU-Sim PTX: 1000000 instructions simulated : ctaid=(7,0,0) tid=(31,0,0)
GPGPU-Sim PTX: 1100000 instructions simulated : ctaid=(10,0,0) tid=(31,0,0)
GPGPU-Sim uArch: cycles simulated: 24000  inst.: 1102432 (ipc=45.9) sim_rate=84802 (inst/sec) elapsed = 0:0:00:13 / Tue Mar 22 12:39:50 2016
GPGPU-Sim PTX: 1200000 instructions simulated : ctaid=(14,0,0) tid=(63,0,0)
GPGPU-Sim PTX: 1300000 instructions simulated : ctaid=(14,0,0) tid=(63,0,0)
GPGPU-Sim uArch: cycles simulated: 28500  inst.: 1314400 (ipc=46.1) sim_rate=93885 (inst/sec) elapsed = 0:0:00:14 / Tue Mar 22 12:39:51 2016
GPGPU-Sim PTX: 1400000 instructions simulated : ctaid=(4,0,0) tid=(31,0,0)
GPGPU-Sim uArch: cycles simulated: 32500  inst.: 1485248 (ipc=45.7) sim_rate=99016 (inst/sec) elapsed = 0:0:00:15 / Tue Mar 22 12:39:52 2016
GPGPU-Sim PTX: 1500000 instructions simulated : ctaid=(1,0,0) tid=(31,0,0)
GPGPU-Sim PTX: 1600000 instructions simulated : ctaid=(5,0,0) tid=(31,0,0)
GPGPU-Sim uArch: cycles simulated: 36500  inst.: 1669440 (ipc=45.7) sim_rate=104340 (inst/sec) elapsed = 0:0:00:16 / Tue Mar 22 12:39:53 2016
GPGPU-Sim PTX: 1700000 instructions simulated : ctaid=(13,0,0) tid=(31,0,0)
GPGPU-Sim PTX: 1800000 instructions simulated : ctaid=(14,0,0) tid=(63,0,0)
GPGPU-Sim uArch: cycles simulated: 40500  inst.: 1839584 (ipc=45.4) sim_rate=108210 (inst/sec) elapsed = 0:0:00:17 / Tue Mar 22 12:39:54 2016
GPGPU-Sim PTX: 1900000 instructions simulated : ctaid=(8,0,0) tid=(31,0,0)
GPGPU-Sim PTX: 2000000 instructions simulated : ctaid=(2,0,0) tid=(63,0,0)
GPGPU-Sim uArch: cycles simulated: 44000  inst.: 2000160 (ipc=45.5) sim_rate=111120 (inst/sec) elapsed = 0:0:00:18 / Tue Mar 22 12:39:55 2016
GPGPU-Sim PTX: 2100000 instructions simulated : ctaid=(13,0,0) tid=(31,0,0)
GPGPU-Sim uArch: cycles simulated: 48000  inst.: 2176512 (ipc=45.3) sim_rate=114553 (inst/sec) elapsed = 0:0:00:19 / Tue Mar 22 12:39:56 2016
GPGPU-Sim PTX: 2200000 instructions simulated : ctaid=(14,0,0) tid=(63,0,0)
GPGPU-Sim PTX: 2300000 instructions simulated : ctaid=(11,0,0) tid=(63,0,0)
GPGPU-Sim uArch: cycles simulated: 52000  inst.: 2360640 (ipc=45.4) sim_rate=118032 (inst/sec) elapsed = 0:0:00:20 / Tue Mar 22 12:39:57 2016
GPGPU-Sim PTX: 2400000 instructions simulated : ctaid=(9,0,0) tid=(31,0,0)
GPGPU-Sim PTX: 2500000 instructions simulated : ctaid=(8,0,0) tid=(95,0,0)
GPGPU-Sim uArch: cycles simulated: 56000  inst.: 2556224 (ipc=45.6) sim_rate=121724 (inst/sec) elapsed = 0:0:00:21 / Tue Mar 22 12:39:58 2016
GPGPU-Sim PTX: 2600000 instructions simulated : ctaid=(0,0,0) tid=(127,0,0)
GPGPU-Sim PTX: 2700000 instructions simulated : ctaid=(6,0,0) tid=(127,0,0)
GPGPU-Sim PTX: 2800000 instructions simulated : ctaid=(4,0,0) tid=(127,0,0)
GPGPU-Sim uArch: cycles simulated: 59500  inst.: 2849856 (ipc=47.9) sim_rate=129538 (inst/sec) elapsed = 0:0:00:22 / Tue Mar 22 12:39:59 2016
GPGPU-Sim PTX: 2900000 instructions simulated : ctaid=(6,0,0) tid=(127,0,0)
GPGPU-Sim PTX: 3000000 instructions simulated : ctaid=(6,0,0) tid=(127,0,0)
GPGPU-Sim uArch: cycles simulated: 63000  inst.: 3081664 (ipc=48.9) sim_rate=133985 (inst/sec) elapsed = 0:0:00:23 / Tue Mar 22 12:40:00 2016
GPGPU-Sim PTX: 3100000 instructions simulated : ctaid=(7,0,0) tid=(95,0,0)
GPGPU-Sim PTX: 3200000 instructions simulated : ctaid=(3,0,0) tid=(127,0,0)
GPGPU-Sim PTX: 3300000 instructions simulated : ctaid=(2,0,0) tid=(95,0,0)
GPGPU-Sim uArch: cycles simulated: 66500  inst.: 3322752 (ipc=50.0) sim_rate=138448 (inst/sec) elapsed = 0:0:00:24 / Tue Mar 22 12:40:01 2016
GPGPU-Sim PTX: 3400000 instructions simulated : ctaid=(5,0,0) tid=(127,0,0)
GPGPU-Sim PTX: 3500000 instructions simulated : ctaid=(6,0,0) tid=(95,0,0)
GPGPU-Sim uArch: cycles simulated: 70000  inst.: 3557536 (ipc=50.8) sim_rate=142301 (inst/sec) elapsed = 0:0:00:25 / Tue Mar 22 12:40:02 2016
GPGPU-Sim PTX: 3600000 instructions simulated : ctaid=(3,0,0) tid=(95,0,0)
GPGPU-Sim PTX: 3700000 instructions simulated : ctaid=(11,0,0) tid=(127,0,0)
GPGPU-Sim PTX: 3800000 instructions simulated : ctaid=(1,0,0) tid=(95,0,0)
GPGPU-Sim uArch: cycles simulated: 73500  inst.: 3800608 (ipc=51.7) sim_rate=146177 (inst/sec) elapsed = 0:0:00:26 / Tue Mar 22 12:40:03 2016
GPGPU-Sim PTX: 3900000 instructions simulated : ctaid=(2,0,0) tid=(95,0,0)
GPGPU-Sim PTX: 4000000 instructions simulated : ctaid=(7,0,0) tid=(95,0,0)
GPGPU-Sim uArch: cycles simulated: 77000  inst.: 4032992 (ipc=52.4) sim_rate=149370 (inst/sec) elapsed = 0:0:00:27 / Tue Mar 22 12:40:04 2016
GPGPU-Sim PTX: 4100000 instructions simulated : ctaid=(10,0,0) tid=(127,0,0)
GPGPU-Sim PTX: 4200000 instructions simulated : ctaid=(14,0,0) tid=(95,0,0)
GPGPU-Sim uArch: cycles simulated: 80500  inst.: 4270272 (ipc=53.0) sim_rate=152509 (inst/sec) elapsed = 0:0:00:28 / Tue Mar 22 12:40:05 2016
GPGPU-Sim PTX: 4300000 instructions simulated : ctaid=(12,0,0) tid=(127,0,0)
GPGPU-Sim PTX: 4400000 instructions simulated : ctaid=(14,0,0) tid=(95,0,0)
GPGPU-Sim uArch: cycles simulated: 83500  inst.: 4473760 (ipc=53.6) sim_rate=154267 (inst/sec) elapsed = 0:0:00:29 / Tue Mar 22 12:40:06 2016
GPGPU-Sim PTX: 4500000 instructions simulated : ctaid=(9,0,0) tid=(127,0,0)
GPGPU-Sim PTX: 4600000 instructions simulated : ctaid=(14,0,0) tid=(95,0,0)
GPGPU-Sim PTX: 4700000 instructions simulated : ctaid=(9,0,0) tid=(127,0,0)
GPGPU-Sim uArch: cycles simulated: 87000  inst.: 4709120 (ipc=54.1) sim_rate=156970 (inst/sec) elapsed = 0:0:00:30 / Tue Mar 22 12:40:07 2016
GPGPU-Sim PTX: 4800000 instructions simulated : ctaid=(5,0,0) tid=(95,0,0)
GPGPU-Sim PTX: 4900000 instructions simulated : ctaid=(9,0,0) tid=(95,0,0)
GPGPU-Sim uArch: Shader 1 finished CTA #0 (90173,0), 2 CTAs running
GPGPU-Sim uArch: core:  1, cta: 0 initialized @(90174,0)
GPGPU-Sim uArch: Shader 4 finished CTA #0 (90177,0), 2 CTAs running
GPGPU-Sim uArch: core:  4, cta: 0 initialized @(90178,0)
GPGPU-Sim uArch: Shader 5 finished CTA #0 (90183,0), 2 CTAs running
GPGPU-Sim uArch: core:  5, cta: 0 initialized @(90184,0)
GPGPU-Sim uArch: Shader 6 finished CTA #0 (90223,0), 2 CTAs running
GPGPU-Sim uArch: core:  6, cta: 0 initialized @(90224,0)
GPGPU-Sim uArch: Shader 10 finished CTA #0 (90259,0), 2 CTAs running
GPGPU-Sim uArch: core: 10, cta: 0 initialized @(90260,0)
GPGPU-Sim uArch: Shader 11 finished CTA #0 (90264,0), 2 CTAs running
GPGPU-Sim uArch: core: 11, cta: 0 initialized @(90265,0)
GPGPU-Sim uArch: Shader 12 finished CTA #0 (90285,0), 2 CTAs running
GPGPU-Sim uArch: core: 12, cta: 0 initialized @(90286,0)
GPGPU-Sim uArch: Shader 7 finished CTA #0 (90302,0), 2 CTAs running
GPGPU-Sim uArch: core:  7, cta: 0 initialized @(90303,0)
GPGPU-Sim uArch: Shader 13 finished CTA #0 (90332,0), 2 CTAs running
GPGPU-Sim uArch: core: 13, cta: 0 initialized @(90333,0)
GPGPU-Sim uArch: Shader 2 finished CTA #0 (90352,0), 2 CTAs running
GPGPU-Sim uArch: core:  2, cta: 0 initialized @(90353,0)
GPGPU-Sim uArch: Shader 0 finished CTA #0 (90454,0), 2 CTAs running
GPGPU-Sim uArch: core:  0, cta: 0 initialized @(90455,0)
GPGPU-Sim uArch: Shader 8 finished CTA #0 (90458,0), 2 CTAs running
GPGPU-Sim uArch: core:  8, cta: 0 initialized @(90459,0)
GPGPU-Sim uArch: Shader 3 finished CTA #0 (90460,0), 2 CTAs running
GPGPU-Sim uArch: core:  3, cta: 0 initialized @(90461,0)
GPGPU-Sim uArch: Shader 9 finished CTA #0 (90480,0), 2 CTAs running
GPGPU-Sim uArch: core:  9, cta: 0 initialized @(90481,0)
GPGPU-Sim uArch: cycles simulated: 90500  inst.: 4926880 (ipc=54.4) sim_rate=158931 (inst/sec) elapsed = 0:0:00:31 / Tue Mar 22 12:40:08 2016
GPGPU-Sim uArch: Shader 14 finished CTA #0 (90500,0), 2 CTAs running
GPGPU-Sim uArch: core: 14, cta: 0 initialized @(90501,0)
GPGPU-Sim PTX: 5000000 instructions simulated : ctaid=(24,0,0) tid=(31,0,0)
GPGPU-Sim uArch: cycles simulated: 92500  inst.: 5077440 (ipc=54.9) sim_rate=158670 (inst/sec) elapsed = 0:0:00:32 / Tue Mar 22 12:40:09 2016
GPGPU-Sim PTX: 5100000 instructions simulated : ctaid=(25,0,0) tid=(31,0,0)
GPGPU-Sim PTX: 5200000 instructions simulated : ctaid=(18,0,0) tid=(31,0,0)
GPGPU-Sim PTX: 5300000 instructions simulated : ctaid=(27,0,0) tid=(63,0,0)
GPGPU-Sim uArch: cycles simulated: 96000  inst.: 5340608 (ipc=55.6) sim_rate=161836 (inst/sec) elapsed = 0:0:00:33 / Tue Mar 22 12:40:10 2016
GPGPU-Sim PTX: 5400000 instructions simulated : ctaid=(17,0,0) tid=(63,0,0)
GPGPU-Sim PTX: 5500000 instructions simulated : ctaid=(25,0,0) tid=(31,0,0)
GPGPU-Sim uArch: cycles simulated: 99500  inst.: 5574720 (ipc=56.0) sim_rate=163962 (inst/sec) elapsed = 0:0:00:34 / Tue Mar 22 12:40:11 2016
GPGPU-Sim PTX: 5600000 instructions simulated : ctaid=(20,0,0) tid=(63,0,0)
GPGPU-Sim PTX: 5700000 instructions simulated : ctaid=(26,0,0) tid=(63,0,0)
GPGPU-Sim PTX: 5800000 instructions simulated : ctaid=(17,0,0) tid=(63,0,0)
GPGPU-Sim uArch: cycles simulated: 103000  inst.: 5814560 (ipc=56.5) sim_rate=166130 (inst/sec) elapsed = 0:0:00:35 / Tue Mar 22 12:40:12 2016
GPGPU-Sim PTX: 5900000 instructions simulated : ctaid=(25,0,0) tid=(63,0,0)
GPGPU-Sim PTX: 6000000 instructions simulated : ctaid=(20,0,0) tid=(31,0,0)
GPGPU-Sim uArch: cycles simulated: 106500  inst.: 6052224 (ipc=56.8) sim_rate=168117 (inst/sec) elapsed = 0:0:00:36 / Tue Mar 22 12:40:13 2016
GPGPU-Sim PTX: 6100000 instructions simulated : ctaid=(25,0,0) tid=(31,0,0)
GPGPU-Sim PTX: 6200000 instructions simulated : ctaid=(24,0,0) tid=(63,0,0)
GPGPU-Sim PTX: 6300000 instructions simulated : ctaid=(23,0,0) tid=(63,0,0)
GPGPU-Sim uArch: cycles simulated: 110000  inst.: 6290592 (ipc=57.2) sim_rate=170016 (inst/sec) elapsed = 0:0:00:37 / Tue Mar 22 12:40:14 2016
GPGPU-Sim PTX: 6400000 instructions simulated : ctaid=(29,0,0) tid=(31,0,0)
GPGPU-Sim PTX: 6500000 instructions simulated : ctaid=(26,0,0) tid=(63,0,0)
GPGPU-Sim uArch: cycles simulated: 113500  inst.: 6525184 (ipc=57.5) sim_rate=171715 (inst/sec) elapsed = 0:0:00:38 / Tue Mar 22 12:40:15 2016
GPGPU-Sim PTX: 6600000 instructions simulated : ctaid=(20,0,0) tid=(63,0,0)
GPGPU-Sim PTX: 6700000 instructions simulated : ctaid=(25,0,0) tid=(31,0,0)
GPGPU-Sim uArch: cycles simulated: 117000  inst.: 6764544 (ipc=57.8) sim_rate=173449 (inst/sec) elapsed = 0:0:00:39 / Tue Mar 22 12:40:16 2016
GPGPU-Sim PTX: 6800000 instructions simulated : ctaid=(16,0,0) tid=(31,0,0)
GPGPU-Sim PTX: 6900000 instructions simulated : ctaid=(27,0,0) tid=(31,0,0)
GPGPU-Sim uArch: cycles simulated: 120000  inst.: 6966432 (ipc=58.1) sim_rate=174160 (inst/sec) elapsed = 0:0:00:40 / Tue Mar 22 12:40:17 2016
GPGPU-Sim PTX: 7000000 instructions simulated : ctaid=(21,0,0) tid=(31,0,0)
GPGPU-Sim PTX: 7100000 instructions simulated : ctaid=(26,0,0) tid=(31,0,0)
GPGPU-Sim PTX: 7200000 instructions simulated : ctaid=(17,0,0) tid=(63,0,0)
GPGPU-Sim uArch: cycles simulated: 124000  inst.: 7236320 (ipc=58.4) sim_rate=176495 (inst/sec) elapsed = 0:0:00:41 / Tue Mar 22 12:40:18 2016
GPGPU-Sim PTX: 7300000 instructions simulated : ctaid=(26,0,0) tid=(31,0,0)
GPGPU-Sim PTX: 7400000 instructions simulated : ctaid=(25,0,0) tid=(127,0,0)
GPGPU-Sim uArch: cycles simulated: 127500  inst.: 7454496 (ipc=58.5) sim_rate=177488 (inst/sec) elapsed = 0:0:00:42 / Tue Mar 22 12:40:19 2016
GPGPU-Sim PTX: 7500000 instructions simulated : ctaid=(17,0,0) tid=(95,0,0)
GPGPU-Sim PTX: 7600000 instructions simulated : ctaid=(24,0,0) tid=(95,0,0)
GPGPU-Sim PTX: 7700000 instructions simulated : ctaid=(23,0,0) tid=(95,0,0)
GPGPU-Sim uArch: cycles simulated: 131000  inst.: 7742176 (ipc=59.1) sim_rate=180050 (inst/sec) elapsed = 0:0:00:43 / Tue Mar 22 12:40:20 2016
GPGPU-Sim PTX: 7800000 instructions simulated : ctaid=(20,0,0) tid=(127,0,0)
GPGPU-Sim PTX: 7900000 instructions simulated : ctaid=(22,0,0) tid=(95,0,0)
GPGPU-Sim uArch: cycles simulated: 134500  inst.: 7977600 (ipc=59.3) sim_rate=181309 (inst/sec) elapsed = 0:0:00:44 / Tue Mar 22 12:40:21 2016
GPGPU-Sim PTX: 8000000 instructions simulated : ctaid=(16,0,0) tid=(95,0,0)
GPGPU-Sim PTX: 8100000 instructions simulated : ctaid=(22,0,0) tid=(95,0,0)
GPGPU-Sim PTX: 8200000 instructions simulated : ctaid=(24,0,0) tid=(95,0,0)
GPGPU-Sim uArch: cycles simulated: 138000  inst.: 8214080 (ipc=59.5) sim_rate=182535 (inst/sec) elapsed = 0:0:00:45 / Tue Mar 22 12:40:22 2016
GPGPU-Sim PTX: 8300000 instructions simulated : ctaid=(27,0,0) tid=(95,0,0)
GPGPU-Sim PTX: 8400000 instructions simulated : ctaid=(24,0,0) tid=(127,0,0)
GPGPU-Sim uArch: cycles simulated: 141500  inst.: 8453408 (ipc=59.7) sim_rate=183769 (inst/sec) elapsed = 0:0:00:46 / Tue Mar 22 12:40:23 2016
GPGPU-Sim PTX: 8500000 instructions simulated : ctaid=(28,0,0) tid=(95,0,0)
GPGPU-Sim PTX: 8600000 instructions simulated : ctaid=(24,0,0) tid=(127,0,0)
GPGPU-Sim PTX: 8700000 instructions simulated : ctaid=(28,0,0) tid=(127,0,0)
GPGPU-Sim uArch: cycles simulated: 145000  inst.: 8691136 (ipc=59.9) sim_rate=184917 (inst/sec) elapsed = 0:0:00:47 / Tue Mar 22 12:40:24 2016
GPGPU-Sim PTX: 8800000 instructions simulated : ctaid=(26,0,0) tid=(95,0,0)
GPGPU-Sim PTX: 8900000 instructions simulated : ctaid=(18,0,0) tid=(95,0,0)
GPGPU-Sim uArch: cycles simulated: 149000  inst.: 8960448 (ipc=60.1) sim_rate=186676 (inst/sec) elapsed = 0:0:00:48 / Tue Mar 22 12:40:25 2016
GPGPU-Sim PTX: 9000000 instructions simulated : ctaid=(17,0,0) tid=(127,0,0)
GPGPU-Sim PTX: 9100000 instructions simulated : ctaid=(28,0,0) tid=(127,0,0)
GPGPU-Sim PTX: 9200000 instructions simulated : ctaid=(17,0,0) tid=(95,0,0)
GPGPU-Sim uArch: cycles simulated: 152500  inst.: 9197792 (ipc=60.3) sim_rate=187710 (inst/sec) elapsed = 0:0:00:49 / Tue Mar 22 12:40:26 2016
GPGPU-Sim PTX: 9300000 instructions simulated : ctaid=(15,0,0) tid=(95,0,0)
GPGPU-Sim PTX: 9400000 instructions simulated : ctaid=(29,0,0) tid=(127,0,0)
GPGPU-Sim uArch: cycles simulated: 155500  inst.: 9400544 (ipc=60.5) sim_rate=188010 (inst/sec) elapsed = 0:0:00:50 / Tue Mar 22 12:40:27 2016
GPGPU-Sim PTX: 9500000 instructions simulated : ctaid=(18,0,0) tid=(95,0,0)
GPGPU-Sim PTX: 9600000 instructions simulated : ctaid=(24,0,0) tid=(127,0,0)
GPGPU-Sim uArch: cycles simulated: 159000  inst.: 9636096 (ipc=60.6) sim_rate=188943 (inst/sec) elapsed = 0:0:00:51 / Tue Mar 22 12:40:28 2016
GPGPU-Sim PTX: 9700000 instructions simulated : ctaid=(15,0,0) tid=(95,0,0)
GPGPU-Sim PTX: 9800000 instructions simulated : ctaid=(25,0,0) tid=(127,0,0)
GPGPU-Sim uArch: Shader 4 finished CTA #1 (161909,0), 2 CTAs running
GPGPU-Sim uArch: core:  4, cta: 1 initialized @(161910,0)
GPGPU-Sim uArch: Shader 1 finished CTA #1 (161916,0), 2 CTAs running
GPGPU-Sim uArch: core:  1, cta: 1 initialized @(161917,0)
GPGPU-Sim uArch: Shader 5 finished CTA #1 (161947,0), 2 CTAs running
GPGPU-Sim uArch: core:  5, cta: 1 initialized @(161948,0)
GPGPU-Sim uArch: Shader 6 finished CTA #1 (161959,0), 2 CTAs running
GPGPU-Sim uArch: core:  6, cta: 1 initialized @(161960,0)
GPGPU-Sim uArch: Shader 2 finished CTA #1 (161989,0), 2 CTAs running
GPGPU-Sim uArch: core:  2, cta: 1 initialized @(161990,0)
GPGPU-Sim uArch: cycles simulated: 162000  inst.: 9828608 (ipc=60.7) sim_rate=189011 (inst/sec) elapsed = 0:0:00:52 / Tue Mar 22 12:40:29 2016
GPGPU-Sim uArch: Shader 10 finished CTA #1 (162021,0), 2 CTAs running
GPGPU-Sim uArch: core: 10, cta: 1 initialized @(162022,0)
GPGPU-Sim uArch: Shader 7 finished CTA #1 (162022,0), 2 CTAs running
GPGPU-Sim uArch: core:  7, cta: 1 initialized @(162023,0)
GPGPU-Sim uArch: Shader 12 finished CTA #1 (162030,0), 2 CTAs running
GPGPU-Sim uArch: core: 12, cta: 1 initialized @(162031,0)
GPGPU-Sim uArch: Shader 11 finished CTA #1 (162046,0), 2 CTAs running
GPGPU-Sim uArch: core: 11, cta: 1 initialized @(162047,0)
GPGPU-Sim uArch: Shader 0 finished CTA #1 (162058,0), 2 CTAs running
GPGPU-Sim uArch: core:  0, cta: 1 initialized @(162059,0)
GPGPU-Sim uArch: Shader 13 finished CTA #1 (162075,0), 2 CTAs running
GPGPU-Sim uArch: core: 13, cta: 1 initialized @(162076,0)
GPGPU-Sim uArch: Shader 3 finished CTA #1 (162084,0), 2 CTAs running
GPGPU-Sim uArch: core:  3, cta: 1 initialized @(162085,0)
GPGPU-Sim uArch: Shader 8 finished CTA #1 (162091,0), 2 CTAs running
GPGPU-Sim uArch: core:  8, cta: 1 initialized @(162092,0)
GPGPU-Sim uArch: Shader 14 finished CTA #1 (162119,0), 2 CTAs running
GPGPU-Sim uArch: core: 14, cta: 1 initialized @(162120,0)
GPGPU-Sim uArch: Shader 9 finished CTA #1 (162199,0), 2 CTAs running
GPGPU-Sim uArch: core:  9, cta: 1 initialized @(162200,0)
GPGPU-Sim PTX: 9900000 instructions simulated : ctaid=(35,0,0) tid=(31,0,0)
GPGPU-Sim uArch: cycles simulated: 164000  inst.: 9957888 (ipc=60.7) sim_rate=187884 (inst/sec) elapsed = 0:0:00:53 / Tue Mar 22 12:40:30 2016
GPGPU-Sim PTX: 10000000 instructions simulated : ctaid=(41,0,0) tid=(63,0,0)
GPGPU-Sim PTX: 10100000 instructions simulated : ctaid=(37,0,0) tid=(31,0,0)
GPGPU-Sim PTX: 10200000 instructions simulated : ctaid=(38,0,0) tid=(31,0,0)
GPGPU-Sim uArch: cycles simulated: 167500  inst.: 10239648 (ipc=61.1) sim_rate=189623 (inst/sec) elapsed = 0:0:00:54 / Tue Mar 22 12:40:31 2016
GPGPU-Sim PTX: 10300000 instructions simulated : ctaid=(33,0,0) tid=(31,0,0)
GPGPU-Sim PTX: 10400000 instructions simulated : ctaid=(31,0,0) tid=(63,0,0)
GPGPU-Sim uArch: cycles simulated: 171000  inst.: 10474560 (ipc=61.3) sim_rate=190446 (inst/sec) elapsed = 0:0:00:55 / Tue Mar 22 12:40:32 2016
GPGPU-Sim PTX: 10500000 instructions simulated : ctaid=(42,0,0) tid=(63,0,0)
GPGPU-Sim PTX: 10600000 instructions simulated : ctaid=(44,0,0) tid=(31,0,0)
GPGPU-Sim PTX: 10700000 instructions simulated : ctaid=(33,0,0) tid=(31,0,0)
GPGPU-Sim uArch: cycles simulated: 175000  inst.: 10745728 (ipc=61.4) sim_rate=191888 (inst/sec) elapsed = 0:0:00:56 / Tue Mar 22 12:40:33 2016
GPGPU-Sim PTX: 10800000 instructions simulated : ctaid=(36,0,0) tid=(31,0,0)
GPGPU-Sim PTX: 10900000 instructions simulated : ctaid=(30,0,0) tid=(31,0,0)
GPGPU-Sim uArch: cycles simulated: 178000  inst.: 10950496 (ipc=61.5) sim_rate=192113 (inst/sec) elapsed = 0:0:00:57 / Tue Mar 22 12:40:34 2016
GPGPU-Sim PTX: 11000000 instructions simulated : ctaid=(41,0,0) tid=(31,0,0)
GPGPU-Sim PTX: 11100000 instructions simulated : ctaid=(34,0,0) tid=(31,0,0)
GPGPU-Sim PTX: 11200000 instructions simulated : ctaid=(37,0,0) tid=(63,0,0)
GPGPU-Sim uArch: cycles simulated: 182000  inst.: 11222208 (ipc=61.7) sim_rate=193486 (inst/sec) elapsed = 0:0:00:58 / Tue Mar 22 12:40:35 2016
GPGPU-Sim PTX: 11300000 instructions simulated : ctaid=(43,0,0) tid=(63,0,0)
GPGPU-Sim PTX: 11400000 instructions simulated : ctaid=(38,0,0) tid=(31,0,0)
GPGPU-Sim uArch: cycles simulated: 185500  inst.: 11458720 (ipc=61.8) sim_rate=194215 (inst/sec) elapsed = 0:0:00:59 / Tue Mar 22 12:40:36 2016
GPGPU-Sim PTX: 11500000 instructions simulated : ctaid=(35,0,0) tid=(63,0,0)
GPGPU-Sim PTX: 11600000 instructions simulated : ctaid=(40,0,0) tid=(31,0,0)
GPGPU-Sim PTX: 11700000 instructions simulated : ctaid=(31,0,0) tid=(31,0,0)
GPGPU-Sim uArch: cycles simulated: 189000  inst.: 11694176 (ipc=61.9) sim_rate=194902 (inst/sec) elapsed = 0:0:01:00 / Tue Mar 22 12:40:37 2016
GPGPU-Sim PTX: 11800000 instructions simulated : ctaid=(44,0,0) tid=(31,0,0)
GPGPU-Sim PTX: 11900000 instructions simulated : ctaid=(31,0,0) tid=(31,0,0)
GPGPU-Sim uArch: cycles simulated: 192000  inst.: 11897664 (ipc=62.0) sim_rate=195043 (inst/sec) elapsed = 0:0:01:01 / Tue Mar 22 12:40:38 2016
GPGPU-Sim PTX: 12000000 instructions simulated : ctaid=(38,0,0) tid=(63,0,0)
GPGPU-Sim PTX: 12100000 instructions simulated : ctaid=(38,0,0) tid=(63,0,0)
GPGPU-Sim uArch: cycles simulated: 196000  inst.: 12167104 (ipc=62.1) sim_rate=196243 (inst/sec) elapsed = 0:0:01:02 / Tue Mar 22 12:40:39 2016
GPGPU-Sim PTX: 12200000 instructions simulated : ctaid=(41,0,0) tid=(31,0,0)
GPGPU-Sim PTX: 12300000 instructions simulated : ctaid=(38,0,0) tid=(31,0,0)
GPGPU-Sim PTX: 12400000 instructions simulated : ctaid=(37,0,0) tid=(95,0,0)
GPGPU-Sim uArch: cycles simulated: 199500  inst.: 12382976 (ipc=62.1) sim_rate=196555 (inst/sec) elapsed = 0:0:01:03 / Tue Mar 22 12:40:40 2016
GPGPU-Sim PTX: 12500000 instructions simulated : ctaid=(32,0,0) tid=(95,0,0)
GPGPU-Sim PTX: 12600000 instructions simulated : ctaid=(40,0,0) tid=(127,0,0)
GPGPU-Sim PTX: 12700000 instructions simulated : ctaid=(30,0,0) tid=(95,0,0)
GPGPU-Sim uArch: cycles simulated: 203000  inst.: 12673088 (ipc=62.4) sim_rate=198017 (inst/sec) elapsed = 0:0:01:04 / Tue Mar 22 12:40:41 2016
GPGPU-Sim PTX: 12800000 instructions simulated : ctaid=(40,0,0) tid=(127,0,0)
GPGPU-Sim PTX: 12900000 instructions simulated : ctaid=(30,0,0) tid=(95,0,0)
GPGPU-Sim uArch: cycles simulated: 206500  inst.: 12908896 (ipc=62.5) sim_rate=198598 (inst/sec) elapsed = 0:0:01:05 / Tue Mar 22 12:40:42 2016
GPGPU-Sim PTX: 13000000 instructions simulated : ctaid=(39,0,0) tid=(95,0,0)
GPGPU-Sim PTX: 13100000 instructions simulated : ctaid=(32,0,0) tid=(95,0,0)
GPGPU-Sim PTX: 13200000 instructions simulated : ctaid=(40,0,0) tid=(95,0,0)
GPGPU-Sim uArch: cycles simulated: 210500  inst.: 13179776 (ipc=62.6) sim_rate=199693 (inst/sec) elapsed = 0:0:01:06 / Tue Mar 22 12:40:43 2016
GPGPU-Sim PTX: 13300000 instructions simulated : ctaid=(35,0,0) tid=(127,0,0)
GPGPU-Sim PTX: 13400000 instructions simulated : ctaid=(36,0,0) tid=(127,0,0)
GPGPU-Sim uArch: cycles simulated: 213500  inst.: 13383808 (ipc=62.7) sim_rate=199758 (inst/sec) elapsed = 0:0:01:07 / Tue Mar 22 12:40:44 2016
GPGPU-Sim PTX: 13500000 instructions simulated : ctaid=(30,0,0) tid=(95,0,0)
GPGPU-Sim PTX: 13600000 instructions simulated : ctaid=(42,0,0) tid=(127,0,0)
GPGPU-Sim uArch: cycles simulated: 217500  inst.: 13655264 (ipc=62.8) sim_rate=200812 (inst/sec) elapsed = 0:0:01:08 / Tue Mar 22 12:40:45 2016
GPGPU-Sim PTX: 13700000 instructions simulated : ctaid=(43,0,0) tid=(127,0,0)
GPGPU-Sim PTX: 13800000 instructions simulated : ctaid=(37,0,0) tid=(127,0,0)
GPGPU-Sim PTX: 13900000 instructions simulated : ctaid=(43,0,0) tid=(95,0,0)
GPGPU-Sim uArch: cycles simulated: 221000  inst.: 13891648 (ipc=62.9) sim_rate=201328 (inst/sec) elapsed = 0:0:01:09 / Tue Mar 22 12:40:46 2016
GPGPU-Sim PTX: 14000000 instructions simulated : ctaid=(38,0,0) tid=(95,0,0)
GPGPU-Sim PTX: 14100000 instructions simulated : ctaid=(30,0,0) tid=(95,0,0)
GPGPU-Sim uArch: cycles simulated: 225000  inst.: 14161760 (ipc=62.9) sim_rate=202310 (inst/sec) elapsed = 0:0:01:10 / Tue Mar 22 12:40:47 2016
GPGPU-Sim PTX: 14200000 instructions simulated : ctaid=(36,0,0) tid=(127,0,0)
GPGPU-Sim PTX: 14300000 instructions simulated : ctaid=(31,0,0) tid=(127,0,0)
GPGPU-Sim uArch: cycles simulated: 228000  inst.: 14364352 (ipc=63.0) sim_rate=202314 (inst/sec) elapsed = 0:0:01:11 / Tue Mar 22 12:40:48 2016
GPGPU-Sim PTX: 14400000 instructions simulated : ctaid=(39,0,0) tid=(95,0,0)
GPGPU-Sim PTX: 14500000 instructions simulated : ctaid=(33,0,0) tid=(127,0,0)
GPGPU-Sim PTX: 14600000 instructions simulated : ctaid=(37,0,0) tid=(95,0,0)
GPGPU-Sim uArch: cycles simulated: 231500  inst.: 14600864 (ipc=63.1) sim_rate=202789 (inst/sec) elapsed = 0:0:01:12 / Tue Mar 22 12:40:49 2016
GPGPU-Sim PTX: 14700000 instructions simulated : ctaid=(35,0,0) tid=(127,0,0)
GPGPU-Sim uArch: Shader 4 finished CTA #2 (233606,0), 2 CTAs running
GPGPU-Sim uArch: core:  4, cta: 2 initialized @(233607,0)
GPGPU-Sim uArch: Shader 1 finished CTA #2 (233610,0), 2 CTAs running
GPGPU-Sim uArch: core:  1, cta: 2 initialized @(233611,0)
GPGPU-Sim uArch: Shader 5 finished CTA #2 (233616,0), 2 CTAs running
GPGPU-Sim uArch: core:  5, cta: 2 initialized @(233617,0)
GPGPU-Sim uArch: Shader 6 finished CTA #2 (233647,0), 2 CTAs running
GPGPU-Sim uArch: core:  6, cta: 2 initialized @(233648,0)
GPGPU-Sim uArch: Shader 0 finished CTA #2 (233687,0), 2 CTAs running
GPGPU-Sim uArch: Shader 2 finished CTA #2 (233687,0), 2 CTAs running
GPGPU-Sim uArch: core:  0, cta: 2 initialized @(233688,0)
GPGPU-Sim uArch: core:  2, cta: 2 initialized @(233688,0)
GPGPU-Sim uArch: Shader 10 finished CTA #2 (233706,0), 2 CTAs running
GPGPU-Sim uArch: core: 10, cta: 2 initialized @(233707,0)
GPGPU-Sim uArch: Shader 7 finished CTA #2 (233712,0), 2 CTAs running
GPGPU-Sim uArch: core:  7, cta: 2 initialized @(233713,0)
GPGPU-Sim uArch: Shader 11 finished CTA #2 (233722,0), 2 CTAs running
GPGPU-Sim uArch: core: 11, cta: 2 initialized @(233723,0)
GPGPU-Sim uArch: Shader 12 finished CTA #2 (233736,0), 2 CTAs running
GPGPU-Sim uArch: core: 12, cta: 2 initialized @(233737,0)
GPGPU-Sim uArch: Shader 13 finished CTA #2 (233771,0), 2 CTAs running
GPGPU-Sim uArch: core: 13, cta: 2 initialized @(233772,0)
GPGPU-Sim uArch: Shader 3 finished CTA #2 (233787,0), 2 CTAs running
GPGPU-Sim uArch: core:  3, cta: 2 initialized @(233788,0)
GPGPU-Sim uArch: Shader 8 finished CTA #2 (233792,0), 2 CTAs running
GPGPU-Sim uArch: core:  8, cta: 2 initialized @(233793,0)
GPGPU-Sim uArch: Shader 14 finished CTA #2 (233909,0), 2 CTAs running
GPGPU-Sim uArch: core: 14, cta: 2 initialized @(233910,0)
GPGPU-Sim uArch: cycles simulated: 234000  inst.: 14757376 (ipc=63.1) sim_rate=202155 (inst/sec) elapsed = 0:0:01:13 / Tue Mar 22 12:40:50 2016
GPGPU-Sim uArch: Shader 9 finished CTA #2 (234005,0), 2 CTAs running
GPGPU-Sim uArch: core:  9, cta: 2 initialized @(234006,0)
GPGPU-Sim PTX: 14800000 instructions simulated : ctaid=(57,0,0) tid=(63,0,0)
GPGPU-Sim PTX: 14900000 instructions simulated : ctaid=(47,0,0) tid=(63,0,0)
GPGPU-Sim uArch: cycles simulated: 236000  inst.: 14914848 (ipc=63.2) sim_rate=201552 (inst/sec) elapsed = 0:0:01:14 / Tue Mar 22 12:40:51 2016
GPGPU-Sim PTX: 15000000 instructions simulated : ctaid=(49,0,0) tid=(63,0,0)
GPGPU-Sim PTX: 15100000 instructions simulated : ctaid=(46,0,0) tid=(63,0,0)
GPGPU-Sim PTX: 15200000 instructions simulated : ctaid=(50,0,0) tid=(31,0,0)
GPGPU-Sim uArch: cycles simulated: 239500  inst.: 15171488 (ipc=63.3) sim_rate=202286 (inst/sec) elapsed = 0:0:01:15 / Tue Mar 22 12:40:52 2016
GPGPU-Sim PTX: 15300000 instructions simulated : ctaid=(47,0,0) tid=(31,0,0)
GPGPU-Sim PTX: 15400000 instructions simulated : ctaid=(50,0,0) tid=(63,0,0)
GPGPU-Sim uArch: cycles simulated: 243000  inst.: 15404896 (ipc=63.4) sim_rate=202696 (inst/sec) elapsed = 0:0:01:16 / Tue Mar 22 12:40:53 2016
GPGPU-Sim PTX: 15500000 instructions simulated : ctaid=(47,0,0) tid=(63,0,0)
GPGPU-Sim PTX: 15600000 instructions simulated : ctaid=(53,0,0) tid=(31,0,0)
GPGPU-Sim uArch: cycles simulated: 246500  inst.: 15642432 (ipc=63.5) sim_rate=203148 (inst/sec) elapsed = 0:0:01:17 / Tue Mar 22 12:40:54 2016
GPGPU-Sim PTX: 15700000 instructions simulated : ctaid=(47,0,0) tid=(63,0,0)
GPGPU-Sim PTX: 15800000 instructions simulated : ctaid=(58,0,0) tid=(31,0,0)
GPGPU-Sim PTX: 15900000 instructions simulated : ctaid=(46,0,0) tid=(63,0,0)
GPGPU-Sim uArch: cycles simulated: 250000  inst.: 15881696 (ipc=63.5) sim_rate=203611 (inst/sec) elapsed = 0:0:01:18 / Tue Mar 22 12:40:55 2016
GPGPU-Sim PTX: 16000000 instructions simulated : ctaid=(53,0,0) tid=(63,0,0)
GPGPU-Sim PTX: 16100000 instructions simulated : ctaid=(54,0,0) tid=(31,0,0)
GPGPU-Sim uArch: cycles simulated: 253500  inst.: 16118432 (ipc=63.6) sim_rate=204030 (inst/sec) elapsed = 0:0:01:19 / Tue Mar 22 12:40:56 2016
GPGPU-Sim PTX: 16200000 instructions simulated : ctaid=(56,0,0) tid=(31,0,0)
GPGPU-Sim PTX: 16300000 instructions simulated : ctaid=(47,0,0) tid=(63,0,0)
GPGPU-Sim PTX: 16400000 instructions simulated : ctaid=(56,0,0) tid=(31,0,0)
GPGPU-Sim uArch: cycles simulated: 257500  inst.: 16389664 (ipc=63.6) sim_rate=204870 (inst/sec) elapsed = 0:0:01:20 / Tue Mar 22 12:40:57 2016
GPGPU-Sim PTX: 16500000 instructions simulated : ctaid=(54,0,0) tid=(63,0,0)
GPGPU-Sim PTX: 16600000 instructions simulated : ctaid=(58,0,0) tid=(63,0,0)
GPGPU-Sim uArch: cycles simulated: 260500  inst.: 16590848 (ipc=63.7) sim_rate=204825 (inst/sec) elapsed = 0:0:01:21 / Tue Mar 22 12:40:58 2016
GPGPU-Sim PTX: 16700000 instructions simulated : ctaid=(47,0,0) tid=(31,0,0)
GPGPU-Sim PTX: 16800000 instructions simulated : ctaid=(58,0,0) tid=(31,0,0)
GPGPU-Sim uArch: cycles simulated: 264000  inst.: 16827936 (ipc=63.7) sim_rate=205218 (inst/sec) elapsed = 0:0:01:22 / Tue Mar 22 12:40:59 2016
GPGPU-Sim PTX: 16900000 instructions simulated : ctaid=(54,0,0) tid=(63,0,0)
GPGPU-Sim PTX: 17000000 instructions simulated : ctaid=(58,0,0) tid=(63,0,0)
GPGPU-Sim uArch: cycles simulated: 267500  inst.: 17063456 (ipc=63.8) sim_rate=205583 (inst/sec) elapsed = 0:0:01:23 / Tue Mar 22 12:41:00 2016
GPGPU-Sim PTX: 17100000 instructions simulated : ctaid=(54,0,0) tid=(63,0,0)
GPGPU-Sim PTX: 17200000 instructions simulated : ctaid=(53,0,0) tid=(31,0,0)
GPGPU-Sim PTX: 17300000 instructions simulated : ctaid=(49,0,0) tid=(95,0,0)
GPGPU-Sim uArch: cycles simulated: 271000  inst.: 17283200 (ipc=63.8) sim_rate=205752 (inst/sec) elapsed = 0:0:01:24 / Tue Mar 22 12:41:01 2016
GPGPU-Sim PTX: 17400000 instructions simulated : ctaid=(45,0,0) tid=(95,0,0)
GPGPU-Sim PTX: 17500000 instructions simulated : ctaid=(48,0,0) tid=(95,0,0)
GPGPU-Sim PTX: 17600000 instructions simulated : ctaid=(50,0,0) tid=(95,0,0)
GPGPU-Sim uArch: cycles simulated: 274500  inst.: 17569312 (ipc=64.0) sim_rate=206697 (inst/sec) elapsed = 0:0:01:25 / Tue Mar 22 12:41:02 2016
GPGPU-Sim PTX: 17700000 instructions simulated : ctaid=(55,0,0) tid=(127,0,0)
GPGPU-Sim PTX: 17800000 instructions simulated : ctaid=(49,0,0) tid=(127,0,0)
GPGPU-Sim uArch: cycles simulated: 278000  inst.: 17804992 (ipc=64.0) sim_rate=207034 (inst/sec) elapsed = 0:0:01:26 / Tue Mar 22 12:41:03 2016
GPGPU-Sim PTX: 17900000 instructions simulated : ctaid=(48,0,0) tid=(127,0,0)
GPGPU-Sim PTX: 18000000 instructions simulated : ctaid=(45,0,0) tid=(95,0,0)
GPGPU-Sim PTX: 18100000 instructions simulated : ctaid=(59,0,0) tid=(95,0,0)
GPGPU-Sim uArch: cycles simulated: 282000  inst.: 18075456 (ipc=64.1) sim_rate=207763 (inst/sec) elapsed = 0:0:01:27 / Tue Mar 22 12:41:04 2016
GPGPU-Sim PTX: 18200000 instructions simulated : ctaid=(49,0,0) tid=(95,0,0)
GPGPU-Sim PTX: 18300000 instructions simulated : ctaid=(54,0,0) tid=(127,0,0)
GPGPU-Sim uArch: cycles simulated: 285000  inst.: 18280288 (ipc=64.1) sim_rate=207730 (inst/sec) elapsed = 0:0:01:28 / Tue Mar 22 12:41:05 2016
GPGPU-Sim PTX: 18400000 instructions simulated : ctaid=(58,0,0) tid=(127,0,0)
GPGPU-Sim PTX: 18500000 instructions simulated : ctaid=(55,0,0) tid=(95,0,0)
GPGPU-Sim uArch: cycles simulated: 289000  inst.: 18551936 (ipc=64.2) sim_rate=208448 (inst/sec) elapsed = 0:0:01:29 / Tue Mar 22 12:41:06 2016
GPGPU-Sim PTX: 18600000 instructions simulated : ctaid=(45,0,0) tid=(127,0,0)
GPGPU-Sim PTX: 18700000 instructions simulated : ctaid=(50,0,0) tid=(127,0,0)
GPGPU-Sim PTX: 18800000 instructions simulated : ctaid=(53,0,0) tid=(127,0,0)
GPGPU-Sim uArch: cycles simulated: 292500  inst.: 18787584 (ipc=64.2) sim_rate=208750 (inst/sec) elapsed = 0:0:01:30 / Tue Mar 22 12:41:07 2016
GPGPU-Sim PTX: 18900000 instructions simulated : ctaid=(54,0,0) tid=(127,0,0)
GPGPU-Sim PTX: 19000000 instructions simulated : ctaid=(58,0,0) tid=(127,0,0)
GPGPU-Sim uArch: cycles simulated: 296000  inst.: 19024160 (ipc=64.3) sim_rate=209056 (inst/sec) elapsed = 0:0:01:31 / Tue Mar 22 12:41:08 2016
GPGPU-Sim PTX: 19100000 instructions simulated : ctaid=(51,0,0) tid=(127,0,0)
GPGPU-Sim PTX: 19200000 instructions simulated : ctaid=(45,0,0) tid=(127,0,0)
GPGPU-Sim uArch: cycles simulated: 299000  inst.: 19226432 (ipc=64.3) sim_rate=208982 (inst/sec) elapsed = 0:0:01:32 / Tue Mar 22 12:41:09 2016
GPGPU-Sim PTX: 19300000 instructions simulated : ctaid=(51,0,0) tid=(127,0,0)
GPGPU-Sim PTX: 19400000 instructions simulated : ctaid=(56,0,0) tid=(95,0,0)
GPGPU-Sim PTX: 19500000 instructions simulated : ctaid=(50,0,0) tid=(95,0,0)
GPGPU-Sim uArch: cycles simulated: 303000  inst.: 19497664 (ipc=64.3) sim_rate=209652 (inst/sec) elapsed = 0:0:01:33 / Tue Mar 22 12:41:10 2016
GPGPU-Sim PTX: 19600000 instructions simulated : ctaid=(45,0,0) tid=(95,0,0)
GPGPU-Sim uArch: Shader 1 finished CTA #0 (305287,0), 2 CTAs running
GPGPU-Sim uArch: core:  1, cta: 0 initialized @(305288,0)
GPGPU-Sim uArch: Shader 4 finished CTA #0 (305320,0), 2 CTAs running
GPGPU-Sim uArch: core:  4, cta: 0 initialized @(305321,0)
GPGPU-Sim uArch: Shader 5 finished CTA #0 (305343,0), 2 CTAs running
GPGPU-Sim uArch: core:  5, cta: 0 initialized @(305344,0)
GPGPU-Sim uArch: Shader 6 finished CTA #0 (305383,0), 2 CTAs running
GPGPU-Sim uArch: core:  6, cta: 0 initialized @(305384,0)
GPGPU-Sim uArch: Shader 7 finished CTA #0 (305408,0), 2 CTAs running
GPGPU-Sim uArch: core:  7, cta: 0 initialized @(305409,0)
GPGPU-Sim uArch: Shader 2 finished CTA #0 (305416,0), 2 CTAs running
GPGPU-Sim uArch: core:  2, cta: 0 initialized @(305417,0)
GPGPU-Sim uArch: Shader 11 finished CTA #0 (305420,0), 2 CTAs running
GPGPU-Sim uArch: core: 11, cta: 0 initialized @(305421,0)
GPGPU-Sim uArch: Shader 12 finished CTA #0 (305446,0), 2 CTAs running
GPGPU-Sim uArch: core: 12, cta: 0 initialized @(305447,0)
GPGPU-Sim uArch: Shader 13 finished CTA #0 (305476,0), 2 CTAs running
GPGPU-Sim uArch: core: 13, cta: 0 initialized @(305477,0)
GPGPU-Sim uArch: Shader 0 finished CTA #0 (305480,0), 2 CTAs running
GPGPU-Sim uArch: core:  0, cta: 0 initialized @(305481,0)
GPGPU-Sim uArch: cycles simulated: 305500  inst.: 19653888 (ipc=64.3) sim_rate=209083 (inst/sec) elapsed = 0:0:01:34 / Tue Mar 22 12:41:11 2016
GPGPU-Sim uArch: Shader 8 finished CTA #0 (305513,0), 2 CTAs running
GPGPU-Sim uArch: core:  8, cta: 0 initialized @(305514,0)
GPGPU-Sim uArch: Shader 10 finished CTA #0 (305526,0), 2 CTAs running
GPGPU-Sim uArch: core: 10, cta: 0 initialized @(305527,0)
GPGPU-Sim PTX: 19700000 instructions simulated : ctaid=(68,0,0) tid=(31,0,0)
GPGPU-Sim uArch: Shader 3 finished CTA #0 (305612,0), 2 CTAs running
GPGPU-Sim uArch: core:  3, cta: 0 initialized @(305613,0)
GPGPU-Sim uArch: Shader 14 finished CTA #0 (305694,0), 2 CTAs running
GPGPU-Sim uArch: core: 14, cta: 0 initialized @(305695,0)
GPGPU-Sim uArch: Shader 9 finished CTA #0 (305758,0), 2 CTAs running
GPGPU-Sim uArch: core:  9, cta: 0 initialized @(305759,0)
GPGPU-Sim uArch: cycles simulated: 307000  inst.: 19742592 (ipc=64.3) sim_rate=207816 (inst/sec) elapsed = 0:0:01:35 / Tue Mar 22 12:41:12 2016
GPGPU-Sim PTX: 19800000 instructions simulated : ctaid=(72,0,0) tid=(31,0,0)
GPGPU-Sim PTX: 19900000 instructions simulated : ctaid=(68,0,0) tid=(63,0,0)
GPGPU-Sim PTX: 20000000 instructions simulated : ctaid=(60,0,0) tid=(63,0,0)
GPGPU-Sim uArch: cycles simulated: 310500  inst.: 20031584 (ipc=64.5) sim_rate=208662 (inst/sec) elapsed = 0:0:01:36 / Tue Mar 22 12:41:13 2016
GPGPU-Sim PTX: 20100000 instructions simulated : ctaid=(63,0,0) tid=(63,0,0)
GPGPU-Sim PTX: 20200000 instructions simulated : ctaid=(74,0,0) tid=(31,0,0)
GPGPU-Sim PTX: 20300000 instructions simulated : ctaid=(62,0,0) tid=(31,0,0)
GPGPU-Sim uArch: cycles simulated: 314000  inst.: 20266880 (ipc=64.5) sim_rate=208936 (inst/sec) elapsed = 0:0:01:37 / Tue Mar 22 12:41:14 2016
GPGPU-Sim PTX: 20400000 instructions simulated : ctaid=(65,0,0) tid=(31,0,0)
GPGPU-Sim PTX: 20500000 instructions simulated : ctaid=(66,0,0) tid=(63,0,0)
GPGPU-Sim uArch: cycles simulated: 317500  inst.: 20504512 (ipc=64.6) sim_rate=209229 (inst/sec) elapsed = 0:0:01:38 / Tue Mar 22 12:41:15 2016
GPGPU-Sim PTX: 20600000 instructions simulated : ctaid=(70,0,0) tid=(63,0,0)
GPGPU-Sim PTX: 20700000 instructions simulated : ctaid=(63,0,0) tid=(63,0,0)
GPGPU-Sim uArch: cycles simulated: 320500  inst.: 20708480 (ipc=64.6) sim_rate=209176 (inst/sec) elapsed = 0:0:01:39 / Tue Mar 22 12:41:16 2016
GPGPU-Sim PTX: 20800000 instructions simulated : ctaid=(70,0,0) tid=(31,0,0)
GPGPU-Sim PTX: 20900000 instructions simulated : ctaid=(64,0,0) tid=(63,0,0)
GPGPU-Sim uArch: cycles simulated: 324000  inst.: 20946784 (ipc=64.7) sim_rate=209467 (inst/sec) elapsed = 0:0:01:40 / Tue Mar 22 12:41:17 2016
GPGPU-Sim PTX: 21000000 instructions simulated : ctaid=(65,0,0) tid=(63,0,0)
GPGPU-Sim PTX: 21100000 instructions simulated : ctaid=(67,0,0) tid=(63,0,0)
GPGPU-Sim PTX: 21200000 instructions simulated : ctaid=(61,0,0) tid=(31,0,0)
GPGPU-Sim uArch: cycles simulated: 328000  inst.: 21216352 (ipc=64.7) sim_rate=210062 (inst/sec) elapsed = 0:0:01:41 / Tue Mar 22 12:41:18 2016
GPGPU-Sim PTX: 21300000 instructions simulated : ctaid=(71,0,0) tid=(63,0,0)
GPGPU-Sim PTX: 21400000 instructions simulated : ctaid=(72,0,0) tid=(63,0,0)
GPGPU-Sim uArch: cycles simulated: 331500  inst.: 21453056 (ipc=64.7) sim_rate=210324 (inst/sec) elapsed = 0:0:01:42 / Tue Mar 22 12:41:19 2016
GPGPU-Sim PTX: 21500000 instructions simulated : ctaid=(71,0,0) tid=(31,0,0)
GPGPU-Sim PTX: 21600000 instructions simulated : ctaid=(62,0,0) tid=(31,0,0)
GPGPU-Sim uArch: cycles simulated: 334500  inst.: 21654176 (ipc=64.7) sim_rate=210234 (inst/sec) elapsed = 0:0:01:43 / Tue Mar 22 12:41:20 2016
GPGPU-Sim PTX: 21700000 instructions simulated : ctaid=(67,0,0) tid=(63,0,0)
GPGPU-Sim PTX: 21800000 instructions simulated : ctaid=(72,0,0) tid=(63,0,0)
GPGPU-Sim PTX: 21900000 instructions simulated : ctaid=(73,0,0) tid=(31,0,0)
GPGPU-Sim uArch: cycles simulated: 338000  inst.: 21892608 (ipc=64.8) sim_rate=210505 (inst/sec) elapsed = 0:0:01:44 / Tue Mar 22 12:41:21 2016
GPGPU-Sim PTX: 22000000 instructions simulated : ctaid=(60,0,0) tid=(63,0,0)
GPGPU-Sim PTX: 22100000 instructions simulated : ctaid=(66,0,0) tid=(31,0,0)
GPGPU-Sim uArch: cycles simulated: 341500  inst.: 22116736 (ipc=64.8) sim_rate=210635 (inst/sec) elapsed = 0:0:01:45 / Tue Mar 22 12:41:22 2016
GPGPU-Sim PTX: 22200000 instructions simulated : ctaid=(62,0,0) tid=(127,0,0)
GPGPU-Sim PTX: 22300000 instructions simulated : ctaid=(70,0,0) tid=(95,0,0)
GPGPU-Sim PTX: 22400000 instructions simulated : ctaid=(67,0,0) tid=(95,0,0)
GPGPU-Sim uArch: cycles simulated: 345000  inst.: 22397888 (ipc=64.9) sim_rate=211300 (inst/sec) elapsed = 0:0:01:46 / Tue Mar 22 12:41:23 2016
GPGPU-Sim PTX: 22500000 instructions simulated : ctaid=(69,0,0) tid=(95,0,0)
GPGPU-Sim PTX: 22600000 instructions simulated : ctaid=(74,0,0) tid=(127,0,0)
GPGPU-Sim uArch: cycles simulated: 348500  inst.: 22634016 (ipc=64.9) sim_rate=211532 (inst/sec) elapsed = 0:0:01:47 / Tue Mar 22 12:41:24 2016
GPGPU-Sim PTX: 22700000 instructions simulated : ctaid=(71,0,0) tid=(127,0,0)
GPGPU-Sim PTX: 22800000 instructions simulated : ctaid=(74,0,0) tid=(127,0,0)
GPGPU-Sim PTX: 22900000 instructions simulated : ctaid=(71,0,0) tid=(127,0,0)
GPGPU-Sim uArch: cycles simulated: 352000  inst.: 22869728 (ipc=65.0) sim_rate=211756 (inst/sec) elapsed = 0:0:01:48 / Tue Mar 22 12:41:25 2016
GPGPU-Sim PTX: 23000000 instructions simulated : ctaid=(72,0,0) tid=(127,0,0)
GPGPU-Sim PTX: 23100000 instructions simulated : ctaid=(71,0,0) tid=(127,0,0)
GPGPU-Sim uArch: cycles simulated: 355000  inst.: 23073568 (ipc=65.0) sim_rate=211684 (inst/sec) elapsed = 0:0:01:49 / Tue Mar 22 12:41:26 2016
GPGPU-Sim PTX: 23200000 instructions simulated : ctaid=(70,0,0) tid=(127,0,0)
GPGPU-Sim PTX: 23300000 instructions simulated : ctaid=(67,0,0) tid=(95,0,0)
GPGPU-Sim uArch: cycles simulated: 358500  inst.: 23312512 (ipc=65.0) sim_rate=211931 (inst/sec) elapsed = 0:0:01:50 / Tue Mar 22 12:41:27 2016
GPGPU-Sim PTX: 23400000 instructions simulated : ctaid=(73,0,0) tid=(127,0,0)
GPGPU-Sim PTX: 23500000 instructions simulated : ctaid=(66,0,0) tid=(95,0,0)
GPGPU-Sim uArch: cycles simulated: 362000  inst.: 23548928 (ipc=65.1) sim_rate=212152 (inst/sec) elapsed = 0:0:01:51 / Tue Mar 22 12:41:28 2016
GPGPU-Sim PTX: 23600000 instructions simulated : ctaid=(74,0,0) tid=(127,0,0)
GPGPU-Sim PTX: 23700000 instructions simulated : ctaid=(68,0,0) tid=(127,0,0)
GPGPU-Sim PTX: 23800000 instructions simulated : ctaid=(74,0,0) tid=(127,0,0)
GPGPU-Sim uArch: cycles simulated: 365500  inst.: 23785792 (ipc=65.1) sim_rate=212373 (inst/sec) elapsed = 0:0:01:52 / Tue Mar 22 12:41:29 2016
GPGPU-Sim PTX: 23900000 instructions simulated : ctaid=(68,0,0) tid=(95,0,0)
GPGPU-Sim PTX: 24000000 instructions simulated : ctaid=(62,0,0) tid=(127,0,0)
GPGPU-Sim uArch: cycles simulated: 368500  inst.: 23987136 (ipc=65.1) sim_rate=212275 (inst/sec) elapsed = 0:0:01:53 / Tue Mar 22 12:41:30 2016
GPGPU-Sim PTX: 24100000 instructions simulated : ctaid=(71,0,0) tid=(127,0,0)
GPGPU-Sim PTX: 24200000 instructions simulated : ctaid=(74,0,0) tid=(127,0,0)
GPGPU-Sim PTX: 24300000 instructions simulated : ctaid=(70,0,0) tid=(95,0,0)
GPGPU-Sim uArch: cycles simulated: 372500  inst.: 24257856 (ipc=65.1) sim_rate=212788 (inst/sec) elapsed = 0:0:01:54 / Tue Mar 22 12:41:31 2016
GPGPU-Sim PTX: 24400000 instructions simulated : ctaid=(62,0,0) tid=(127,0,0)
GPGPU-Sim PTX: 24500000 instructions simulated : ctaid=(67,0,0) tid=(127,0,0)
GPGPU-Sim uArch: cycles simulated: 376000  inst.: 24493888 (ipc=65.1) sim_rate=212990 (inst/sec) elapsed = 0:0:01:55 / Tue Mar 22 12:41:32 2016
GPGPU-Sim PTX: 24600000 instructions simulated : ctaid=(83,0,0) tid=(31,0,0)
GPGPU-Sim uArch: Shader 1 finished CTA #1 (377023,0), 2 CTAs running
GPGPU-Sim uArch: core:  1, cta: 1 initialized @(377024,0)
GPGPU-Sim uArch: Shader 4 finished CTA #1 (377029,0), 2 CTAs running
GPGPU-Sim uArch: core:  4, cta: 1 initialized @(377030,0)
GPGPU-Sim uArch: Shader 5 finished CTA #1 (377073,0), 2 CTAs running
GPGPU-Sim uArch: core:  5, cta: 1 initialized @(377074,0)
GPGPU-Sim uArch: Shader 2 finished CTA #1 (377090,0), 2 CTAs running
GPGPU-Sim uArch: core:  2, cta: 1 initialized @(377091,0)
GPGPU-Sim uArch: Shader 7 finished CTA #1 (377131,0), 2 CTAs running
GPGPU-Sim uArch: core:  7, cta: 1 initialized @(377132,0)
GPGPU-Sim uArch: Shader 6 finished CTA #1 (377137,0), 2 CTAs running
GPGPU-Sim uArch: core:  6, cta: 1 initialized @(377138,0)
GPGPU-Sim uArch: Shader 11 finished CTA #1 (377138,0), 2 CTAs running
[...]
traffic_breakdown_memtocore[INST_ACC_R] = 16293888 {136:119808,}
maxmrqlatency = 118 
maxdqlatency = 0 
maxmflatency = 419 
averagemflatency = 200 
max_icnt2mem_latency = 271 
max_icnt2sh_latency = 1883123 
mrq_lat_table:2816 	373 	229 	2897 	2152 	726 	181 	0 	0 	0 	0 	0 	0 	0 	0 	0 	0 	0 	0 	0 	0 	0 	0 	0 	0 	0 	0 	0 	0 	0 	0 	0 	
dq_lat_table:0 	0 	0 	0 	0 	0 	0 	0 	0 	0 	0 	0 	0 	0 	0 	0 	0 	0 	0 	0 	0 	0 	0 	0 	0 	0 	0 	0 	0 	0 	0 	0 	
mf_lat_table:0 	0 	0 	0 	0 	0 	0 	19314 	7197 	0 	0 	0 	0 	0 	0 	0 	0 	0 	0 	0 	0 	0 	0 	0 	0 	0 	0 	0 	0 	0 	0 	0 	
icnt2mem_lat_table:0 	0 	0 	125186 	9858 	10088 	1093 	89 	5 	0 	0 	0 	0 	0 	0 	0 	0 	0 	0 	0 	0 	0 	0 	0 	
icnt2sh_lat_table:0 	0 	0 	1902 	33 	0 	0 	0 	0 	0 	0 	0 	0 	0 	0 	480 	960 	1440 	3840 	6720 	11136 	0 	0 	0 	
mf_lat_pw_table:0 	0 	0 	0 	0 	0 	0 	233 	99 	0 	0 	0 	0 	0 	0 	0 	0 	0 	0 	0 	0 	0 	0 	0 	0 	0 	0 	0 	0 	0 	0 	0 	
maximum concurrent accesses to same row:
dram[0]:         7         8         6         5        10        10         0         0         0         0         0         0         0         0         0         0 
dram[1]:         8         8         6         4        10        10         0         0         0         0         0         0         0         0         0         0 
dram[2]:         8         8         6         4        10        12         0         0         0         0         0         0         0         0         0         0 
dram[3]:         8         8         6         4        10        12         0         0         0         0         0         0         0         0         0         0 
dram[4]:         8         8         6         4        10        12         0         0         0         0         0         0         0         0         0         0 
dram[5]:         7         8         6         4        10        12         0         0         0         0         0         0         0         0         0         0 
maximum service time to same row:
dram[0]:    663222    659288   1061136   1128061   1592903   1593286    163601    163562    594018    594103   1024744   1095915     90081     90054    233532    233485 
dram[1]:    627018    622854   1024739   1091716   1557054   1557106    163906    163866    594322    594407   1025049   1096219     54141     54165    197741    197688 
dram[2]:    662213    658013   1059850   1126878   1593169   1593245    163532    163613    594051    594176   1060943   1096016     90088     90074    233553    233518 
dram[3]:    625759    621510   1093467   1090442   1557049   1557183    163838    163924    594356    594481   1095254   1096321     54128     54153    197663    197747 
dram[4]:    660970    656633   1128581   1125546   1593198   1593296    163547    163671    594091    594193   1095737   1096056     90044     90038    233472    233566 
dram[5]:    623754    620165   1092928   1089073   1557176   1557187    163857    163976    594397    594497   1096041   1096360     54135     54157    197675    197797 
average row accesses per activate:
dram[0]: 42.250000 84.000000 83.000000 82.500000 60.000000 60.000000 32.000000 32.000000 32.000000 32.000000 32.000000 32.000000 72.000000 72.000000 160.000000 160.000000 
dram[1]: 84.000000 84.000000 83.000000 82.000000 60.000000 60.000000 32.000000 32.000000 32.000000 32.000000 32.000000 32.000000 72.000000 72.000000 160.000000 160.000000 
dram[2]: 84.000000 84.000000 83.000000 82.000000 60.000000 61.000000 32.000000 32.000000 32.000000 32.000000 32.000000 32.000000 72.000000 71.000000 160.000000 160.000000 
dram[3]: 84.000000 84.000000 83.000000 82.000000 60.000000 56.000000 32.000000 32.000000 32.000000 32.000000 32.000000 32.000000 72.000000 80.000000 160.000000 160.000000 
dram[4]: 84.000000 84.000000 83.000000 82.000000 60.000000 56.000000 32.000000 32.000000 32.000000 32.000000 32.000000 32.000000 72.000000 80.000000 160.000000 160.000000 
dram[5]: 83.500000 84.000000 83.000000 82.000000 60.000000 56.000000 32.000000 32.000000 32.000000 32.000000 32.000000 32.000000 72.000000 80.000000 160.000000 160.000000 
average row locality = 9374/134 = 69.955223
number of total memory accesses made:
dram[0]:         0         0         0         0         0         0         0         0         0         0         0         0         0         0         0         0 
dram[1]:         0         0         0         0         0         0         0         0         0         0         0         0         0         0         0         0 
dram[2]:         0         0         0         0         0         0         0         0         0         0         0         0         0         0         0         0 
dram[3]:         0         0         0         0         0         0         0         0         0         0         0         0         0         0         0         0 
dram[4]:         0         0         0         0         0         0         0         0         0         0         0         0         0         0         0         0 
dram[5]:         0         0         0         0         0         0         0         0         0         0         0         0         0         0         0         0 
total accesses: 0
min_bank_accesses = 0!
min_chip_accesses = 0!
number of total read accesses:
dram[0]:        41        40        38        37        32        32        32        32        32        32        32        32        32        32        32        32 
dram[1]:        40        40        38        36        32        32        32        32        32        32        32        32        32        32        32        32 
dram[2]:        40        40        38        36        32        34        32        32        32        32        32        32        32        31        32        32 
dram[3]:        40        40        38        36        32        32        32        32        32        32        32        32        32        32        32        32 
dram[4]:        40        40        38        36        32        32        32        32        32        32        32        32        32        32        32        32 
dram[5]:        39        40        38        36        32        32        32        32        32        32        32        32        32        32        32        32 
total reads: 3230
bank skew: 41/31 = 1.32
chip skew: 540/537 = 1.01
number of total write accesses:
dram[0]:       128       128       128       128        88        88         0         0         0         0         0         0        40        40       128       128 
dram[1]:       128       128       128       128        88        88         0         0         0         0         0         0        40        40       128       128 
dram[2]:       128       128       128       128        88        88         0         0         0         0         0         0        40        40       128       128 
dram[3]:       128       128       128       128        88        80         0         0         0         0         0         0        40        48       128       128 
dram[4]:       128       128       128       128        88        80         0         0         0         0         0         0        40        48       128       128 
dram[5]:       128       128       128       128        88        80         0         0         0         0         0         0        40        48       128       128 
total reads: 6144
min_bank_accesses = 0!
chip skew: 1024/1024 = 1.00
average mf latency per bank:
dram[0]:        623       602       604       600       598       595       333       333       333       333       333       333       661       566       656       627
dram[1]:        595       588       597       602       594       589       259       259       259       259       259       259       584       650       627       626
dram[2]:        594       586       596       603       595       588       333       333       333       332       333       333       688       584       625       624
dram[3]:        588       591       596       602       592       579       259       259       259       259       259       259       546       586       630       636
dram[4]:        594       594       595       603       600       590       335       333       334       333       333       333       549       600       640       637
dram[5]:        599       589       600       604       589       580       259       259       259       259       259       259       548       593       625       644
maximum mf latency per bank:
dram[0]:        330       349       316       330       328       351       273       273       272       273       273       272       405       338       359       319
dram[1]:        319       313       317       331       315       317       268       268       268       268       268       268       416       396       333       325
dram[2]:        322       308       313       331       306       313       273       280       272       272       271       273       419       362       338       333
dram[3]:        313       324       325       314       329       315       268       268       268       268       268       279       356       400       331       343
dram[4]:        308       335       324       314       355       332       281       273       275       272       273       273       323       361       362       341
dram[5]:        325       313       328       310       306       334       268       268       268       268       268       268       357       405       335       366

Number of Memory Banks Accessed per Memory Operation per Warp (from 0):
0	0	0	0	0	0	0	0	0	0	0	0	0	0	0	0	0	0	0	0	0	0	0	0	0	0	0	0	0	0	0	0	0	0	0	0	0	0	0	0	0	0	0	0	0	0	0	0	0	0	0	0	0	0	0	0	0	0	0	0	0	0	0	0	0	0	0	0	0	0	0	0	0	0	0	0	0	0	0	0	0	0	0	0	0	0	0	0	0	0	0	0	0	0	0	0	
Average # of Memory Banks Accessed per Memory Operation per Warp=-nan

position of mrq chosen
0	0	0	0	0	0	0	0	0	0	0	0	0	0	0	0	

average position of mrq chosen = -nan
Memory Partition 0: 
Cache L2_bank_000:
MSHR contents

Cache L2_bank_001:
MSHR contents

In Dram Latency Queue (total = 0): 
DRAM[0]: 16 bks, busW=4 BL=8 CL=12, tRRD=2 tCCD=6, tRCD=12 tRAS=28 tRP=12 tRC=40
n_cmd=2485723 n_nop=2483587 n_act=24 n_pre=8 n_req=1564 n_rd=1080 n_write=1024 bw_util=0.001693
n_activity=13014 dram_eff=0.3233
bk0: 82a 2484482i bk1: 80a 2484458i bk2: 76a 2484571i bk3: 74a 2484552i bk4: 64a 2484856i bk5: 64a 2484853i bk6: 64a 2485545i bk7: 64a 2485535i bk8: 64a 2485550i bk9: 64a 2485552i bk10: 64a 2485551i bk11: 64a 2485551i bk12: 64a 2485175i bk13: 64a 2485144i bk14: 64a 2484526i bk15: 64a 2484540i 
dram_util_bins: 0 0 0 0 0 0 0 0 0 0
dram_eff_bins: 0 0 0 0 0 0 0 0 0 0
mrqq: max=16 avg=0.0118577
Memory Partition 1: 
Cache L2_bank_002:
MSHR contents

Cache L2_bank_003:
MSHR contents

In Dram Latency Queue (total = 0): 
DRAM[1]: 16 bks, busW=4 BL=8 CL=12, tRRD=2 tCCD=6, tRCD=12 tRAS=28 tRP=12 tRC=40
n_cmd=2485723 n_nop=2483595 n_act=22 n_pre=6 n_req=1562 n_rd=1076 n_write=1024 bw_util=0.00169
n_activity=14114 dram_eff=0.2976
bk0: 80a 2484557i bk1: 80a 2484569i bk2: 76a 2484579i bk3: 72a 2484552i bk4: 64a 2484861i bk5: 64a 2484866i bk6: 64a 2485577i bk7: 64a 2485575i bk8: 64a 2485579i bk9: 64a 2485582i bk10: 64a 2485582i bk11: 64a 2485585i bk12: 64a 2485187i bk13: 64a 2485153i bk14: 64a 2484508i bk15: 64a 2484481i 
dram_util_bins: 0 0 0 0 0 0 0 0 0 0
dram_eff_bins: 0 0 0 0 0 0 0 0 0 0
mrqq: max=16 avg=0.0117885
Memory Partition 2: 
Cache L2_bank_004:
MSHR contents

Cache L2_bank_005:
MSHR contents

In Dram Latency Queue (total = 0): 
DRAM[2]: 16 bks, busW=4 BL=8 CL=12, tRRD=2 tCCD=6, tRCD=12 tRAS=28 tRP=12 tRC=40
n_cmd=2485723 n_nop=2483593 n_act=22 n_pre=6 n_req=1563 n_rd=1078 n_write=1024 bw_util=0.001691
n_activity=13107 dram_eff=0.3207
bk0: 80a 2484571i bk1: 80a 2484576i bk2: 76a 2484552i bk3: 72a 2484542i bk4: 64a 2484869i bk5: 68a 2484843i bk6: 64a 2485551i bk7: 64a 2485531i bk8: 64a 2485554i bk9: 64a 2485555i bk10: 64a 2485556i bk11: 64a 2485559i bk12: 64a 2485160i bk13: 62a 2485168i bk14: 64a 2484473i bk15: 64a 2484453i 
dram_util_bins: 0 0 0 0 0 0 0 0 0 0
dram_eff_bins: 0 0 0 0 0 0 0 0 0 0
mrqq: max=16 avg=0.0120919
Memory Partition 3: 
Cache L2_bank_006:
MSHR contents

Cache L2_bank_007:
MSHR contents

In Dram Latency Queue (total = 0): 
DRAM[3]: 16 bks, busW=4 BL=8 CL=12, tRRD=2 tCCD=6, tRCD=12 tRAS=28 tRP=12 tRC=40
n_cmd=2485723 n_nop=2483595 n_act=22 n_pre=6 n_req=1562 n_rd=1076 n_write=1024 bw_util=0.00169
n_activity=14050 dram_eff=0.2989
bk0: 80a 2484544i bk1: 80a 2484488i bk2: 76a 2484544i bk3: 72a 2484565i bk4: 64a 2484867i bk5: 64a 2484922i bk6: 64a 2485574i bk7: 64a 2485571i bk8: 64a 2485576i bk9: 64a 2485581i bk10: 64a 2485571i bk11: 64a 2485562i bk12: 64a 2485196i bk13: 64a 2485081i bk14: 64a 2484554i bk15: 64a 2484543i 
dram_util_bins: 0 0 0 0 0 0 0 0 0 0
dram_eff_bins: 0 0 0 0 0 0 0 0 0 0
mrqq: max=16 avg=0.0120653
Memory Partition 4: 
Cache L2_bank_008:
MSHR contents

Cache L2_bank_009:
MSHR contents

In Dram Latency Queue (total = 0): 
DRAM[4]: 16 bks, busW=4 BL=8 CL=12, tRRD=2 tCCD=6, tRCD=12 tRAS=28 tRP=12 tRC=40
n_cmd=2485723 n_nop=2483595 n_act=22 n_pre=6 n_req=1562 n_rd=1076 n_write=1024 bw_util=0.00169
n_activity=12711 dram_eff=0.3304
bk0: 80a 2484520i bk1: 80a 2484429i bk2: 76a 2484534i bk3: 72a 2484560i bk4: 64a 2484829i bk5: 64a 2484892i bk6: 64a 2485547i bk7: 64a 2485546i bk8: 64a 2485544i bk9: 64a 2485546i bk10: 64a 2485547i bk11: 64a 2485551i bk12: 64a 2485161i bk13: 64a 2485027i bk14: 64a 2484464i bk15: 64a 2484467i 
dram_util_bins: 0 0 0 0 0 0 0 0 0 0
dram_eff_bins: 0 0 0 0 0 0 0 0 0 0
mrqq: max=16 avg=0.0127054
Memory Partition 5: 
Cache L2_bank_010:
MSHR contents

Cache L2_bank_011:
MSHR contents

In Dram Latency Queue (total = 0): 
DRAM[5]: 16 bks, busW=4 BL=8 CL=12, tRRD=2 tCCD=6, tRCD=12 tRAS=28 tRP=12 tRC=40
n_cmd=2485723 n_nop=2483597 n_act=22 n_pre=6 n_req=1561 n_rd=1074 n_write=1024 bw_util=0.001688
n_activity=14088 dram_eff=0.2978
bk0: 78a 2484520i bk1: 80a 2484529i bk2: 76a 2484547i bk3: 72a 2484568i bk4: 64a 2484900i bk5: 64a 2484937i bk6: 64a 2485579i bk7: 64a 2485578i bk8: 64a 2485577i bk9: 64a 2485581i bk10: 64a 2485583i bk11: 64a 2485583i bk12: 64a 2485216i bk13: 64a 2485118i bk14: 64a 2484494i bk15: 64a 2484513i 
dram_util_bins: 0 0 0 0 0 0 0 0 0 0
dram_eff_bins: 0 0 0 0 0 0 0 0 0 0
mrqq: max=16 avg=0.0119406

========= L2 cache stats =========
L2_cache_bank[0]: Access = 13007, Miss = 271, Miss_rate = 0.021, Pending_hits = 429, Reservation_fails = 1549
L2_cache_bank[1]: Access = 12224, Miss = 269, Miss_rate = 0.022, Pending_hits = 423, Reservation_fails = 1321
L2_cache_bank[2]: Access = 12928, Miss = 270, Miss_rate = 0.021, Pending_hits = 426, Reservation_fails = 1312
L2_cache_bank[3]: Access = 11392, Miss = 268, Miss_rate = 0.024, Pending_hits = 420, Reservation_fails = 1243
L2_cache_bank[4]: Access = 12992, Miss = 270, Miss_rate = 0.021, Pending_hits = 426, Reservation_fails = 1462
L2_cache_bank[5]: Access = 11456, Miss = 269, Miss_rate = 0.023, Pending_hits = 420, Reservation_fails = 1204
L2_cache_bank[6]: Access = 12928, Miss = 270, Miss_rate = 0.021, Pending_hits = 426, Reservation_fails = 1354
L2_cache_bank[7]: Access = 11392, Miss = 268, Miss_rate = 0.024, Pending_hits = 420, Reservation_fails = 1191
L2_cache_bank[8]: Access = 12992, Miss = 270, Miss_rate = 0.021, Pending_hits = 426, Reservation_fails = 1411
L2_cache_bank[9]: Access = 11456, Miss = 268, Miss_rate = 0.023, Pending_hits = 420, Reservation_fails = 1294
L2_cache_bank[10]: Access = 12160, Miss = 269, Miss_rate = 0.022, Pending_hits = 423, Reservation_fails = 1289
L2_cache_bank[11]: Access = 11392, Miss = 268, Miss_rate = 0.024, Pending_hits = 420, Reservation_fails = 1198
L2_total_cache_accesses = 146319
L2_total_cache_misses = 3230
L2_total_cache_miss_rate = 0.0221
L2_total_cache_pending_hits = 5079
L2_total_cache_reservation_fails = 15828
L2_total_cache_breakdown:
	L2_cache_stats_breakdown[GLOBAL_ACC_R][HIT] = 383
	L2_cache_stats_breakdown[GLOBAL_ACC_R][MISS] = 1537
	L2_cache_stats_breakdown[CONST_ACC_R][HIT] = 11
	L2_cache_stats_breakdown[CONST_ACC_R][HIT_RESERVED] = 3
	L2_cache_stats_breakdown[CONST_ACC_R][MISS] = 1
	L2_cache_stats_breakdown[CONST_ACC_R][RESERVATION_FAIL] = 109
	L2_cache_stats_breakdown[GLOBAL_ACC_W][HIT] = 18432
	L2_cache_stats_breakdown[GLOBAL_ACC_W][HIT_RESERVED] = 4608
	L2_cache_stats_breakdown[GLOBAL_ACC_W][MISS] = 1536
	L2_cache_stats_breakdown[GLOBAL_ACC_W][RESERVATION_FAIL] = 1289
	L2_cache_stats_breakdown[INST_ACC_R][HIT] = 119184
	L2_cache_stats_breakdown[INST_ACC_R][HIT_RESERVED] = 468
	L2_cache_stats_breakdown[INST_ACC_R][MISS] = 156
	L2_cache_stats_breakdown[INST_ACC_R][RESERVATION_FAIL] = 14430
L2_cache_data_port_util = 0.022
L2_cache_fill_port_util = 0.001

icnt_total_pkts_mem_to_simt=633261
icnt_total_pkts_simt_to_mem=170895
LD_mem_lat_dist  0 0 0 0 0 0 0 0 0 0 0 0 0 0 0 0 0 0 0 0 0 0 0 0 0 0 0
ST_mem_lat_dist  0 0 0 0 0 0 0 0 0 0 0 0 0 0 0 0 0 0 0 0 0 0 0 0 0 0 0
----------------------------Interconnect-DETAILS--------------------------------
Class 0:
Packet latency average = 9.32167
	minimum = 6
	maximum = 184
Network latency average = 8.54383
	minimum = 6
	maximum = 144
Slowest packet = 11044
Flit latency average = 6.57658
	minimum = 6
	maximum = 143
Slowest flit = 31033
Fragmentation average = 0
	minimum = 0
	maximum = 0
Injected packet rate average = 0.00575557
	minimum = 0.00505862 (at node 3)
	maximum = 0.00690714 (at node 15)
Accepted packet rate average = 0.00575557
	minimum = 0.00505862 (at node 3)
	maximum = 0.00690714 (at node 15)
Injected flit rate average = 0.015816
	minimum = 0.00590827 (at node 3)
	maximum = 0.0301695 (at node 15)
Accepted flit rate average= 0.015816
	minimum = 0.00713708 (at node 18)
	maximum = 0.0227691 (at node 0)
Injected packet length average = 2.74795
Accepted packet length average = 2.74795
Total in-flight flits = 0 (0 measured)
====== Overall Traffic Statistics ======
====== Traffic class 0 ======
Packet latency average = 9.32167 (1 samples)
	minimum = 6 (1 samples)
	maximum = 184 (1 samples)
Network latency average = 8.54383 (1 samples)
	minimum = 6 (1 samples)
	maximum = 144 (1 samples)
Flit latency average = 6.57658 (1 samples)
	minimum = 6 (1 samples)
	maximum = 143 (1 samples)
Fragmentation average = 0 (1 samples)
	minimum = 0 (1 samples)
	maximum = 0 (1 samples)
Injected packet rate average = 0.00575557 (1 samples)
	minimum = 0.00505862 (1 samples)
	maximum = 0.00690714 (1 samples)
Accepted packet rate average = 0.00575557 (1 samples)
	minimum = 0.00505862 (1 samples)
	maximum = 0.00690714 (1 samples)
Injected flit rate average = 0.015816 (1 samples)
	minimum = 0.00590827 (1 samples)
	maximum = 0.0301695 (1 samples)
Accepted flit rate average = 0.015816 (1 samples)
	minimum = 0.00713708 (1 samples)
	maximum = 0.0227691 (1 samples)
Injected packet size average = 2.74795 (1 samples)
Accepted packet size average = 2.74795 (1 samples)
Hops average = 1 (1 samples)
----------------------------END-of-Interconnect-DETAILS-------------------------
GPGPU-Sim: synchronize waiting for inactive GPU simulation
GPGPU-Sim API: Stream Manager State


gpgpu_simulation_time = 0 days, 0 hrs, 9 min, 20 sec (560 sec)
gpgpu_simulation_rate = 224519 (inst/sec)
gpgpu_simulation_rate = 3362 (cycle/sec)
GPGPU-Sim: detected inactive GPU simulation thread

== GPU Timing ==
GPU init                 : 0.008000
Host input buffer alloc  : 0.004000
-----
Host output buffer alloc : 0.002000
GPU memory alloc         : 0.002000
Data copy in             : 6.850000
Kernel execution         : 554688.437500
Data copy out            : 6.804000
Last hasing stage        : 0.000000
GPU Proc. Time (gpu init and input alloc are not included):  554702.125000 

== CPU Execution Context ==
Threads       : 128
Blocks        : 384
Total Threads : 49152
Total Size    : 196656
Chunk Size    : 52
Padding       : 0

CPU Processing time(ms):    29.674000 

Output size: 196608
Test PASSED
CPU GPU
FD FD
DD DD
2 2
F9 F9
