

        *** GPGPU-Sim Simulator Version 3.2.2  [build 0] ***


GPGPU-Sim PTX: simulation mode 0 (can change with PTX_SIM_MODE_FUNC environment variable:
               1=functional simulation only, 0=detailed performance simulator)
GPGPU-Sim: Configuration options:

-network_mode                           1 # Interconnection network mode
-inter_config_file   config_fermi_islip.icnt # Interconnection network config file
-gpgpu_ptx_use_cuobjdump                    1 # Use cuobjdump to extract ptx and sass from binaries
-gpgpu_experimental_lib_support                    0 # Try to extract code from cuda libraries [Broken because of unknown cudaGetExportTable]
-gpgpu_ptx_convert_to_ptxplus                    0 # Convert SASS (native ISA) to ptxplus and run ptxplus
-gpgpu_ptx_force_max_capability                   20 # Force maximum compute capability
-gpgpu_ptx_inst_debug_to_file                    0 # Dump executed instructions' debug information to file
-gpgpu_ptx_inst_debug_file       inst_debug.txt # Executed instructions' debug output file
-gpgpu_ptx_inst_debug_thread_uid                    1 # Thread UID for executed instructions' debug output
-gpgpu_simd_model                       1 # 1 = post-dominator
-gpgpu_shader_core_pipeline              1536:32 # shader core pipeline config, i.e., {<nthread>:<warpsize>}
-gpgpu_tex_cache:l1  4:128:24,L:R:m:N:L,F:128:4,128:2 # per-shader L1 texture cache  (READ-ONLY) config  {<nsets>:<bsize>:<assoc>,<rep>:<wr>:<alloc>:<wr_alloc>,<mshr>:<N>:<merge>,<mq>:<rf>}
-gpgpu_const_cache:l1 64:64:2,L:R:f:N:L,A:2:32,4 # per-shader L1 constant memory cache  (READ-ONLY) config  {<nsets>:<bsize>:<assoc>,<rep>:<wr>:<alloc>:<wr_alloc>,<mshr>:<N>:<merge>,<mq>} 
-gpgpu_cache:il1     4:128:4,L:R:f:N:L,A:2:32,4 # shader L1 instruction cache config  {<nsets>:<bsize>:<assoc>,<rep>:<wr>:<alloc>:<wr_alloc>,<mshr>:<N>:<merge>,<mq>} 
-gpgpu_cache:dl1     32:128:4,L:L:m:N:H,A:32:8,8:2,0,0:0:1:1:0:1,1:4:8:16:32:64,/sciclone/data10/hwang07/GPU_RESEARCH/swl/swl_outputs/RESULTS/ # per-shader L1 data cache config  {<nsets>:<bsize>:<assoc>,<rep>:<wr>:<alloc>:<wr_alloc>,<mshr>:<N>:<merge>,<mq> | none}
-gpgpu_cache:dl1PrefL1                 none # per-shader L1 data cache config  {<nsets>:<bsize>:<assoc>,<rep>:<wr>:<alloc>:<wr_alloc>,<mshr>:<N>:<merge>,<mq> | none}
-gpgpu_cache:dl1PreShared                 none # per-shader L1 data cache config  {<nsets>:<bsize>:<assoc>,<rep>:<wr>:<alloc>:<wr_alloc>,<mshr>:<N>:<merge>,<mq> | none}
-gmem_skip_L1D                          0 # global memory access skip L1D cache (implements -Xptxas -dlcm=cg, default=no skip)
-gpgpu_perfect_mem                      0 # enable perfect memory mode (no cache miss)
-n_regfile_gating_group                    4 # group of lanes that should be read/written together)
-gpgpu_clock_gated_reg_file                    0 # enable clock gated reg file for power calculations
-gpgpu_clock_gated_lanes                    0 # enable clock gated lanes for power calculations
-gpgpu_shader_registers                32768 # Number of registers per shader core. Limits number of concurrent CTAs. (default 8192)
-gpgpu_shader_cta                       8 # Maximum number of concurrent CTAs in shader (default 8)
-gpgpu_num_cta_barriers                   16 # Maximum number of named barriers per CTA (default 16)
-gpgpu_n_clusters                      15 # number of processing clusters
-gpgpu_n_cores_per_cluster                    1 # number of simd cores per cluster
-gpgpu_n_cluster_ejection_buffer_size                    8 # number of packets in ejection buffer
-gpgpu_n_ldst_response_buffer_size                    2 # number of response packets in ld/st unit ejection buffer
-gpgpu_shmem_size                   16384 # Size of shared memory per shader core (default 16kB)
-gpgpu_shmem_size                   49152 # Size of shared memory per shader core (default 16kB)
-gpgpu_shmem_size_PrefL1                16384 # Size of shared memory per shader core (default 16kB)
-gpgpu_shmem_size_PrefShared                16384 # Size of shared memory per shader core (default 16kB)
-gpgpu_shmem_num_banks                   32 # Number of banks in the shared memory in each shader core (default 16)
-gpgpu_shmem_limited_broadcast                    0 # Limit shared memory to do one broadcast per cycle (default on)
-gpgpu_shmem_warp_parts                    1 # Number of portions a warp is divided into for shared memory bank conflict check 
-gpgpu_warpdistro_shader                   -1 # Specify which shader core to collect the warp size distribution from
-gpgpu_warp_issue_shader                    0 # Specify which shader core to collect the warp issue distribution from
-gpgpu_local_mem_map                    1 # Mapping from local memory space address to simulated GPU physical address space (default = enabled)
-gpgpu_num_reg_banks                   16 # Number of register banks (default = 8)
-gpgpu_reg_bank_use_warp_id                    0 # Use warp ID in mapping registers to banks (default = off)
-gpgpu_operand_collector_num_units_sp                    6 # number of collector units (default = 4)
-gpgpu_operand_collector_num_units_sfu                    8 # number of collector units (default = 4)
-gpgpu_operand_collector_num_units_mem                    2 # number of collector units (default = 2)
-gpgpu_operand_collector_num_units_gen                    0 # number of collector units (default = 0)
-gpgpu_operand_collector_num_in_ports_sp                    2 # number of collector unit in ports (default = 1)
-gpgpu_operand_collector_num_in_ports_sfu                    1 # number of collector unit in ports (default = 1)
-gpgpu_operand_collector_num_in_ports_mem                    1 # number of collector unit in ports (default = 1)
-gpgpu_operand_collector_num_in_ports_gen                    0 # number of collector unit in ports (default = 0)
-gpgpu_operand_collector_num_out_ports_sp                    2 # number of collector unit in ports (default = 1)
-gpgpu_operand_collector_num_out_ports_sfu                    1 # number of collector unit in ports (default = 1)
-gpgpu_operand_collector_num_out_ports_mem                    1 # number of collector unit in ports (default = 1)
-gpgpu_operand_collector_num_out_ports_gen                    0 # number of collector unit in ports (default = 0)
-gpgpu_coalesce_arch                   13 # Coalescing arch (default = 13, anything else is off for now)
-gpgpu_num_sched_per_core                    2 # Number of warp schedulers per core
-gpgpu_max_insn_issue_per_warp                    1 # Max number of instructions that can be issued per warp in one cycle by scheduler
-gpgpu_simt_core_sim_order                    1 # Select the simulation order of cores in a cluster (0=Fix, 1=Round-Robin)
-gpgpu_pipeline_widths        2,1,1,2,1,1,2 # Pipeline widths ID_OC_SP,ID_OC_SFU,ID_OC_MEM,OC_EX_SP,OC_EX_SFU,OC_EX_MEM,EX_WB
-gpgpu_num_sp_units                     2 # Number of SP units (default=1)
-gpgpu_num_sfu_units                    1 # Number of SF units (default=1)
-gpgpu_num_mem_units                    1 # Number if ldst units (default=1) WARNING: not hooked up to anything
-gpgpu_scheduler      warp_limiting:2:8:0 # Scheduler configuration: < lrr | gto | two_level_active > If two_level_active:<num_active_warps>:<inner_prioritization>:<outer_prioritization>For complete list of prioritization values see shader.h enum scheduler_prioritization_typeDefault: gto
-gpgpu_dram_scheduler                    1 # 0 = fifo, 1 = FR-FCFS (defaul)
-gpgpu_dram_partition_queues              8:8:8:8 # i2$:$2d:d2$:$2i
-l2_ideal                               0 # Use a ideal L2 cache that always hit
-gpgpu_cache:dl2     64:128:8,L:B:m:W:L,A:32:4,4:0,32 # unified banked L2 data cache config  {<nsets>:<bsize>:<assoc>,<rep>:<wr>:<alloc>:<wr_alloc>,<mshr>:<N>:<merge>,<mq>}
-gpgpu_cache:dl2_texture_only                    0 # L2 cache used for texture only
-gpgpu_n_mem                            6 # number of memory modules (e.g. memory controllers) in gpu
-gpgpu_n_sub_partition_per_mchannel                    2 # number of memory subpartition in each memory module
-gpgpu_n_mem_per_ctrlr                    2 # number of memory chips per memory controller
-gpgpu_memlatency_stat                   14 # track and display latency statistics 0x2 enables MC, 0x4 enables queue logs
-gpgpu_frfcfs_dram_sched_queue_size                   16 # 0 = unlimited (default); # entries per chip
-gpgpu_dram_return_queue_size                  116 # 0 = unlimited (default); # entries per chip
-gpgpu_dram_buswidth                    4 # default = 4 bytes (8 bytes per cycle at DDR)
-gpgpu_dram_burst_length                    8 # Burst length of each DRAM request (default = 4 data bus cycle)
-dram_data_command_freq_ratio                    4 # Frequency ratio between DRAM data bus and command bus (default = 2 times, i.e. DDR)
-gpgpu_dram_timing_opt nbk=16:CCD=2:RRD=6:RCD=12:RAS=28:RP=12:RC=40: CL=12:WL=4:CDLR=5:WR=12:nbkgrp=4:CCDL=3:RTPL=2 # DRAM timing parameters = {nbk:tCCD:tRRD:tRCD:tRAS:tRP:tRC:CL:WL:tCDLR:tWR:nbkgrp:tCCDL:tRTPL}
-rop_latency                          120 # ROP queue latency (default 85)
-dram_latency                         100 # DRAM latency (default 30)
-gpgpu_mem_addr_mapping dramid@8;00000000.00000000.00000000.00000000.0000RRRR.RRRRRRRR.BBBCCCCB.CCSSSSSS # mapping memory address to dram model {dramid@<start bit>;<memory address map>}
-gpgpu_mem_addr_test                    0 # run sweep test to check address mapping for aliased address
-gpgpu_mem_address_mask                    1 # 0 = old addressing mask, 1 = new addressing mask, 2 = new add. mask + flipped bank sel and chip sel bits
-gpuwattch_xml_file  gpuwattch_gtx480.xml # GPUWattch XML file
-power_simulation_enabled                    0 # Turn on power simulator (1=On, 0=Off)
-power_per_cycle_dump                    0 # Dump detailed power output each cycle
-power_trace_enabled                    0 # produce a file for the power trace (1=On, 0=Off)
-power_trace_zlevel                     6 # Compression level of the power trace output log (0=no comp, 9=highest)
-steady_power_levels_enabled                    0 # produce a file for the steady power levels (1=On, 0=Off)
-steady_state_definition                  8:4 # allowed deviation:number of samples
-gpgpu_max_cycle                        0 # terminates gpu simulation early (0 = no limit)
-gpgpu_max_insn                         0 # terminates gpu simulation early (0 = no limit)
-gpgpu_max_cta                          0 # terminates gpu simulation early (0 = no limit)
-gpgpu_runtime_stat                   500 # display runtime statistics such as dram utilization {<freq>:<flag>}
-liveness_message_freq                    1 # Minimum number of seconds between simulation liveness messages (0 = always print)
-gpgpu_flush_l1_cache                    0 # Flush L1 cache at the end of each kernel call
-gpgpu_flush_l2_cache                    0 # Flush L2 cache at the end of each kernel call
-gpgpu_deadlock_detect                    1 # Stop the simulation at deadlock (1=on (default), 0=off)
-gpgpu_ptx_instruction_classification                    0 # if enabled will classify ptx instruction types per kernel (Max 255 kernels now)
-gpgpu_ptx_sim_mode                     0 # Select between Performance (default) or Functional simulation (1)
-gpgpu_clock_domains 700.0:700.0:700.0:924.0 # Clock Domain Frequencies in MhZ {<Core Clock>:<ICNT Clock>:<L2 Clock>:<DRAM Clock>}
-gpgpu_max_concurrent_kernel                    8 # maximum kernels that can run concurrently on GPU
-gpgpu_cflog_interval                    0 # Interval between each snapshot in control flow logger
-visualizer_enabled                     0 # Turn on visualizer output (1=On, 0=Off)
-visualizer_outputfile                 NULL # Specifies the output log file for visualizer
-visualizer_zlevel                      6 # Compression level of the visualizer output log (0=no comp, 9=highest)
-trace_enabled                          0 # Turn on traces
-trace_components                    none # comma seperated list of traces to enable. Complete list found in trace_streams.tup. Default none
-trace_sampling_core                    0 # The core which is printed using CORE_DPRINTF. Default 0
-trace_sampling_memory_partition                   -1 # The memory partition which is printed using MEMPART_DPRINTF. Default -1 (i.e. all)
-enable_ptx_file_line_stats                    1 # Turn on PTX source line statistic profiling. (1 = On)
-ptx_line_stats_filename gpgpu_inst_stats.txt # Output file for PTX source line statistics.
-save_embedded_ptx                      0 # saves ptx files embedded in binary as <n>.ptx
-keep                                   0 # keep intermediate files created by GPGPU-Sim when interfacing with external programs
-gpgpu_ptx_save_converted_ptxplus                    0 # Saved converted ptxplus to a file
-ptx_opcode_latency_int         4,13,4,5,145 # Opcode latencies for integers <ADD,MAX,MUL,MAD,DIV>Default 1,1,19,25,145
-ptx_opcode_latency_fp          4,13,4,5,39 # Opcode latencies for single precision floating points <ADD,MAX,MUL,MAD,DIV>Default 1,1,1,1,30
-ptx_opcode_latency_dp         8,19,8,8,330 # Opcode latencies for double precision floating points <ADD,MAX,MUL,MAD,DIV>Default 8,8,8,8,335
-ptx_opcode_initiation_int            1,2,2,1,8 # Opcode initiation intervals for integers <ADD,MAX,MUL,MAD,DIV>Default 1,1,4,4,32
-ptx_opcode_initiation_fp            1,2,1,1,4 # Opcode initiation intervals for single precision floating points <ADD,MAX,MUL,MAD,DIV>Default 1,1,1,1,5
-ptx_opcode_initiation_dp         8,16,8,8,130 # Opcode initiation intervals for double precision floating points <ADD,MAX,MUL,MAD,DIV>Default 8,8,8,8,130
DRAM Timing Options:
nbk                                    16 # number of banks
CCD                                     2 # column to column delay
RRD                                     6 # minimal delay between activation of rows in different banks
RCD                                    12 # row to column delay
RAS                                    28 # time needed to activate row
RP                                     12 # time needed to precharge (deactivate) row
RC                                     40 # row cycle time
CDLR                                    5 # switching from write to read (changes tWTR)
WR                                     12 # last data-in to row precharge
CL                                     12 # CAS latency
WL                                      4 # Write latency
nbkgrp                                  4 # number of bank groups
CCDL                                    3 # column to column delay between accesses to different bank groups
RTPL                                    2 # read to precharge delay between accesses to different bank groups
Total number of memory sub partition = 12
addr_dec_mask[CHIP]  = 0000000000000000 	high:64 low:0
addr_dec_mask[BK]    = 000000000000e100 	high:16 low:8
addr_dec_mask[ROW]   = 000000000fff0000 	high:28 low:16
addr_dec_mask[COL]   = 0000000000001eff 	high:13 low:0
addr_dec_mask[BURST] = 000000000000003f 	high:6 low:0
sub_partition_id_mask = 0000000000000100
GPGPU-Sim uArch: clock freqs: 700000000.000000:700000000.000000:700000000.000000:924000000.000000
GPGPU-Sim uArch: clock periods: 0.00000000142857142857:0.00000000142857142857:0.00000000142857142857:0.00000000108225108225
*** Initializing Memory Statistics ***
GPGPU-Sim uArch: interconnect node map (shaderID+MemID to icntID)
GPGPU-Sim uArch: Memory nodes ID start from index: 15
GPGPU-Sim uArch:    0   1   2   3   4
GPGPU-Sim uArch:    5   6   7   8   9
GPGPU-Sim uArch:   10  11  12  13  14
GPGPU-Sim uArch:   15  16  17  18  19
GPGPU-Sim uArch:   20  21  22  23  24
GPGPU-Sim uArch:   25  26
GPGPU-Sim uArch: interconnect node reverse map (icntID to shaderID+MemID)
GPGPU-Sim uArch: Memory nodes start from ID: 15
GPGPU-Sim uArch:    0   1   2   3   4
GPGPU-Sim uArch:    5   6   7   8   9
GPGPU-Sim uArch:   10  11  12  13  14
GPGPU-Sim uArch:   15  16  17  18  19
GPGPU-Sim uArch:   20  21  22  23  24
GPGPU-Sim uArch:   25  26
e389dacb331e7fcddf4abf4a164344f1  /sciclone/data10/hwang07/adwait/applications/benchmarks/CUDA/BlackScholes/gpgpu_ptx_sim__BlackScholes
GPGPU-Sim uArch: performance model initialization complete.
GPGPU-Sim PTX: __cudaRegisterFatBinary, fat_cubin_handle = 1, filename=BlackScholes.cu
self exe links to: /sciclone/data10/hwang07/adwait/applications/benchmarks/CUDA/BlackScholes/gpgpu_ptx_sim__BlackScholes
Running md5sum using "md5sum /sciclone/data10/hwang07/adwait/applications/benchmarks/CUDA/BlackScholes/gpgpu_ptx_sim__BlackScholes "
Parsing file _cuobjdump_complete_output_sLjLxz
######### cuobjdump parser ########
## Adding new section ELF
Adding arch: sm_20
Adding identifier: BlackScholes.cu
## Adding new section PTX
Adding ptx filename: _cuobjdump_1.ptx
Adding arch: sm_20
Adding identifier: BlackScholes.cu
Done parsing!!!
GPGPU-Sim PTX: __cudaRegisterFunction _Z15BlackScholesGPUPfS_S_S_S_ffi : hostFun 0x0x405752, fat_cubin_handle = 1
GPGPU-Sim PTX: instruction assembly for function '_Z15BlackScholesGPUPfS_S_S_S_ffi'...   done.
GPGPU-Sim PTX: finding reconvergence points for '_Z15BlackScholesGPUPfS_S_S_S_ffi'...
GPGPU-Sim PTX: Finding dominators for '_Z15BlackScholesGPUPfS_S_S_S_ffi'...
GPGPU-Sim PTX: Finding immediate dominators for '_Z15BlackScholesGPUPfS_S_S_S_ffi'...
GPGPU-Sim PTX: Finding postdominators for '_Z15BlackScholesGPUPfS_S_S_S_ffi'...
GPGPU-Sim PTX: Finding immediate postdominators for '_Z15BlackScholesGPUPfS_S_S_S_ffi'...
GPGPU-Sim PTX: pre-decoding instructions for '_Z15BlackScholesGPUPfS_S_S_S_ffi'...
GPGPU-Sim PTX: reconvergence points for _Z15BlackScholesGPUPfS_S_S_S_ffi...
GPGPU-Sim PTX:  1 (potential) branch divergence @  PC=0x040 (_1.ptx:76) @%p1 bra $Lt_0_2818;
GPGPU-Sim PTX:    immediate post dominator      @  PC=0x3f8 (_1.ptx:200) exit;
GPGPU-Sim PTX:  2 (potential) branch divergence @  PC=0x3f0 (_1.ptx:197) @%p4 bra $Lt_0_3330;
GPGPU-Sim PTX:    immediate post dominator      @  PC=0x3f8 (_1.ptx:200) exit;
GPGPU-Sim PTX: ... end of reconvergence points for _Z15BlackScholesGPUPfS_S_S_S_ffi
GPGPU-Sim PTX: ... done pre-decoding instructions for '_Z15BlackScholesGPUPfS_S_S_S_ffi'.
GPGPU-Sim PTX: finished parsing EMBEDDED .ptx file _1.ptx
Adding _cuobjdump_1.ptx with cubin handle 1
GPGPU-Sim PTX: extracting embedded .ptx to temporary file "_ptx_EhjaFB"
Running: cat _ptx_EhjaFB | sed 's/.version 1.5/.version 1.4/' | sed 's/, texmode_independent//' | sed 's/\(\.extern \.const\[1\] .b8 \w\+\)\[\]/\1\[1\]/' | sed 's/const\[.\]/const\[0\]/g' > _ptx2_27E9gE
GPGPU-Sim PTX: generating ptxinfo using "$CUDA_INSTALL_PATH/bin/ptxas --gpu-name=sm_20 -v _ptx2_27E9gE --output-file  /dev/null 2> _ptx_EhjaFBinfo"
GPGPU-Sim PTX: Kernel '_Z15BlackScholesGPUPfS_S_S_S_ffi' : regs=31, lmem=0, smem=0, cmem=128
GPGPU-Sim PTX: removing ptxinfo using "rm -f _ptx_EhjaFB _ptx2_27E9gE _ptx_EhjaFBinfo"
GPGPU-Sim PTX: loading globals with explicit initializers... 
GPGPU-Sim PTX: finished loading globals (0 bytes total).
GPGPU-Sim PTX: loading constants with explicit initializers...  done.
Initializing data...
...allocating CPU memory for options.
...allocating GPU memory for options.
...generating input data in CPU mem.
...copying input data to GPU mem.
Data init done.
Executing Black-Scholes GPU kernel (1 iterations)...
GPGPU-Sim: synchronize waiting for inactive GPU simulation
GPGPU-Sim API: Stream Manager State
GPGPU-Sim: detected inactive GPU simulation thread

GPGPU-Sim PTX: cudaLaunch for 0x0x405752 (mode=performance simulation) on stream 0
GPGPU-Sim PTX: pushing kernel '_Z15BlackScholesGPUPfS_S_S_S_ffi' to stream 0, gridDim= (480,1,1) blockDim = (128,1,1) 
kernel '_Z15BlackScholesGPUPfS_S_S_S_ffi' transfer to GPU hardware scheduler
GPGPU-Sim uArch: Shader 1 bind to kernel 1 '_Z15BlackScholesGPUPfS_S_S_S_ffi'
GPGPU-Sim uArch: CTA/core = 8, limited by: regs cta_limit
GPGPU-Sim uArch: core:  1, cta: 0 initialized @(1,0)
GPGPU-Sim uArch: Shader 2 bind to kernel 1 '_Z15BlackScholesGPUPfS_S_S_S_ffi'
GPGPU-Sim uArch: core:  2, cta: 0 initialized @(1,0)
GPGPU-Sim uArch: Shader 3 bind to kernel 1 '_Z15BlackScholesGPUPfS_S_S_S_ffi'
GPGPU-Sim uArch: core:  3, cta: 0 initialized @(1,0)
GPGPU-Sim uArch: Shader 4 bind to kernel 1 '_Z15BlackScholesGPUPfS_S_S_S_ffi'
GPGPU-Sim uArch: core:  4, cta: 0 initialized @(1,0)
GPGPU-Sim uArch: Shader 5 bind to kernel 1 '_Z15BlackScholesGPUPfS_S_S_S_ffi'
GPGPU-Sim uArch: core:  5, cta: 0 initialized @(1,0)
GPGPU-Sim uArch: Shader 6 bind to kernel 1 '_Z15BlackScholesGPUPfS_S_S_S_ffi'
GPGPU-Sim uArch: core:  6, cta: 0 initialized @(1,0)
GPGPU-Sim uArch: Shader 7 bind to kernel 1 '_Z15BlackScholesGPUPfS_S_S_S_ffi'
GPGPU-Sim uArch: core:  7, cta: 0 initialized @(1,0)
GPGPU-Sim uArch: Shader 8 bind to kernel 1 '_Z15BlackScholesGPUPfS_S_S_S_ffi'
GPGPU-Sim uArch: core:  8, cta: 0 initialized @(1,0)
GPGPU-Sim uArch: Shader 9 bind to kernel 1 '_Z15BlackScholesGPUPfS_S_S_S_ffi'
GPGPU-Sim uArch: core:  9, cta: 0 initialized @(1,0)
GPGPU-Sim uArch: Shader 10 bind to kernel 1 '_Z15BlackScholesGPUPfS_S_S_S_ffi'
GPGPU-Sim uArch: core: 10, cta: 0 initialized @(1,0)
GPGPU-Sim uArch: Shader 11 bind to kernel 1 '_Z15BlackScholesGPUPfS_S_S_S_ffi'
GPGPU-Sim uArch: core: 11, cta: 0 initialized @(1,0)
GPGPU-Sim uArch: Shader 12 bind to kernel 1 '_Z15BlackScholesGPUPfS_S_S_S_ffi'
GPGPU-Sim uArch: core: 12, cta: 0 initialized @(1,0)
GPGPU-Sim uArch: Shader 13 bind to kernel 1 '_Z15BlackScholesGPUPfS_S_S_S_ffi'
GPGPU-Sim uArch: core: 13, cta: 0 initialized @(1,0)
GPGPU-Sim uArch: Shader 14 bind to kernel 1 '_Z15BlackScholesGPUPfS_S_S_S_ffi'
GPGPU-Sim uArch: core: 14, cta: 0 initialized @(1,0)
GPGPU-Sim uArch: Shader 0 bind to kernel 1 '_Z15BlackScholesGPUPfS_S_S_S_ffi'
GPGPU-Sim uArch: core:  0, cta: 0 initialized @(1,0)
GPGPU-Sim uArch: core:  1, cta: 1 initialized @(2,0)
GPGPU-Sim uArch: core:  2, cta: 1 initialized @(2,0)
GPGPU-Sim uArch: core:  3, cta: 1 initialized @(2,0)
GPGPU-Sim uArch: core:  4, cta: 1 initialized @(2,0)
GPGPU-Sim uArch: core:  5, cta: 1 initialized @(2,0)
GPGPU-Sim uArch: core:  6, cta: 1 initialized @(2,0)
GPGPU-Sim uArch: core:  7, cta: 1 initialized @(2,0)
GPGPU-Sim uArch: core:  8, cta: 1 initialized @(2,0)
GPGPU-Sim uArch: core:  9, cta: 1 initialized @(2,0)
GPGPU-Sim uArch: core: 10, cta: 1 initialized @(2,0)
GPGPU-Sim uArch: core: 11, cta: 1 initialized @(2,0)
GPGPU-Sim uArch: core: 12, cta: 1 initialized @(2,0)
GPGPU-Sim uArch: core: 13, cta: 1 initialized @(2,0)
GPGPU-Sim uArch: core: 14, cta: 1 initialized @(2,0)
GPGPU-Sim uArch: core:  0, cta: 1 initialized @(2,0)
GPGPU-Sim uArch: core:  1, cta: 2 initialized @(3,0)
GPGPU-Sim uArch: core:  2, cta: 2 initialized @(3,0)
GPGPU-Sim uArch: core:  3, cta: 2 initialized @(3,0)
GPGPU-Sim uArch: core:  4, cta: 2 initialized @(3,0)
GPGPU-Sim uArch: core:  5, cta: 2 initialized @(3,0)
GPGPU-Sim uArch: core:  6, cta: 2 initialized @(3,0)
GPGPU-Sim uArch: core:  7, cta: 2 initialized @(3,0)
GPGPU-Sim uArch: core:  8, cta: 2 initialized @(3,0)
GPGPU-Sim uArch: core:  9, cta: 2 initialized @(3,0)
GPGPU-Sim uArch: core: 10, cta: 2 initialized @(3,0)
GPGPU-Sim uArch: core: 11, cta: 2 initialized @(3,0)
GPGPU-Sim uArch: core: 12, cta: 2 initialized @(3,0)
GPGPU-Sim uArch: core: 13, cta: 2 initialized @(3,0)
GPGPU-Sim uArch: core: 14, cta: 2 initialized @(3,0)
GPGPU-Sim uArch: core:  0, cta: 2 initialized @(3,0)
GPGPU-Sim uArch: core:  1, cta: 3 initialized @(4,0)
GPGPU-Sim uArch: core:  2, cta: 3 initialized @(4,0)
GPGPU-Sim uArch: core:  3, cta: 3 initialized @(4,0)
GPGPU-Sim uArch: core:  4, cta: 3 initialized @(4,0)
GPGPU-Sim uArch: core:  5, cta: 3 initialized @(4,0)
GPGPU-Sim uArch: core:  6, cta: 3 initialized @(4,0)
GPGPU-Sim uArch: core:  7, cta: 3 initialized @(4,0)
GPGPU-Sim uArch: core:  8, cta: 3 initialized @(4,0)
GPGPU-Sim uArch: core:  9, cta: 3 initialized @(4,0)
GPGPU-Sim uArch: core: 10, cta: 3 initialized @(4,0)
GPGPU-Sim uArch: core: 11, cta: 3 initialized @(4,0)
GPGPU-Sim uArch: core: 12, cta: 3 initialized @(4,0)
GPGPU-Sim uArch: core: 13, cta: 3 initialized @(4,0)
GPGPU-Sim uArch: core: 14, cta: 3 initialized @(4,0)
GPGPU-Sim uArch: core:  0, cta: 3 initialized @(4,0)
GPGPU-Sim uArch: core:  1, cta: 4 initialized @(5,0)
GPGPU-Sim uArch: core:  2, cta: 4 initialized @(5,0)
GPGPU-Sim uArch: core:  3, cta: 4 initialized @(5,0)
GPGPU-Sim uArch: core:  4, cta: 4 initialized @(5,0)
GPGPU-Sim uArch: core:  5, cta: 4 initialized @(5,0)
GPGPU-Sim uArch: core:  6, cta: 4 initialized @(5,0)
GPGPU-Sim uArch: core:  7, cta: 4 initialized @(5,0)
GPGPU-Sim uArch: core:  8, cta: 4 initialized @(5,0)
GPGPU-Sim uArch: core:  9, cta: 4 initialized @(5,0)
GPGPU-Sim uArch: core: 10, cta: 4 initialized @(5,0)
GPGPU-Sim uArch: core: 11, cta: 4 initialized @(5,0)
GPGPU-Sim uArch: core: 12, cta: 4 initialized @(5,0)
GPGPU-Sim uArch: core: 13, cta: 4 initialized @(5,0)
GPGPU-Sim uArch: core: 14, cta: 4 initialized @(5,0)
GPGPU-Sim uArch: core:  0, cta: 4 initialized @(5,0)
GPGPU-Sim uArch: core:  1, cta: 5 initialized @(6,0)
GPGPU-Sim uArch: core:  2, cta: 5 initialized @(6,0)
GPGPU-Sim uArch: core:  3, cta: 5 initialized @(6,0)
GPGPU-Sim uArch: core:  4, cta: 5 initialized @(6,0)
GPGPU-Sim uArch: core:  5, cta: 5 initialized @(6,0)
GPGPU-Sim uArch: core:  6, cta: 5 initialized @(6,0)
GPGPU-Sim uArch: core:  7, cta: 5 initialized @(6,0)
GPGPU-Sim uArch: core:  8, cta: 5 initialized @(6,0)
GPGPU-Sim uArch: core:  9, cta: 5 initialized @(6,0)
GPGPU-Sim uArch: core: 10, cta: 5 initialized @(6,0)
GPGPU-Sim uArch: core: 11, cta: 5 initialized @(6,0)
GPGPU-Sim uArch: core: 12, cta: 5 initialized @(6,0)
GPGPU-Sim uArch: core: 13, cta: 5 initialized @(6,0)
GPGPU-Sim uArch: core: 14, cta: 5 initialized @(6,0)
GPGPU-Sim uArch: core:  0, cta: 5 initialized @(6,0)
GPGPU-Sim uArch: core:  1, cta: 6 initialized @(7,0)
GPGPU-Sim uArch: core:  2, cta: 6 initialized @(7,0)
GPGPU-Sim uArch: core:  3, cta: 6 initialized @(7,0)
GPGPU-Sim uArch: core:  4, cta: 6 initialized @(7,0)
GPGPU-Sim uArch: core:  5, cta: 6 initialized @(7,0)
GPGPU-Sim uArch: core:  6, cta: 6 initialized @(7,0)
GPGPU-Sim uArch: core:  7, cta: 6 initialized @(7,0)
GPGPU-Sim uArch: core:  8, cta: 6 initialized @(7,0)
GPGPU-Sim uArch: core:  9, cta: 6 initialized @(7,0)
GPGPU-Sim uArch: core: 10, cta: 6 initialized @(7,0)
GPGPU-Sim uArch: core: 11, cta: 6 initialized @(7,0)
GPGPU-Sim uArch: core: 12, cta: 6 initialized @(7,0)
GPGPU-Sim uArch: core: 13, cta: 6 initialized @(7,0)
GPGPU-Sim uArch: core: 14, cta: 6 initialized @(7,0)
GPGPU-Sim uArch: core:  0, cta: 6 initialized @(7,0)
GPGPU-Sim uArch: core:  1, cta: 7 initialized @(8,0)
GPGPU-Sim uArch: core:  2, cta: 7 initialized @(8,0)
GPGPU-Sim uArch: core:  3, cta: 7 initialized @(8,0)
GPGPU-Sim uArch: core:  4, cta: 7 initialized @(8,0)
GPGPU-Sim uArch: core:  5, cta: 7 initialized @(8,0)
GPGPU-Sim uArch: core:  6, cta: 7 initialized @(8,0)
GPGPU-Sim uArch: core:  7, cta: 7 initialized @(8,0)
GPGPU-Sim uArch: core:  8, cta: 7 initialized @(8,0)
GPGPU-Sim uArch: core:  9, cta: 7 initialized @(8,0)
GPGPU-Sim uArch: core: 10, cta: 7 initialized @(8,0)
GPGPU-Sim uArch: core: 11, cta: 7 initialized @(8,0)
GPGPU-Sim uArch: core: 12, cta: 7 initialized @(8,0)
GPGPU-Sim uArch: core: 13, cta: 7 initialized @(8,0)
GPGPU-Sim uArch: core: 14, cta: 7 initialized @(8,0)
GPGPU-Sim uArch: core:  0, cta: 7 initialized @(8,0)
GPGPU-Sim uArch: cycles simulated: 500  inst.: 46080 (ipc=92.2) sim_rate=23040 (inst/sec) elapsed = 0:0:00:02 / Tue Mar 22 07:02:18 2016
GPGPU-Sim PTX: 100000 instructions simulated : ctaid=(34,0,0) tid=(95,0,0)
GPGPU-Sim PTX: 200000 instructions simulated : ctaid=(21,0,0) tid=(31,0,0)
GPGPU-Sim PTX: 300000 instructions simulated : ctaid=(43,0,0) tid=(95,0,0)
GPGPU-Sim uArch: cycles simulated: 2000  inst.: 301888 (ipc=150.9) sim_rate=100629 (inst/sec) elapsed = 0:0:00:03 / Tue Mar 22 07:02:19 2016
GPGPU-Sim PTX: 400000 instructions simulated : ctaid=(2,0,0) tid=(63,0,0)
GPGPU-Sim PTX: 500000 instructions simulated : ctaid=(2,0,0) tid=(31,0,0)
GPGPU-Sim PTX: 600000 instructions simulated : ctaid=(14,0,0) tid=(31,0,0)
GPGPU-Sim PTX: 700000 instructions simulated : ctaid=(47,0,0) tid=(63,0,0)
GPGPU-Sim PTX: 800000 instructions simulated : ctaid=(57,0,0) tid=(95,0,0)
GPGPU-Sim uArch: cycles simulated: 3500  inst.: 856416 (ipc=244.7) sim_rate=214104 (inst/sec) elapsed = 0:0:00:04 / Tue Mar 22 07:02:20 2016
GPGPU-Sim PTX: 900000 instructions simulated : ctaid=(49,0,0) tid=(31,0,0)
GPGPU-Sim PTX: 1000000 instructions simulated : ctaid=(4,0,0) tid=(95,0,0)
GPGPU-Sim PTX: 1100000 instructions simulated : ctaid=(4,0,0) tid=(31,0,0)
GPGPU-Sim PTX: 1200000 instructions simulated : ctaid=(14,0,0) tid=(63,0,0)
GPGPU-Sim uArch: cycles simulated: 5000  inst.: 1193536 (ipc=238.7) sim_rate=238707 (inst/sec) elapsed = 0:0:00:05 / Tue Mar 22 07:02:21 2016
GPGPU-Sim PTX: 1300000 instructions simulated : ctaid=(24,0,0) tid=(63,0,0)
GPGPU-Sim PTX: 1400000 instructions simulated : ctaid=(30,0,0) tid=(31,0,0)
GPGPU-Sim PTX: 1500000 instructions simulated : ctaid=(43,0,0) tid=(95,0,0)
GPGPU-Sim PTX: 1600000 instructions simulated : ctaid=(4,0,0) tid=(31,0,0)
GPGPU-Sim PTX: 1700000 instructions simulated : ctaid=(22,0,0) tid=(95,0,0)
GPGPU-Sim PTX: 1800000 instructions simulated : ctaid=(2,0,0) tid=(127,0,0)
GPGPU-Sim uArch: cycles simulated: 6000  inst.: 1867104 (ipc=311.2) sim_rate=311184 (inst/sec) elapsed = 0:0:00:06 / Tue Mar 22 07:02:22 2016
GPGPU-Sim PTX: 1900000 instructions simulated : ctaid=(10,0,0) tid=(31,0,0)
GPGPU-Sim PTX: 2000000 instructions simulated : ctaid=(15,0,0) tid=(31,0,0)
GPGPU-Sim PTX: 2100000 instructions simulated : ctaid=(5,0,0) tid=(127,0,0)
GPGPU-Sim PTX: 2200000 instructions simulated : ctaid=(54,0,0) tid=(127,0,0)
GPGPU-Sim PTX: 2300000 instructions simulated : ctaid=(31,0,0) tid=(63,0,0)
GPGPU-Sim uArch: cycles simulated: 7000  inst.: 2309248 (ipc=329.9) sim_rate=329892 (inst/sec) elapsed = 0:0:00:07 / Tue Mar 22 07:02:23 2016
GPGPU-Sim PTX: 2400000 instructions simulated : ctaid=(8,0,0) tid=(63,0,0)
GPGPU-Sim PTX: 2500000 instructions simulated : ctaid=(32,0,0) tid=(63,0,0)
GPGPU-Sim PTX: 2600000 instructions simulated : ctaid=(40,0,0) tid=(31,0,0)
GPGPU-Sim PTX: 2700000 instructions simulated : ctaid=(44,0,0) tid=(95,0,0)
GPGPU-Sim PTX: 2800000 instructions simulated : ctaid=(29,0,0) tid=(63,0,0)
GPGPU-Sim PTX: 2900000 instructions simulated : ctaid=(13,0,0) tid=(127,0,0)
GPGPU-Sim PTX: 3000000 instructions simulated : ctaid=(43,0,0) tid=(95,0,0)
GPGPU-Sim PTX: 3100000 instructions simulated : ctaid=(46,0,0) tid=(31,0,0)
GPGPU-Sim uArch: cycles simulated: 8500  inst.: 3122464 (ipc=367.3) sim_rate=390308 (inst/sec) elapsed = 0:0:00:08 / Tue Mar 22 07:02:24 2016
GPGPU-Sim PTX: 3200000 instructions simulated : ctaid=(36,0,0) tid=(95,0,0)
GPGPU-Sim PTX: 3300000 instructions simulated : ctaid=(44,0,0) tid=(95,0,0)
GPGPU-Sim PTX: 3400000 instructions simulated : ctaid=(47,0,0) tid=(95,0,0)
GPGPU-Sim PTX: 3500000 instructions simulated : ctaid=(13,0,0) tid=(127,0,0)
GPGPU-Sim PTX: 3600000 instructions simulated : ctaid=(38,0,0) tid=(31,0,0)
GPGPU-Sim PTX: 3700000 instructions simulated : ctaid=(23,0,0) tid=(95,0,0)
GPGPU-Sim uArch: cycles simulated: 9500  inst.: 3689568 (ipc=388.4) sim_rate=409952 (inst/sec) elapsed = 0:0:00:09 / Tue Mar 22 07:02:25 2016
GPGPU-Sim PTX: 3800000 instructions simulated : ctaid=(43,0,0) tid=(63,0,0)
GPGPU-Sim PTX: 3900000 instructions simulated : ctaid=(49,0,0) tid=(63,0,0)
GPGPU-Sim PTX: 4000000 instructions simulated : ctaid=(51,0,0) tid=(127,0,0)
GPGPU-Sim PTX: 4100000 instructions simulated : ctaid=(33,0,0) tid=(63,0,0)
GPGPU-Sim PTX: 4200000 instructions simulated : ctaid=(57,0,0) tid=(63,0,0)
GPGPU-Sim uArch: cycles simulated: 10500  inst.: 4254784 (ipc=405.2) sim_rate=425478 (inst/sec) elapsed = 0:0:00:10 / Tue Mar 22 07:02:26 2016
GPGPU-Sim PTX: 4300000 instructions simulated : ctaid=(50,0,0) tid=(127,0,0)
GPGPU-Sim PTX: 4400000 instructions simulated : ctaid=(26,0,0) tid=(63,0,0)
GPGPU-Sim PTX: 4500000 instructions simulated : ctaid=(46,0,0) tid=(31,0,0)
GPGPU-Sim PTX: 4600000 instructions simulated : ctaid=(14,0,0) tid=(95,0,0)
GPGPU-Sim PTX: 4700000 instructions simulated : ctaid=(55,0,0) tid=(63,0,0)
GPGPU-Sim PTX: 4800000 instructions simulated : ctaid=(54,0,0) tid=(95,0,0)
GPGPU-Sim uArch: cycles simulated: 11500  inst.: 4799200 (ipc=417.3) sim_rate=436290 (inst/sec) elapsed = 0:0:00:11 / Tue Mar 22 07:02:27 2016
GPGPU-Sim PTX: 4900000 instructions simulated : ctaid=(49,0,0) tid=(95,0,0)
GPGPU-Sim PTX: 5000000 instructions simulated : ctaid=(37,0,0) tid=(31,0,0)
GPGPU-Sim PTX: 5100000 instructions simulated : ctaid=(23,0,0) tid=(127,0,0)
GPGPU-Sim PTX: 5200000 instructions simulated : ctaid=(43,0,0) tid=(95,0,0)
GPGPU-Sim PTX: 5300000 instructions simulated : ctaid=(34,0,0) tid=(31,0,0)
GPGPU-Sim uArch: cycles simulated: 12500  inst.: 5332608 (ipc=426.6) sim_rate=444384 (inst/sec) elapsed = 0:0:00:12 / Tue Mar 22 07:02:28 2016
GPGPU-Sim PTX: 5400000 instructions simulated : ctaid=(4,0,0) tid=(127,0,0)
GPGPU-Sim PTX: 5500000 instructions simulated : ctaid=(29,0,0) tid=(95,0,0)
GPGPU-Sim PTX: 5600000 instructions simulated : ctaid=(35,0,0) tid=(31,0,0)
GPGPU-Sim PTX: 5700000 instructions simulated : ctaid=(33,0,0) tid=(31,0,0)
GPGPU-Sim PTX: 5800000 instructions simulated : ctaid=(16,0,0) tid=(127,0,0)
GPGPU-Sim PTX: 5900000 instructions simulated : ctaid=(16,0,0) tid=(63,0,0)
GPGPU-Sim uArch: cycles simulated: 13500  inst.: 5879136 (ipc=435.5) sim_rate=452241 (inst/sec) elapsed = 0:0:00:13 / Tue Mar 22 07:02:29 2016
GPGPU-Sim PTX: 6000000 instructions simulated : ctaid=(55,0,0) tid=(63,0,0)
GPGPU-Sim PTX: 6100000 instructions simulated : ctaid=(20,0,0) tid=(95,0,0)
GPGPU-Sim PTX: 6200000 instructions simulated : ctaid=(33,0,0) tid=(127,0,0)
GPGPU-Sim PTX: 6300000 instructions simulated : ctaid=(57,0,0) tid=(31,0,0)
GPGPU-Sim PTX: 6400000 instructions simulated : ctaid=(14,0,0) tid=(63,0,0)
GPGPU-Sim uArch: cycles simulated: 14500  inst.: 6413824 (ipc=442.3) sim_rate=458130 (inst/sec) elapsed = 0:0:00:14 / Tue Mar 22 07:02:30 2016
GPGPU-Sim PTX: 6500000 instructions simulated : ctaid=(4,0,0) tid=(63,0,0)
GPGPU-Sim PTX: 6600000 instructions simulated : ctaid=(16,0,0) tid=(63,0,0)
GPGPU-Sim PTX: 6700000 instructions simulated : ctaid=(8,0,0) tid=(127,0,0)
GPGPU-Sim PTX: 6800000 instructions simulated : ctaid=(45,0,0) tid=(127,0,0)
GPGPU-Sim PTX: 6900000 instructions simulated : ctaid=(58,0,0) tid=(63,0,0)
GPGPU-Sim uArch: cycles simulated: 15500  inst.: 6936320 (ipc=447.5) sim_rate=462421 (inst/sec) elapsed = 0:0:00:15 / Tue Mar 22 07:02:31 2016
GPGPU-Sim PTX: 7000000 instructions simulated : ctaid=(34,0,0) tid=(63,0,0)
GPGPU-Sim PTX: 7100000 instructions simulated : ctaid=(33,0,0) tid=(31,0,0)
GPGPU-Sim PTX: 7200000 instructions simulated : ctaid=(11,0,0) tid=(95,0,0)
GPGPU-Sim PTX: 7300000 instructions simulated : ctaid=(4,0,0) tid=(31,0,0)
GPGPU-Sim PTX: 7400000 instructions simulated : ctaid=(53,0,0) tid=(31,0,0)
GPGPU-Sim PTX: 7500000 instructions simulated : ctaid=(56,0,0) tid=(63,0,0)
GPGPU-Sim uArch: cycles simulated: 16500  inst.: 7484992 (ipc=453.6) sim_rate=467812 (inst/sec) elapsed = 0:0:00:16 / Tue Mar 22 07:02:32 2016
GPGPU-Sim PTX: 7600000 instructions simulated : ctaid=(7,0,0) tid=(63,0,0)
GPGPU-Sim PTX: 7700000 instructions simulated : ctaid=(1,0,0) tid=(127,0,0)
GPGPU-Sim PTX: 7800000 instructions simulated : ctaid=(0,0,0) tid=(127,0,0)
GPGPU-Sim PTX: 7900000 instructions simulated : ctaid=(29,0,0) tid=(31,0,0)
GPGPU-Sim PTX: 8000000 instructions simulated : ctaid=(14,0,0) tid=(31,0,0)
GPGPU-Sim uArch: cycles simulated: 17500  inst.: 8049280 (ipc=460.0) sim_rate=473487 (inst/sec) elapsed = 0:0:00:17 / Tue Mar 22 07:02:33 2016
GPGPU-Sim PTX: 8100000 instructions simulated : ctaid=(10,0,0) tid=(31,0,0)
GPGPU-Sim PTX: 8200000 instructions simulated : ctaid=(11,0,0) tid=(127,0,0)
GPGPU-Sim PTX: 8300000 instructions simulated : ctaid=(24,0,0) tid=(31,0,0)
GPGPU-Sim PTX: 8400000 instructions simulated : ctaid=(1,0,0) tid=(63,0,0)
GPGPU-Sim PTX: 8500000 instructions simulated : ctaid=(34,0,0) tid=(95,0,0)
GPGPU-Sim PTX: 8600000 instructions simulated : ctaid=(30,0,0) tid=(63,0,0)
GPGPU-Sim uArch: cycles simulated: 18500  inst.: 8601408 (ipc=464.9) sim_rate=477856 (inst/sec) elapsed = 0:0:00:18 / Tue Mar 22 07:02:34 2016
GPGPU-Sim PTX: 8700000 instructions simulated : ctaid=(33,0,0) tid=(31,0,0)
GPGPU-Sim PTX: 8800000 instructions simulated : ctaid=(26,0,0) tid=(95,0,0)
GPGPU-Sim PTX: 8900000 instructions simulated : ctaid=(1,0,0) tid=(31,0,0)
GPGPU-Sim PTX: 9000000 instructions simulated : ctaid=(33,0,0) tid=(95,0,0)
GPGPU-Sim PTX: 9100000 instructions simulated : ctaid=(53,0,0) tid=(95,0,0)
GPGPU-Sim uArch: cycles simulated: 19500  inst.: 9121152 (ipc=467.8) sim_rate=480060 (inst/sec) elapsed = 0:0:00:19 / Tue Mar 22 07:02:35 2016
GPGPU-Sim PTX: 9200000 instructions simulated : ctaid=(0,0,0) tid=(127,0,0)
GPGPU-Sim PTX: 9300000 instructions simulated : ctaid=(41,0,0) tid=(95,0,0)
GPGPU-Sim PTX: 9400000 instructions simulated : ctaid=(10,0,0) tid=(31,0,0)
GPGPU-Sim PTX: 9500000 instructions simulated : ctaid=(38,0,0) tid=(31,0,0)
GPGPU-Sim PTX: 9600000 instructions simulated : ctaid=(4,0,0) tid=(63,0,0)
GPGPU-Sim uArch: cycles simulated: 20500  inst.: 9642176 (ipc=470.4) sim_rate=482108 (inst/sec) elapsed = 0:0:00:20 / Tue Mar 22 07:02:36 2016
GPGPU-Sim PTX: 9700000 instructions simulated : ctaid=(27,0,0) tid=(95,0,0)
GPGPU-Sim PTX: 9800000 instructions simulated : ctaid=(1,0,0) tid=(63,0,0)
GPGPU-Sim PTX: 9900000 instructions simulated : ctaid=(23,0,0) tid=(95,0,0)
GPGPU-Sim PTX: 10000000 instructions simulated : ctaid=(32,0,0) tid=(127,0,0)
GPGPU-Sim PTX: 10100000 instructions simulated : ctaid=(40,0,0) tid=(95,0,0)
GPGPU-Sim uArch: cycles simulated: 21500  inst.: 10175776 (ipc=473.3) sim_rate=484560 (inst/sec) elapsed = 0:0:00:21 / Tue Mar 22 07:02:37 2016
GPGPU-Sim PTX: 10200000 instructions simulated : ctaid=(44,0,0) tid=(31,0,0)
GPGPU-Sim PTX: 10300000 instructions simulated : ctaid=(0,0,0) tid=(31,0,0)
GPGPU-Sim PTX: 10400000 instructions simulated : ctaid=(15,0,0) tid=(95,0,0)
GPGPU-Sim PTX: 10500000 instructions simulated : ctaid=(12,0,0) tid=(127,0,0)
GPGPU-Sim PTX: 10600000 instructions simulated : ctaid=(55,0,0) tid=(31,0,0)
GPGPU-Sim PTX: 10700000 instructions simulated : ctaid=(33,0,0) tid=(31,0,0)
GPGPU-Sim PTX: 10800000 instructions simulated : ctaid=(48,0,0) tid=(127,0,0)
GPGPU-Sim PTX: 10900000 instructions simulated : ctaid=(38,0,0) tid=(127,0,0)
GPGPU-Sim uArch: cycles simulated: 23000  inst.: 10957568 (ipc=476.4) sim_rate=498071 (inst/sec) elapsed = 0:0:00:22 / Tue Mar 22 07:02:38 2016
GPGPU-Sim PTX: 11000000 instructions simulated : ctaid=(47,0,0) tid=(31,0,0)
GPGPU-Sim PTX: 11100000 instructions simulated : ctaid=(38,0,0) tid=(95,0,0)
GPGPU-Sim PTX: 11200000 instructions simulated : ctaid=(19,0,0) tid=(63,0,0)
GPGPU-Sim PTX: 11300000 instructions simulated : ctaid=(55,0,0) tid=(31,0,0)
GPGPU-Sim PTX: 11400000 instructions simulated : ctaid=(11,0,0) tid=(127,0,0)
GPGPU-Sim PTX: 11500000 instructions simulated : ctaid=(17,0,0) tid=(63,0,0)
GPGPU-Sim uArch: cycles simulated: 24000  inst.: 11479488 (ipc=478.3) sim_rate=499108 (inst/sec) elapsed = 0:0:00:23 / Tue Mar 22 07:02:39 2016
GPGPU-Sim PTX: 11600000 instructions simulated : ctaid=(20,0,0) tid=(31,0,0)
GPGPU-Sim PTX: 11700000 instructions simulated : ctaid=(38,0,0) tid=(127,0,0)
GPGPU-Sim PTX: 11800000 instructions simulated : ctaid=(0,0,0) tid=(31,0,0)
GPGPU-Sim PTX: 11900000 instructions simulated : ctaid=(34,0,0) tid=(31,0,0)
GPGPU-Sim PTX: 12000000 instructions simulated : ctaid=(41,0,0) tid=(63,0,0)
GPGPU-Sim uArch: cycles simulated: 25000  inst.: 12028000 (ipc=481.1) sim_rate=501166 (inst/sec) elapsed = 0:0:00:24 / Tue Mar 22 07:02:40 2016
GPGPU-Sim PTX: 12100000 instructions simulated : ctaid=(58,0,0) tid=(95,0,0)
GPGPU-Sim PTX: 12200000 instructions simulated : ctaid=(9,0,0) tid=(95,0,0)
GPGPU-Sim PTX: 12300000 instructions simulated : ctaid=(7,0,0) tid=(95,0,0)
GPGPU-Sim PTX: 12400000 instructions simulated : ctaid=(57,0,0) tid=(127,0,0)
GPGPU-Sim PTX: 12500000 instructions simulated : ctaid=(57,0,0) tid=(63,0,0)
GPGPU-Sim uArch: cycles simulated: 26000  inst.: 12572256 (ipc=483.5) sim_rate=502890 (inst/sec) elapsed = 0:0:00:25 / Tue Mar 22 07:02:41 2016
GPGPU-Sim PTX: 12600000 instructions simulated : ctaid=(28,0,0) tid=(31,0,0)
GPGPU-Sim PTX: 12700000 instructions simulated : ctaid=(2,0,0) tid=(63,0,0)
GPGPU-Sim PTX: 12800000 instructions simulated : ctaid=(50,0,0) tid=(95,0,0)
GPGPU-Sim PTX: 12900000 instructions simulated : ctaid=(55,0,0) tid=(63,0,0)
GPGPU-Sim PTX: 13000000 instructions simulated : ctaid=(16,0,0) tid=(95,0,0)
GPGPU-Sim PTX: 13100000 instructions simulated : ctaid=(54,0,0) tid=(127,0,0)
GPGPU-Sim uArch: cycles simulated: 27000  inst.: 13097056 (ipc=485.1) sim_rate=503732 (inst/sec) elapsed = 0:0:00:26 / Tue Mar 22 07:02:42 2016
GPGPU-Sim PTX: 13200000 instructions simulated : ctaid=(18,0,0) tid=(95,0,0)
GPGPU-Sim PTX: 13300000 instructions simulated : ctaid=(50,0,0) tid=(63,0,0)
GPGPU-Sim PTX: 13400000 instructions simulated : ctaid=(46,0,0) tid=(31,0,0)
GPGPU-Sim PTX: 13500000 instructions simulated : ctaid=(40,0,0) tid=(95,0,0)
GPGPU-Sim PTX: 13600000 instructions simulated : ctaid=(42,0,0) tid=(127,0,0)
GPGPU-Sim uArch: cycles simulated: 28000  inst.: 13639232 (ipc=487.1) sim_rate=505156 (inst/sec) elapsed = 0:0:00:27 / Tue Mar 22 07:02:43 2016
GPGPU-Sim PTX: 13700000 instructions simulated : ctaid=(19,0,0) tid=(95,0,0)
GPGPU-Sim PTX: 13800000 instructions simulated : ctaid=(7,0,0) tid=(95,0,0)
GPGPU-Sim PTX: 13900000 instructions simulated : ctaid=(32,0,0) tid=(127,0,0)
GPGPU-Sim PTX: 14000000 instructions simulated : ctaid=(2,0,0) tid=(127,0,0)
GPGPU-Sim PTX: 14100000 instructions simulated : ctaid=(39,0,0) tid=(95,0,0)
GPGPU-Sim uArch: cycles simulated: 29000  inst.: 14171136 (ipc=488.7) sim_rate=506112 (inst/sec) elapsed = 0:0:00:28 / Tue Mar 22 07:02:44 2016
GPGPU-Sim PTX: 14200000 instructions simulated : ctaid=(28,0,0) tid=(63,0,0)
GPGPU-Sim PTX: 14300000 instructions simulated : ctaid=(57,0,0) tid=(31,0,0)
GPGPU-Sim PTX: 14400000 instructions simulated : ctaid=(41,0,0) tid=(95,0,0)
GPGPU-Sim PTX: 14500000 instructions simulated : ctaid=(55,0,0) tid=(127,0,0)
GPGPU-Sim PTX: 14600000 instructions simulated : ctaid=(14,0,0) tid=(63,0,0)
GPGPU-Sim PTX: 14700000 instructions simulated : ctaid=(59,0,0) tid=(31,0,0)
GPGPU-Sim uArch: cycles simulated: 30000  inst.: 14706848 (ipc=490.2) sim_rate=507132 (inst/sec) elapsed = 0:0:00:29 / Tue Mar 22 07:02:45 2016
GPGPU-Sim PTX: 14800000 instructions simulated : ctaid=(45,0,0) tid=(95,0,0)
GPGPU-Sim PTX: 14900000 instructions simulated : ctaid=(26,0,0) tid=(127,0,0)
GPGPU-Sim PTX: 15000000 instructions simulated : ctaid=(28,0,0) tid=(31,0,0)
GPGPU-Sim PTX: 15100000 instructions simulated : ctaid=(51,0,0) tid=(31,0,0)
GPGPU-Sim PTX: 15200000 instructions simulated : ctaid=(6,0,0) tid=(95,0,0)
GPGPU-Sim uArch: cycles simulated: 31000  inst.: 15241984 (ipc=491.7) sim_rate=508066 (inst/sec) elapsed = 0:0:00:30 / Tue Mar 22 07:02:46 2016
GPGPU-Sim PTX: 15300000 instructions simulated : ctaid=(26,0,0) tid=(31,0,0)
GPGPU-Sim PTX: 15400000 instructions simulated : ctaid=(57,0,0) tid=(63,0,0)
GPGPU-Sim PTX: 15500000 instructions simulated : ctaid=(47,0,0) tid=(127,0,0)
GPGPU-Sim PTX: 15600000 instructions simulated : ctaid=(0,0,0) tid=(31,0,0)
GPGPU-Sim PTX: 15700000 instructions simulated : ctaid=(44,0,0) tid=(127,0,0)
GPGPU-Sim PTX: 15800000 instructions simulated : ctaid=(16,0,0) tid=(63,0,0)
GPGPU-Sim uArch: cycles simulated: 32000  inst.: 15797664 (ipc=493.7) sim_rate=509602 (inst/sec) elapsed = 0:0:00:31 / Tue Mar 22 07:02:47 2016
GPGPU-Sim PTX: 15900000 instructions simulated : ctaid=(8,0,0) tid=(127,0,0)
GPGPU-Sim PTX: 16000000 instructions simulated : ctaid=(16,0,0) tid=(127,0,0)
GPGPU-Sim PTX: 16100000 instructions simulated : ctaid=(52,0,0) tid=(31,0,0)
GPGPU-Sim PTX: 16200000 instructions simulated : ctaid=(54,0,0) tid=(31,0,0)
GPGPU-Sim PTX: 16300000 instructions simulated : ctaid=(10,0,0) tid=(31,0,0)
GPGPU-Sim uArch: cycles simulated: 33000  inst.: 16335616 (ipc=495.0) sim_rate=510488 (inst/sec) elapsed = 0:0:00:32 / Tue Mar 22 07:02:48 2016
GPGPU-Sim PTX: 16400000 instructions simulated : ctaid=(17,0,0) tid=(95,0,0)
GPGPU-Sim PTX: 16500000 instructions simulated : ctaid=(54,0,0) tid=(127,0,0)
GPGPU-Sim PTX: 16600000 instructions simulated : ctaid=(17,0,0) tid=(127,0,0)
GPGPU-Sim PTX: 16700000 instructions simulated : ctaid=(3,0,0) tid=(31,0,0)
GPGPU-Sim PTX: 16800000 instructions simulated : ctaid=(7,0,0) tid=(127,0,0)
GPGPU-Sim uArch: cycles simulated: 34000  inst.: 16863680 (ipc=496.0) sim_rate=511020 (inst/sec) elapsed = 0:0:00:33 / Tue Mar 22 07:02:49 2016
GPGPU-Sim PTX: 16900000 instructions simulated : ctaid=(28,0,0) tid=(95,0,0)
GPGPU-Sim PTX: 17000000 instructions simulated : ctaid=(33,0,0) tid=(95,0,0)
GPGPU-Sim PTX: 17100000 instructions simulated : ctaid=(46,0,0) tid=(127,0,0)
GPGPU-Sim PTX: 17200000 instructions simulated : ctaid=(28,0,0) tid=(63,0,0)
GPGPU-Sim PTX: 17300000 instructions simulated : ctaid=(44,0,0) tid=(95,0,0)
GPGPU-Sim PTX: 17400000 instructions simulated : ctaid=(53,0,0) tid=(127,0,0)
GPGPU-Sim uArch: cycles simulated: 35000  inst.: 17399488 (ipc=497.1) sim_rate=511749 (inst/sec) elapsed = 0:0:00:34 / Tue Mar 22 07:02:50 2016
GPGPU-Sim PTX: 17500000 instructions simulated : ctaid=(33,0,0) tid=(63,0,0)
GPGPU-Sim PTX: 17600000 instructions simulated : ctaid=(4,0,0) tid=(127,0,0)
GPGPU-Sim PTX: 17700000 instructions simulated : ctaid=(2,0,0) tid=(95,0,0)
GPGPU-Sim PTX: 17800000 instructions simulated : ctaid=(15,0,0) tid=(127,0,0)
GPGPU-Sim PTX: 17900000 instructions simulated : ctaid=(0,0,0) tid=(127,0,0)
GPGPU-Sim uArch: cycles simulated: 36000  inst.: 17942048 (ipc=498.4) sim_rate=512629 (inst/sec) elapsed = 0:0:00:35 / Tue Mar 22 07:02:51 2016
GPGPU-Sim PTX: 18000000 instructions simulated : ctaid=(19,0,0) tid=(95,0,0)
GPGPU-Sim PTX: 18100000 instructions simulated : ctaid=(56,0,0) tid=(95,0,0)
GPGPU-Sim PTX: 18200000 instructions simulated : ctaid=(34,0,0) tid=(63,0,0)
GPGPU-Sim PTX: 18300000 instructions simulated : ctaid=(58,0,0) tid=(127,0,0)
GPGPU-Sim PTX: 18400000 instructions simulated : ctaid=(12,0,0) tid=(127,0,0)
GPGPU-Sim PTX: 18500000 instructions simulated : ctaid=(44,0,0) tid=(63,0,0)
GPGPU-Sim PTX: 18600000 instructions simulated : ctaid=(21,0,0) tid=(31,0,0)
GPGPU-Sim PTX: 18700000 instructions simulated : ctaid=(29,0,0) tid=(63,0,0)
GPGPU-Sim uArch: cycles simulated: 37500  inst.: 18751264 (ipc=500.0) sim_rate=520868 (inst/sec) elapsed = 0:0:00:36 / Tue Mar 22 07:02:52 2016
GPGPU-Sim PTX: 18800000 instructions simulated : ctaid=(38,0,0) tid=(127,0,0)
GPGPU-Sim PTX: 18900000 instructions simulated : ctaid=(47,0,0) tid=(31,0,0)
GPGPU-Sim PTX: 19000000 instructions simulated : ctaid=(47,0,0) tid=(63,0,0)
GPGPU-Sim PTX: 19100000 instructions simulated : ctaid=(16,0,0) tid=(127,0,0)
GPGPU-Sim PTX: 19200000 instructions simulated : ctaid=(36,0,0) tid=(95,0,0)
GPGPU-Sim PTX: 19300000 instructions simulated : ctaid=(54,0,0) tid=(31,0,0)
GPGPU-Sim uArch: cycles simulated: 38500  inst.: 19279456 (ipc=500.8) sim_rate=521066 (inst/sec) elapsed = 0:0:00:37 / Tue Mar 22 07:02:53 2016
GPGPU-Sim PTX: 19400000 instructions simulated : ctaid=(54,0,0) tid=(127,0,0)
GPGPU-Sim PTX: 19500000 instructions simulated : ctaid=(10,0,0) tid=(63,0,0)
GPGPU-Sim PTX: 19600000 instructions simulated : ctaid=(37,0,0) tid=(127,0,0)
GPGPU-Sim PTX: 19700000 instructions simulated : ctaid=(55,0,0) tid=(95,0,0)
GPGPU-Sim PTX: 19800000 instructions simulated : ctaid=(44,0,0) tid=(95,0,0)
GPGPU-Sim uArch: cycles simulated: 39500  inst.: 19807904 (ipc=501.5) sim_rate=521260 (inst/sec) elapsed = 0:0:00:38 / Tue Mar 22 07:02:54 2016
GPGPU-Sim PTX: 19900000 instructions simulated : ctaid=(24,0,0) tid=(127,0,0)
GPGPU-Sim PTX: 20000000 instructions simulated : ctaid=(10,0,0) tid=(95,0,0)
GPGPU-Sim PTX: 20100000 instructions simulated : ctaid=(12,0,0) tid=(95,0,0)
GPGPU-Sim PTX: 20200000 instructions simulated : ctaid=(53,0,0) tid=(31,0,0)
GPGPU-Sim PTX: 20300000 instructions simulated : ctaid=(22,0,0) tid=(63,0,0)
GPGPU-Sim uArch: cycles simulated: 40500  inst.: 20354560 (ipc=502.6) sim_rate=521911 (inst/sec) elapsed = 0:0:00:39 / Tue Mar 22 07:02:55 2016
GPGPU-Sim PTX: 20400000 instructions simulated : ctaid=(2,0,0) tid=(63,0,0)
GPGPU-Sim PTX: 20500000 instructions simulated : ctaid=(20,0,0) tid=(127,0,0)
GPGPU-Sim PTX: 20600000 instructions simulated : ctaid=(25,0,0) tid=(95,0,0)
GPGPU-Sim PTX: 20700000 instructions simulated : ctaid=(13,0,0) tid=(63,0,0)
GPGPU-Sim PTX: 20800000 instructions simulated : ctaid=(23,0,0) tid=(31,0,0)
GPGPU-Sim PTX: 20900000 instructions simulated : ctaid=(17,0,0) tid=(127,0,0)
GPGPU-Sim uArch: cycles simulated: 41500  inst.: 20915392 (ipc=504.0) sim_rate=522884 (inst/sec) elapsed = 0:0:00:40 / Tue Mar 22 07:02:56 2016
GPGPU-Sim PTX: 21000000 instructions simulated : ctaid=(27,0,0) tid=(127,0,0)
GPGPU-Sim PTX: 21100000 instructions simulated : ctaid=(18,0,0) tid=(31,0,0)
GPGPU-Sim PTX: 21200000 instructions simulated : ctaid=(42,0,0) tid=(31,0,0)
GPGPU-Sim PTX: 21300000 instructions simulated : ctaid=(0,0,0) tid=(95,0,0)
GPGPU-Sim PTX: 21400000 instructions simulated : ctaid=(55,0,0) tid=(95,0,0)
GPGPU-Sim uArch: cycles simulated: 42500  inst.: 21446816 (ipc=504.6) sim_rate=523093 (inst/sec) elapsed = 0:0:00:41 / Tue Mar 22 07:02:57 2016
GPGPU-Sim PTX: 21500000 instructions simulated : ctaid=(8,0,0) tid=(95,0,0)
GPGPU-Sim PTX: 21600000 instructions simulated : ctaid=(1,0,0) tid=(127,0,0)
GPGPU-Sim PTX: 21700000 instructions simulated : ctaid=(10,0,0) tid=(63,0,0)
GPGPU-Sim PTX: 21800000 instructions simulated : ctaid=(28,0,0) tid=(63,0,0)
GPGPU-Sim PTX: 21900000 instructions simulated : ctaid=(6,0,0) tid=(127,0,0)
GPGPU-Sim PTX: 22000000 instructions simulated : ctaid=(30,0,0) tid=(31,0,0)
GPGPU-Sim uArch: cycles simulated: 43500  inst.: 21978048 (ipc=505.2) sim_rate=523286 (inst/sec) elapsed = 0:0:00:42 / Tue Mar 22 07:02:58 2016
GPGPU-Sim PTX: 22100000 instructions simulated : ctaid=(22,0,0) tid=(127,0,0)
GPGPU-Sim PTX: 22200000 instructions simulated : ctaid=(44,0,0) tid=(31,0,0)
GPGPU-Sim PTX: 22300000 instructions simulated : ctaid=(33,0,0) tid=(31,0,0)
GPGPU-Sim PTX: 22400000 instructions simulated : ctaid=(9,0,0) tid=(31,0,0)
GPGPU-Sim PTX: 22500000 instructions simulated : ctaid=(25,0,0) tid=(63,0,0)
GPGPU-Sim uArch: cycles simulated: 44500  inst.: 22506784 (ipc=505.8) sim_rate=523413 (inst/sec) elapsed = 0:0:00:43 / Tue Mar 22 07:02:59 2016
GPGPU-Sim PTX: 22600000 instructions simulated : ctaid=(66,0,0) tid=(31,0,0)
GPGPU-Sim PTX: 22700000 instructions simulated : ctaid=(53,0,0) tid=(95,0,0)
GPGPU-Sim PTX: 22800000 instructions simulated : ctaid=(23,0,0) tid=(127,0,0)
GPGPU-Sim PTX: 22900000 instructions simulated : ctaid=(58,0,0) tid=(127,0,0)
GPGPU-Sim PTX: 23000000 instructions simulated : ctaid=(1,0,0) tid=(127,0,0)
GPGPU-Sim uArch: cycles simulated: 45500  inst.: 23051616 (ipc=506.6) sim_rate=523900 (inst/sec) elapsed = 0:0:00:44 / Tue Mar 22 07:03:00 2016
GPGPU-Sim PTX: 23100000 instructions simulated : ctaid=(8,0,0) tid=(127,0,0)
GPGPU-Sim PTX: 23200000 instructions simulated : ctaid=(19,0,0) tid=(31,0,0)
GPGPU-Sim PTX: 23300000 instructions simulated : ctaid=(48,0,0) tid=(31,0,0)
GPGPU-Sim PTX: 23400000 instructions simulated : ctaid=(48,0,0) tid=(31,0,0)
GPGPU-Sim PTX: 23500000 instructions simulated : ctaid=(38,0,0) tid=(31,0,0)
GPGPU-Sim PTX: 23600000 instructions simulated : ctaid=(29,0,0) tid=(31,0,0)
GPGPU-Sim uArch: cycles simulated: 46500  inst.: 23602272 (ipc=507.6) sim_rate=524494 (inst/sec) elapsed = 0:0:00:45 / Tue Mar 22 07:03:01 2016
GPGPU-Sim PTX: 23700000 instructions simulated : ctaid=(29,0,0) tid=(127,0,0)
GPGPU-Sim PTX: 23800000 instructions simulated : ctaid=(48,0,0) tid=(127,0,0)
GPGPU-Sim PTX: 23900000 instructions simulated : ctaid=(69,0,0) tid=(31,0,0)
GPGPU-Sim PTX: 24000000 instructions simulated : ctaid=(41,0,0) tid=(31,0,0)
GPGPU-Sim PTX: 24100000 instructions simulated : ctaid=(55,0,0) tid=(31,0,0)
GPGPU-Sim uArch: cycles simulated: 47500  inst.: 24123008 (ipc=507.9) sim_rate=524413 (inst/sec) elapsed = 0:0:00:46 / Tue Mar 22 07:03:02 2016
GPGPU-Sim PTX: 24200000 instructions simulated : ctaid=(33,0,0) tid=(63,0,0)
GPGPU-Sim PTX: 24300000 instructions simulated : ctaid=(29,0,0) tid=(31,0,0)
GPGPU-Sim PTX: 24400000 instructions simulated : ctaid=(70,0,0) tid=(95,0,0)
GPGPU-Sim uArch: Shader 1 finished CTA #0 (48083,0), 7 CTAs running
GPGPU-Sim uArch: core:  1, cta: 0 initialized @(48084,0)
GPGPU-Sim PTX: 24500000 instructions simulated : ctaid=(54,0,0) tid=(127,0,0)
GPGPU-Sim PTX: 24600000 instructions simulated : ctaid=(51,0,0) tid=(127,0,0)
GPGPU-Sim uArch: Shader 13 finished CTA #0 (48410,0), 7 CTAs running
GPGPU-Sim uArch: core: 13, cta: 0 initialized @(48411,0)
GPGPU-Sim uArch: cycles simulated: 48500  inst.: 24662688 (ipc=508.5) sim_rate=524738 (inst/sec) elapsed = 0:0:00:47 / Tue Mar 22 07:03:03 2016
GPGPU-Sim PTX: 24700000 instructions simulated : ctaid=(10,0,0) tid=(31,0,0)
GPGPU-Sim PTX: 24800000 instructions simulated : ctaid=(36,0,0) tid=(63,0,0)
GPGPU-Sim uArch: Shader 3 finished CTA #0 (48892,0), 7 CTAs running
GPGPU-Sim uArch: core:  3, cta: 0 initialized @(48893,0)
GPGPU-Sim PTX: 24900000 instructions simulated : ctaid=(103,0,0) tid=(63,0,0)
GPGPU-Sim uArch: Shader 10 finished CTA #0 (48932,0), 7 CTAs running
GPGPU-Sim uArch: core: 10, cta: 0 initialized @(48933,0)
GPGPU-Sim PTX: 25000000 instructions simulated : ctaid=(69,0,0) tid=(95,0,0)
GPGPU-Sim uArch: Shader 6 finished CTA #0 (49119,0), 7 CTAs running
GPGPU-Sim uArch: core:  6, cta: 0 initialized @(49120,0)
GPGPU-Sim PTX: 25100000 instructions simulated : ctaid=(84,0,0) tid=(95,0,0)
GPGPU-Sim uArch: Shader 12 finished CTA #0 (49342,0), 7 CTAs running
GPGPU-Sim uArch: core: 12, cta: 0 initialized @(49343,0)
GPGPU-Sim uArch: Shader 3 finished CTA #2 (49366,0), 7 CTAs running
GPGPU-Sim uArch: core:  3, cta: 2 initialized @(49367,0)
GPGPU-Sim uArch: Shader 0 finished CTA #0 (49381,0), 7 CTAs running
GPGPU-Sim uArch: core:  0, cta: 0 initialized @(49382,0)
GPGPU-Sim PTX: 25200000 instructions simulated : ctaid=(53,0,0) tid=(127,0,0)
GPGPU-Sim uArch: cycles simulated: 49500  inst.: 25176256 (ipc=508.6) sim_rate=524505 (inst/sec) elapsed = 0:0:00:48 / Tue Mar 22 07:03:04 2016
GPGPU-Sim uArch: Shader 5 finished CTA #0 (49508,0), 7 CTAs running
GPGPU-Sim uArch: core:  5, cta: 0 initialized @(49509,0)
GPGPU-Sim uArch: Shader 12 finished CTA #1 (49523,0), 7 CTAs running
GPGPU-Sim uArch: core: 12, cta: 1 initialized @(49524,0)
GPGPU-Sim PTX: 25300000 instructions simulated : ctaid=(80,0,0) tid=(63,0,0)
GPGPU-Sim uArch: Shader 14 finished CTA #0 (49653,0), 7 CTAs running
GPGPU-Sim uArch: core: 14, cta: 0 initialized @(49654,0)
GPGPU-Sim uArch: Shader 0 finished CTA #1 (49657,0), 7 CTAs running
GPGPU-Sim uArch: core:  0, cta: 1 initialized @(49658,0)
GPGPU-Sim uArch: Shader 9 finished CTA #0 (49658,0), 7 CTAs running
GPGPU-Sim uArch: core:  9, cta: 0 initialized @(49659,0)
GPGPU-Sim uArch: Shader 3 finished CTA #1 (49740,0), 7 CTAs running
GPGPU-Sim uArch: core:  3, cta: 1 initialized @(49741,0)
GPGPU-Sim uArch: Shader 6 finished CTA #1 (49792,0), 7 CTAs running
GPGPU-Sim uArch: core:  6, cta: 1 initialized @(49793,0)
GPGPU-Sim uArch: Shader 12 finished CTA #3 (49797,0), 7 CTAs running
GPGPU-Sim uArch: core: 12, cta: 3 initialized @(49798,0)
GPGPU-Sim uArch: Shader 9 finished CTA #1 (49801,0), 7 CTAs running
GPGPU-Sim uArch: core:  9, cta: 1 initialized @(49802,0)
GPGPU-Sim PTX: 25400000 instructions simulated : ctaid=(62,0,0) tid=(31,0,0)
GPGPU-Sim uArch: Shader 9 finished CTA #2 (49970,0), 7 CTAs running
GPGPU-Sim uArch: core:  9, cta: 2 initialized @(49971,0)
GPGPU-Sim uArch: Shader 2 finished CTA #0 (49983,0), 7 CTAs running
GPGPU-Sim uArch: core:  2, cta: 0 initialized @(49984,0)
GPGPU-Sim uArch: Shader 8 finished CTA #0 (50025,0), 7 CTAs running
GPGPU-Sim uArch: core:  8, cta: 0 initialized @(50026,0)
GPGPU-Sim uArch: Shader 0 finished CTA #2 (50066,0), 7 CTAs running
GPGPU-Sim PTX: 25500000 instructions simulated : ctaid=(21,0,0) tid=(127,0,0)
GPGPU-Sim uArch: core:  0, cta: 2 initialized @(50067,0)
GPGPU-Sim uArch: Shader 11 finished CTA #0 (50076,0), 7 CTAs running
GPGPU-Sim uArch: Shader 14 finished CTA #2 (50076,0), 7 CTAs running
GPGPU-Sim uArch: core: 11, cta: 0 initialized @(50077,0)
GPGPU-Sim uArch: core: 14, cta: 2 initialized @(50077,0)
GPGPU-Sim uArch: Shader 4 finished CTA #2 (50198,0), 7 CTAs running
GPGPU-Sim uArch: Shader 14 finished CTA #1 (50198,0), 7 CTAs running
GPGPU-Sim uArch: core:  4, cta: 2 initialized @(50199,0)
GPGPU-Sim uArch: core: 14, cta: 1 initialized @(50199,0)
GPGPU-Sim uArch: Shader 5 finished CTA #1 (50202,0), 7 CTAs running
GPGPU-Sim uArch: core:  5, cta: 1 initialized @(50203,0)
GPGPU-Sim PTX: 25600000 instructions simulated : ctaid=(6,0,0) tid=(63,0,0)
GPGPU-Sim uArch: Shader 4 finished CTA #0 (50307,0), 7 CTAs running
GPGPU-Sim uArch: core:  4, cta: 0 initialized @(50308,0)
GPGPU-Sim uArch: Shader 10 finished CTA #1 (50314,0), 7 CTAs running
GPGPU-Sim uArch: core: 10, cta: 1 initialized @(50315,0)
GPGPU-Sim uArch: Shader 2 finished CTA #2 (50356,0), 7 CTAs running
GPGPU-Sim uArch: core:  2, cta: 2 initialized @(50357,0)
GPGPU-Sim PTX: 25700000 instructions simulated : ctaid=(98,0,0) tid=(31,0,0)
GPGPU-Sim uArch: Shader 8 finished CTA #1 (50432,0), 7 CTAs running
GPGPU-Sim uArch: core:  8, cta: 1 initialized @(50433,0)
GPGPU-Sim uArch: Shader 2 finished CTA #1 (50493,0), 7 CTAs running
GPGPU-Sim uArch: core:  2, cta: 1 initialized @(50494,0)
GPGPU-Sim uArch: Shader 8 finished CTA #2 (50495,0), 7 CTAs running
GPGPU-Sim uArch: core:  8, cta: 2 initialized @(50496,0)
GPGPU-Sim uArch: cycles simulated: 50500  inst.: 25705824 (ipc=509.0) sim_rate=524608 (inst/sec) elapsed = 0:0:00:49 / Tue Mar 22 07:03:05 2016
GPGPU-Sim uArch: Shader 11 finished CTA #1 (50556,0), 7 CTAs running
GPGPU-Sim uArch: core: 11, cta: 1 initialized @(50557,0)
GPGPU-Sim PTX: 25800000 instructions simulated : ctaid=(114,0,0) tid=(31,0,0)
GPGPU-Sim uArch: Shader 5 finished CTA #3 (50603,0), 7 CTAs running
GPGPU-Sim uArch: core:  5, cta: 3 initialized @(50604,0)
GPGPU-Sim uArch: Shader 10 finished CTA #2 (50656,0), 7 CTAs running
GPGPU-Sim uArch: core: 10, cta: 2 initialized @(50657,0)
GPGPU-Sim uArch: Shader 13 finished CTA #1 (50678,0), 7 CTAs running
GPGPU-Sim uArch: core: 13, cta: 1 initialized @(50679,0)
GPGPU-Sim uArch: Shader 5 finished CTA #2 (50687,0), 7 CTAs running
GPGPU-Sim uArch: core:  5, cta: 2 initialized @(50688,0)
GPGPU-Sim uArch: Shader 1 finished CTA #2 (50767,0), 7 CTAs running
GPGPU-Sim uArch: core:  1, cta: 2 initialized @(50768,0)
GPGPU-Sim PTX: 25900000 instructions simulated : ctaid=(93,0,0) tid=(63,0,0)
GPGPU-Sim uArch: Shader 7 finished CTA #1 (50865,0), 7 CTAs running
GPGPU-Sim uArch: core:  7, cta: 1 initialized @(50866,0)
GPGPU-Sim uArch: Shader 11 finished CTA #3 (50871,0), 7 CTAs running
GPGPU-Sim uArch: core: 11, cta: 3 initialized @(50872,0)
GPGPU-Sim uArch: Shader 7 finished CTA #0 (50874,0), 7 CTAs running
GPGPU-Sim uArch: core:  7, cta: 0 initialized @(50875,0)
GPGPU-Sim uArch: Shader 2 finished CTA #3 (50917,0), 7 CTAs running
GPGPU-Sim uArch: core:  2, cta: 3 initialized @(50918,0)
GPGPU-Sim uArch: Shader 1 finished CTA #1 (50918,0), 7 CTAs running
GPGPU-Sim uArch: core:  1, cta: 1 initialized @(50919,0)
GPGPU-Sim uArch: Shader 14 finished CTA #3 (50922,0), 7 CTAs running
GPGPU-Sim uArch: core: 14, cta: 3 initialized @(50923,0)
GPGPU-Sim uArch: Shader 4 finished CTA #1 (50926,0), 7 CTAs running
GPGPU-Sim uArch: core:  4, cta: 1 initialized @(50927,0)
GPGPU-Sim PTX: 26000000 instructions simulated : ctaid=(70,0,0) tid=(63,0,0)
GPGPU-Sim uArch: Shader 7 finished CTA #3 (51073,0), 7 CTAs running
GPGPU-Sim uArch: core:  7, cta: 3 initialized @(51074,0)
GPGPU-Sim uArch: Shader 7 finished CTA #2 (51098,0), 7 CTAs running
GPGPU-Sim uArch: core:  7, cta: 2 initialized @(51099,0)
GPGPU-Sim uArch: Shader 11 finished CTA #2 (51109,0), 7 CTAs running
GPGPU-Sim uArch: core: 11, cta: 2 initialized @(51110,0)
GPGPU-Sim PTX: 26100000 instructions simulated : ctaid=(47,0,0) tid=(31,0,0)
GPGPU-Sim uArch: Shader 6 finished CTA #3 (51182,0), 7 CTAs running
GPGPU-Sim uArch: core:  6, cta: 3 initialized @(51183,0)
GPGPU-Sim uArch: Shader 1 finished CTA #3 (51184,0), 7 CTAs running
GPGPU-Sim uArch: core:  1, cta: 3 initialized @(51185,0)
GPGPU-Sim uArch: Shader 10 finished CTA #3 (51191,0), 7 CTAs running
GPGPU-Sim uArch: core: 10, cta: 3 initialized @(51192,0)
GPGPU-Sim uArch: Shader 8 finished CTA #3 (51242,0), 7 CTAs running
GPGPU-Sim uArch: core:  8, cta: 3 initialized @(51243,0)
GPGPU-Sim uArch: Shader 13 finished CTA #3 (51297,0), 7 CTAs running
GPGPU-Sim uArch: core: 13, cta: 3 initialized @(51298,0)
GPGPU-Sim PTX: 26200000 instructions simulated : ctaid=(116,0,0) tid=(127,0,0)
GPGPU-Sim uArch: Shader 13 finished CTA #2 (51319,0), 7 CTAs running
GPGPU-Sim uArch: core: 13, cta: 2 initialized @(51320,0)
GPGPU-Sim uArch: Shader 0 finished CTA #3 (51391,0), 7 CTAs running
GPGPU-Sim uArch: core:  0, cta: 3 initialized @(51392,0)
GPGPU-Sim PTX: 26300000 instructions simulated : ctaid=(69,0,0) tid=(127,0,0)
GPGPU-Sim uArch: cycles simulated: 51500  inst.: 26271616 (ipc=510.1) sim_rate=525432 (inst/sec) elapsed = 0:0:00:50 / Tue Mar 22 07:03:06 2016
GPGPU-Sim PTX: 26400000 instructions simulated : ctaid=(101,0,0) tid=(127,0,0)
GPGPU-Sim PTX: 26500000 instructions simulated : ctaid=(94,0,0) tid=(31,0,0)
GPGPU-Sim PTX: 26600000 instructions simulated : ctaid=(80,0,0) tid=(31,0,0)
GPGPU-Sim uArch: cycles simulated: 52000  inst.: 26561920 (ipc=510.8) sim_rate=520821 (inst/sec) elapsed = 0:0:00:51 / Tue Mar 22 07:03:07 2016
GPGPU-Sim PTX: 26700000 instructions simulated : ctaid=(117,0,0) tid=(127,0,0)
GPGPU-Sim PTX: 26800000 instructions simulated : ctaid=(85,0,0) tid=(127,0,0)
GPGPU-Sim uArch: Shader 6 finished CTA #2 (52388,0), 7 CTAs running
GPGPU-Sim uArch: core:  6, cta: 2 initialized @(52389,0)
GPGPU-Sim uArch: Shader 9 finished CTA #3 (52436,0), 7 CTAs running
GPGPU-Sim uArch: core:  9, cta: 3 initialized @(52437,0)
GPGPU-Sim uArch: Shader 12 finished CTA #2 (52488,0), 7 CTAs running
GPGPU-Sim uArch: core: 12, cta: 2 initialized @(52489,0)
GPGPU-Sim uArch: Shader 3 finished CTA #3 (52541,0), 7 CTAs running
GPGPU-Sim uArch: core:  3, cta: 3 initialized @(52542,0)
GPGPU-Sim PTX: 26900000 instructions simulated : ctaid=(74,0,0) tid=(31,0,0)
GPGPU-Sim uArch: Shader 4 finished CTA #3 (52551,0), 7 CTAs running
GPGPU-Sim uArch: core:  4, cta: 3 initialized @(52552,0)
GPGPU-Sim PTX: 27000000 instructions simulated : ctaid=(117,0,0) tid=(95,0,0)
GPGPU-Sim PTX: 27100000 instructions simulated : ctaid=(66,0,0) tid=(31,0,0)
GPGPU-Sim uArch: cycles simulated: 53000  inst.: 27099328 (ipc=511.3) sim_rate=521140 (inst/sec) elapsed = 0:0:00:52 / Tue Mar 22 07:03:08 2016
GPGPU-Sim PTX: 27200000 instructions simulated : ctaid=(63,0,0) tid=(63,0,0)
GPGPU-Sim PTX: 27300000 instructions simulated : ctaid=(103,0,0) tid=(31,0,0)
GPGPU-Sim PTX: 27400000 instructions simulated : ctaid=(84,0,0) tid=(95,0,0)
GPGPU-Sim PTX: 27500000 instructions simulated : ctaid=(119,0,0) tid=(63,0,0)
GPGPU-Sim PTX: 27600000 instructions simulated : ctaid=(104,0,0) tid=(95,0,0)
GPGPU-Sim uArch: cycles simulated: 54000  inst.: 27653344 (ipc=512.1) sim_rate=521761 (inst/sec) elapsed = 0:0:00:53 / Tue Mar 22 07:03:09 2016
GPGPU-Sim PTX: 27700000 instructions simulated : ctaid=(101,0,0) tid=(127,0,0)
GPGPU-Sim PTX: 27800000 instructions simulated : ctaid=(117,0,0) tid=(31,0,0)
GPGPU-Sim PTX: 27900000 instructions simulated : ctaid=(62,0,0) tid=(127,0,0)
GPGPU-Sim PTX: 28000000 instructions simulated : ctaid=(92,0,0) tid=(63,0,0)
GPGPU-Sim PTX: 28100000 instructions simulated : ctaid=(63,0,0) tid=(95,0,0)
GPGPU-Sim PTX: 28200000 instructions simulated : ctaid=(85,0,0) tid=(127,0,0)
GPGPU-Sim uArch: cycles simulated: 55000  inst.: 28212736 (ipc=513.0) sim_rate=522458 (inst/sec) elapsed = 0:0:00:54 / Tue Mar 22 07:03:10 2016
GPGPU-Sim PTX: 28300000 instructions simulated : ctaid=(107,0,0) tid=(127,0,0)
GPGPU-Sim PTX: 28400000 instructions simulated : ctaid=(93,0,0) tid=(127,0,0)
GPGPU-Sim PTX: 28500000 instructions simulated : ctaid=(112,0,0) tid=(31,0,0)
GPGPU-Sim PTX: 28600000 instructions simulated : ctaid=(108,0,0) tid=(127,0,0)
GPGPU-Sim PTX: 28700000 instructions simulated : ctaid=(61,0,0) tid=(63,0,0)
GPGPU-Sim PTX: 28800000 instructions simulated : ctaid=(113,0,0) tid=(31,0,0)
GPGPU-Sim uArch: cycles simulated: 56000  inst.: 28776544 (ipc=513.9) sim_rate=523209 (inst/sec) elapsed = 0:0:00:55 / Tue Mar 22 07:03:11 2016
GPGPU-Sim PTX: 28900000 instructions simulated : ctaid=(105,0,0) tid=(63,0,0)
GPGPU-Sim PTX: 29000000 instructions simulated : ctaid=(75,0,0) tid=(95,0,0)
GPGPU-Sim PTX: 29100000 instructions simulated : ctaid=(98,0,0) tid=(95,0,0)
GPGPU-Sim PTX: 29200000 instructions simulated : ctaid=(67,0,0) tid=(95,0,0)
GPGPU-Sim PTX: 29300000 instructions simulated : ctaid=(83,0,0) tid=(95,0,0)
GPGPU-Sim uArch: cycles simulated: 57000  inst.: 29335520 (ipc=514.7) sim_rate=523848 (inst/sec) elapsed = 0:0:00:56 / Tue Mar 22 07:03:12 2016
GPGPU-Sim PTX: 29400000 instructions simulated : ctaid=(102,0,0) tid=(31,0,0)
GPGPU-Sim PTX: 29500000 instructions simulated : ctaid=(83,0,0) tid=(95,0,0)
GPGPU-Sim PTX: 29600000 instructions simulated : ctaid=(92,0,0) tid=(31,0,0)
GPGPU-Sim PTX: 29700000 instructions simulated : ctaid=(114,0,0) tid=(95,0,0)
GPGPU-Sim PTX: 29800000 instructions simulated : ctaid=(65,0,0) tid=(63,0,0)
GPGPU-Sim PTX: 29900000 instructions simulated : ctaid=(88,0,0) tid=(31,0,0)
GPGPU-Sim uArch: cycles simulated: 58000  inst.: 29905504 (ipc=515.6) sim_rate=524657 (inst/sec) elapsed = 0:0:00:57 / Tue Mar 22 07:03:13 2016
GPGPU-Sim PTX: 30000000 instructions simulated : ctaid=(106,0,0) tid=(31,0,0)
GPGPU-Sim PTX: 30100000 instructions simulated : ctaid=(61,0,0) tid=(63,0,0)
GPGPU-Sim PTX: 30200000 instructions simulated : ctaid=(117,0,0) tid=(95,0,0)
GPGPU-Sim PTX: 30300000 instructions simulated : ctaid=(108,0,0) tid=(63,0,0)
GPGPU-Sim PTX: 30400000 instructions simulated : ctaid=(86,0,0) tid=(127,0,0)
GPGPU-Sim uArch: cycles simulated: 59000  inst.: 30459008 (ipc=516.3) sim_rate=525155 (inst/sec) elapsed = 0:0:00:58 / Tue Mar 22 07:03:14 2016
GPGPU-Sim PTX: 30500000 instructions simulated : ctaid=(113,0,0) tid=(31,0,0)
GPGPU-Sim PTX: 30600000 instructions simulated : ctaid=(105,0,0) tid=(63,0,0)
GPGPU-Sim PTX: 30700000 instructions simulated : ctaid=(72,0,0) tid=(95,0,0)
GPGPU-Sim uArch: cycles simulated: 59500  inst.: 30736736 (ipc=516.6) sim_rate=520961 (inst/sec) elapsed = 0:0:00:59 / Tue Mar 22 07:03:15 2016
GPGPU-Sim PTX: 30800000 instructions simulated : ctaid=(89,0,0) tid=(95,0,0)
GPGPU-Sim PTX: 30900000 instructions simulated : ctaid=(88,0,0) tid=(95,0,0)
GPGPU-Sim PTX: 31000000 instructions simulated : ctaid=(106,0,0) tid=(95,0,0)
GPGPU-Sim PTX: 31100000 instructions simulated : ctaid=(72,0,0) tid=(127,0,0)
GPGPU-Sim PTX: 31200000 instructions simulated : ctaid=(109,0,0) tid=(127,0,0)
GPGPU-Sim PTX: 31300000 instructions simulated : ctaid=(98,0,0) tid=(95,0,0)
GPGPU-Sim uArch: cycles simulated: 60500  inst.: 31300640 (ipc=517.4) sim_rate=521677 (inst/sec) elapsed = 0:0:01:00 / Tue Mar 22 07:03:16 2016
GPGPU-Sim PTX: 31400000 instructions simulated : ctaid=(111,0,0) tid=(127,0,0)
GPGPU-Sim PTX: 31500000 instructions simulated : ctaid=(76,0,0) tid=(127,0,0)
GPGPU-Sim PTX: 31600000 instructions simulated : ctaid=(88,0,0) tid=(127,0,0)
GPGPU-Sim PTX: 31700000 instructions simulated : ctaid=(72,0,0) tid=(31,0,0)
GPGPU-Sim PTX: 31800000 instructions simulated : ctaid=(114,0,0) tid=(31,0,0)
GPGPU-Sim uArch: cycles simulated: 61500  inst.: 31851136 (ipc=517.9) sim_rate=522149 (inst/sec) elapsed = 0:0:01:01 / Tue Mar 22 07:03:17 2016
GPGPU-Sim PTX: 31900000 instructions simulated : ctaid=(65,0,0) tid=(31,0,0)
GPGPU-Sim PTX: 32000000 instructions simulated : ctaid=(91,0,0) tid=(95,0,0)
GPGPU-Sim PTX: 32100000 instructions simulated : ctaid=(91,0,0) tid=(127,0,0)
GPGPU-Sim PTX: 32200000 instructions simulated : ctaid=(76,0,0) tid=(127,0,0)
GPGPU-Sim PTX: 32300000 instructions simulated : ctaid=(83,0,0) tid=(31,0,0)
GPGPU-Sim PTX: 32400000 instructions simulated : ctaid=(99,0,0) tid=(31,0,0)
GPGPU-Sim uArch: cycles simulated: 62500  inst.: 32407968 (ipc=518.5) sim_rate=522709 (inst/sec) elapsed = 0:0:01:02 / Tue Mar 22 07:03:18 2016
GPGPU-Sim PTX: 32500000 instructions simulated : ctaid=(93,0,0) tid=(95,0,0)
GPGPU-Sim PTX: 32600000 instructions simulated : ctaid=(92,0,0) tid=(95,0,0)
GPGPU-Sim PTX: 32700000 instructions simulated : ctaid=(92,0,0) tid=(95,0,0)
GPGPU-Sim PTX: 32800000 instructions simulated : ctaid=(68,0,0) tid=(63,0,0)
GPGPU-Sim PTX: 32900000 instructions simulated : ctaid=(72,0,0) tid=(31,0,0)
GPGPU-Sim uArch: cycles simulated: 63500  inst.: 32958560 (ipc=519.0) sim_rate=523151 (inst/sec) elapsed = 0:0:01:03 / Tue Mar 22 07:03:19 2016
GPGPU-Sim PTX: 33000000 instructions simulated : ctaid=(64,0,0) tid=(31,0,0)
GPGPU-Sim PTX: 33100000 instructions simulated : ctaid=(86,0,0) tid=(31,0,0)
GPGPU-Sim PTX: 33200000 instructions simulated : ctaid=(70,0,0) tid=(31,0,0)
GPGPU-Sim PTX: 33300000 instructions simulated : ctaid=(105,0,0) tid=(63,0,0)
GPGPU-Sim PTX: 33400000 instructions simulated : ctaid=(109,0,0) tid=(95,0,0)
GPGPU-Sim PTX: 33500000 instructions simulated : ctaid=(90,0,0) tid=(95,0,0)
GPGPU-Sim uArch: cycles simulated: 64500  inst.: 33512000 (ipc=519.6) sim_rate=523625 (inst/sec) elapsed = 0:0:01:04 / Tue Mar 22 07:03:20 2016
GPGPU-Sim PTX: 33600000 instructions simulated : ctaid=(89,0,0) tid=(31,0,0)
GPGPU-Sim PTX: 33700000 instructions simulated : ctaid=(105,0,0) tid=(95,0,0)
GPGPU-Sim PTX: 33800000 instructions simulated : ctaid=(75,0,0) tid=(127,0,0)
GPGPU-Sim PTX: 33900000 instructions simulated : ctaid=(100,0,0) tid=(127,0,0)
GPGPU-Sim PTX: 34000000 instructions simulated : ctaid=(68,0,0) tid=(95,0,0)
GPGPU-Sim PTX: 34100000 instructions simulated : ctaid=(80,0,0) tid=(63,0,0)
GPGPU-Sim uArch: cycles simulated: 65500  inst.: 34063712 (ipc=520.1) sim_rate=524057 (inst/sec) elapsed = 0:0:01:05 / Tue Mar 22 07:03:21 2016
GPGPU-Sim PTX: 34200000 instructions simulated : ctaid=(81,0,0) tid=(63,0,0)
GPGPU-Sim PTX: 34300000 instructions simulated : ctaid=(64,0,0) tid=(95,0,0)
GPGPU-Sim PTX: 34400000 instructions simulated : ctaid=(79,0,0) tid=(95,0,0)
GPGPU-Sim PTX: 34500000 instructions simulated : ctaid=(74,0,0) tid=(31,0,0)
GPGPU-Sim PTX: 34600000 instructions simulated : ctaid=(108,0,0) tid=(31,0,0)
GPGPU-Sim uArch: cycles simulated: 66500  inst.: 34620704 (ipc=520.6) sim_rate=524556 (inst/sec) elapsed = 0:0:01:06 / Tue Mar 22 07:03:22 2016
GPGPU-Sim PTX: 34700000 instructions simulated : ctaid=(116,0,0) tid=(31,0,0)
GPGPU-Sim PTX: 34800000 instructions simulated : ctaid=(109,0,0) tid=(63,0,0)
GPGPU-Sim PTX: 34900000 instructions simulated : ctaid=(107,0,0) tid=(127,0,0)
GPGPU-Sim PTX: 35000000 instructions simulated : ctaid=(107,0,0) tid=(31,0,0)
GPGPU-Sim PTX: 35100000 instructions simulated : ctaid=(64,0,0) tid=(31,0,0)
GPGPU-Sim PTX: 35200000 instructions simulated : ctaid=(67,0,0) tid=(31,0,0)
GPGPU-Sim uArch: cycles simulated: 67500  inst.: 35175840 (ipc=521.1) sim_rate=525012 (inst/sec) elapsed = 0:0:01:07 / Tue Mar 22 07:03:23 2016
GPGPU-Sim PTX: 35300000 instructions simulated : ctaid=(94,0,0) tid=(63,0,0)
GPGPU-Sim PTX: 35400000 instructions simulated : ctaid=(98,0,0) tid=(63,0,0)
GPGPU-Sim PTX: 35500000 instructions simulated : ctaid=(102,0,0) tid=(31,0,0)
GPGPU-Sim PTX: 35600000 instructions simulated : ctaid=(67,0,0) tid=(127,0,0)
GPGPU-Sim PTX: 35700000 instructions simulated : ctaid=(98,0,0) tid=(95,0,0)
GPGPU-Sim uArch: cycles simulated: 68500  inst.: 35729984 (ipc=521.6) sim_rate=525440 (inst/sec) elapsed = 0:0:01:08 / Tue Mar 22 07:03:24 2016
GPGPU-Sim PTX: 35800000 instructions simulated : ctaid=(90,0,0) tid=(31,0,0)
GPGPU-Sim PTX: 35900000 instructions simulated : ctaid=(91,0,0) tid=(127,0,0)
GPGPU-Sim PTX: 36000000 instructions simulated : ctaid=(88,0,0) tid=(95,0,0)
GPGPU-Sim PTX: 36100000 instructions simulated : ctaid=(96,0,0) tid=(31,0,0)
GPGPU-Sim PTX: 36200000 instructions simulated : ctaid=(110,0,0) tid=(95,0,0)
GPGPU-Sim PTX: 36300000 instructions simulated : ctaid=(110,0,0) tid=(63,0,0)
GPGPU-Sim uArch: cycles simulated: 69500  inst.: 36292256 (ipc=522.2) sim_rate=525974 (inst/sec) elapsed = 0:0:01:09 / Tue Mar 22 07:03:25 2016
GPGPU-Sim PTX: 36400000 instructions simulated : ctaid=(66,0,0) tid=(63,0,0)
GPGPU-Sim PTX: 36500000 instructions simulated : ctaid=(119,0,0) tid=(63,0,0)
GPGPU-Sim PTX: 36600000 instructions simulated : ctaid=(65,0,0) tid=(63,0,0)
GPGPU-Sim PTX: 36700000 instructions simulated : ctaid=(115,0,0) tid=(127,0,0)
GPGPU-Sim PTX: 36800000 instructions simulated : ctaid=(74,0,0) tid=(63,0,0)
GPGPU-Sim uArch: cycles simulated: 70500  inst.: 36822464 (ipc=522.3) sim_rate=526035 (inst/sec) elapsed = 0:0:01:10 / Tue Mar 22 07:03:26 2016
GPGPU-Sim PTX: 36900000 instructions simulated : ctaid=(93,0,0) tid=(95,0,0)
GPGPU-Sim PTX: 37000000 instructions simulated : ctaid=(76,0,0) tid=(127,0,0)
GPGPU-Sim PTX: 37100000 instructions simulated : ctaid=(63,0,0) tid=(95,0,0)
GPGPU-Sim uArch: cycles simulated: 71000  inst.: 37101728 (ipc=522.6) sim_rate=522559 (inst/sec) elapsed = 0:0:01:11 / Tue Mar 22 07:03:27 2016
GPGPU-Sim PTX: 37200000 instructions simulated : ctaid=(95,0,0) tid=(63,0,0)
GPGPU-Sim PTX: 37300000 instructions simulated : ctaid=(83,0,0) tid=(31,0,0)
GPGPU-Sim PTX: 37400000 instructions simulated : ctaid=(102,0,0) tid=(95,0,0)
GPGPU-Sim PTX: 37500000 instructions simulated : ctaid=(99,0,0) tid=(63,0,0)
GPGPU-Sim PTX: 37600000 instructions simulated : ctaid=(110,0,0) tid=(63,0,0)
GPGPU-Sim PTX: 37700000 instructions simulated : ctaid=(92,0,0) tid=(63,0,0)
GPGPU-Sim uArch: cycles simulated: 72000  inst.: 37681856 (ipc=523.4) sim_rate=523359 (inst/sec) elapsed = 0:0:01:12 / Tue Mar 22 07:03:28 2016
GPGPU-Sim PTX: 37800000 instructions simulated : ctaid=(92,0,0) tid=(63,0,0)
GPGPU-Sim PTX: 37900000 instructions simulated : ctaid=(119,0,0) tid=(95,0,0)
GPGPU-Sim PTX: 38000000 instructions simulated : ctaid=(117,0,0) tid=(63,0,0)
GPGPU-Sim PTX: 38100000 instructions simulated : ctaid=(105,0,0) tid=(127,0,0)
GPGPU-Sim PTX: 38200000 instructions simulated : ctaid=(95,0,0) tid=(95,0,0)
GPGPU-Sim uArch: cycles simulated: 73000  inst.: 38215968 (ipc=523.5) sim_rate=523506 (inst/sec) elapsed = 0:0:01:13 / Tue Mar 22 07:03:29 2016
GPGPU-Sim PTX: 38300000 instructions simulated : ctaid=(94,0,0) tid=(63,0,0)
GPGPU-Sim PTX: 38400000 instructions simulated : ctaid=(104,0,0) tid=(63,0,0)
GPGPU-Sim PTX: 38500000 instructions simulated : ctaid=(60,0,0) tid=(31,0,0)
GPGPU-Sim PTX: 38600000 instructions simulated : ctaid=(71,0,0) tid=(63,0,0)
GPGPU-Sim PTX: 38700000 instructions simulated : ctaid=(67,0,0) tid=(31,0,0)
GPGPU-Sim PTX: 38800000 instructions simulated : ctaid=(106,0,0) tid=(127,0,0)
GPGPU-Sim uArch: cycles simulated: 74000  inst.: 38769792 (ipc=523.9) sim_rate=523916 (inst/sec) elapsed = 0:0:01:14 / Tue Mar 22 07:03:30 2016
GPGPU-Sim PTX: 38900000 instructions simulated : ctaid=(63,0,0) tid=(127,0,0)
GPGPU-Sim PTX: 39000000 instructions simulated : ctaid=(109,0,0) tid=(31,0,0)
GPGPU-Sim PTX: 39100000 instructions simulated : ctaid=(84,0,0) tid=(95,0,0)
GPGPU-Sim PTX: 39200000 instructions simulated : ctaid=(63,0,0) tid=(95,0,0)
GPGPU-Sim PTX: 39300000 instructions simulated : ctaid=(98,0,0) tid=(127,0,0)
GPGPU-Sim uArch: cycles simulated: 75000  inst.: 39328992 (ipc=524.4) sim_rate=524386 (inst/sec) elapsed = 0:0:01:15 / Tue Mar 22 07:03:31 2016
GPGPU-Sim PTX: 39400000 instructions simulated : ctaid=(63,0,0) tid=(31,0,0)
GPGPU-Sim PTX: 39500000 instructions simulated : ctaid=(106,0,0) tid=(127,0,0)
GPGPU-Sim PTX: 39600000 instructions simulated : ctaid=(67,0,0) tid=(31,0,0)
GPGPU-Sim PTX: 39700000 instructions simulated : ctaid=(64,0,0) tid=(127,0,0)
GPGPU-Sim PTX: 39800000 instructions simulated : ctaid=(99,0,0) tid=(31,0,0)
GPGPU-Sim PTX: 39900000 instructions simulated : ctaid=(96,0,0) tid=(31,0,0)
GPGPU-Sim uArch: cycles simulated: 76000  inst.: 39877408 (ipc=524.7) sim_rate=524702 (inst/sec) elapsed = 0:0:01:16 / Tue Mar 22 07:03:32 2016
GPGPU-Sim PTX: 40000000 instructions simulated : ctaid=(72,0,0) tid=(31,0,0)
GPGPU-Sim PTX: 40100000 instructions simulated : ctaid=(77,0,0) tid=(127,0,0)
GPGPU-Sim PTX: 40200000 instructions simulated : ctaid=(76,0,0) tid=(31,0,0)
GPGPU-Sim PTX: 40300000 instructions simulated : ctaid=(70,0,0) tid=(95,0,0)
GPGPU-Sim PTX: 40400000 instructions simulated : ctaid=(65,0,0) tid=(63,0,0)
GPGPU-Sim uArch: cycles simulated: 77000  inst.: 40444864 (ipc=525.3) sim_rate=525257 (inst/sec) elapsed = 0:0:01:17 / Tue Mar 22 07:03:33 2016
GPGPU-Sim PTX: 40500000 instructions simulated : ctaid=(99,0,0) tid=(95,0,0)
GPGPU-Sim PTX: 40600000 instructions simulated : ctaid=(89,0,0) tid=(31,0,0)
GPGPU-Sim PTX: 40700000 instructions simulated : ctaid=(83,0,0) tid=(95,0,0)
GPGPU-Sim PTX: 40800000 instructions simulated : ctaid=(66,0,0) tid=(95,0,0)
GPGPU-Sim PTX: 40900000 instructions simulated : ctaid=(103,0,0) tid=(127,0,0)
GPGPU-Sim PTX: 41000000 instructions simulated : ctaid=(109,0,0) tid=(63,0,0)
GPGPU-Sim uArch: cycles simulated: 78000  inst.: 40999488 (ipc=525.6) sim_rate=525634 (inst/sec) elapsed = 0:0:01:18 / Tue Mar 22 07:03:34 2016
GPGPU-Sim PTX: 41100000 instructions simulated : ctaid=(95,0,0) tid=(95,0,0)
GPGPU-Sim PTX: 41200000 instructions simulated : ctaid=(115,0,0) tid=(127,0,0)
GPGPU-Sim PTX: 41300000 instructions simulated : ctaid=(85,0,0) tid=(31,0,0)
GPGPU-Sim PTX: 41400000 instructions simulated : ctaid=(75,0,0) tid=(63,0,0)
GPGPU-Sim PTX: 41500000 instructions simulated : ctaid=(65,0,0) tid=(95,0,0)
GPGPU-Sim uArch: cycles simulated: 79000  inst.: 41544288 (ipc=525.9) sim_rate=525877 (inst/sec) elapsed = 0:0:01:19 / Tue Mar 22 07:03:35 2016
GPGPU-Sim PTX: 41600000 instructions simulated : ctaid=(84,0,0) tid=(63,0,0)
GPGPU-Sim PTX: 41700000 instructions simulated : ctaid=(112,0,0) tid=(95,0,0)
GPGPU-Sim PTX: 41800000 instructions simulated : ctaid=(69,0,0) tid=(127,0,0)
GPGPU-Sim PTX: 41900000 instructions simulated : ctaid=(68,0,0) tid=(31,0,0)
GPGPU-Sim PTX: 42000000 instructions simulated : ctaid=(110,0,0) tid=(63,0,0)
GPGPU-Sim PTX: 42100000 instructions simulated : ctaid=(117,0,0) tid=(127,0,0)
GPGPU-Sim uArch: cycles simulated: 80000  inst.: 42101536 (ipc=526.3) sim_rate=526269 (inst/sec) elapsed = 0:0:01:20 / Tue Mar 22 07:03:36 2016
GPGPU-Sim PTX: 42200000 instructions simulated : ctaid=(119,0,0) tid=(127,0,0)
GPGPU-Sim PTX: 42300000 instructions simulated : ctaid=(61,0,0) tid=(31,0,0)
GPGPU-Sim PTX: 42400000 instructions simulated : ctaid=(112,0,0) tid=(127,0,0)
GPGPU-Sim uArch: cycles simulated: 80500  inst.: 42378080 (ipc=526.4) sim_rate=523186 (inst/sec) elapsed = 0:0:01:21 / Tue Mar 22 07:03:37 2016
GPGPU-Sim PTX: 42500000 instructions simulated : ctaid=(115,0,0) tid=(95,0,0)
GPGPU-Sim PTX: 42600000 instructions simulated : ctaid=(62,0,0) tid=(95,0,0)
GPGPU-Sim PTX: 42700000 instructions simulated : ctaid=(102,0,0) tid=(63,0,0)
GPGPU-Sim PTX: 42800000 instructions simulated : ctaid=(105,0,0) tid=(63,0,0)
GPGPU-Sim PTX: 42900000 instructions simulated : ctaid=(80,0,0) tid=(127,0,0)
GPGPU-Sim uArch: cycles simulated: 81500  inst.: 42949824 (ipc=527.0) sim_rate=523778 (inst/sec) elapsed = 0:0:01:22 / Tue Mar 22 07:03:38 2016
GPGPU-Sim PTX: 43000000 instructions simulated : ctaid=(93,0,0) tid=(31,0,0)
GPGPU-Sim PTX: 43100000 instructions simulated : ctaid=(107,0,0) tid=(95,0,0)
GPGPU-Sim PTX: 43200000 instructions simulated : ctaid=(109,0,0) tid=(127,0,0)
GPGPU-Sim PTX: 43300000 instructions simulated : ctaid=(93,0,0) tid=(127,0,0)
[...]
maxmflatency = 1974 
averagemflatency = 548 
max_icnt2mem_latency = 1142 
max_icnt2sh_latency = 349627 
mrq_lat_table:127035 	4817 	7995 	16309 	45676 	68065 	84422 	62324 	19647 	1219 	0 	0 	0 	0 	0 	0 	0 	0 	0 	0 	0 	0 	0 	0 	0 	0 	0 	0 	0 	0 	0 	0 	
dq_lat_table:0 	0 	0 	0 	0 	0 	0 	0 	0 	0 	0 	0 	0 	0 	0 	0 	0 	0 	0 	0 	0 	0 	0 	0 	0 	0 	0 	0 	0 	0 	0 	0 	
mf_lat_table:0 	0 	0 	0 	0 	0 	0 	180 	143258 	165942 	3135 	0 	0 	0 	0 	0 	0 	0 	0 	0 	0 	0 	0 	0 	0 	0 	0 	0 	0 	0 	0 	0 	
icnt2mem_lat_table:0 	0 	0 	111213 	45372 	37313 	54338 	48518 	15489 	391 	1 	0 	0 	0 	0 	0 	0 	0 	0 	0 	0 	0 	0 	0 	
icnt2sh_lat_table:0 	0 	0 	123155 	61978 	2372 	10 	0 	0 	0 	0 	298 	1182 	2877 	5640 	11364 	23961 	49744 	29934 	0 	0 	0 	0 	0 	
mf_lat_pw_table:0 	0 	0 	0 	0 	0 	0 	0 	185 	511 	0 	0 	0 	0 	0 	0 	0 	0 	0 	0 	0 	0 	0 	0 	0 	0 	0 	0 	0 	0 	0 	0 	
maximum concurrent accesses to same row:
dram[0]:        36        28        36        30        36        30        36        28        36        28        36        30        36        30        36        28 
dram[1]:        32        22        36        24        36        26        36        20        36        26        26        34        36        20        36        26 
dram[2]:        32        30        32        28        30        28        32        26        36        28        32        30        32        28        32        34 
dram[3]:        22        26        24        28        24        33        24        28        24        32        34        26        24        30        24        34 
dram[4]:        28        24        28        26        32        24        28        24        28        26        28        36        26        26        28        22 
dram[5]:        32        24        32        22        34        24        32        22        32        24        32        34        32        20        34        24 
maximum service time to same row:
dram[0]:      3910      2741      7806      6604      3699      2580      4281      3133      6426      5240      3994      2796      4789      3480      5150      4981 
dram[1]:      3568      3053      7647      6951      3465      4192      3850      3349      6431      5166      3266      4380      4450      3734      5056      5030 
dram[2]:      3609      3676      6311      6838      3140      3412      3279      3446      5191      5506      3343      3609      3247      3566      4756      4094 
dram[3]:      3345      3741      6597      7382      3579      3647      3199      3685      5319      6094      3862      3628      3377      4070      4324      6083 
dram[4]:      3693      4214      6703      6641      3783      4478      3504      4927      5554      5185      3476      4355      3898      6393      4141      7466 
dram[5]:      3452      3425      7150      6482      4617      3149      3488      4390      5850      5179      4502      3400      3974      5939      4026      6132 
average row accesses per activate:
dram[0]:  2.180202  2.139755  2.168188  2.140418  2.246901  2.183044  2.221359  2.198943  2.215981  2.137319  2.270968  2.163593  2.206365  2.134328  2.261987  2.190522 
dram[1]:  2.093216  2.069407  2.098605  2.103497  2.139755  2.148886  2.119500  2.144330  2.110701  2.101975  2.129363  2.102941  2.092364  2.101975  2.139318  2.122449 
dram[2]:  2.142655  2.209654  2.126296  2.170274  2.121723  2.177629  2.174905  2.219205  2.087591  2.183206  2.138318  2.168720  2.148357  2.187381  2.160529  2.243137 
dram[3]:  2.030439  2.046050  2.016086  2.051842  2.053466  2.055279  2.047427  2.068716  2.007898  2.078111  2.054782  2.057554  2.026572  2.045597  2.055705  2.101975 
dram[4]:  2.169378  2.141777  2.172364  2.149595  2.208577  2.192364  2.250861  2.224599  2.187381  2.149366  2.202117  2.157473  2.208494  2.185291  2.206365  2.212766 
dram[5]:  2.077910  2.058129  2.085028  2.023318  2.126701  2.085517  2.121465  2.101010  2.100046  2.080946  2.108756  2.075284  2.068716  2.051098  2.158491  2.127383 
average row locality = 437509/205245 = 2.131643
number of total memory accesses made:
dram[0]:         0         0         0         0         0         0         0         0         0         0         0         0         0         0         0         0 
dram[1]:         0         0         0         0         0         0         0         0         0         0         0         0         0         0         0         0 
dram[2]:         0         0         0         0         0         0         0         0         0         0         0         0         0         0         0         0 
dram[3]:         0         0         0         0         0         0         0         0         0         0         0         0         0         0         0         0 
dram[4]:         0         0         0         0         0         0         0         0         0         0         0         0         0         0         0         0 
dram[5]:         0         0         0         0         0         0         0         0         0         0         0         0         0         0         0         0 
total accesses: 0
min_bank_accesses = 0!
min_chip_accesses = 0!
number of total read accesses:
dram[0]:      3251      3246      3232      3232      3242      3242      3264      3264      3264      3264      3264      3264      3264      3264      3264      3264 
dram[1]:      3250      3246      3232      3232      3242      3242      3264      3264      3264      3264      3264      3264      3264      3264      3264      3264 
dram[2]:      3250      3246      3232      3232      3242      3244      3264      3264      3264      3264      3264      3264      3264      3264      3264      3264 
dram[3]:      3250      3246      3232      3232      3242      3244      3264      3264      3264      3264      3264      3264      3264      3264      3264      3264 
dram[4]:      3248      3246      3232      3232      3242      3244      3264      3264      3264      3264      3264      3264      3264      3264      3264      3264 
dram[5]:      3248      3246      3232      3232      3242      3244      3264      3264      3264      3264      3264      3264      3264      3264      3264      3264 
total reads: 312509
bank skew: 3264/3232 = 1.01
chip skew: 52086/52084 = 1.00
number of total write accesses:
dram[0]:      1286      1286      1280      1280      1290      1290      1312      1312      1312      1312      1312      1312      1312      1312      1312      1312 
dram[1]:      1286      1286      1280      1280      1290      1290      1312      1312      1312      1312      1312      1312      1312      1312      1312      1312 
dram[2]:      1286      1286      1280      1280      1290      1292      1312      1312      1312      1312      1312      1312      1312      1312      1312      1312 
dram[3]:      1286      1286      1280      1280      1290      1292      1312      1312      1312      1312      1312      1312      1312      1312      1312      1312 
dram[4]:      1286      1286      1280      1280      1290      1292      1312      1312      1312      1312      1312      1312      1312      1312      1312      1312 
dram[5]:      1286      1286      1280      1280      1290      1292      1312      1312      1312      1312      1312      1312      1312      1312      1312      1312 
total reads: 125000
bank skew: 1312/1280 = 1.02
chip skew: 20834/20832 = 1.00
average mf latency per bank:
dram[0]:        395       405       404       415       399       409       408       413       409       412       398       403       405       410       409       417
dram[1]:        398       387       398       394       399       394       408       401       394       390       395       391       400       392       407       401
dram[2]:        387       373       388       379       390       383       394       385       386       374       389       376       391       379       402       390
dram[3]:        343       337       348       340       347       342       350       346       345       340       342       337       351       339       357       353
dram[4]:        407       419       416       435       414       430       419       438       413       430       413       423       419       437       424       438
dram[5]:        379       389       389       393       384       392       394       401       382       390       376       389       386       394       390       402
maximum mf latency per bank:
dram[0]:       1974      1761      1351      1386      1400      1515      1728      1670      1560      1728      1729      1453      1594      1503      1630      1625
dram[1]:       1387      1181      1397      1398      1492      1276      1231      1177      1351      1161      1393      1218      1319      1156      1191      1074
dram[2]:       1364      1416      1360      1373      1363      1255      1313      1464      1487      1411      1969      1359      1532      1254      1605      1571
dram[3]:       1230      1190      1295      1113      1309      1217      1338      1098      1163      1071      1336      1250      1332      1126      1268      1697
dram[4]:       1463      1472      1456      1600      1329      1487      1545      1706      1423      1960      1312      1489      1458      1746      1183      1641
dram[5]:       1451      1468      1290      1354      1282      1383      1398      1475      1627      1332      1679      1478      1220      1391      1377      1449

Number of Memory Banks Accessed per Memory Operation per Warp (from 0):
0	0	0	0	0	0	0	0	0	0	0	0	0	0	0	0	0	0	0	0	0	0	0	0	0	0	0	0	0	0	0	0	0	0	0	0	0	0	0	0	0	0	0	0	0	0	0	0	0	0	0	0	0	0	0	0	0	0	0	0	0	0	0	0	0	0	0	0	0	0	0	0	0	0	0	0	0	0	0	0	0	0	0	0	0	0	0	0	0	0	0	0	0	0	0	0	
Average # of Memory Banks Accessed per Memory Operation per Warp=-nan

position of mrq chosen
0	0	0	0	0	0	0	0	0	0	0	0	0	0	0	0	

average position of mrq chosen = -nan
Memory Partition 0: 
Cache L2_bank_000:
MSHR contents

Cache L2_bank_001:
MSHR contents

In Dram Latency Queue (total = 0): 
DRAM[0]: 16 bks, busW=4 BL=8 CL=12, tRRD=2 tCCD=6, tRCD=12 tRAS=28 tRP=12 tRC=40
n_cmd=461508 n_nop=249114 n_act=33288 n_pre=33272 n_req=72917 n_rd=104170 n_write=41664 bw_util=0.632
n_activity=452343 dram_eff=0.6448
bk0: 6502a 264782i bk1: 6492a 258035i bk2: 6464a 254899i bk3: 6464a 250221i bk4: 6484a 250249i bk5: 6484a 242070i bk6: 6528a 235019i bk7: 6528a 231031i bk8: 6528a 257361i bk9: 6528a 254182i bk10: 6528a 253242i bk11: 6528a 249280i bk12: 6528a 246584i bk13: 6528a 241389i bk14: 6528a 237392i bk15: 6528a 229370i 
dram_util_bins: 0 0 0 0 0 0 0 0 0 0
dram_eff_bins: 0 0 0 0 0 0 0 0 0 0
mrqq: max=16 avg=14.6516
Memory Partition 1: 
Cache L2_bank_002:
MSHR contents

Cache L2_bank_003:
MSHR contents

In Dram Latency Queue (total = 0): 
DRAM[1]: 16 bks, busW=4 BL=8 CL=12, tRRD=2 tCCD=6, tRCD=12 tRAS=28 tRP=12 tRC=40
n_cmd=461508 n_nop=246690 n_act=34501 n_pre=34485 n_req=72916 n_rd=104168 n_write=41664 bw_util=0.632
n_activity=452774 dram_eff=0.6442
bk0: 6500a 257399i bk1: 6492a 251465i bk2: 6464a 251378i bk3: 6464a 246042i bk4: 6484a 241984i bk5: 6484a 236991i bk6: 6528a 230195i bk7: 6528a 225085i bk8: 6528a 251720i bk9: 6528a 249232i bk10: 6528a 247665i bk11: 6528a 242460i bk12: 6528a 239886i bk13: 6528a 236290i bk14: 6528a 229443i bk15: 6528a 220757i 
dram_util_bins: 0 0 0 0 0 0 0 0 0 0
dram_eff_bins: 0 0 0 0 0 0 0 0 0 0
mrqq: max=16 avg=14.5958
Memory Partition 2: 
Cache L2_bank_004:
MSHR contents

Cache L2_bank_005:
MSHR contents

In Dram Latency Queue (total = 0): 
DRAM[2]: 16 bks, busW=4 BL=8 CL=12, tRRD=2 tCCD=6, tRCD=12 tRAS=28 tRP=12 tRC=40
n_cmd=461508 n_nop=248340 n_act=33672 n_pre=33656 n_req=72920 n_rd=104172 n_write=41668 bw_util=0.632
n_activity=452196 dram_eff=0.645
bk0: 6500a 261209i bk1: 6492a 260383i bk2: 6464a 255496i bk3: 6464a 249277i bk4: 6484a 247386i bk5: 6488a 242506i bk6: 6528a 236131i bk7: 6528a 230465i bk8: 6528a 258117i bk9: 6528a 255666i bk10: 6528a 252205i bk11: 6528a 249546i bk12: 6528a 245890i bk13: 6528a 239046i bk14: 6528a 234242i bk15: 6528a 231032i 
dram_util_bins: 0 0 0 0 0 0 0 0 0 0
dram_eff_bins: 0 0 0 0 0 0 0 0 0 0
mrqq: max=16 avg=14.6364
Memory Partition 3: 
Cache L2_bank_006:
MSHR contents

Cache L2_bank_007:
MSHR contents

In Dram Latency Queue (total = 0): 
DRAM[3]: 16 bks, busW=4 BL=8 CL=12, tRRD=2 tCCD=6, tRCD=12 tRAS=28 tRP=12 tRC=40
n_cmd=461508 n_nop=244530 n_act=35577 n_pre=35561 n_req=72920 n_rd=104172 n_write=41668 bw_util=0.632
n_activity=452196 dram_eff=0.645
bk0: 6500a 254739i bk1: 6492a 252545i bk2: 6464a 247057i bk3: 6464a 243057i bk4: 6484a 240213i bk5: 6488a 238017i bk6: 6528a 231020i bk7: 6528a 222426i bk8: 6528a 252633i bk9: 6528a 246170i bk10: 6528a 246007i bk11: 6528a 242873i bk12: 6528a 239771i bk13: 6528a 233553i bk14: 6528a 227473i bk15: 6528a 224135i 
dram_util_bins: 0 0 0 0 0 0 0 0 0 0
dram_eff_bins: 0 0 0 0 0 0 0 0 0 0
mrqq: max=16 avg=13.7525
Memory Partition 4: 
Cache L2_bank_008:
MSHR contents

Cache L2_bank_009:
MSHR contents

In Dram Latency Queue (total = 0): 
DRAM[4]: 16 bks, busW=4 BL=8 CL=12, tRRD=2 tCCD=6, tRCD=12 tRAS=28 tRP=12 tRC=40
n_cmd=461508 n_nop=249046 n_act=33321 n_pre=33305 n_req=72918 n_rd=104168 n_write=41668 bw_util=0.632
n_activity=451153 dram_eff=0.6465
bk0: 6496a 261420i bk1: 6492a 258148i bk2: 6464a 253414i bk3: 6464a 247797i bk4: 6484a 251580i bk5: 6488a 240831i bk6: 6528a 237369i bk7: 6528a 227259i bk8: 6528a 258617i bk9: 6528a 251965i bk10: 6528a 252790i bk11: 6528a 248747i bk12: 6528a 246392i bk13: 6528a 237132i bk14: 6528a 234817i bk15: 6528a 226791i 
dram_util_bins: 0 0 0 0 0 0 0 0 0 0
dram_eff_bins: 0 0 0 0 0 0 0 0 0 0
mrqq: max=16 avg=14.6636
Memory Partition 5: 
Cache L2_bank_010:
MSHR contents

Cache L2_bank_011:
MSHR contents
MSHR: tag=0x80f20780, atomic=0 1 entries : 0x7f716896e780 :  mf: uid=4018170, sid08:w27, part=5, addr=0x80f20780, load , size=128, unknown  status = IN_PARTITION_DRAM (349625), 

In Dram Latency Queue (total = 0): 
DRAM[5]: 16 bks, busW=4 BL=8 CL=12, tRRD=2 tCCD=6, tRCD=12 tRAS=28 tRP=12 tRC=40
n_cmd=461508 n_nop=245916 n_act=34886 n_pre=34870 n_req=72918 n_rd=104168 n_write=41668 bw_util=0.632
n_activity=451747 dram_eff=0.6457
bk0: 6496a 255324i bk1: 6492a 251972i bk2: 6464a 249088i bk3: 6464a 241901i bk4: 6484a 244523i bk5: 6488a 234545i bk6: 6528a 231427i bk7: 6528a 223583i bk8: 6528a 255426i bk9: 6528a 246034i bk10: 6528a 251066i bk11: 6528a 240808i bk12: 6528a 240320i bk13: 6528a 232102i bk14: 6528a 232506i bk15: 6528a 219826i 
dram_util_bins: 0 0 0 0 0 0 0 0 0 0
dram_eff_bins: 0 0 0 0 0 0 0 0 0 0
mrqq: max=16 avg=14.3229

========= L2 cache stats =========
L2_cache_bank[0]: Access = 26087, Miss = 26045, Miss_rate = 0.998, Pending_hits = 9, Reservation_fails = 13532
L2_cache_bank[1]: Access = 26040, Miss = 26040, Miss_rate = 1.000, Pending_hits = 0, Reservation_fails = 9735
L2_cache_bank[2]: Access = 26072, Miss = 26044, Miss_rate = 0.999, Pending_hits = 6, Reservation_fails = 25878
L2_cache_bank[3]: Access = 26040, Miss = 26040, Miss_rate = 1.000, Pending_hits = 0, Reservation_fails = 27011
L2_cache_bank[4]: Access = 26072, Miss = 26044, Miss_rate = 0.999, Pending_hits = 6, Reservation_fails = 14496
L2_cache_bank[5]: Access = 26042, Miss = 26042, Miss_rate = 1.000, Pending_hits = 0, Reservation_fails = 14072
L2_cache_bank[6]: Access = 26072, Miss = 26044, Miss_rate = 0.999, Pending_hits = 6, Reservation_fails = 12534
L2_cache_bank[7]: Access = 26042, Miss = 26042, Miss_rate = 1.000, Pending_hits = 0, Reservation_fails = 8789
L2_cache_bank[8]: Access = 26042, Miss = 26042, Miss_rate = 1.000, Pending_hits = 0, Reservation_fails = 17807
L2_cache_bank[9]: Access = 26042, Miss = 26042, Miss_rate = 1.000, Pending_hits = 0, Reservation_fails = 23517
L2_cache_bank[10]: Access = 26042, Miss = 26042, Miss_rate = 1.000, Pending_hits = 0, Reservation_fails = 19911
L2_cache_bank[11]: Access = 26042, Miss = 26042, Miss_rate = 1.000, Pending_hits = 0, Reservation_fails = 21139
L2_total_cache_accesses = 312635
L2_total_cache_misses = 312509
L2_total_cache_miss_rate = 0.9996
L2_total_cache_pending_hits = 27
L2_total_cache_reservation_fails = 208421
L2_total_cache_breakdown:
	L2_cache_stats_breakdown[GLOBAL_ACC_R][MISS] = 187500
	L2_cache_stats_breakdown[GLOBAL_ACC_R][RESERVATION_FAIL] = 136062
	L2_cache_stats_breakdown[CONST_ACC_R][HIT] = 11
	L2_cache_stats_breakdown[CONST_ACC_R][HIT_RESERVED] = 3
	L2_cache_stats_breakdown[CONST_ACC_R][MISS] = 1
	L2_cache_stats_breakdown[CONST_ACC_R][RESERVATION_FAIL] = 109
	L2_cache_stats_breakdown[GLOBAL_ACC_W][MISS] = 125000
	L2_cache_stats_breakdown[GLOBAL_ACC_W][RESERVATION_FAIL] = 71451
	L2_cache_stats_breakdown[INST_ACC_R][HIT] = 88
	L2_cache_stats_breakdown[INST_ACC_R][HIT_RESERVED] = 24
	L2_cache_stats_breakdown[INST_ACC_R][MISS] = 8
	L2_cache_stats_breakdown[INST_ACC_R][RESERVATION_FAIL] = 799
L2_cache_data_port_util = 0.000
L2_cache_fill_port_util = 0.298

icnt_total_pkts_mem_to_simt=1063145
icnt_total_pkts_simt_to_mem=812635
LD_mem_lat_dist  0 0 0 0 0 0 0 0 0 0 0 0 0 0 0 0 0 0 0 0 0 0 0 0 0 0 0
ST_mem_lat_dist  0 0 0 0 0 0 0 0 0 0 0 0 0 0 0 0 0 0 0 0 0 0 0 0 0 0 0
----------------------------Interconnect-DETAILS--------------------------------
Class 0:
Packet latency average = 27.989
	minimum = 6
	maximum = 682
Network latency average = 21.4802
	minimum = 6
	maximum = 570
Slowest packet = 27847
Flit latency average = 16.4061
	minimum = 6
	maximum = 566
Slowest flit = 83286
Fragmentation average = 0.311008
	minimum = 0
	maximum = 449
Injected packet rate average = 0.0662365
	minimum = 0.0595747 (at node 4)
	maximum = 0.0746136 (at node 15)
Accepted packet rate average = 0.0662365
	minimum = 0.0595747 (at node 4)
	maximum = 0.0746136 (at node 15)
Injected flit rate average = 0.198706
	minimum = 0.154853 (at node 4)
	maximum = 0.253815 (at node 15)
Accepted flit rate average= 0.198706
	minimum = 0.193646 (at node 16)
	maximum = 0.202784 (at node 0)
Injected packet length average = 2.99995
Accepted packet length average = 2.99995
Total in-flight flits = 0 (0 measured)
====== Overall Traffic Statistics ======
====== Traffic class 0 ======
Packet latency average = 27.989 (1 samples)
	minimum = 6 (1 samples)
	maximum = 682 (1 samples)
Network latency average = 21.4802 (1 samples)
	minimum = 6 (1 samples)
	maximum = 570 (1 samples)
Flit latency average = 16.4061 (1 samples)
	minimum = 6 (1 samples)
	maximum = 566 (1 samples)
Fragmentation average = 0.311008 (1 samples)
	minimum = 0 (1 samples)
	maximum = 449 (1 samples)
Injected packet rate average = 0.0662365 (1 samples)
	minimum = 0.0595747 (1 samples)
	maximum = 0.0746136 (1 samples)
Accepted packet rate average = 0.0662365 (1 samples)
	minimum = 0.0595747 (1 samples)
	maximum = 0.0746136 (1 samples)
Injected flit rate average = 0.198706 (1 samples)
	minimum = 0.154853 (1 samples)
	maximum = 0.253815 (1 samples)
Accepted flit rate average = 0.198706 (1 samples)
	minimum = 0.193646 (1 samples)
	maximum = 0.202784 (1 samples)
Injected packet size average = 2.99995 (1 samples)
Accepted packet size average = 2.99995 (1 samples)
Hops average = 1 (1 samples)
----------------------------END-of-Interconnect-DETAILS-------------------------
GPGPU-Sim API: Stream Manager State


gpgpu_simulation_time = 0 days, 0 hrs, 6 min, 12 sec (372 sec)
gpgpu_simulation_rate = 526295 (inst/sec)
gpgpu_simulation_rate = 939 (cycle/sec)
GPGPU-Sim: detected inactive GPU simulation thread
Options count             : 4000000     
BlackScholesGPU() time    : 370368.593750 msec
Effective memory bandwidth: 0.000108 GB/s
Gigaoptions per second    : 0.000011     
Reading back GPU results...
Checking the results...
...running CPU calculations.
Comparing the results...
L1 norm: 1.729535E-07
Max absolute error: 1.192093E-05
TEST PASSED
Shutting down...
...releasing GPU memory.
...releasing CPU memory.
Shutdown done.
GPGPU-Sim: exit_simulation called
GPGPU-Sim: simulation thread signaled exit

Press ENTER to exit...
