

        *** GPGPU-Sim Simulator Version 3.2.2  [build 0] ***


GPGPU-Sim PTX: simulation mode 0 (can change with PTX_SIM_MODE_FUNC environment variable:
               1=functional simulation only, 0=detailed performance simulator)
GPGPU-Sim: Configuration options:

-network_mode                           1 # Interconnection network mode
-inter_config_file   config_fermi_islip.icnt # Interconnection network config file
-gpgpu_ptx_use_cuobjdump                    1 # Use cuobjdump to extract ptx and sass from binaries
-gpgpu_experimental_lib_support                    0 # Try to extract code from cuda libraries [Broken because of unknown cudaGetExportTable]
-gpgpu_ptx_convert_to_ptxplus                    0 # Convert SASS (native ISA) to ptxplus and run ptxplus
-gpgpu_ptx_force_max_capability                   20 # Force maximum compute capability
-gpgpu_ptx_inst_debug_to_file                    0 # Dump executed instructions' debug information to file
-gpgpu_ptx_inst_debug_file       inst_debug.txt # Executed instructions' debug output file
-gpgpu_ptx_inst_debug_thread_uid                    1 # Thread UID for executed instructions' debug output
-gpgpu_simd_model                       1 # 1 = post-dominator
-gpgpu_shader_core_pipeline              1536:32 # shader core pipeline config, i.e., {<nthread>:<warpsize>}
-gpgpu_tex_cache:l1  4:128:24,L:R:m:N:L,F:128:4,128:2 # per-shader L1 texture cache  (READ-ONLY) config  {<nsets>:<bsize>:<assoc>,<rep>:<wr>:<alloc>:<wr_alloc>,<mshr>:<N>:<merge>,<mq>:<rf>}
-gpgpu_const_cache:l1 64:64:2,L:R:f:N:L,A:2:32,4 # per-shader L1 constant memory cache  (READ-ONLY) config  {<nsets>:<bsize>:<assoc>,<rep>:<wr>:<alloc>:<wr_alloc>,<mshr>:<N>:<merge>,<mq>} 
-gpgpu_cache:il1     4:128:4,L:R:f:N:L,A:2:32,4 # shader L1 instruction cache config  {<nsets>:<bsize>:<assoc>,<rep>:<wr>:<alloc>:<wr_alloc>,<mshr>:<N>:<merge>,<mq>} 
-gpgpu_cache:dl1     32:128:4,L:L:m:N:H,A:32:8,8:2,0,1:0:1:1:0:1,1:4:8:16:32:64,/sciclone/data10/hwang07/GPU_RESEARCH/swl/swl_outputs/RESULTS/swl1/ # per-shader L1 data cache config  {<nsets>:<bsize>:<assoc>,<rep>:<wr>:<alloc>:<wr_alloc>,<mshr>:<N>:<merge>,<mq> | none}
-gpgpu_cache:dl1PrefL1                 none # per-shader L1 data cache config  {<nsets>:<bsize>:<assoc>,<rep>:<wr>:<alloc>:<wr_alloc>,<mshr>:<N>:<merge>,<mq> | none}
-gpgpu_cache:dl1PreShared                 none # per-shader L1 data cache config  {<nsets>:<bsize>:<assoc>,<rep>:<wr>:<alloc>:<wr_alloc>,<mshr>:<N>:<merge>,<mq> | none}
-gmem_skip_L1D                          0 # global memory access skip L1D cache (implements -Xptxas -dlcm=cg, default=no skip)
-gpgpu_perfect_mem                      0 # enable perfect memory mode (no cache miss)
-n_regfile_gating_group                    4 # group of lanes that should be read/written together)
-gpgpu_clock_gated_reg_file                    0 # enable clock gated reg file for power calculations
-gpgpu_clock_gated_lanes                    0 # enable clock gated lanes for power calculations
-gpgpu_shader_registers                32768 # Number of registers per shader core. Limits number of concurrent CTAs. (default 8192)
-gpgpu_shader_cta                       8 # Maximum number of concurrent CTAs in shader (default 8)
-gpgpu_num_cta_barriers                   16 # Maximum number of named barriers per CTA (default 16)
-gpgpu_n_clusters                      15 # number of processing clusters
-gpgpu_n_cores_per_cluster                    1 # number of simd cores per cluster
-gpgpu_n_cluster_ejection_buffer_size                    8 # number of packets in ejection buffer
-gpgpu_n_ldst_response_buffer_size                    2 # number of response packets in ld/st unit ejection buffer
-gpgpu_shmem_size                   16384 # Size of shared memory per shader core (default 16kB)
-gpgpu_shmem_size                   49152 # Size of shared memory per shader core (default 16kB)
-gpgpu_shmem_size_PrefL1                16384 # Size of shared memory per shader core (default 16kB)
-gpgpu_shmem_size_PrefShared                16384 # Size of shared memory per shader core (default 16kB)
-gpgpu_shmem_num_banks                   32 # Number of banks in the shared memory in each shader core (default 16)
-gpgpu_shmem_limited_broadcast                    0 # Limit shared memory to do one broadcast per cycle (default on)
-gpgpu_shmem_warp_parts                    1 # Number of portions a warp is divided into for shared memory bank conflict check 
-gpgpu_warpdistro_shader                   -1 # Specify which shader core to collect the warp size distribution from
-gpgpu_warp_issue_shader                    0 # Specify which shader core to collect the warp issue distribution from
-gpgpu_local_mem_map                    1 # Mapping from local memory space address to simulated GPU physical address space (default = enabled)
-gpgpu_num_reg_banks                   16 # Number of register banks (default = 8)
-gpgpu_reg_bank_use_warp_id                    0 # Use warp ID in mapping registers to banks (default = off)
-gpgpu_operand_collector_num_units_sp                    6 # number of collector units (default = 4)
-gpgpu_operand_collector_num_units_sfu                    8 # number of collector units (default = 4)
-gpgpu_operand_collector_num_units_mem                    2 # number of collector units (default = 2)
-gpgpu_operand_collector_num_units_gen                    0 # number of collector units (default = 0)
-gpgpu_operand_collector_num_in_ports_sp                    2 # number of collector unit in ports (default = 1)
-gpgpu_operand_collector_num_in_ports_sfu                    1 # number of collector unit in ports (default = 1)
-gpgpu_operand_collector_num_in_ports_mem                    1 # number of collector unit in ports (default = 1)
-gpgpu_operand_collector_num_in_ports_gen                    0 # number of collector unit in ports (default = 0)
-gpgpu_operand_collector_num_out_ports_sp                    2 # number of collector unit in ports (default = 1)
-gpgpu_operand_collector_num_out_ports_sfu                    1 # number of collector unit in ports (default = 1)
-gpgpu_operand_collector_num_out_ports_mem                    1 # number of collector unit in ports (default = 1)
-gpgpu_operand_collector_num_out_ports_gen                    0 # number of collector unit in ports (default = 0)
-gpgpu_coalesce_arch                   13 # Coalescing arch (default = 13, anything else is off for now)
-gpgpu_num_sched_per_core                    2 # Number of warp schedulers per core
-gpgpu_max_insn_issue_per_warp                    1 # Max number of instructions that can be issued per warp in one cycle by scheduler
-gpgpu_simt_core_sim_order                    1 # Select the simulation order of cores in a cluster (0=Fix, 1=Round-Robin)
-gpgpu_pipeline_widths        2,1,1,2,1,1,2 # Pipeline widths ID_OC_SP,ID_OC_SFU,ID_OC_MEM,OC_EX_SP,OC_EX_SFU,OC_EX_MEM,EX_WB
-gpgpu_num_sp_units                     2 # Number of SP units (default=1)
-gpgpu_num_sfu_units                    1 # Number of SF units (default=1)
-gpgpu_num_mem_units                    1 # Number if ldst units (default=1) WARNING: not hooked up to anything
-gpgpu_scheduler        warp_limiting:2:1 # Scheduler configuration: < lrr | gto | two_level_active > If two_level_active:<num_active_warps>:<inner_prioritization>:<outer_prioritization>For complete list of prioritization values see shader.h enum scheduler_prioritization_typeDefault: gto
-gpgpu_dram_scheduler                    1 # 0 = fifo, 1 = FR-FCFS (defaul)
-gpgpu_dram_partition_queues              8:8:8:8 # i2$:$2d:d2$:$2i
-l2_ideal                               0 # Use a ideal L2 cache that always hit
-gpgpu_cache:dl2     64:128:8,L:B:m:W:L,A:32:4,4:0,32 # unified banked L2 data cache config  {<nsets>:<bsize>:<assoc>,<rep>:<wr>:<alloc>:<wr_alloc>,<mshr>:<N>:<merge>,<mq>}
-gpgpu_cache:dl2_texture_only                    0 # L2 cache used for texture only
-gpgpu_n_mem                            6 # number of memory modules (e.g. memory controllers) in gpu
-gpgpu_n_sub_partition_per_mchannel                    2 # number of memory subpartition in each memory module
-gpgpu_n_mem_per_ctrlr                    2 # number of memory chips per memory controller
-gpgpu_memlatency_stat                   14 # track and display latency statistics 0x2 enables MC, 0x4 enables queue logs
-gpgpu_frfcfs_dram_sched_queue_size                   16 # 0 = unlimited (default); # entries per chip
-gpgpu_dram_return_queue_size                  116 # 0 = unlimited (default); # entries per chip
-gpgpu_dram_buswidth                    4 # default = 4 bytes (8 bytes per cycle at DDR)
-gpgpu_dram_burst_length                    8 # Burst length of each DRAM request (default = 4 data bus cycle)
-dram_data_command_freq_ratio                    4 # Frequency ratio between DRAM data bus and command bus (default = 2 times, i.e. DDR)
-gpgpu_dram_timing_opt nbk=16:CCD=2:RRD=6:RCD=12:RAS=28:RP=12:RC=40: CL=12:WL=4:CDLR=5:WR=12:nbkgrp=4:CCDL=3:RTPL=2 # DRAM timing parameters = {nbk:tCCD:tRRD:tRCD:tRAS:tRP:tRC:CL:WL:tCDLR:tWR:nbkgrp:tCCDL:tRTPL}
-rop_latency                          120 # ROP queue latency (default 85)
-dram_latency                         100 # DRAM latency (default 30)
-gpgpu_mem_addr_mapping dramid@8;00000000.00000000.00000000.00000000.0000RRRR.RRRRRRRR.BBBCCCCB.CCSSSSSS # mapping memory address to dram model {dramid@<start bit>;<memory address map>}
-gpgpu_mem_addr_test                    0 # run sweep test to check address mapping for aliased address
-gpgpu_mem_address_mask                    1 # 0 = old addressing mask, 1 = new addressing mask, 2 = new add. mask + flipped bank sel and chip sel bits
-gpuwattch_xml_file  gpuwattch_gtx480.xml # GPUWattch XML file
-power_simulation_enabled                    0 # Turn on power simulator (1=On, 0=Off)
-power_per_cycle_dump                    0 # Dump detailed power output each cycle
-power_trace_enabled                    0 # produce a file for the power trace (1=On, 0=Off)
-power_trace_zlevel                     6 # Compression level of the power trace output log (0=no comp, 9=highest)
-steady_power_levels_enabled                    0 # produce a file for the steady power levels (1=On, 0=Off)
-steady_state_definition                  8:4 # allowed deviation:number of samples
-gpgpu_max_cycle                        0 # terminates gpu simulation early (0 = no limit)
-gpgpu_max_insn                         0 # terminates gpu simulation early (0 = no limit)
-gpgpu_max_cta                          0 # terminates gpu simulation early (0 = no limit)
-gpgpu_runtime_stat                   500 # display runtime statistics such as dram utilization {<freq>:<flag>}
-liveness_message_freq                    1 # Minimum number of seconds between simulation liveness messages (0 = always print)
-gpgpu_flush_l1_cache                    0 # Flush L1 cache at the end of each kernel call
-gpgpu_flush_l2_cache                    0 # Flush L2 cache at the end of each kernel call
-gpgpu_deadlock_detect                    1 # Stop the simulation at deadlock (1=on (default), 0=off)
-gpgpu_ptx_instruction_classification                    0 # if enabled will classify ptx instruction types per kernel (Max 255 kernels now)
-gpgpu_ptx_sim_mode                     0 # Select between Performance (default) or Functional simulation (1)
-gpgpu_clock_domains 700.0:700.0:700.0:924.0 # Clock Domain Frequencies in MhZ {<Core Clock>:<ICNT Clock>:<L2 Clock>:<DRAM Clock>}
-gpgpu_max_concurrent_kernel                    8 # maximum kernels that can run concurrently on GPU
-gpgpu_cflog_interval                    0 # Interval between each snapshot in control flow logger
-visualizer_enabled                     0 # Turn on visualizer output (1=On, 0=Off)
-visualizer_outputfile                 NULL # Specifies the output log file for visualizer
-visualizer_zlevel                      6 # Compression level of the visualizer output log (0=no comp, 9=highest)
-trace_enabled                          0 # Turn on traces
-trace_components                    none # comma seperated list of traces to enable. Complete list found in trace_streams.tup. Default none
-trace_sampling_core                    0 # The core which is printed using CORE_DPRINTF. Default 0
-trace_sampling_memory_partition                   -1 # The memory partition which is printed using MEMPART_DPRINTF. Default -1 (i.e. all)
-enable_ptx_file_line_stats                    1 # Turn on PTX source line statistic profiling. (1 = On)
-ptx_line_stats_filename gpgpu_inst_stats.txt # Output file for PTX source line statistics.
-save_embedded_ptx                      0 # saves ptx files embedded in binary as <n>.ptx
-keep                                   0 # keep intermediate files created by GPGPU-Sim when interfacing with external programs
-gpgpu_ptx_save_converted_ptxplus                    0 # Saved converted ptxplus to a file
-ptx_opcode_latency_int         4,13,4,5,145 # Opcode latencies for integers <ADD,MAX,MUL,MAD,DIV>Default 1,1,19,25,145
-ptx_opcode_latency_fp          4,13,4,5,39 # Opcode latencies for single precision floating points <ADD,MAX,MUL,MAD,DIV>Default 1,1,1,1,30
-ptx_opcode_latency_dp         8,19,8,8,330 # Opcode latencies for double precision floating points <ADD,MAX,MUL,MAD,DIV>Default 8,8,8,8,335
-ptx_opcode_initiation_int            1,2,2,1,8 # Opcode initiation intervals for integers <ADD,MAX,MUL,MAD,DIV>Default 1,1,4,4,32
-ptx_opcode_initiation_fp            1,2,1,1,4 # Opcode initiation intervals for single precision floating points <ADD,MAX,MUL,MAD,DIV>Default 1,1,1,1,5
-ptx_opcode_initiation_dp         8,16,8,8,130 # Opcode initiation intervals for double precision floating points <ADD,MAX,MUL,MAD,DIV>Default 8,8,8,8,130
DRAM Timing Options:
nbk                                    16 # number of banks
CCD                                     2 # column to column delay
RRD                                     6 # minimal delay between activation of rows in different banks
RCD                                    12 # row to column delay
RAS                                    28 # time needed to activate row
RP                                     12 # time needed to precharge (deactivate) row
RC                                     40 # row cycle time
CDLR                                    5 # switching from write to read (changes tWTR)
WR                                     12 # last data-in to row precharge
CL                                     12 # CAS latency
WL                                      4 # Write latency
nbkgrp                                  4 # number of bank groups
CCDL                                    3 # column to column delay between accesses to different bank groups
RTPL                                    2 # read to precharge delay between accesses to different bank groups
Total number of memory sub partition = 12
addr_dec_mask[CHIP]  = 0000000000000000 	high:64 low:0
addr_dec_mask[BK]    = 000000000000e100 	high:16 low:8
addr_dec_mask[ROW]   = 000000000fff0000 	high:28 low:16
addr_dec_mask[COL]   = 0000000000001eff 	high:13 low:0
addr_dec_mask[BURST] = 000000000000003f 	high:6 low:0
sub_partition_id_mask = 0000000000000100
GPGPU-Sim uArch: clock freqs: 700000000.000000:700000000.000000:700000000.000000:924000000.000000
GPGPU-Sim uArch: clock periods: 0.00000000142857142857:0.00000000142857142857:0.00000000142857142857:0.00000000108225108225
*** Initializing Memory Statistics ***
GPGPU-Sim uArch: interconnect node map (shaderID+MemID to icntID)
GPGPU-Sim uArch: Memory nodes ID start from index: 15
GPGPU-Sim uArch:    0   1   2   3   4
GPGPU-Sim uArch:    5   6   7   8   9
GPGPU-Sim uArch:   10  11  12  13  14
GPGPU-Sim uArch:   15  16  17  18  19
GPGPU-Sim uArch:   20  21  22  23  24
GPGPU-Sim uArch:   25  26
GPGPU-Sim uArch: interconnect node reverse map (icntID to shaderID+MemID)
GPGPU-Sim uArch: Memory nodes start from ID: 15
GPGPU-Sim uArch:    0   1   2   3   4
GPGPU-Sim uArch:    5   6   7   8   9
GPGPU-Sim uArch:   10  11  12  13  14
GPGPU-Sim uArch:   15  16  17  18  19
GPGPU-Sim uArch:   20  21  22  23  24
GPGPU-Sim uArch:   25  26
af04f0b458cb08397a3295dafdcb0262  /sciclone/data10/hwang07/adwait/applications/benchmarks/CUDA/TRA/gpgpu_ptx_sim__TRA
GPGPU-Sim uArch: performance model initialization complete.
GPGPU-Sim PTX: __cudaRegisterFatBinary, fat_cubin_handle = 1, filename=transpose.cu
self exe links to: /sciclone/data10/hwang07/adwait/applications/benchmarks/CUDA/TRA/gpgpu_ptx_sim__TRA
Running md5sum using "md5sum /sciclone/data10/hwang07/adwait/applications/benchmarks/CUDA/TRA/gpgpu_ptx_sim__TRA "
Parsing file _cuobjdump_complete_output_V4kVNr
######### cuobjdump parser ########
## Adding new section ELF
Adding arch: sm_20
Adding identifier: transpose.cu
## Adding new section PTX
Adding ptx filename: _cuobjdump_1.ptx
Adding arch: sm_20
Adding identifier: transpose.cu
Done parsing!!!
GPGPU-Sim PTX: __cudaRegisterFunction _Z15transpose_naivePfS_ii : hostFun 0x0x404f49, fat_cubin_handle = 1
GPGPU-Sim PTX: allocating shared region for "__cuda___cuda_local_var_42235_32_non_const_block24" from 0x0 to 0x440 (shared memory space)
GPGPU-Sim PTX: instruction assembly for function '_Z9transposePfS_ii'...   done.
GPGPU-Sim PTX: finding reconvergence points for '_Z9transposePfS_ii'...
GPGPU-Sim PTX: Finding dominators for '_Z9transposePfS_ii'...
GPGPU-Sim PTX: Finding immediate dominators for '_Z9transposePfS_ii'...
GPGPU-Sim PTX: Finding postdominators for '_Z9transposePfS_ii'...
GPGPU-Sim PTX: Finding immediate postdominators for '_Z9transposePfS_ii'...
GPGPU-Sim PTX: pre-decoding instructions for '_Z9transposePfS_ii'...
GPGPU-Sim PTX: reconvergence points for _Z9transposePfS_ii...
GPGPU-Sim PTX:  1 (potential) branch divergence @  PC=0x088 (_1.ptx:81) @%p1 bra $Lt_0_2306;
GPGPU-Sim PTX:    immediate post dominator      @  PC=0x108 (_1.ptx:99) mov.u64 %rd1, __cuda___cuda_local_var_42235_32_non_const_block24;
GPGPU-Sim PTX:  2 (potential) branch divergence @  PC=0x160 (_1.ptx:111) @%p2 bra $Lt_0_2818;
GPGPU-Sim PTX:    immediate post dominator      @  PC=0x1d8 (_1.ptx:129) exit;
GPGPU-Sim PTX: ... end of reconvergence points for _Z9transposePfS_ii
GPGPU-Sim PTX: ... done pre-decoding instructions for '_Z9transposePfS_ii'.
GPGPU-Sim PTX: instruction assembly for function '_Z15transpose_naivePfS_ii'...   done.
GPGPU-Sim PTX: finding reconvergence points for '_Z15transpose_naivePfS_ii'...
GPGPU-Sim PTX: Finding dominators for '_Z15transpose_naivePfS_ii'...
GPGPU-Sim PTX: Finding immediate dominators for '_Z15transpose_naivePfS_ii'...
GPGPU-Sim PTX: Finding postdominators for '_Z15transpose_naivePfS_ii'...
GPGPU-Sim PTX: Finding immediate postdominators for '_Z15transpose_naivePfS_ii'...
GPGPU-Sim PTX: pre-decoding instructions for '_Z15transpose_naivePfS_ii'...
GPGPU-Sim PTX: reconvergence points for _Z15transpose_naivePfS_ii...
GPGPU-Sim PTX:  1 (potential) branch divergence @  PC=0x278 (_1.ptx:164) @%p1 bra $Lt_1_1282;
GPGPU-Sim PTX:    immediate post dominator      @  PC=0x2f0 (_1.ptx:182) exit;
GPGPU-Sim PTX: ... end of reconvergence points for _Z15transpose_naivePfS_ii
GPGPU-Sim PTX: ... done pre-decoding instructions for '_Z15transpose_naivePfS_ii'.
GPGPU-Sim PTX: finished parsing EMBEDDED .ptx file _1.ptx
Adding _cuobjdump_1.ptx with cubin handle 1
GPGPU-Sim PTX: extracting embedded .ptx to temporary file "_ptx_BSg9d9"
Running: cat _ptx_BSg9d9 | sed 's/.version 1.5/.version 1.4/' | sed 's/, texmode_independent//' | sed 's/\(\.extern \.const\[1\] .b8 \w\+\)\[\]/\1\[1\]/' | sed 's/const\[.\]/const\[0\]/g' > _ptx2_J42aMR
GPGPU-Sim PTX: generating ptxinfo using "$CUDA_INSTALL_PATH/bin/ptxas --gpu-name=sm_20 -v _ptx2_J42aMR --output-file  /dev/null 2> _ptx_BSg9d9info"
GPGPU-Sim PTX: Kernel '_Z15transpose_naivePfS_ii' : regs=8, lmem=0, smem=0, cmem=56
GPGPU-Sim PTX: Kernel '_Z9transposePfS_ii' : regs=9, lmem=0, smem=1088, cmem=56
GPGPU-Sim PTX: removing ptxinfo using "rm -f _ptx_BSg9d9 _ptx2_J42aMR _ptx_BSg9d9info"
GPGPU-Sim PTX: loading globals with explicit initializers... 
GPGPU-Sim PTX: finished loading globals (0 bytes total).
GPGPU-Sim PTX: loading constants with explicit initializers...  done.
GPGPU-Sim PTX: __cudaRegisterFunction _Z9transposePfS_ii : hostFun 0x0x404e59, fat_cubin_handle = 1

GPGPU-Sim PTX: cudaLaunch for 0x0x404f49 (mode=performance simulation) on stream 0
GPGPU-Sim PTX: pushing kernel '_Z15transpose_naivePfS_ii' to stream 0, gridDim= (16,256,1) blockDim = (16,16,1) 
kernel '_Z15transpose_naivePfS_ii' transfer to GPU hardware scheduler
GPGPU-Sim uArch: Shader 1 bind to kernel 1 '_Z15transpose_naivePfS_ii'
GPGPU-Sim uArch: CTA/core = 6, limited by: threads
GPGPU-Sim uArch: core:  1, cta: 0 initialized @(1,0)
GPGPU-Sim uArch: Shader 2 bind to kernel 1 '_Z15transpose_naivePfS_ii'
GPGPU-Sim uArch: core:  2, cta: 0 initialized @(1,0)
GPGPU-Sim uArch: Shader 3 bind to kernel 1 '_Z15transpose_naivePfS_ii'
GPGPU-Sim uArch: core:  3, cta: 0 initialized @(1,0)
GPGPU-Sim uArch: Shader 4 bind to kernel 1 '_Z15transpose_naivePfS_ii'
GPGPU-Sim uArch: core:  4, cta: 0 initialized @(1,0)
GPGPU-Sim uArch: Shader 5 bind to kernel 1 '_Z15transpose_naivePfS_ii'
GPGPU-Sim uArch: core:  5, cta: 0 initialized @(1,0)
GPGPU-Sim uArch: Shader 6 bind to kernel 1 '_Z15transpose_naivePfS_ii'
GPGPU-Sim uArch: core:  6, cta: 0 initialized @(1,0)
GPGPU-Sim uArch: Shader 7 bind to kernel 1 '_Z15transpose_naivePfS_ii'
GPGPU-Sim uArch: core:  7, cta: 0 initialized @(1,0)
GPGPU-Sim uArch: Shader 8 bind to kernel 1 '_Z15transpose_naivePfS_ii'
GPGPU-Sim uArch: core:  8, cta: 0 initialized @(1,0)
GPGPU-Sim uArch: Shader 9 bind to kernel 1 '_Z15transpose_naivePfS_ii'
GPGPU-Sim uArch: core:  9, cta: 0 initialized @(1,0)
GPGPU-Sim uArch: Shader 10 bind to kernel 1 '_Z15transpose_naivePfS_ii'
GPGPU-Sim uArch: core: 10, cta: 0 initialized @(1,0)
GPGPU-Sim uArch: Shader 11 bind to kernel 1 '_Z15transpose_naivePfS_ii'
GPGPU-Sim uArch: core: 11, cta: 0 initialized @(1,0)
GPGPU-Sim uArch: Shader 12 bind to kernel 1 '_Z15transpose_naivePfS_ii'
GPGPU-Sim uArch: core: 12, cta: 0 initialized @(1,0)
GPGPU-Sim uArch: Shader 13 bind to kernel 1 '_Z15transpose_naivePfS_ii'
GPGPU-Sim uArch: core: 13, cta: 0 initialized @(1,0)
GPGPU-Sim uArch: Shader 14 bind to kernel 1 '_Z15transpose_naivePfS_ii'
GPGPU-Sim uArch: core: 14, cta: 0 initialized @(1,0)
GPGPU-Sim uArch: Shader 0 bind to kernel 1 '_Z15transpose_naivePfS_ii'
GPGPU-Sim uArch: core:  0, cta: 0 initialized @(1,0)
GPGPU-Sim uArch: core:  1, cta: 1 initialized @(2,0)
GPGPU-Sim uArch: core:  2, cta: 1 initialized @(2,0)
GPGPU-Sim uArch: core:  3, cta: 1 initialized @(2,0)
GPGPU-Sim uArch: core:  4, cta: 1 initialized @(2,0)
GPGPU-Sim uArch: core:  5, cta: 1 initialized @(2,0)
GPGPU-Sim uArch: core:  6, cta: 1 initialized @(2,0)
GPGPU-Sim uArch: core:  7, cta: 1 initialized @(2,0)
GPGPU-Sim uArch: core:  8, cta: 1 initialized @(2,0)
GPGPU-Sim uArch: core:  9, cta: 1 initialized @(2,0)
GPGPU-Sim uArch: core: 10, cta: 1 initialized @(2,0)
GPGPU-Sim uArch: core: 11, cta: 1 initialized @(2,0)
GPGPU-Sim uArch: core: 12, cta: 1 initialized @(2,0)
GPGPU-Sim uArch: core: 13, cta: 1 initialized @(2,0)
GPGPU-Sim uArch: core: 14, cta: 1 initialized @(2,0)
GPGPU-Sim uArch: core:  0, cta: 1 initialized @(2,0)
GPGPU-Sim uArch: core:  1, cta: 2 initialized @(3,0)
GPGPU-Sim uArch: core:  2, cta: 2 initialized @(3,0)
GPGPU-Sim uArch: core:  3, cta: 2 initialized @(3,0)
GPGPU-Sim uArch: core:  4, cta: 2 initialized @(3,0)
GPGPU-Sim uArch: core:  5, cta: 2 initialized @(3,0)
GPGPU-Sim uArch: core:  6, cta: 2 initialized @(3,0)
GPGPU-Sim uArch: core:  7, cta: 2 initialized @(3,0)
GPGPU-Sim uArch: core:  8, cta: 2 initialized @(3,0)
GPGPU-Sim uArch: core:  9, cta: 2 initialized @(3,0)
GPGPU-Sim uArch: core: 10, cta: 2 initialized @(3,0)
GPGPU-Sim uArch: core: 11, cta: 2 initialized @(3,0)
GPGPU-Sim uArch: core: 12, cta: 2 initialized @(3,0)
GPGPU-Sim uArch: core: 13, cta: 2 initialized @(3,0)
GPGPU-Sim uArch: core: 14, cta: 2 initialized @(3,0)
GPGPU-Sim uArch: core:  0, cta: 2 initialized @(3,0)
GPGPU-Sim uArch: core:  1, cta: 3 initialized @(4,0)
GPGPU-Sim uArch: core:  2, cta: 3 initialized @(4,0)
GPGPU-Sim uArch: core:  3, cta: 3 initialized @(4,0)
GPGPU-Sim uArch: core:  4, cta: 3 initialized @(4,0)
GPGPU-Sim uArch: core:  5, cta: 3 initialized @(4,0)
GPGPU-Sim uArch: core:  6, cta: 3 initialized @(4,0)
GPGPU-Sim uArch: core:  7, cta: 3 initialized @(4,0)
GPGPU-Sim uArch: core:  8, cta: 3 initialized @(4,0)
GPGPU-Sim uArch: core:  9, cta: 3 initialized @(4,0)
GPGPU-Sim uArch: core: 10, cta: 3 initialized @(4,0)
GPGPU-Sim uArch: core: 11, cta: 3 initialized @(4,0)
GPGPU-Sim uArch: core: 12, cta: 3 initialized @(4,0)
GPGPU-Sim uArch: core: 13, cta: 3 initialized @(4,0)
GPGPU-Sim uArch: core: 14, cta: 3 initialized @(4,0)
GPGPU-Sim uArch: core:  0, cta: 3 initialized @(4,0)
GPGPU-Sim uArch: core:  1, cta: 4 initialized @(5,0)
GPGPU-Sim uArch: core:  2, cta: 4 initialized @(5,0)
GPGPU-Sim uArch: core:  3, cta: 4 initialized @(5,0)
GPGPU-Sim uArch: core:  4, cta: 4 initialized @(5,0)
GPGPU-Sim uArch: core:  5, cta: 4 initialized @(5,0)
GPGPU-Sim uArch: core:  6, cta: 4 initialized @(5,0)
GPGPU-Sim uArch: core:  7, cta: 4 initialized @(5,0)
GPGPU-Sim uArch: core:  8, cta: 4 initialized @(5,0)
GPGPU-Sim uArch: core:  9, cta: 4 initialized @(5,0)
GPGPU-Sim uArch: core: 10, cta: 4 initialized @(5,0)
GPGPU-Sim uArch: core: 11, cta: 4 initialized @(5,0)
GPGPU-Sim uArch: core: 12, cta: 4 initialized @(5,0)
GPGPU-Sim uArch: core: 13, cta: 4 initialized @(5,0)
GPGPU-Sim uArch: core: 14, cta: 4 initialized @(5,0)
GPGPU-Sim uArch: core:  0, cta: 4 initialized @(5,0)
GPGPU-Sim uArch: core:  1, cta: 5 initialized @(6,0)
GPGPU-Sim uArch: core:  2, cta: 5 initialized @(6,0)
GPGPU-Sim uArch: core:  3, cta: 5 initialized @(6,0)
GPGPU-Sim uArch: core:  4, cta: 5 initialized @(6,0)
GPGPU-Sim uArch: core:  5, cta: 5 initialized @(6,0)
GPGPU-Sim uArch: core:  6, cta: 5 initialized @(6,0)
GPGPU-Sim uArch: core:  7, cta: 5 initialized @(6,0)
GPGPU-Sim uArch: core:  8, cta: 5 initialized @(6,0)
GPGPU-Sim uArch: core:  9, cta: 5 initialized @(6,0)
GPGPU-Sim uArch: core: 10, cta: 5 initialized @(6,0)
GPGPU-Sim uArch: core: 11, cta: 5 initialized @(6,0)
GPGPU-Sim uArch: core: 12, cta: 5 initialized @(6,0)
GPGPU-Sim uArch: core: 13, cta: 5 initialized @(6,0)
GPGPU-Sim uArch: core: 14, cta: 5 initialized @(6,0)
GPGPU-Sim uArch: core:  0, cta: 5 initialized @(6,0)
GPGPU-Sim uArch: cycles simulated: 500  inst.: 3840 (ipc= 7.7) sim_rate=960 (inst/sec) elapsed = 0:0:00:04 / Tue Mar 22 12:40:03 2016
GPGPU-Sim uArch: cycles simulated: 2000  inst.: 51072 (ipc=25.5) sim_rate=10214 (inst/sec) elapsed = 0:0:00:05 / Tue Mar 22 12:40:04 2016
GPGPU-Sim uArch: cycles simulated: 4000  inst.: 81824 (ipc=20.5) sim_rate=13637 (inst/sec) elapsed = 0:0:00:06 / Tue Mar 22 12:40:05 2016
GPGPU-Sim PTX: 100000 instructions simulated : ctaid=(1,0,0) tid=(15,9,0)
GPGPU-Sim uArch: cycles simulated: 6500  inst.: 127552 (ipc=19.6) sim_rate=18221 (inst/sec) elapsed = 0:0:00:07 / Tue Mar 22 12:40:06 2016
GPGPU-Sim uArch: Shader 0 finished CTA #0 (7675,0), 5 CTAs running
GPGPU-Sim uArch: core:  0, cta: 0 initialized @(7676,0)
GPGPU-Sim uArch: Shader 6 finished CTA #0 (8908,0), 5 CTAs running
GPGPU-Sim uArch: core:  6, cta: 0 initialized @(8909,0)
GPGPU-Sim uArch: Shader 5 finished CTA #0 (9090,0), 5 CTAs running
GPGPU-Sim uArch: core:  5, cta: 0 initialized @(9091,0)
GPGPU-Sim uArch: Shader 12 finished CTA #0 (9118,0), 5 CTAs running
GPGPU-Sim uArch: core: 12, cta: 0 initialized @(9119,0)
GPGPU-Sim uArch: Shader 13 finished CTA #0 (9178,0), 5 CTAs running
GPGPU-Sim uArch: core: 13, cta: 0 initialized @(9179,0)
GPGPU-Sim uArch: Shader 1 finished CTA #0 (9258,0), 5 CTAs running
GPGPU-Sim uArch: core:  1, cta: 0 initialized @(9259,0)
GPGPU-Sim uArch: Shader 9 finished CTA #0 (9299,0), 5 CTAs running
GPGPU-Sim uArch: core:  9, cta: 0 initialized @(9300,0)
GPGPU-Sim uArch: Shader 7 finished CTA #0 (9339,0), 5 CTAs running
GPGPU-Sim uArch: core:  7, cta: 0 initialized @(9340,0)
GPGPU-Sim uArch: Shader 10 finished CTA #0 (9412,0), 5 CTAs running
GPGPU-Sim uArch: core: 10, cta: 0 initialized @(9413,0)
GPGPU-Sim uArch: cycles simulated: 9500  inst.: 175520 (ipc=18.5) sim_rate=21940 (inst/sec) elapsed = 0:0:00:08 / Tue Mar 22 12:40:07 2016
GPGPU-Sim uArch: Shader 8 finished CTA #0 (9531,0), 5 CTAs running
GPGPU-Sim uArch: core:  8, cta: 0 initialized @(9532,0)
GPGPU-Sim uArch: Shader 11 finished CTA #0 (9567,0), 5 CTAs running
GPGPU-Sim uArch: core: 11, cta: 0 initialized @(9568,0)
GPGPU-Sim uArch: Shader 14 finished CTA #0 (9603,0), 5 CTAs running
GPGPU-Sim uArch: core: 14, cta: 0 initialized @(9604,0)
GPGPU-Sim uArch: Shader 3 finished CTA #0 (9688,0), 5 CTAs running
GPGPU-Sim uArch: core:  3, cta: 0 initialized @(9689,0)
GPGPU-Sim uArch: Shader 2 finished CTA #0 (9902,0), 5 CTAs running
GPGPU-Sim uArch: core:  2, cta: 0 initialized @(9903,0)
GPGPU-Sim uArch: Shader 4 finished CTA #0 (9961,0), 5 CTAs running
GPGPU-Sim uArch: core:  4, cta: 0 initialized @(9962,0)
GPGPU-Sim PTX: 200000 instructions simulated : ctaid=(1,1,0) tid=(15,5,0)
GPGPU-Sim uArch: cycles simulated: 12000  inst.: 217536 (ipc=18.1) sim_rate=24170 (inst/sec) elapsed = 0:0:00:09 / Tue Mar 22 12:40:08 2016
GPGPU-Sim uArch: cycles simulated: 14500  inst.: 257440 (ipc=17.8) sim_rate=25744 (inst/sec) elapsed = 0:0:00:10 / Tue Mar 22 12:40:09 2016
GPGPU-Sim uArch: Shader 0 finished CTA #1 (16247,0), 5 CTAs running
GPGPU-Sim uArch: core:  0, cta: 1 initialized @(16248,0)
GPGPU-Sim PTX: 300000 instructions simulated : ctaid=(1,2,0) tid=(15,1,0)
GPGPU-Sim uArch: Shader 1 finished CTA #1 (17035,0), 5 CTAs running
GPGPU-Sim uArch: core:  1, cta: 1 initialized @(17036,0)
GPGPU-Sim uArch: Shader 6 finished CTA #1 (17083,0), 5 CTAs running
GPGPU-Sim uArch: core:  6, cta: 1 initialized @(17084,0)
GPGPU-Sim uArch: Shader 13 finished CTA #1 (17150,0), 5 CTAs running
GPGPU-Sim uArch: core: 13, cta: 1 initialized @(17151,0)
GPGPU-Sim uArch: Shader 7 finished CTA #1 (17347,0), 5 CTAs running
GPGPU-Sim uArch: core:  7, cta: 1 initialized @(17348,0)
GPGPU-Sim uArch: cycles simulated: 17500  inst.: 307424 (ipc=17.6) sim_rate=27947 (inst/sec) elapsed = 0:0:00:11 / Tue Mar 22 12:40:10 2016
GPGPU-Sim uArch: Shader 9 finished CTA #1 (17574,0), 5 CTAs running
GPGPU-Sim uArch: core:  9, cta: 1 initialized @(17575,0)
GPGPU-Sim uArch: Shader 12 finished CTA #1 (17614,0), 5 CTAs running
GPGPU-Sim uArch: core: 12, cta: 1 initialized @(17615,0)
GPGPU-Sim uArch: Shader 10 finished CTA #1 (17697,0), 5 CTAs running
GPGPU-Sim uArch: core: 10, cta: 1 initialized @(17698,0)
GPGPU-Sim uArch: Shader 5 finished CTA #1 (17728,0), 5 CTAs running
GPGPU-Sim uArch: core:  5, cta: 1 initialized @(17729,0)
GPGPU-Sim uArch: Shader 8 finished CTA #1 (17788,0), 5 CTAs running
GPGPU-Sim uArch: core:  8, cta: 1 initialized @(17789,0)
GPGPU-Sim uArch: Shader 11 finished CTA #1 (17826,0), 5 CTAs running
GPGPU-Sim uArch: core: 11, cta: 1 initialized @(17827,0)
GPGPU-Sim uArch: Shader 3 finished CTA #1 (17835,0), 5 CTAs running
GPGPU-Sim uArch: core:  3, cta: 1 initialized @(17836,0)
GPGPU-Sim uArch: Shader 4 finished CTA #1 (17877,0), 5 CTAs running
GPGPU-Sim uArch: core:  4, cta: 1 initialized @(17878,0)
GPGPU-Sim uArch: Shader 14 finished CTA #1 (17934,0), 5 CTAs running
GPGPU-Sim uArch: core: 14, cta: 1 initialized @(17935,0)
GPGPU-Sim uArch: Shader 2 finished CTA #1 (18521,0), 5 CTAs running
GPGPU-Sim uArch: core:  2, cta: 1 initialized @(18522,0)
GPGPU-Sim uArch: cycles simulated: 20000  inst.: 348064 (ipc=17.4) sim_rate=29005 (inst/sec) elapsed = 0:0:00:12 / Tue Mar 22 12:40:11 2016
GPGPU-Sim PTX: 400000 instructions simulated : ctaid=(7,2,0) tid=(15,15,0)
GPGPU-Sim uArch: cycles simulated: 22500  inst.: 396320 (ipc=17.6) sim_rate=30486 (inst/sec) elapsed = 0:0:00:13 / Tue Mar 22 12:40:12 2016
GPGPU-Sim uArch: Shader 1 finished CTA #2 (23128,0), 5 CTAs running
GPGPU-Sim uArch: core:  1, cta: 2 initialized @(23129,0)
GPGPU-Sim uArch: Shader 0 finished CTA #2 (23896,0), 5 CTAs running
GPGPU-Sim uArch: core:  0, cta: 2 initialized @(23897,0)
GPGPU-Sim uArch: Shader 7 finished CTA #2 (24127,0), 5 CTAs running
GPGPU-Sim uArch: core:  7, cta: 2 initialized @(24128,0)
GPGPU-Sim uArch: Shader 13 finished CTA #2 (24219,0), 5 CTAs running
GPGPU-Sim uArch: core: 13, cta: 2 initialized @(24220,0)
GPGPU-Sim uArch: Shader 4 finished CTA #2 (24409,0), 5 CTAs running
GPGPU-Sim uArch: core:  4, cta: 2 initialized @(24410,0)
GPGPU-Sim uArch: Shader 5 finished CTA #2 (24441,0), 5 CTAs running
GPGPU-Sim uArch: core:  5, cta: 2 initialized @(24442,0)
GPGPU-Sim uArch: Shader 10 finished CTA #2 (24581,0), 5 CTAs running
GPGPU-Sim uArch: core: 10, cta: 2 initialized @(24582,0)
GPGPU-Sim uArch: cycles simulated: 25000  inst.: 444064 (ipc=17.8) sim_rate=31718 (inst/sec) elapsed = 0:0:00:14 / Tue Mar 22 12:40:13 2016
GPGPU-Sim uArch: Shader 2 finished CTA #2 (25002,0), 5 CTAs running
GPGPU-Sim uArch: core:  2, cta: 2 initialized @(25003,0)
GPGPU-Sim uArch: Shader 9 finished CTA #2 (25081,0), 5 CTAs running
GPGPU-Sim uArch: core:  9, cta: 2 initialized @(25082,0)
GPGPU-Sim uArch: Shader 8 finished CTA #2 (25085,0), 5 CTAs running
GPGPU-Sim uArch: core:  8, cta: 2 initialized @(25086,0)
GPGPU-Sim uArch: Shader 12 finished CTA #2 (25135,0), 5 CTAs running
GPGPU-Sim uArch: core: 12, cta: 2 initialized @(25136,0)
GPGPU-Sim uArch: Shader 11 finished CTA #2 (25144,0), 5 CTAs running
GPGPU-Sim uArch: core: 11, cta: 2 initialized @(25145,0)
GPGPU-Sim uArch: Shader 3 finished CTA #2 (25168,0), 5 CTAs running
GPGPU-Sim uArch: core:  3, cta: 2 initialized @(25169,0)
GPGPU-Sim uArch: Shader 14 finished CTA #2 (25180,0), 5 CTAs running
GPGPU-Sim uArch: core: 14, cta: 2 initialized @(25181,0)
GPGPU-Sim uArch: Shader 6 finished CTA #2 (25225,0), 5 CTAs running
GPGPU-Sim uArch: core:  6, cta: 2 initialized @(25226,0)
GPGPU-Sim PTX: 500000 instructions simulated : ctaid=(10,3,0) tid=(15,9,0)
GPGPU-Sim uArch: cycles simulated: 27500  inst.: 489280 (ipc=17.8) sim_rate=32618 (inst/sec) elapsed = 0:0:00:15 / Tue Mar 22 12:40:14 2016
GPGPU-Sim uArch: Shader 1 finished CTA #3 (29835,0), 5 CTAs running
GPGPU-Sim uArch: core:  1, cta: 3 initialized @(29836,0)
GPGPU-Sim uArch: cycles simulated: 30000  inst.: 531744 (ipc=17.7) sim_rate=33234 (inst/sec) elapsed = 0:0:00:16 / Tue Mar 22 12:40:15 2016
GPGPU-Sim uArch: Shader 0 finished CTA #3 (30938,0), 5 CTAs running
GPGPU-Sim uArch: core:  0, cta: 3 initialized @(30939,0)
GPGPU-Sim uArch: Shader 5 finished CTA #3 (31818,0), 5 CTAs running
GPGPU-Sim uArch: core:  5, cta: 3 initialized @(31819,0)
GPGPU-Sim uArch: Shader 2 finished CTA #3 (31975,0), 5 CTAs running
GPGPU-Sim uArch: core:  2, cta: 3 initialized @(31976,0)
GPGPU-Sim uArch: Shader 0 finished CTA #4 (32238,0), 5 CTAs running
GPGPU-Sim uArch: core:  0, cta: 4 initialized @(32239,0)
GPGPU-Sim PTX: 600000 instructions simulated : ctaid=(6,4,0) tid=(15,5,0)
GPGPU-Sim uArch: Shader 10 finished CTA #3 (32261,0), 5 CTAs running
GPGPU-Sim uArch: core: 10, cta: 3 initialized @(32262,0)
GPGPU-Sim uArch: Shader 13 finished CTA #3 (32347,0), 5 CTAs running
GPGPU-Sim uArch: core: 13, cta: 3 initialized @(32348,0)
GPGPU-Sim uArch: Shader 4 finished CTA #3 (32390,0), 5 CTAs running
GPGPU-Sim uArch: core:  4, cta: 3 initialized @(32391,0)
GPGPU-Sim uArch: Shader 3 finished CTA #3 (32492,0), 5 CTAs running
GPGPU-Sim uArch: core:  3, cta: 3 initialized @(32493,0)
GPGPU-Sim uArch: cycles simulated: 32500  inst.: 590240 (ipc=18.2) sim_rate=34720 (inst/sec) elapsed = 0:0:00:17 / Tue Mar 22 12:40:16 2016
GPGPU-Sim uArch: Shader 8 finished CTA #3 (32536,0), 5 CTAs running
GPGPU-Sim uArch: core:  8, cta: 3 initialized @(32537,0)
GPGPU-Sim uArch: Shader 11 finished CTA #3 (32581,0), 5 CTAs running
GPGPU-Sim uArch: core: 11, cta: 3 initialized @(32582,0)
GPGPU-Sim uArch: Shader 9 finished CTA #3 (32803,0), 5 CTAs running
GPGPU-Sim uArch: core:  9, cta: 3 initialized @(32804,0)
GPGPU-Sim uArch: Shader 14 finished CTA #3 (32828,0), 5 CTAs running
GPGPU-Sim uArch: core: 14, cta: 3 initialized @(32829,0)
GPGPU-Sim uArch: Shader 12 finished CTA #3 (32838,0), 5 CTAs running
GPGPU-Sim uArch: core: 12, cta: 3 initialized @(32839,0)
GPGPU-Sim uArch: Shader 6 finished CTA #3 (32875,0), 5 CTAs running
GPGPU-Sim uArch: core:  6, cta: 3 initialized @(32876,0)
GPGPU-Sim uArch: Shader 7 finished CTA #3 (32998,0), 5 CTAs running
GPGPU-Sim uArch: core:  7, cta: 3 initialized @(32999,0)
GPGPU-Sim uArch: Shader 2 finished CTA #4 (33726,0), 5 CTAs running
GPGPU-Sim uArch: core:  2, cta: 4 initialized @(33727,0)
GPGPU-Sim uArch: Shader 3 finished CTA #4 (34074,0), 5 CTAs running
GPGPU-Sim uArch: core:  3, cta: 4 initialized @(34075,0)
GPGPU-Sim uArch: Shader 4 finished CTA #4 (34083,0), 5 CTAs running
GPGPU-Sim uArch: core:  4, cta: 4 initialized @(34084,0)
GPGPU-Sim uArch: Shader 1 finished CTA #4 (34279,0), 5 CTAs running
GPGPU-Sim uArch: core:  1, cta: 4 initialized @(34280,0)
GPGPU-Sim uArch: cycles simulated: 35000  inst.: 673344 (ipc=19.2) sim_rate=37408 (inst/sec) elapsed = 0:0:00:18 / Tue Mar 22 12:40:17 2016
GPGPU-Sim PTX: 700000 instructions simulated : ctaid=(4,5,0) tid=(15,1,0)
GPGPU-Sim uArch: Shader 10 finished CTA #4 (36978,0), 5 CTAs running
GPGPU-Sim uArch: core: 10, cta: 4 initialized @(36979,0)
GPGPU-Sim uArch: Shader 13 finished CTA #4 (37057,0), 5 CTAs running
GPGPU-Sim uArch: core: 13, cta: 4 initialized @(37058,0)
GPGPU-Sim uArch: Shader 5 finished CTA #4 (37059,0), 5 CTAs running
GPGPU-Sim uArch: core:  5, cta: 4 initialized @(37060,0)
GPGPU-Sim uArch: Shader 9 finished CTA #4 (37380,0), 5 CTAs running
GPGPU-Sim uArch: core:  9, cta: 4 initialized @(37381,0)
GPGPU-Sim uArch: cycles simulated: 37500  inst.: 714944 (ipc=19.1) sim_rate=37628 (inst/sec) elapsed = 0:0:00:19 / Tue Mar 22 12:40:18 2016
GPGPU-Sim uArch: Shader 6 finished CTA #4 (37741,0), 5 CTAs running
GPGPU-Sim uArch: core:  6, cta: 4 initialized @(37742,0)
GPGPU-Sim uArch: Shader 8 finished CTA #4 (38117,0), 5 CTAs running
GPGPU-Sim uArch: core:  8, cta: 4 initialized @(38118,0)
GPGPU-Sim uArch: Shader 7 finished CTA #4 (38982,0), 5 CTAs running
GPGPU-Sim uArch: core:  7, cta: 4 initialized @(38983,0)
GPGPU-Sim uArch: Shader 14 finished CTA #4 (39011,0), 5 CTAs running
GPGPU-Sim uArch: core: 14, cta: 4 initialized @(39012,0)
GPGPU-Sim uArch: Shader 11 finished CTA #4 (39185,0), 5 CTAs running
GPGPU-Sim uArch: core: 11, cta: 4 initialized @(39186,0)
GPGPU-Sim uArch: Shader 12 finished CTA #4 (39306,0), 5 CTAs running
GPGPU-Sim uArch: core: 12, cta: 4 initialized @(39307,0)
GPGPU-Sim uArch: Shader 0 finished CTA #5 (39346,0), 5 CTAs running
GPGPU-Sim uArch: core:  0, cta: 5 initialized @(39347,0)
GPGPU-Sim uArch: cycles simulated: 40000  inst.: 755488 (ipc=18.9) sim_rate=37774 (inst/sec) elapsed = 0:0:00:20 / Tue Mar 22 12:40:19 2016
GPGPU-Sim uArch: Shader 1 finished CTA #5 (40236,0), 5 CTAs running
GPGPU-Sim uArch: core:  1, cta: 5 initialized @(40237,0)
GPGPU-Sim PTX: 800000 instructions simulated : ctaid=(6,6,0) tid=(15,7,0)
GPGPU-Sim uArch: Shader 2 finished CTA #5 (41234,0), 5 CTAs running
GPGPU-Sim uArch: core:  2, cta: 5 initialized @(41235,0)
GPGPU-Sim uArch: Shader 3 finished CTA #5 (41481,0), 5 CTAs running
GPGPU-Sim uArch: core:  3, cta: 5 initialized @(41482,0)
GPGPU-Sim uArch: Shader 4 finished CTA #5 (41677,0), 5 CTAs running
GPGPU-Sim uArch: core:  4, cta: 5 initialized @(41678,0)
GPGPU-Sim uArch: cycles simulated: 42000  inst.: 793984 (ipc=18.9) sim_rate=37808 (inst/sec) elapsed = 0:0:00:21 / Tue Mar 22 12:40:20 2016
GPGPU-Sim uArch: Shader 5 finished CTA #5 (42971,0), 5 CTAs running
GPGPU-Sim uArch: core:  5, cta: 5 initialized @(42972,0)
GPGPU-Sim uArch: cycles simulated: 44500  inst.: 845376 (ipc=19.0) sim_rate=38426 (inst/sec) elapsed = 0:0:00:22 / Tue Mar 22 12:40:21 2016
GPGPU-Sim uArch: Shader 10 finished CTA #5 (44586,0), 5 CTAs running
GPGPU-Sim uArch: core: 10, cta: 5 initialized @(44587,0)
GPGPU-Sim uArch: Shader 8 finished CTA #5 (44593,0), 5 CTAs running
GPGPU-Sim uArch: core:  8, cta: 5 initialized @(44594,0)
GPGPU-Sim uArch: Shader 14 finished CTA #5 (44744,0), 5 CTAs running
GPGPU-Sim uArch: core: 14, cta: 5 initialized @(44745,0)
GPGPU-Sim uArch: Shader 9 finished CTA #5 (44800,0), 5 CTAs running
GPGPU-Sim uArch: core:  9, cta: 5 initialized @(44801,0)
GPGPU-Sim uArch: Shader 7 finished CTA #5 (44818,0), 5 CTAs running
GPGPU-Sim uArch: core:  7, cta: 5 initialized @(44819,0)
GPGPU-Sim uArch: Shader 6 finished CTA #5 (44885,0), 5 CTAs running
GPGPU-Sim uArch: core:  6, cta: 5 initialized @(44886,0)
GPGPU-Sim uArch: Shader 13 finished CTA #5 (45470,0), 5 CTAs running
GPGPU-Sim uArch: core: 13, cta: 5 initialized @(45471,0)
GPGPU-Sim PTX: 900000 instructions simulated : ctaid=(14,5,0) tid=(15,5,0)
GPGPU-Sim uArch: Shader 11 finished CTA #5 (45945,0), 5 CTAs running
GPGPU-Sim uArch: core: 11, cta: 5 initialized @(45946,0)
GPGPU-Sim uArch: Shader 0 finished CTA #0 (46388,0), 5 CTAs running
GPGPU-Sim uArch: core:  0, cta: 0 initialized @(46389,0)
GPGPU-Sim uArch: Shader 12 finished CTA #5 (46686,0), 5 CTAs running
GPGPU-Sim uArch: core: 12, cta: 5 initialized @(46687,0)
GPGPU-Sim uArch: cycles simulated: 47000  inst.: 906528 (ipc=19.3) sim_rate=39414 (inst/sec) elapsed = 0:0:00:23 / Tue Mar 22 12:40:22 2016
GPGPU-Sim uArch: Shader 1 finished CTA #0 (47226,0), 5 CTAs running
GPGPU-Sim uArch: core:  1, cta: 0 initialized @(47227,0)
GPGPU-Sim uArch: Shader 2 finished CTA #0 (47352,0), 5 CTAs running
GPGPU-Sim uArch: core:  2, cta: 0 initialized @(47353,0)
GPGPU-Sim uArch: Shader 4 finished CTA #0 (47406,0), 5 CTAs running
GPGPU-Sim uArch: core:  4, cta: 0 initialized @(47407,0)
GPGPU-Sim uArch: Shader 3 finished CTA #0 (47511,0), 5 CTAs running
GPGPU-Sim uArch: core:  3, cta: 0 initialized @(47512,0)
GPGPU-Sim uArch: Shader 5 finished CTA #0 (48653,0), 5 CTAs running
GPGPU-Sim uArch: core:  5, cta: 0 initialized @(48654,0)
GPGPU-Sim uArch: cycles simulated: 49500  inst.: 964608 (ipc=19.5) sim_rate=40192 (inst/sec) elapsed = 0:0:00:24 / Tue Mar 22 12:40:23 2016
GPGPU-Sim uArch: Shader 10 finished CTA #0 (49831,0), 5 CTAs running
GPGPU-Sim uArch: core: 10, cta: 0 initialized @(49832,0)
GPGPU-Sim PTX: 1000000 instructions simulated : ctaid=(0,7,0) tid=(15,7,0)
GPGPU-Sim uArch: Shader 7 finished CTA #0 (49958,0), 5 CTAs running
GPGPU-Sim uArch: core:  7, cta: 0 initialized @(49959,0)
GPGPU-Sim uArch: Shader 6 finished CTA #0 (50023,0), 5 CTAs running
GPGPU-Sim uArch: core:  6, cta: 0 initialized @(50024,0)
GPGPU-Sim uArch: Shader 13 finished CTA #0 (50229,0), 5 CTAs running
GPGPU-Sim uArch: core: 13, cta: 0 initialized @(50230,0)
GPGPU-Sim uArch: Shader 8 finished CTA #0 (50711,0), 5 CTAs running
GPGPU-Sim uArch: core:  8, cta: 0 initialized @(50712,0)
GPGPU-Sim uArch: Shader 9 finished CTA #0 (51431,0), 5 CTAs running
GPGPU-Sim uArch: core:  9, cta: 0 initialized @(51432,0)
GPGPU-Sim uArch: cycles simulated: 51500  inst.: 1007360 (ipc=19.6) sim_rate=40294 (inst/sec) elapsed = 0:0:00:25 / Tue Mar 22 12:40:24 2016
GPGPU-Sim uArch: Shader 12 finished CTA #0 (51501,0), 5 CTAs running
GPGPU-Sim uArch: core: 12, cta: 0 initialized @(51502,0)
GPGPU-Sim uArch: Shader 11 finished CTA #0 (51675,0), 5 CTAs running
GPGPU-Sim uArch: core: 11, cta: 0 initialized @(51676,0)
GPGPU-Sim uArch: Shader 14 finished CTA #0 (51928,0), 5 CTAs running
GPGPU-Sim uArch: core: 14, cta: 0 initialized @(51929,0)
GPGPU-Sim uArch: Shader 1 finished CTA #1 (53303,0), 5 CTAs running
GPGPU-Sim uArch: core:  1, cta: 1 initialized @(53304,0)
GPGPU-Sim uArch: Shader 0 finished CTA #1 (53441,0), 5 CTAs running
GPGPU-Sim uArch: core:  0, cta: 1 initialized @(53442,0)
GPGPU-Sim uArch: Shader 2 finished CTA #1 (53664,0), 5 CTAs running
GPGPU-Sim uArch: core:  2, cta: 1 initialized @(53665,0)
GPGPU-Sim uArch: Shader 3 finished CTA #1 (53887,0), 5 CTAs running
GPGPU-Sim uArch: core:  3, cta: 1 initialized @(53888,0)
GPGPU-Sim uArch: cycles simulated: 54000  inst.: 1046912 (ipc=19.4) sim_rate=40265 (inst/sec) elapsed = 0:0:00:26 / Tue Mar 22 12:40:25 2016
GPGPU-Sim uArch: Shader 4 finished CTA #1 (54449,0), 5 CTAs running
GPGPU-Sim uArch: core:  4, cta: 1 initialized @(54450,0)
GPGPU-Sim uArch: Shader 5 finished CTA #1 (54572,0), 5 CTAs running
GPGPU-Sim uArch: core:  5, cta: 1 initialized @(54573,0)
GPGPU-Sim PTX: 1100000 instructions simulated : ctaid=(13,7,0) tid=(15,5,0)
GPGPU-Sim uArch: Shader 3 finished CTA #2 (56197,0), 5 CTAs running
GPGPU-Sim uArch: core:  3, cta: 2 initialized @(56198,0)
GPGPU-Sim uArch: cycles simulated: 56500  inst.: 1101120 (ipc=19.5) sim_rate=40782 (inst/sec) elapsed = 0:0:00:27 / Tue Mar 22 12:40:26 2016
GPGPU-Sim uArch: Shader 7 finished CTA #1 (56575,0), 5 CTAs running
GPGPU-Sim uArch: core:  7, cta: 1 initialized @(56576,0)
GPGPU-Sim uArch: Shader 10 finished CTA #1 (56671,0), 5 CTAs running
GPGPU-Sim uArch: core: 10, cta: 1 initialized @(56672,0)
GPGPU-Sim uArch: Shader 6 finished CTA #1 (57400,0), 5 CTAs running
GPGPU-Sim uArch: core:  6, cta: 1 initialized @(57401,0)
GPGPU-Sim uArch: Shader 13 finished CTA #1 (57684,0), 5 CTAs running
GPGPU-Sim uArch: core: 13, cta: 1 initialized @(57685,0)
GPGPU-Sim uArch: Shader 3 finished CTA #3 (57901,0), 5 CTAs running
GPGPU-Sim uArch: core:  3, cta: 3 initialized @(57902,0)
GPGPU-Sim uArch: Shader 8 finished CTA #1 (57958,0), 5 CTAs running
GPGPU-Sim uArch: core:  8, cta: 1 initialized @(57959,0)
GPGPU-Sim uArch: Shader 9 finished CTA #1 (58454,0), 5 CTAs running
GPGPU-Sim uArch: core:  9, cta: 1 initialized @(58455,0)
GPGPU-Sim PTX: 1200000 instructions simulated : ctaid=(7,8,0) tid=(15,1,0)
GPGPU-Sim uArch: cycles simulated: 59000  inst.: 1174176 (ipc=19.9) sim_rate=41934 (inst/sec) elapsed = 0:0:00:28 / Tue Mar 22 12:40:27 2016
GPGPU-Sim uArch: Shader 12 finished CTA #1 (59077,0), 5 CTAs running
GPGPU-Sim uArch: core: 12, cta: 1 initialized @(59078,0)
GPGPU-Sim uArch: Shader 11 finished CTA #1 (59101,0), 5 CTAs running
GPGPU-Sim uArch: core: 11, cta: 1 initialized @(59102,0)
GPGPU-Sim uArch: Shader 8 finished CTA #2 (59627,0), 5 CTAs running
GPGPU-Sim uArch: core:  8, cta: 2 initialized @(59628,0)
GPGPU-Sim uArch: Shader 14 finished CTA #1 (59687,0), 5 CTAs running
GPGPU-Sim uArch: core: 14, cta: 1 initialized @(59688,0)
GPGPU-Sim uArch: Shader 5 finished CTA #2 (59925,0), 5 CTAs running
GPGPU-Sim uArch: core:  5, cta: 2 initialized @(59926,0)
GPGPU-Sim uArch: Shader 1 finished CTA #2 (59927,0), 5 CTAs running
GPGPU-Sim uArch: core:  1, cta: 2 initialized @(59928,0)
GPGPU-Sim uArch: Shader 2 finished CTA #2 (60106,0), 5 CTAs running
GPGPU-Sim uArch: core:  2, cta: 2 initialized @(60107,0)
GPGPU-Sim uArch: Shader 4 finished CTA #2 (60141,0), 5 CTAs running
GPGPU-Sim uArch: Shader 9 finished CTA #2 (60141,0), 5 CTAs running
GPGPU-Sim uArch: core:  4, cta: 2 initialized @(60142,0)
GPGPU-Sim uArch: core:  9, cta: 2 initialized @(60142,0)
GPGPU-Sim uArch: Shader 0 finished CTA #2 (60219,0), 5 CTAs running
GPGPU-Sim uArch: core:  0, cta: 2 initialized @(60220,0)
GPGPU-Sim uArch: Shader 10 finished CTA #2 (60400,0), 5 CTAs running
GPGPU-Sim uArch: core: 10, cta: 2 initialized @(60401,0)
GPGPU-Sim uArch: Shader 13 finished CTA #2 (61492,0), 5 CTAs running
GPGPU-Sim uArch: core: 13, cta: 2 initialized @(61493,0)
GPGPU-Sim uArch: cycles simulated: 61500  inst.: 1243680 (ipc=20.2) sim_rate=42885 (inst/sec) elapsed = 0:0:00:29 / Tue Mar 22 12:40:28 2016
GPGPU-Sim uArch: Shader 7 finished CTA #2 (61549,0), 5 CTAs running
GPGPU-Sim uArch: core:  7, cta: 2 initialized @(61550,0)
GPGPU-Sim uArch: Shader 3 finished CTA #4 (61975,0), 5 CTAs running
GPGPU-Sim uArch: core:  3, cta: 4 initialized @(61976,0)
GPGPU-Sim PTX: 1300000 instructions simulated : ctaid=(2,9,0) tid=(15,9,0)
GPGPU-Sim uArch: Shader 6 finished CTA #2 (62790,0), 5 CTAs running
GPGPU-Sim uArch: core:  6, cta: 2 initialized @(62791,0)
GPGPU-Sim uArch: Shader 12 finished CTA #2 (63618,0), 5 CTAs running
GPGPU-Sim uArch: core: 12, cta: 2 initialized @(63619,0)
GPGPU-Sim uArch: Shader 11 finished CTA #2 (63622,0), 5 CTAs running
GPGPU-Sim uArch: core: 11, cta: 2 initialized @(63623,0)
GPGPU-Sim uArch: cycles simulated: 64000  inst.: 1288576 (ipc=20.1) sim_rate=42952 (inst/sec) elapsed = 0:0:00:30 / Tue Mar 22 12:40:29 2016
GPGPU-Sim uArch: Shader 14 finished CTA #2 (65826,0), 5 CTAs running
GPGPU-Sim uArch: core: 14, cta: 2 initialized @(65827,0)
GPGPU-Sim uArch: cycles simulated: 66500  inst.: 1331488 (ipc=20.0) sim_rate=42951 (inst/sec) elapsed = 0:0:00:31 / Tue Mar 22 12:40:30 2016
GPGPU-Sim uArch: Shader 5 finished CTA #3 (66522,0), 5 CTAs running
GPGPU-Sim uArch: core:  5, cta: 3 initialized @(66523,0)
GPGPU-Sim uArch: Shader 1 finished CTA #3 (66707,0), 5 CTAs running
GPGPU-Sim uArch: core:  1, cta: 3 initialized @(66708,0)
GPGPU-Sim uArch: Shader 8 finished CTA #3 (66710,0), 5 CTAs running
GPGPU-Sim uArch: core:  8, cta: 3 initialized @(66711,0)
GPGPU-Sim uArch: Shader 4 finished CTA #3 (67305,0), 5 CTAs running
GPGPU-Sim uArch: core:  4, cta: 3 initialized @(67306,0)
GPGPU-Sim uArch: Shader 9 finished CTA #3 (67456,0), 5 CTAs running
GPGPU-Sim uArch: core:  9, cta: 3 initialized @(67457,0)
GPGPU-Sim uArch: Shader 10 finished CTA #3 (67760,0), 5 CTAs running
GPGPU-Sim uArch: core: 10, cta: 3 initialized @(67761,0)
GPGPU-Sim PTX: 1400000 instructions simulated : ctaid=(14,9,0) tid=(15,7,0)
GPGPU-Sim uArch: Shader 13 finished CTA #3 (68330,0), 5 CTAs running
GPGPU-Sim uArch: core: 13, cta: 3 initialized @(68331,0)
GPGPU-Sim uArch: Shader 0 finished CTA #3 (68714,0), 5 CTAs running
GPGPU-Sim uArch: core:  0, cta: 3 initialized @(68715,0)
GPGPU-Sim uArch: Shader 7 finished CTA #3 (68746,0), 5 CTAs running
GPGPU-Sim uArch: core:  7, cta: 3 initialized @(68747,0)
GPGPU-Sim uArch: Shader 2 finished CTA #3 (68913,0), 5 CTAs running
GPGPU-Sim uArch: core:  2, cta: 3 initialized @(68914,0)
GPGPU-Sim uArch: cycles simulated: 69000  inst.: 1382208 (ipc=20.0) sim_rate=43194 (inst/sec) elapsed = 0:0:00:32 / Tue Mar 22 12:40:31 2016
GPGPU-Sim uArch: Shader 3 finished CTA #5 (69339,0), 5 CTAs running
GPGPU-Sim uArch: core:  3, cta: 5 initialized @(69340,0)
GPGPU-Sim uArch: Shader 6 finished CTA #3 (69626,0), 5 CTAs running
GPGPU-Sim uArch: core:  6, cta: 3 initialized @(69627,0)
GPGPU-Sim uArch: Shader 11 finished CTA #3 (70022,0), 5 CTAs running
GPGPU-Sim uArch: core: 11, cta: 3 initialized @(70023,0)
GPGPU-Sim uArch: Shader 12 finished CTA #3 (70702,0), 5 CTAs running
GPGPU-Sim uArch: core: 12, cta: 3 initialized @(70703,0)
GPGPU-Sim uArch: cycles simulated: 71500  inst.: 1434528 (ipc=20.1) sim_rate=43470 (inst/sec) elapsed = 0:0:00:33 / Tue Mar 22 12:40:32 2016
GPGPU-Sim uArch: Shader 14 finished CTA #3 (71858,0), 5 CTAs running
GPGPU-Sim uArch: core: 14, cta: 3 initialized @(71859,0)
GPGPU-Sim PTX: 1500000 instructions simulated : ctaid=(1,10,0) tid=(15,13,0)
GPGPU-Sim uArch: Shader 5 finished CTA #4 (72419,0), 5 CTAs running
GPGPU-Sim uArch: core:  5, cta: 4 initialized @(72420,0)
GPGPU-Sim uArch: Shader 8 finished CTA #4 (72644,0), 5 CTAs running
GPGPU-Sim uArch: core:  8, cta: 4 initialized @(72645,0)
GPGPU-Sim uArch: Shader 1 finished CTA #4 (72842,0), 5 CTAs running
GPGPU-Sim uArch: core:  1, cta: 4 initialized @(72843,0)
GPGPU-Sim uArch: Shader 9 finished CTA #4 (73139,0), 5 CTAs running
GPGPU-Sim uArch: core:  9, cta: 4 initialized @(73140,0)
GPGPU-Sim uArch: Shader 4 finished CTA #4 (73242,0), 5 CTAs running
GPGPU-Sim uArch: core:  4, cta: 4 initialized @(73243,0)
GPGPU-Sim uArch: cycles simulated: 73500  inst.: 1482912 (ipc=20.2) sim_rate=43615 (inst/sec) elapsed = 0:0:00:34 / Tue Mar 22 12:40:33 2016
GPGPU-Sim uArch: Shader 10 finished CTA #4 (73743,0), 5 CTAs running
GPGPU-Sim uArch: core: 10, cta: 4 initialized @(73744,0)
GPGPU-Sim uArch: Shader 0 finished CTA #4 (74175,0), 5 CTAs running
GPGPU-Sim uArch: core:  0, cta: 4 initialized @(74176,0)
GPGPU-Sim uArch: Shader 13 finished CTA #4 (74701,0), 5 CTAs running
GPGPU-Sim uArch: core: 13, cta: 4 initialized @(74702,0)
GPGPU-Sim uArch: Shader 7 finished CTA #4 (74802,0), 5 CTAs running
GPGPU-Sim uArch: core:  7, cta: 4 initialized @(74803,0)
GPGPU-Sim uArch: Shader 2 finished CTA #4 (75156,0), 5 CTAs running
GPGPU-Sim uArch: core:  2, cta: 4 initialized @(75157,0)
GPGPU-Sim uArch: Shader 6 finished CTA #4 (75354,0), 5 CTAs running
GPGPU-Sim uArch: core:  6, cta: 4 initialized @(75355,0)
GPGPU-Sim uArch: Shader 11 finished CTA #4 (75626,0), 5 CTAs running
GPGPU-Sim uArch: core: 11, cta: 4 initialized @(75627,0)
GPGPU-Sim uArch: Shader 3 finished CTA #0 (75713,0), 5 CTAs running
GPGPU-Sim uArch: core:  3, cta: 0 initialized @(75714,0)
GPGPU-Sim uArch: cycles simulated: 76000  inst.: 1533280 (ipc=20.2) sim_rate=43808 (inst/sec) elapsed = 0:0:00:35 / Tue Mar 22 12:40:34 2016
GPGPU-Sim uArch: Shader 12 finished CTA #4 (76600,0), 5 CTAs running
GPGPU-Sim uArch: core: 12, cta: 4 initialized @(76601,0)
GPGPU-Sim uArch: Shader 3 finished CTA #1 (76886,0), 5 CTAs running
GPGPU-Sim uArch: core:  3, cta: 1 initialized @(76887,0)
GPGPU-Sim PTX: 1600000 instructions simulated : ctaid=(14,10,0) tid=(15,13,0)
GPGPU-Sim uArch: Shader 14 finished CTA #4 (77914,0), 5 CTAs running
GPGPU-Sim uArch: core: 14, cta: 4 initialized @(77915,0)
GPGPU-Sim uArch: cycles simulated: 78000  inst.: 1570176 (ipc=20.1) sim_rate=43616 (inst/sec) elapsed = 0:0:00:36 / Tue Mar 22 12:40:35 2016
GPGPU-Sim uArch: Shader 1 finished CTA #5 (79963,0), 5 CTAs running
GPGPU-Sim uArch: core:  1, cta: 5 initialized @(79964,0)
GPGPU-Sim uArch: Shader 5 finished CTA #5 (80192,0), 5 CTAs running
GPGPU-Sim uArch: core:  5, cta: 5 initialized @(80193,0)
GPGPU-Sim uArch: Shader 3 finished CTA #2 (80284,0), 5 CTAs running
GPGPU-Sim uArch: core:  3, cta: 2 initialized @(80285,0)
GPGPU-Sim uArch: cycles simulated: 80500  inst.: 1617312 (ipc=20.1) sim_rate=43711 (inst/sec) elapsed = 0:0:00:37 / Tue Mar 22 12:40:36 2016
GPGPU-Sim uArch: Shader 9 finished CTA #5 (80590,0), 5 CTAs running
GPGPU-Sim uArch: core:  9, cta: 5 initialized @(80591,0)
GPGPU-Sim uArch: Shader 8 finished CTA #5 (80773,0), 5 CTAs running
GPGPU-Sim uArch: core:  8, cta: 5 initialized @(80774,0)
GPGPU-Sim uArch: Shader 4 finished CTA #5 (81250,0), 5 CTAs running
GPGPU-Sim uArch: core:  4, cta: 5 initialized @(81251,0)
GPGPU-Sim uArch: Shader 0 finished CTA #5 (81555,0), 5 CTAs running
GPGPU-Sim uArch: core:  0, cta: 5 initialized @(81556,0)
GPGPU-Sim uArch: Shader 10 finished CTA #5 (81698,0), 5 CTAs running
GPGPU-Sim uArch: core: 10, cta: 5 initialized @(81699,0)
GPGPU-Sim uArch: Shader 3 finished CTA #3 (81942,0), 5 CTAs running
GPGPU-Sim uArch: core:  3, cta: 3 initialized @(81943,0)
GPGPU-Sim PTX: 1700000 instructions simulated : ctaid=(14,13,0) tid=(15,5,0)
GPGPU-Sim uArch: Shader 11 finished CTA #5 (82259,0), 5 CTAs running
GPGPU-Sim uArch: core: 11, cta: 5 initialized @(82260,0)
GPGPU-Sim uArch: Shader 7 finished CTA #5 (82415,0), 5 CTAs running
GPGPU-Sim uArch: core:  7, cta: 5 initialized @(82416,0)
GPGPU-Sim uArch: Shader 13 finished CTA #5 (82619,0), 5 CTAs running
GPGPU-Sim uArch: core: 13, cta: 5 initialized @(82620,0)
GPGPU-Sim uArch: Shader 2 finished CTA #5 (82654,0), 5 CTAs running
GPGPU-Sim uArch: core:  2, cta: 5 initialized @(82655,0)
GPGPU-Sim uArch: Shader 6 finished CTA #5 (82822,0), 5 CTAs running
GPGPU-Sim uArch: core:  6, cta: 5 initialized @(82823,0)
GPGPU-Sim uArch: cycles simulated: 83000  inst.: 1679456 (ipc=20.2) sim_rate=44196 (inst/sec) elapsed = 0:0:00:38 / Tue Mar 22 12:40:37 2016
GPGPU-Sim uArch: Shader 12 finished CTA #5 (83140,0), 5 CTAs running
GPGPU-Sim uArch: core: 12, cta: 5 initialized @(83141,0)
GPGPU-Sim uArch: Shader 11 finished CTA #0 (83739,0), 5 CTAs running
GPGPU-Sim uArch: core: 11, cta: 0 initialized @(83740,0)
GPGPU-Sim uArch: Shader 3 finished CTA #4 (83811,0), 5 CTAs running
GPGPU-Sim uArch: core:  3, cta: 4 initialized @(83812,0)
GPGPU-Sim uArch: Shader 12 finished CTA #0 (84010,0), 5 CTAs running
GPGPU-Sim uArch: core: 12, cta: 0 initialized @(84011,0)
GPGPU-Sim uArch: Shader 14 finished CTA #5 (84449,0), 5 CTAs running
GPGPU-Sim uArch: core: 14, cta: 5 initialized @(84450,0)
GPGPU-Sim PTX: 1800000 instructions simulated : ctaid=(2,12,0) tid=(15,9,0)
GPGPU-Sim uArch: cycles simulated: 85000  inst.: 1751680 (ipc=20.6) sim_rate=44914 (inst/sec) elapsed = 0:0:00:39 / Tue Mar 22 12:40:38 2016
GPGPU-Sim uArch: Shader 11 finished CTA #1 (85335,0), 5 CTAs running
GPGPU-Sim uArch: core: 11, cta: 1 initialized @(85336,0)
GPGPU-Sim uArch: Shader 3 finished CTA #5 (85383,0), 5 CTAs running
GPGPU-Sim uArch: core:  3, cta: 5 initialized @(85384,0)
GPGPU-Sim uArch: Shader 12 finished CTA #1 (85567,0), 5 CTAs running
GPGPU-Sim uArch: core: 12, cta: 1 initialized @(85568,0)
GPGPU-Sim uArch: Shader 14 finished CTA #0 (85767,0), 5 CTAs running
GPGPU-Sim uArch: core: 14, cta: 0 initialized @(85768,0)
GPGPU-Sim uArch: Shader 1 finished CTA #0 (86016,0), 5 CTAs running
GPGPU-Sim uArch: core:  1, cta: 0 initialized @(86017,0)
GPGPU-Sim uArch: Shader 1 finished CTA #1 (86530,0), 5 CTAs running
GPGPU-Sim uArch: core:  1, cta: 1 initialized @(86531,0)
GPGPU-Sim uArch: Shader 4 finished CTA #0 (86594,0), 5 CTAs running
GPGPU-Sim uArch: core:  4, cta: 0 initialized @(86595,0)
GPGPU-Sim uArch: Shader 5 finished CTA #0 (86763,0), 5 CTAs running
GPGPU-Sim uArch: core:  5, cta: 0 initialized @(86764,0)
GPGPU-Sim PTX: 1900000 instructions simulated : ctaid=(8,13,0) tid=(15,3,0)
GPGPU-Sim uArch: Shader 8 finished CTA #0 (86954,0), 5 CTAs running
GPGPU-Sim uArch: core:  8, cta: 0 initialized @(86955,0)
GPGPU-Sim uArch: Shader 0 finished CTA #0 (87034,0), 5 CTAs running
GPGPU-Sim uArch: core:  0, cta: 0 initialized @(87035,0)
GPGPU-Sim uArch: Shader 10 finished CTA #0 (87098,0), 5 CTAs running
GPGPU-Sim uArch: core: 10, cta: 0 initialized @(87099,0)
GPGPU-Sim uArch: Shader 13 finished CTA #0 (87344,0), 5 CTAs running
GPGPU-Sim uArch: core: 13, cta: 0 initialized @(87345,0)
GPGPU-Sim uArch: Shader 7 finished CTA #0 (87456,0), 5 CTAs running
GPGPU-Sim uArch: core:  7, cta: 0 initialized @(87457,0)
GPGPU-Sim uArch: Shader 9 finished CTA #0 (87458,0), 5 CTAs running
GPGPU-Sim uArch: core:  9, cta: 0 initialized @(87459,0)
GPGPU-Sim uArch: Shader 6 finished CTA #0 (87498,0), 5 CTAs running
GPGPU-Sim uArch: core:  6, cta: 0 initialized @(87499,0)
GPGPU-Sim uArch: cycles simulated: 87500  inst.: 1864608 (ipc=21.3) sim_rate=46615 (inst/sec) elapsed = 0:0:00:40 / Tue Mar 22 12:40:39 2016
GPGPU-Sim uArch: Shader 11 finished CTA #2 (87566,0), 5 CTAs running
GPGPU-Sim uArch: core: 11, cta: 2 initialized @(87567,0)
GPGPU-Sim uArch: Shader 2 finished CTA #0 (87568,0), 5 CTAs running
GPGPU-Sim uArch: core:  2, cta: 0 initialized @(87569,0)
GPGPU-Sim uArch: Shader 12 finished CTA #2 (87881,0), 5 CTAs running
GPGPU-Sim uArch: core: 12, cta: 2 initialized @(87882,0)
GPGPU-Sim uArch: Shader 4 finished CTA #1 (88044,0), 5 CTAs running
GPGPU-Sim uArch: core:  4, cta: 1 initialized @(88045,0)
GPGPU-Sim uArch: Shader 3 finished CTA #0 (88345,0), 5 CTAs running
GPGPU-Sim uArch: core:  3, cta: 0 initialized @(88346,0)
GPGPU-Sim uArch: cycles simulated: 89500  inst.: 1911264 (ipc=21.4) sim_rate=46616 (inst/sec) elapsed = 0:0:00:41 / Tue Mar 22 12:40:40 2016
GPGPU-Sim uArch: Shader 3 finished CTA #1 (89672,0), 5 CTAs running
GPGPU-Sim uArch: core:  3, cta: 1 initialized @(89673,0)
GPGPU-Sim PTX: 2000000 instructions simulated : ctaid=(4,16,0) tid=(15,15,0)
GPGPU-Sim uArch: Shader 14 finished CTA #1 (90837,0), 5 CTAs running
GPGPU-Sim uArch: core: 14, cta: 1 initialized @(90838,0)
GPGPU-Sim uArch: Shader 3 finished CTA #2 (91338,0), 5 CTAs running
GPGPU-Sim uArch: core:  3, cta: 2 initialized @(91339,0)
GPGPU-Sim uArch: Shader 0 finished CTA #1 (91506,0), 5 CTAs running
GPGPU-Sim uArch: core:  0, cta: 1 initialized @(91507,0)
GPGPU-Sim uArch: Shader 5 finished CTA #1 (91903,0), 5 CTAs running
GPGPU-Sim uArch: core:  5, cta: 1 initialized @(91904,0)
GPGPU-Sim uArch: Shader 8 finished CTA #1 (91949,0), 5 CTAs running
GPGPU-Sim uArch: core:  8, cta: 1 initialized @(91950,0)
GPGPU-Sim uArch: cycles simulated: 92000  inst.: 1975552 (ipc=21.5) sim_rate=47036 (inst/sec) elapsed = 0:0:00:42 / Tue Mar 22 12:40:41 2016
GPGPU-Sim uArch: Shader 1 finished CTA #2 (92029,0), 5 CTAs running
GPGPU-Sim uArch: core:  1, cta: 2 initialized @(92030,0)
GPGPU-Sim uArch: Shader 10 finished CTA #1 (92439,0), 5 CTAs running
GPGPU-Sim uArch: core: 10, cta: 1 initialized @(92440,0)
GPGPU-Sim uArch: Shader 3 finished CTA #3 (92993,0), 5 CTAs running
GPGPU-Sim uArch: core:  3, cta: 3 initialized @(92994,0)
GPGPU-Sim uArch: Shader 7 finished CTA #1 (93152,0), 5 CTAs running
GPGPU-Sim uArch: core:  7, cta: 1 initialized @(93153,0)
GPGPU-Sim uArch: Shader 9 finished CTA #1 (93293,0), 5 CTAs running
GPGPU-Sim uArch: core:  9, cta: 1 initialized @(93294,0)
GPGPU-Sim uArch: Shader 13 finished CTA #1 (93340,0), 5 CTAs running
GPGPU-Sim uArch: core: 13, cta: 1 initialized @(93341,0)
GPGPU-Sim uArch: Shader 12 finished CTA #3 (93457,0), 5 CTAs running
GPGPU-Sim uArch: core: 12, cta: 3 initialized @(93458,0)
GPGPU-Sim uArch: Shader 11 finished CTA #3 (93583,0), 5 CTAs running
GPGPU-Sim uArch: core: 11, cta: 3 initialized @(93584,0)
GPGPU-Sim uArch: Shader 2 finished CTA #1 (93929,0), 5 CTAs running
GPGPU-Sim uArch: core:  2, cta: 1 initialized @(93930,0)
GPGPU-Sim uArch: Shader 6 finished CTA #1 (93933,0), 5 CTAs running
GPGPU-Sim uArch: core:  6, cta: 1 initialized @(93934,0)
GPGPU-Sim uArch: Shader 4 finished CTA #2 (93984,0), 5 CTAs running
GPGPU-Sim uArch: core:  4, cta: 2 initialized @(93985,0)
GPGPU-Sim PTX: 2100000 instructions simulated : ctaid=(3,13,0) tid=(15,15,0)
GPGPU-Sim uArch: cycles simulated: 94500  inst.: 2048896 (ipc=21.7) sim_rate=47648 (inst/sec) elapsed = 0:0:00:43 / Tue Mar 22 12:40:42 2016
GPGPU-Sim uArch: Shader 3 finished CTA #4 (94741,0), 5 CTAs running
GPGPU-Sim uArch: core:  3, cta: 4 initialized @(94742,0)
GPGPU-Sim uArch: Shader 0 finished CTA #2 (96010,0), 5 CTAs running
GPGPU-Sim uArch: core:  0, cta: 2 initialized @(96011,0)
GPGPU-Sim uArch: Shader 14 finished CTA #2 (96108,0), 5 CTAs running
GPGPU-Sim uArch: core: 14, cta: 2 initialized @(96109,0)
GPGPU-Sim uArch: Shader 3 finished CTA #5 (96493,0), 5 CTAs running
GPGPU-Sim uArch: core:  3, cta: 5 initialized @(96494,0)
GPGPU-Sim uArch: Shader 1 finished CTA #3 (96782,0), 5 CTAs running
GPGPU-Sim uArch: core:  1, cta: 3 initialized @(96783,0)
GPGPU-Sim uArch: cycles simulated: 97000  inst.: 2116320 (ipc=21.8) sim_rate=48098 (inst/sec) elapsed = 0:0:00:44 / Tue Mar 22 12:40:43 2016
GPGPU-Sim uArch: Shader 5 finished CTA #2 (97041,0), 5 CTAs running
GPGPU-Sim uArch: core:  5, cta: 2 initialized @(97042,0)
GPGPU-Sim uArch: Shader 10 finished CTA #2 (97090,0), 5 CTAs running
GPGPU-Sim uArch: core: 10, cta: 2 initialized @(97091,0)
GPGPU-Sim uArch: Shader 8 finished CTA #2 (97336,0), 5 CTAs running
GPGPU-Sim uArch: core:  8, cta: 2 initialized @(97337,0)
GPGPU-Sim PTX: 2200000 instructions simulated : ctaid=(15,13,0) tid=(15,13,0)
GPGPU-Sim uArch: Shader 3 finished CTA #0 (98119,0), 5 CTAs running
GPGPU-Sim uArch: core:  3, cta: 0 initialized @(98120,0)
GPGPU-Sim uArch: Shader 7 finished CTA #2 (98770,0), 5 CTAs running
GPGPU-Sim uArch: core:  7, cta: 2 initialized @(98771,0)
GPGPU-Sim uArch: Shader 11 finished CTA #4 (98827,0), 5 CTAs running
GPGPU-Sim uArch: core: 11, cta: 4 initialized @(98828,0)
GPGPU-Sim uArch: Shader 3 finished CTA #1 (98887,0), 5 CTAs running
GPGPU-Sim uArch: core:  3, cta: 1 initialized @(98888,0)
GPGPU-Sim uArch: cycles simulated: 99000  inst.: 2172640 (ipc=21.9) sim_rate=48280 (inst/sec) elapsed = 0:0:00:45 / Tue Mar 22 12:40:44 2016
GPGPU-Sim uArch: Shader 13 finished CTA #2 (99542,0), 5 CTAs running
GPGPU-Sim uArch: core: 13, cta: 2 initialized @(99543,0)
GPGPU-Sim uArch: Shader 9 finished CTA #2 (99578,0), 5 CTAs running
GPGPU-Sim uArch: core:  9, cta: 2 initialized @(99579,0)
GPGPU-Sim uArch: Shader 2 finished CTA #2 (99625,0), 5 CTAs running
GPGPU-Sim uArch: core:  2, cta: 2 initialized @(99626,0)
GPGPU-Sim uArch: Shader 11 finished CTA #5 (99716,0), 5 CTAs running
GPGPU-Sim uArch: core: 11, cta: 5 initialized @(99717,0)
GPGPU-Sim uArch: Shader 6 finished CTA #2 (99916,0), 5 CTAs running
GPGPU-Sim uArch: core:  6, cta: 2 initialized @(99917,0)
GPGPU-Sim uArch: Shader 3 finished CTA #2 (100524,0), 5 CTAs running
GPGPU-Sim uArch: core:  3, cta: 2 initialized @(100525,0)
GPGPU-Sim PTX: 2300000 instructions simulated : ctaid=(1,19,0) tid=(15,13,0)
GPGPU-Sim uArch: Shader 4 finished CTA #3 (100894,0), 5 CTAs running
GPGPU-Sim uArch: core:  4, cta: 3 initialized @(100895,0)
GPGPU-Sim uArch: Shader 12 finished CTA #4 (100977,0), 5 CTAs running
GPGPU-Sim uArch: core: 12, cta: 4 initialized @(100978,0)
GPGPU-Sim uArch: Shader 14 finished CTA #3 (101287,0), 5 CTAs running
GPGPU-Sim uArch: core: 14, cta: 3 initialized @(101288,0)
GPGPU-Sim uArch: Shader 11 finished CTA #0 (101385,0), 5 CTAs running
GPGPU-Sim uArch: core: 11, cta: 0 initialized @(101386,0)
GPGPU-Sim uArch: cycles simulated: 101500  inst.: 2257984 (ipc=22.2) sim_rate=49086 (inst/sec) elapsed = 0:0:00:46 / Tue Mar 22 12:40:45 2016
GPGPU-Sim uArch: Shader 0 finished CTA #3 (101593,0), 5 CTAs running
GPGPU-Sim uArch: core:  0, cta: 3 initialized @(101594,0)
GPGPU-Sim uArch: Shader 12 finished CTA #5 (101659,0), 5 CTAs running
GPGPU-Sim uArch: core: 12, cta: 5 initialized @(101660,0)
GPGPU-Sim uArch: Shader 1 finished CTA #4 (102417,0), 5 CTAs running
GPGPU-Sim uArch: core:  1, cta: 4 initialized @(102418,0)
GPGPU-Sim uArch: Shader 14 finished CTA #4 (102476,0), 5 CTAs running
GPGPU-Sim uArch: core: 14, cta: 4 initialized @(102477,0)
GPGPU-Sim uArch: Shader 8 finished CTA #3 (102525,0), 5 CTAs running
GPGPU-Sim uArch: core:  8, cta: 3 initialized @(102526,0)
GPGPU-Sim uArch: Shader 3 finished CTA #3 (102535,0), 5 CTAs running
GPGPU-Sim uArch: core:  3, cta: 3 initialized @(102536,0)
GPGPU-Sim uArch: Shader 10 finished CTA #3 (102584,0), 5 CTAs running
GPGPU-Sim uArch: core: 10, cta: 3 initialized @(102585,0)
GPGPU-Sim PTX: 2400000 instructions simulated : ctaid=(7,17,0) tid=(15,1,0)
GPGPU-Sim uArch: Shader 12 finished CTA #0 (103350,0), 5 CTAs running
GPGPU-Sim uArch: core: 12, cta: 0 initialized @(103351,0)
GPGPU-Sim uArch: Shader 11 finished CTA #1 (103354,0), 5 CTAs running
GPGPU-Sim uArch: core: 11, cta: 1 initialized @(103355,0)
GPGPU-Sim uArch: Shader 5 finished CTA #3 (103358,0), 5 CTAs running
GPGPU-Sim uArch: core:  5, cta: 3 initialized @(103359,0)
GPGPU-Sim uArch: cycles simulated: 103500  inst.: 2347232 (ipc=22.7) sim_rate=49941 (inst/sec) elapsed = 0:0:00:47 / Tue Mar 22 12:40:46 2016
GPGPU-Sim uArch: Shader 14 finished CTA #5 (103744,0), 5 CTAs running
GPGPU-Sim uArch: core: 14, cta: 5 initialized @(103745,0)
GPGPU-Sim uArch: Shader 1 finished CTA #5 (103885,0), 5 CTAs running
GPGPU-Sim uArch: core:  1, cta: 5 initialized @(103886,0)
GPGPU-Sim uArch: Shader 12 finished CTA #1 (104359,0), 5 CTAs running
GPGPU-Sim uArch: core: 12, cta: 1 initialized @(104360,0)
GPGPU-Sim uArch: Shader 3 finished CTA #4 (104403,0), 5 CTAs running
GPGPU-Sim uArch: core:  3, cta: 4 initialized @(104404,0)
GPGPU-Sim uArch: Shader 7 finished CTA #3 (104536,0), 5 CTAs running
GPGPU-Sim uArch: core:  7, cta: 3 initialized @(104537,0)
GPGPU-Sim uArch: Shader 13 finished CTA #3 (104721,0), 5 CTAs running
GPGPU-Sim uArch: core: 13, cta: 3 initialized @(104722,0)
GPGPU-Sim uArch: Shader 11 finished CTA #2 (104856,0), 5 CTAs running
GPGPU-Sim uArch: core: 11, cta: 2 initialized @(104857,0)
GPGPU-Sim uArch: Shader 9 finished CTA #3 (105124,0), 5 CTAs running
GPGPU-Sim uArch: core:  9, cta: 3 initialized @(105125,0)
GPGPU-Sim uArch: Shader 14 finished CTA #0 (105258,0), 5 CTAs running
GPGPU-Sim uArch: core: 14, cta: 0 initialized @(105259,0)
GPGPU-Sim uArch: Shader 1 finished CTA #0 (105275,0), 5 CTAs running
GPGPU-Sim uArch: core:  1, cta: 0 initialized @(105276,0)
GPGPU-Sim PTX: 2500000 instructions simulated : ctaid=(10,15,0) tid=(15,9,0)
GPGPU-Sim uArch: Shader 2 finished CTA #3 (105348,0), 5 CTAs running
GPGPU-Sim uArch: core:  2, cta: 3 initialized @(105349,0)
GPGPU-Sim uArch: cycles simulated: 105500  inst.: 2433664 (ipc=23.1) sim_rate=50701 (inst/sec) elapsed = 0:0:00:48 / Tue Mar 22 12:40:47 2016
GPGPU-Sim uArch: Shader 6 finished CTA #3 (105592,0), 5 CTAs running
GPGPU-Sim uArch: core:  6, cta: 3 initialized @(105593,0)
GPGPU-Sim uArch: Shader 0 finished CTA #4 (106110,0), 5 CTAs running
GPGPU-Sim uArch: core:  0, cta: 4 initialized @(106111,0)
GPGPU-Sim uArch: Shader 12 finished CTA #2 (106265,0), 5 CTAs running
GPGPU-Sim uArch: core: 12, cta: 2 initialized @(106266,0)
GPGPU-Sim uArch: Shader 4 finished CTA #4 (106304,0), 5 CTAs running
GPGPU-Sim uArch: core:  4, cta: 4 initialized @(106305,0)
GPGPU-Sim uArch: Shader 14 finished CTA #1 (106399,0), 5 CTAs running
GPGPU-Sim uArch: core: 14, cta: 1 initialized @(106400,0)
GPGPU-Sim uArch: Shader 10 finished CTA #4 (106643,0), 5 CTAs running
GPGPU-Sim uArch: core: 10, cta: 4 initialized @(106644,0)
GPGPU-Sim uArch: Shader 11 finished CTA #3 (106996,0), 5 CTAs running
GPGPU-Sim uArch: core: 11, cta: 3 initialized @(106997,0)
GPGPU-Sim uArch: Shader 8 finished CTA #4 (107299,0), 5 CTAs running
GPGPU-Sim uArch: core:  8, cta: 4 initialized @(107300,0)
GPGPU-Sim PTX: 2600000 instructions simulated : ctaid=(8,16,0) tid=(15,13,0)
GPGPU-Sim uArch: Shader 1 finished CTA #1 (107585,0), 5 CTAs running
GPGPU-Sim uArch: core:  1, cta: 1 initialized @(107586,0)
GPGPU-Sim uArch: Shader 5 finished CTA #4 (107691,0), 5 CTAs running
GPGPU-Sim uArch: core:  5, cta: 4 initialized @(107692,0)
GPGPU-Sim uArch: Shader 3 finished CTA #5 (107701,0), 5 CTAs running
GPGPU-Sim uArch: core:  3, cta: 5 initialized @(107702,0)
GPGPU-Sim uArch: cycles simulated: 108000  inst.: 2558144 (ipc=23.7) sim_rate=52207 (inst/sec) elapsed = 0:0:00:49 / Tue Mar 22 12:40:48 2016
GPGPU-Sim uArch: Shader 0 finished CTA #5 (108007,0), 5 CTAs running
GPGPU-Sim uArch: core:  0, cta: 5 initialized @(108008,0)
GPGPU-Sim uArch: Shader 4 finished CTA #5 (108009,0), 5 CTAs running
GPGPU-Sim uArch: core:  4, cta: 5 initialized @(108010,0)
GPGPU-Sim uArch: Shader 10 finished CTA #5 (108143,0), 5 CTAs running
GPGPU-Sim uArch: core: 10, cta: 5 initialized @(108144,0)
GPGPU-Sim uArch: Shader 7 finished CTA #4 (108218,0), 5 CTAs running
GPGPU-Sim uArch: core:  7, cta: 4 initialized @(108219,0)
GPGPU-Sim uArch: Shader 12 finished CTA #3 (108283,0), 5 CTAs running
GPGPU-Sim uArch: core: 12, cta: 3 initialized @(108284,0)
GPGPU-Sim uArch: Shader 13 finished CTA #4 (108389,0), 5 CTAs running
GPGPU-Sim uArch: core: 13, cta: 4 initialized @(108390,0)
GPGPU-Sim uArch: Shader 11 finished CTA #4 (108468,0), 5 CTAs running
GPGPU-Sim uArch: core: 11, cta: 4 initialized @(108469,0)
GPGPU-Sim uArch: Shader 9 finished CTA #4 (108470,0), 5 CTAs running
GPGPU-Sim uArch: core:  9, cta: 4 initialized @(108471,0)
GPGPU-Sim uArch: Shader 6 finished CTA #4 (108619,0), 5 CTAs running
GPGPU-Sim uArch: core:  6, cta: 4 initialized @(108620,0)
GPGPU-Sim uArch: Shader 2 finished CTA #4 (108650,0), 5 CTAs running
GPGPU-Sim uArch: core:  2, cta: 4 initialized @(108651,0)
GPGPU-Sim PTX: 2700000 instructions simulated : ctaid=(5,20,0) tid=(15,13,0)
GPGPU-Sim uArch: cycles simulated: 110000  inst.: 2634848 (ipc=24.0) sim_rate=52696 (inst/sec) elapsed = 0:0:00:50 / Tue Mar 22 12:40:49 2016
GPGPU-Sim uArch: Shader 12 finished CTA #4 (110062,0), 5 CTAs running
GPGPU-Sim uArch: core: 12, cta: 4 initialized @(110063,0)
GPGPU-Sim uArch: Shader 11 finished CTA #5 (110168,0), 5 CTAs running
GPGPU-Sim uArch: core: 11, cta: 5 initialized @(110169,0)
GPGPU-Sim uArch: Shader 3 finished CTA #0 (110519,0), 5 CTAs running
GPGPU-Sim uArch: core:  3, cta: 0 initialized @(110520,0)
GPGPU-Sim uArch: Shader 14 finished CTA #2 (110602,0), 5 CTAs running
GPGPU-Sim uArch: core: 14, cta: 2 initialized @(110603,0)
GPGPU-Sim uArch: Shader 8 finished CTA #5 (110864,0), 5 CTAs running
GPGPU-Sim uArch: core:  8, cta: 5 initialized @(110865,0)
GPGPU-Sim uArch: Shader 3 finished CTA #1 (111715,0), 5 CTAs running
GPGPU-Sim uArch: core:  3, cta: 1 initialized @(111716,0)
GPGPU-Sim uArch: Shader 4 finished CTA #0 (111760,0), 5 CTAs running
GPGPU-Sim uArch: core:  4, cta: 0 initialized @(111761,0)
GPGPU-Sim uArch: Shader 11 finished CTA #0 (111828,0), 5 CTAs running
GPGPU-Sim uArch: core: 11, cta: 0 initialized @(111829,0)
GPGPU-Sim uArch: Shader 14 finished CTA #3 (111875,0), 5 CTAs running
GPGPU-Sim uArch: core: 14, cta: 3 initialized @(111876,0)
GPGPU-Sim uArch: cycles simulated: 112000  inst.: 2717632 (ipc=24.3) sim_rate=53286 (inst/sec) elapsed = 0:0:00:51 / Tue Mar 22 12:40:50 2016
GPGPU-Sim PTX: 2800000 instructions simulated : ctaid=(8,21,0) tid=(15,5,0)
GPGPU-Sim uArch: Shader 0 finished CTA #0 (112166,0), 5 CTAs running
GPGPU-Sim uArch: core:  0, cta: 0 initialized @(112167,0)
GPGPU-Sim uArch: Shader 13 finished CTA #5 (112509,0), 5 CTAs running
GPGPU-Sim uArch: core: 13, cta: 5 initialized @(112510,0)
GPGPU-Sim uArch: Shader 2 finished CTA #5 (112594,0), 5 CTAs running
GPGPU-Sim uArch: core:  2, cta: 5 initialized @(112595,0)
GPGPU-Sim uArch: Shader 10 finished CTA #0 (112611,0), 5 CTAs running
GPGPU-Sim uArch: core: 10, cta: 0 initialized @(112612,0)
GPGPU-Sim uArch: Shader 12 finished CTA #5 (112661,0), 5 CTAs running
GPGPU-Sim uArch: core: 12, cta: 5 initialized @(112662,0)
GPGPU-Sim uArch: Shader 7 finished CTA #5 (112674,0), 5 CTAs running
GPGPU-Sim uArch: core:  7, cta: 5 initialized @(112675,0)
GPGPU-Sim uArch: Shader 9 finished CTA #5 (112693,0), 5 CTAs running
GPGPU-Sim uArch: core:  9, cta: 5 initialized @(112694,0)
GPGPU-Sim uArch: Shader 5 finished CTA #5 (112952,0), 5 CTAs running
GPGPU-Sim uArch: core:  5, cta: 5 initialized @(112953,0)
GPGPU-Sim uArch: Shader 6 finished CTA #5 (113188,0), 5 CTAs running
GPGPU-Sim uArch: core:  6, cta: 5 initialized @(113189,0)
GPGPU-Sim uArch: Shader 3 finished CTA #2 (113424,0), 5 CTAs running
GPGPU-Sim uArch: core:  3, cta: 2 initialized @(113425,0)
GPGPU-Sim uArch: Shader 1 finished CTA #2 (113477,0), 5 CTAs running
GPGPU-Sim uArch: core:  1, cta: 2 initialized @(113478,0)
GPGPU-Sim uArch: Shader 11 finished CTA #1 (113757,0), 5 CTAs running
GPGPU-Sim uArch: core: 11, cta: 1 initialized @(113758,0)
GPGPU-Sim uArch: Shader 8 finished CTA #0 (114233,0), 5 CTAs running
GPGPU-Sim uArch: core:  8, cta: 0 initialized @(114234,0)
GPGPU-Sim uArch: cycles simulated: 114500  inst.: 2810272 (ipc=24.5) sim_rate=54043 (inst/sec) elapsed = 0:0:00:52 / Tue Mar 22 12:40:51 2016
GPGPU-Sim uArch: Shader 12 finished CTA #0 (114546,0), 5 CTAs running
GPGPU-Sim uArch: core: 12, cta: 0 initialized @(114547,0)
GPGPU-Sim PTX: 2900000 instructions simulated : ctaid=(0,18,0) tid=(15,15,0)
GPGPU-Sim uArch: Shader 14 finished CTA #4 (114606,0), 5 CTAs running
GPGPU-Sim uArch: core: 14, cta: 4 initialized @(114607,0)
GPGPU-Sim uArch: Shader 3 finished CTA #3 (115172,0), 5 CTAs running
GPGPU-Sim uArch: core:  3, cta: 3 initialized @(115173,0)
GPGPU-Sim uArch: Shader 12 finished CTA #1 (115666,0), 5 CTAs running
GPGPU-Sim uArch: core: 12, cta: 1 initialized @(115667,0)
GPGPU-Sim uArch: Shader 0 finished CTA #1 (115900,0), 5 CTAs running
GPGPU-Sim uArch: core:  0, cta: 1 initialized @(115901,0)
GPGPU-Sim uArch: Shader 4 finished CTA #1 (115945,0), 5 CTAs running
GPGPU-Sim uArch: core:  4, cta: 1 initialized @(115946,0)
GPGPU-Sim uArch: Shader 14 finished CTA #5 (116102,0), 5 CTAs running
GPGPU-Sim uArch: core: 14, cta: 5 initialized @(116103,0)
GPGPU-Sim uArch: Shader 11 finished CTA #2 (116160,0), 5 CTAs running
GPGPU-Sim uArch: core: 11, cta: 2 initialized @(116161,0)
GPGPU-Sim uArch: Shader 3 finished CTA #4 (116212,0), 5 CTAs running
GPGPU-Sim uArch: core:  3, cta: 4 initialized @(116213,0)
GPGPU-Sim uArch: cycles simulated: 116500  inst.: 2896064 (ipc=24.9) sim_rate=54642 (inst/sec) elapsed = 0:0:00:53 / Tue Mar 22 12:40:52 2016
GPGPU-Sim uArch: Shader 2 finished CTA #0 (116684,0), 5 CTAs running
GPGPU-Sim uArch: core:  2, cta: 0 initialized @(116685,0)
GPGPU-Sim uArch: Shader 7 finished CTA #0 (116980,0), 5 CTAs running
GPGPU-Sim uArch: core:  7, cta: 0 initialized @(116981,0)
GPGPU-Sim PTX: 3000000 instructions simulated : ctaid=(7,22,0) tid=(15,13,0)
GPGPU-Sim uArch: Shader 13 finished CTA #0 (117088,0), 5 CTAs running
GPGPU-Sim uArch: core: 13, cta: 0 initialized @(117089,0)
GPGPU-Sim uArch: Shader 6 finished CTA #0 (117440,0), 5 CTAs running
GPGPU-Sim uArch: core:  6, cta: 0 initialized @(117441,0)
GPGPU-Sim uArch: Shader 5 finished CTA #0 (117568,0), 5 CTAs running
GPGPU-Sim uArch: core:  5, cta: 0 initialized @(117569,0)
GPGPU-Sim uArch: Shader 12 finished CTA #2 (117732,0), 5 CTAs running
GPGPU-Sim uArch: core: 12, cta: 2 initialized @(117733,0)
GPGPU-Sim uArch: Shader 1 finished CTA #3 (117872,0), 5 CTAs running
GPGPU-Sim uArch: core:  1, cta: 3 initialized @(117873,0)
GPGPU-Sim uArch: Shader 11 finished CTA #3 (117934,0), 5 CTAs running
GPGPU-Sim uArch: core: 11, cta: 3 initialized @(117935,0)
GPGPU-Sim uArch: Shader 3 finished CTA #5 (118110,0), 5 CTAs running
GPGPU-Sim uArch: core:  3, cta: 5 initialized @(118111,0)
GPGPU-Sim uArch: Shader 10 finished CTA #1 (118297,0), 5 CTAs running
GPGPU-Sim uArch: core: 10, cta: 1 initialized @(118298,0)
GPGPU-Sim uArch: Shader 8 finished CTA #1 (118340,0), 5 CTAs running
GPGPU-Sim uArch: core:  8, cta: 1 initialized @(118341,0)
GPGPU-Sim uArch: Shader 9 finished CTA #0 (118821,0), 5 CTAs running
GPGPU-Sim uArch: core:  9, cta: 0 initialized @(118822,0)
GPGPU-Sim uArch: cycles simulated: 119000  inst.: 2998368 (ipc=25.2) sim_rate=55525 (inst/sec) elapsed = 0:0:00:54 / Tue Mar 22 12:40:53 2016
GPGPU-Sim uArch: Shader 14 finished CTA #0 (119089,0), 5 CTAs running
GPGPU-Sim uArch: core: 14, cta: 0 initialized @(119090,0)
GPGPU-Sim PTX: 3100000 instructions simulated : ctaid=(0,20,0) tid=(15,15,0)
GPGPU-Sim uArch: Shader 12 finished CTA #3 (119697,0), 5 CTAs running
GPGPU-Sim uArch: core: 12, cta: 3 initialized @(119698,0)
GPGPU-Sim uArch: Shader 3 finished CTA #0 (119875,0), 5 CTAs running
GPGPU-Sim uArch: core:  3, cta: 0 initialized @(119876,0)
GPGPU-Sim uArch: Shader 0 finished CTA #2 (119971,0), 5 CTAs running
GPGPU-Sim uArch: core:  0, cta: 2 initialized @(119972,0)
GPGPU-Sim uArch: Shader 11 finished CTA #4 (119977,0), 5 CTAs running
GPGPU-Sim uArch: core: 11, cta: 4 initialized @(119978,0)
GPGPU-Sim uArch: Shader 1 finished CTA #4 (120237,0), 5 CTAs running
GPGPU-Sim uArch: core:  1, cta: 4 initialized @(120238,0)
GPGPU-Sim uArch: Shader 4 finished CTA #2 (120503,0), 5 CTAs running
GPGPU-Sim uArch: core:  4, cta: 2 initialized @(120504,0)
GPGPU-Sim uArch: Shader 13 finished CTA #1 (120719,0), 5 CTAs running
GPGPU-Sim uArch: core: 13, cta: 1 initialized @(120720,0)
GPGPU-Sim uArch: Shader 6 finished CTA #1 (120892,0), 5 CTAs running
GPGPU-Sim uArch: core:  6, cta: 1 initialized @(120893,0)
GPGPU-Sim uArch: Shader 2 finished CTA #1 (121008,0), 5 CTAs running
GPGPU-Sim uArch: core:  2, cta: 1 initialized @(121009,0)
GPGPU-Sim uArch: Shader 7 finished CTA #1 (121012,0), 5 CTAs running
GPGPU-Sim uArch: core:  7, cta: 1 initialized @(121013,0)
GPGPU-Sim uArch: Shader 5 finished CTA #1 (121119,0), 5 CTAs running
GPGPU-Sim uArch: core:  5, cta: 1 initialized @(121120,0)
GPGPU-Sim uArch: Shader 8 finished CTA #2 (121252,0), 5 CTAs running
GPGPU-Sim uArch: core:  8, cta: 2 initialized @(121253,0)
GPGPU-Sim uArch: Shader 9 finished CTA #1 (121279,0), 5 CTAs running
GPGPU-Sim uArch: core:  9, cta: 1 initialized @(121280,0)
GPGPU-Sim PTX: 3200000 instructions simulated : ctaid=(11,23,0) tid=(15,15,0)
GPGPU-Sim uArch: Shader 10 finished CTA #2 (121473,0), 5 CTAs running
GPGPU-Sim uArch: core: 10, cta: 2 initialized @(121474,0)
GPGPU-Sim uArch: cycles simulated: 121500  inst.: 3113248 (ipc=25.6) sim_rate=56604 (inst/sec) elapsed = 0:0:00:55 / Tue Mar 22 12:40:54 2016
GPGPU-Sim uArch: Shader 14 finished CTA #1 (121644,0), 5 CTAs running
GPGPU-Sim uArch: core: 14, cta: 1 initialized @(121645,0)
GPGPU-Sim uArch: Shader 5 finished CTA #2 (122501,0), 5 CTAs running
[...]
max_icnt2sh_latency = 1596614 
mrq_lat_table:336776 	11304 	15045 	81250 	236013 	214883 	158581 	30379 	187 	0 	0 	0 	0 	0 	0 	0 	0 	0 	0 	0 	0 	0 	0 	0 	0 	0 	0 	0 	0 	0 	0 	0 	
dq_lat_table:0 	0 	0 	0 	0 	0 	0 	0 	0 	0 	0 	0 	0 	0 	0 	0 	0 	0 	0 	0 	0 	0 	0 	0 	0 	0 	0 	0 	0 	0 	0 	0 	
mf_lat_table:0 	0 	0 	0 	0 	0 	0 	86382 	291315 	259343 	83839 	0 	0 	0 	0 	0 	0 	0 	0 	0 	0 	0 	0 	0 	0 	0 	0 	0 	0 	0 	0 	0 	
icnt2mem_lat_table:0 	0 	0 	137922 	108655 	84890 	42060 	61709 	148917 	131561 	5255 	0 	0 	0 	0 	0 	0 	0 	0 	0 	0 	0 	0 	0 	
icnt2sh_lat_table:0 	0 	0 	72839 	58025 	191 	0 	0 	0 	0 	81 	525 	1009 	1912 	4574 	10561 	31387 	65268 	125324 	287468 	61715 	0 	0 	0 	
mf_lat_pw_table:0 	0 	0 	0 	0 	0 	0 	584 	862 	1627 	118 	0 	0 	0 	0 	0 	0 	0 	0 	0 	0 	0 	0 	0 	0 	0 	0 	0 	0 	0 	0 	0 	
maximum concurrent accesses to same row:
dram[0]:        32        32        32        32        32        32        32        32        32        32        32        32        32        32        32        32 
dram[1]:        32        32        32        32        32        32        32        32        32        32        32        32        32        32        32        32 
dram[2]:        32        32        32        32        32        32        32        32        32        32        32        32        32        32        32        32 
dram[3]:        32        32        32        32        32        32        32        32        32        32        32        32        32        31        32        32 
dram[4]:        32        32        32        32        32        32        32        32        32        32        32        32        32        32        32        32 
dram[5]:        32        32        32        32        32        32        32        32        32        32        32        32        32        32        32        32 
maximum service time to same row:
dram[0]:     52752     53744     53084     53735     53080     52209     53084     47592     52941     43902     34729     53078     33994     53763     48779     53754 
dram[1]:     43892     75467     44238     75457     46200     73986     45944     67963     45938     41179     45371     53300     40461     72274     46039     80543 
dram[2]:     53198     53093     53738     53089     52210     53094     47599     53094     33327     42238     51843     34932     53766     40264     53757     48788 
dram[3]:     75469     43946     75461     44448     73985     46339     67971     40150     41810     43035     52607     45931     72276     40461     80546     46039 
dram[4]:     52751     53741     53089     53732     53089     54986     53094     47591     42191     35274     36358     51844     51036     53760     49250     53750 
dram[5]:     43771     75464     44882     75454     46566     73984     45953     67962     46179     45775     45931     52610     40459     72279     46030     80540 
average row accesses per activate:
dram[0]:  2.071746  2.080616  2.061988  2.074214  2.074862  2.076235  2.067851  2.088342  2.087235  2.093182  2.112585  2.087072  2.103022  2.089458  2.104089  2.093541 
dram[1]:  2.090105  2.093360  2.073644  2.071520  2.085617  2.089783  2.103934  2.109718  2.077679  2.087650  2.101194  2.100914  2.100039  2.110473  2.101775  2.079930 
dram[2]:  2.083975  2.075895  2.080231  2.063180  2.087328  2.088083  2.095351  2.068861  2.075782  2.090763  2.094372  2.106230  2.088438  2.109730  2.086089  2.094922 
dram[3]:  2.089111  2.100434  2.076448  2.070779  2.078270  2.080593  2.104702  2.102756  2.082456  2.086027  2.112486  2.100630  2.097189  2.098675  2.093830  2.103040 
dram[4]:  2.073422  2.088562  2.071775  2.083936  2.087912  2.083942  2.066299  2.088119  2.086483  2.097112  2.097704  2.100989  2.094521  2.081893  2.113119  2.093412 
dram[5]:  2.091434  2.092783  2.069115  2.079038  2.085925  2.091806  2.100181  2.102159  2.081589  2.082740  2.102476  2.114111  2.101702  2.101972  2.100059  2.095014 
average row locality = 1084418/519007 = 2.089409
number of total memory accesses made:
dram[0]:         0         0         0         0         0         0         0         0         0         0         0         0         0         0         0         0 
dram[1]:         0         0         0         0         0         0         0         0         0         0         0         0         0         0         0         0 
dram[2]:         0         0         0         0         0         0         0         0         0         0         0         0         0         0         0         0 
dram[3]:         0         0         0         0         0         0         0         0         0         0         0         0         0         0         0         0 
dram[4]:         0         0         0         0         0         0         0         0         0         0         0         0         0         0         0         0 
dram[5]:         0         0         0         0         0         0         0         0         0         0         0         0         0         0         0         0 
total accesses: 0
min_bank_accesses = 0!
min_chip_accesses = 0!
number of total read accesses:
dram[0]:      5808      5763      5751      5693      5833      5761      5830      5714      5879      5782      5599      5476      5381      5310      5403      5333 
dram[1]:      5721      5714      5651      5611      5766      5750      5712      5739      5783      5765      5546      5498      5321      5326      5344      5313 
dram[2]:      5776      5791      5706      5738      5788      5836      5712      5827      5768      5854      5516      5593      5307      5365      5336      5387 
dram[3]:      5681      5741      5633      5623      5742      5774      5756      5724      5778      5775      5524      5504      5286      5314      5337      5340 
dram[4]:      5806      5783      5740      5711      5888      5801      5822      5735      5873      5770      5559      5525      5369      5302      5409      5326 
dram[5]:      5725      5712      5652      5632      5746      5763      5755      5727      5785      5799      5511      5485      5324      5324      5354      5330 
total reads: 539751
bank skew: 5888/5286 = 1.11
chip skew: 90419/89532 = 1.01
number of total write accesses:
dram[0]:      5858      5851      5825      5794      5863      5841      5812      5822      5845      5854      5547      5502      5336      5294      5351      5298 
dram[1]:      5854      5856      5781      5772      5878      5888      5786      5875      5852      5882      5542      5536      5301      5334      5312      5330 
dram[2]:      5863      5861      5806      5822      5924      5851      5825      5800      5846      5825      5536      5530      5296      5325      5326      5339 
dram[3]:      5830      5866      5802      5758      5888      5869      5883      5797      5890      5840      5575      5497      5309      5299      5352      5314 
dram[4]:      5857      5867      5806      5809      5892      5892      5803      5829      5828      5848      5498      5522      5334      5299      5351      5319 
dram[5]:      5872      5859      5784      5784      5858      5903      5838      5858      5849      5906      5527      5557      5298      5333      5329      5342 
total reads: 544667
bank skew: 5924/5294 = 1.12
chip skew: 90897/90693 = 1.00
average mf latency per bank:
dram[0]:        397       372       384       362       383       356       413       382       385       357       393       373       400       375       380       355
dram[1]:        386       368       376       356       377       357       399       375       380       358       391       363       385       361       371       351
dram[2]:        366       389       356       376       357       386       373       405       350       379       358       390       369       393       347       376
dram[3]:        373       386       358       376       362       381       377       396       358       377       365       389       366       382       354       372
dram[4]:        395       372       386       362       381       366       411       376       384       354       401       368       400       372       380       351
dram[5]:        381       378       372       364       374       368       391       385       372       364       378       371       377       370       367       359
maximum mf latency per bank:
dram[0]:       1898      1750      1892      1866      1923      1776      1791      1772      2010      1903      1841      1984      1812      1841      1854      1708
dram[1]:       1742      1632      1912      1650      1803      1664      1761      1541      1735      1572      1711      1665      1708      1622      1706      1582
dram[2]:       1952      1838      1919      1739      1954      1739      1977      2025      1909      1847      1780      1727      1881      1724      1795      1751
dram[3]:       1696      1789      1735      1698      1611      1636      1588      1647      1651      1559      1530      1537      1523      1602      1451      1580
dram[4]:       1826      1881      1788      1873      1795      1865      1835      1763      1828      1917      1790      1979      1861      1820      1851      1750
dram[5]:       1672      1619      1740      1638      1703      1568      1676      1579      1633      1803      1624      1597      1656      1597      1589      1590

Number of Memory Banks Accessed per Memory Operation per Warp (from 0):
0	0	0	0	0	0	0	0	0	0	0	0	0	0	0	0	0	0	0	0	0	0	0	0	0	0	0	0	0	0	0	0	0	0	0	0	0	0	0	0	0	0	0	0	0	0	0	0	0	0	0	0	0	0	0	0	0	0	0	0	0	0	0	0	0	0	0	0	0	0	0	0	0	0	0	0	0	0	0	0	0	0	0	0	0	0	0	0	0	0	0	0	0	0	0	0	
Average # of Memory Banks Accessed per Memory Operation per Warp=-nan

position of mrq chosen
0	0	0	0	0	0	0	0	0	0	0	0	0	0	0	0	

average position of mrq chosen = -nan
Memory Partition 0: 
Cache L2_bank_000:
MSHR contents

Cache L2_bank_001:
MSHR contents

In Dram Latency Queue (total = 0): 
DRAM[0]: 16 bks, busW=4 BL=8 CL=12, tRRD=2 tCCD=6, tRCD=12 tRAS=28 tRP=12 tRC=40
n_cmd=2107530 n_nop=1656719 n_act=86817 n_pre=86801 n_req=181009 n_rd=180632 n_write=96561 bw_util=0.2631
n_activity=1362067 dram_eff=0.407
bk0: 11616a 1756850i bk1: 11526a 1756651i bk2: 11502a 1748749i bk3: 11386a 1749014i bk4: 11666a 1741534i bk5: 11522a 1740616i bk6: 11660a 1735626i bk7: 11428a 1735538i bk8: 11758a 1755006i bk9: 11564a 1753971i bk10: 11198a 1765797i bk11: 10952a 1768094i bk12: 10762a 1769709i bk13: 10620a 1770745i bk14: 10806a 1770380i bk15: 10666a 1766747i 
dram_util_bins: 0 0 0 0 0 0 0 0 0 0
dram_eff_bins: 0 0 0 0 0 0 0 0 0 0
mrqq: max=16 avg=3.57117
Memory Partition 1: 
Cache L2_bank_002:
MSHR contents

Cache L2_bank_003:
MSHR contents

In Dram Latency Queue (total = 0): 
DRAM[1]: 16 bks, busW=4 BL=8 CL=12, tRRD=2 tCCD=6, tRCD=12 tRAS=28 tRP=12 tRC=40
n_cmd=2107530 n_nop=1659289 n_act=86199 n_pre=86183 n_req=180339 n_rd=179120 n_write=96739 bw_util=0.2618
n_activity=1361049 dram_eff=0.4054
bk0: 11442a 1763001i bk1: 11428a 1759942i bk2: 11302a 1755065i bk3: 11222a 1752318i bk4: 11532a 1747285i bk5: 11500a 1742387i bk6: 11424a 1745518i bk7: 11478a 1737891i bk8: 11566a 1758785i bk9: 11530a 1753448i bk10: 11092a 1767367i bk11: 10996a 1766510i bk12: 10642a 1777029i bk13: 10652a 1772539i bk14: 10688a 1771620i bk15: 10626a 1765355i 
dram_util_bins: 0 0 0 0 0 0 0 0 0 0
dram_eff_bins: 0 0 0 0 0 0 0 0 0 0
mrqq: max=16 avg=3.60822
Memory Partition 2: 
Cache L2_bank_004:
MSHR contents

Cache L2_bank_005:
MSHR contents

In Dram Latency Queue (total = 0): 
DRAM[2]: 16 bks, busW=4 BL=8 CL=12, tRRD=2 tCCD=6, tRCD=12 tRAS=28 tRP=12 tRC=40
n_cmd=2107530 n_nop=1656768 n_act=86783 n_pre=86767 n_req=181075 n_rd=180600 n_write=96612 bw_util=0.2631
n_activity=1363330 dram_eff=0.4067
bk0: 11552a 1757604i bk1: 11582a 1755475i bk2: 11412a 1749535i bk3: 11476a 1745503i bk4: 11576a 1737996i bk5: 11672a 1739226i bk6: 11424a 1737014i bk7: 11654a 1732885i bk8: 11536a 1756243i bk9: 11708a 1754246i bk10: 11032a 1767007i bk11: 11186a 1765242i bk12: 10614a 1770472i bk13: 10730a 1771094i bk14: 10672a 1770266i bk15: 10774a 1766894i 
dram_util_bins: 0 0 0 0 0 0 0 0 0 0
dram_eff_bins: 0 0 0 0 0 0 0 0 0 0
mrqq: max=16 avg=3.58531
Memory Partition 3: 
Cache L2_bank_006:
MSHR contents
MSHR: tag=0x807f3f80, atomic=0 1 entries : 0x7faee31aafe0 :  mf: uid=9019787, sid12:w22, part=3, addr=0x807f3fc0, load , size=64, unknown  status = IN_PARTITION_DRAM (1596610), 
MSHR: tag=0x807fff80, atomic=0 1 entries : 0x7faee314fa10 :  mf: uid=9019789, sid12:w23, part=3, addr=0x807fffc0, load , size=64, unknown  status = IN_PARTITION_DRAM (1596614), 

Cache L2_bank_007:
MSHR contents

In Dram Latency Queue (total = 0): 
DRAM[3]: 16 bks, busW=4 BL=8 CL=12, tRRD=2 tCCD=6, tRCD=12 tRAS=28 tRP=12 tRC=40
n_cmd=2107530 n_nop=1659383 n_act=86182 n_pre=86166 n_req=180301 n_rd=179063 n_write=96736 bw_util=0.2617
n_activity=1360167 dram_eff=0.4055
bk0: 11362a 1763893i bk1: 11482a 1758964i bk2: 11266a 1753749i bk3: 11246a 1758327i bk4: 11484a 1742295i bk5: 11548a 1744011i bk6: 11512a 1738401i bk7: 11448a 1743178i bk8: 11556a 1753673i bk9: 11550a 1758873i bk10: 11047a 1764767i bk11: 11008a 1772184i bk12: 10572a 1773389i bk13: 10628a 1776000i bk14: 10674a 1765327i bk15: 10680a 1770543i 
dram_util_bins: 0 0 0 0 0 0 0 0 0 0
dram_eff_bins: 0 0 0 0 0 0 0 0 0 0
mrqq: max=16 avg=3.61273
Memory Partition 4: 
Cache L2_bank_008:
MSHR contents

Cache L2_bank_009:
MSHR contents

In Dram Latency Queue (total = 0): 
DRAM[4]: 16 bks, busW=4 BL=8 CL=12, tRRD=2 tCCD=6, tRCD=12 tRAS=28 tRP=12 tRC=40
n_cmd=2107530 n_nop=1656635 n_act=86777 n_pre=86761 n_req=181173 n_rd=180838 n_write=96519 bw_util=0.2632
n_activity=1366481 dram_eff=0.4059
bk0: 11612a 1757244i bk1: 11566a 1753091i bk2: 11480a 1749562i bk3: 11422a 1745381i bk4: 11776a 1738103i bk5: 11602a 1736029i bk6: 11644a 1734768i bk7: 11470a 1734536i bk8: 11746a 1755593i bk9: 11540a 1755545i bk10: 11118a 1767813i bk11: 11050a 1765477i bk12: 10738a 1770534i bk13: 10604a 1771549i bk14: 10818a 1768784i bk15: 10652a 1769863i 
dram_util_bins: 0 0 0 0 0 0 0 0 0 0
dram_eff_bins: 0 0 0 0 0 0 0 0 0 0
mrqq: max=16 avg=3.56938
Memory Partition 5: 
Cache L2_bank_010:
MSHR contents

Cache L2_bank_011:
MSHR contents
MSHR: tag=0x807fbf80, atomic=0 1 entries : 0x7faee32703f0 :  mf: uid=9019792, sid12:w23, part=5, addr=0x807fbfc0, load , size=64, unknown  status = IN_PARTITION_DRAM (1596609), 

In Dram Latency Queue (total = 0): 
DRAM[5]: 16 bks, busW=4 BL=8 CL=12, tRRD=2 tCCD=6, tRCD=12 tRAS=28 tRP=12 tRC=40
n_cmd=2107530 n_nop=1658869 n_act=86250 n_pre=86234 n_req=180521 n_rd=179248 n_write=96929 bw_util=0.2621
n_activity=1359995 dram_eff=0.4061
bk0: 11450a 1761609i bk1: 11424a 1758498i bk2: 11304a 1755701i bk3: 11264a 1752416i bk4: 11492a 1746733i bk5: 11526a 1739610i bk6: 11510a 1742846i bk7: 11454a 1736585i bk8: 11570a 1759775i bk9: 11598a 1749901i bk10: 11022a 1769950i bk11: 10970a 1767740i bk12: 10648a 1776070i bk13: 10648a 1771540i bk14: 10708a 1771585i bk15: 10660a 1766010i 
dram_util_bins: 0 0 0 0 0 0 0 0 0 0
dram_eff_bins: 0 0 0 0 0 0 0 0 0 0
mrqq: max=16 avg=3.61419

========= L2 cache stats =========
L2_cache_bank[0]: Access = 60141, Miss = 45484, Miss_rate = 0.756, Pending_hits = 4374, Reservation_fails = 243304
L2_cache_bank[1]: Access = 60055, Miss = 44832, Miss_rate = 0.747, Pending_hits = 4589, Reservation_fails = 218575
L2_cache_bank[2]: Access = 60126, Miss = 44844, Miss_rate = 0.746, Pending_hits = 4685, Reservation_fails = 232606
L2_cache_bank[3]: Access = 60055, Miss = 44716, Miss_rate = 0.745, Pending_hits = 4971, Reservation_fails = 220766
L2_cache_bank[4]: Access = 60121, Miss = 44909, Miss_rate = 0.747, Pending_hits = 4654, Reservation_fails = 215474
L2_cache_bank[5]: Access = 60068, Miss = 45391, Miss_rate = 0.756, Pending_hits = 4393, Reservation_fails = 239054
L2_cache_bank[6]: Access = 60091, Miss = 44737, Miss_rate = 0.744, Pending_hits = 5033, Reservation_fails = 223695
L2_cache_bank[7]: Access = 60068, Miss = 44795, Miss_rate = 0.746, Pending_hits = 4668, Reservation_fails = 232309
L2_cache_bank[8]: Access = 60060, Miss = 45466, Miss_rate = 0.757, Pending_hits = 4367, Reservation_fails = 243531
L2_cache_bank[9]: Access = 60062, Miss = 44953, Miss_rate = 0.748, Pending_hits = 4618, Reservation_fails = 222801
L2_cache_bank[10]: Access = 60060, Miss = 44852, Miss_rate = 0.747, Pending_hits = 4655, Reservation_fails = 229709
L2_cache_bank[11]: Access = 60062, Miss = 44772, Miss_rate = 0.745, Pending_hits = 4966, Reservation_fails = 224808
L2_total_cache_accesses = 720969
L2_total_cache_misses = 539751
L2_total_cache_miss_rate = 0.7486
L2_total_cache_pending_hits = 55973
L2_total_cache_reservation_fails = 2746632
L2_total_cache_breakdown:
	L2_cache_stats_breakdown[GLOBAL_ACC_R][HIT] = 44582
	L2_cache_stats_breakdown[GLOBAL_ACC_R][HIT_RESERVED] = 20021
	L2_cache_stats_breakdown[GLOBAL_ACC_R][MISS] = 66437
	L2_cache_stats_breakdown[GLOBAL_ACC_R][RESERVATION_FAIL] = 8464
	L2_cache_stats_breakdown[CONST_ACC_R][HIT] = 11
	L2_cache_stats_breakdown[CONST_ACC_R][HIT_RESERVED] = 3
	L2_cache_stats_breakdown[CONST_ACC_R][MISS] = 1
	L2_cache_stats_breakdown[CONST_ACC_R][RESERVATION_FAIL] = 100
	L2_cache_stats_breakdown[GLOBAL_ACC_W][HIT] = 80586
	L2_cache_stats_breakdown[GLOBAL_ACC_W][HIT_RESERVED] = 35931
	L2_cache_stats_breakdown[GLOBAL_ACC_W][MISS] = 473307
	L2_cache_stats_breakdown[GLOBAL_ACC_W][RESERVATION_FAIL] = 2737427
	L2_cache_stats_breakdown[INST_ACC_R][HIT] = 66
	L2_cache_stats_breakdown[INST_ACC_R][HIT_RESERVED] = 18
	L2_cache_stats_breakdown[INST_ACC_R][MISS] = 6
	L2_cache_stats_breakdown[INST_ACC_R][RESERVATION_FAIL] = 641
L2_cache_data_port_util = 0.014
L2_cache_fill_port_util = 0.113

icnt_total_pkts_mem_to_simt=1245519
icnt_total_pkts_simt_to_mem=1376329
LD_mem_lat_dist  0 0 0 0 0 0 0 0 0 0 0 0 0 0 0 0 0 0 0 0 0 0 0 0 0 0 0
ST_mem_lat_dist  0 0 0 0 0 0 0 0 0 0 0 0 0 0 0 0 0 0 0 0 0 0 0 0 0 0 0
----------------------------Interconnect-DETAILS--------------------------------
Class 0:
Packet latency average = 10.4467
	minimum = 6
	maximum = 201
Network latency average = 9.41277
	minimum = 6
	maximum = 195
Slowest packet = 1180469
Flit latency average = 8.37087
	minimum = 6
	maximum = 193
Slowest flit = 1968439
Fragmentation average = 0.00609379
	minimum = 0
	maximum = 133
Injected packet rate average = 0.016626
	minimum = 0.0149049 (at node 9)
	maximum = 0.0187514 (at node 15)
Accepted packet rate average = 0.016626
	minimum = 0.0149049 (at node 9)
	maximum = 0.0187514 (at node 15)
Injected flit rate average = 0.0415678
	minimum = 0.0298047 (at node 9)
	maximum = 0.0563433 (at node 15)
Accepted flit rate average= 0.0415678
	minimum = 0.0373864 (at node 16)
	maximum = 0.0450537 (at node 3)
Injected packet length average = 2.50017
Accepted packet length average = 2.50017
Total in-flight flits = 0 (0 measured)
====== Overall Traffic Statistics ======
====== Traffic class 0 ======
Packet latency average = 48.018 (2 samples)
	minimum = 6 (2 samples)
	maximum = 683.5 (2 samples)
Network latency average = 29.1457 (2 samples)
	minimum = 6 (2 samples)
	maximum = 501.5 (2 samples)
Flit latency average = 30.9571 (2 samples)
	minimum = 6 (2 samples)
	maximum = 500.5 (2 samples)
Fragmentation average = 0.108256 (2 samples)
	minimum = 0 (2 samples)
	maximum = 380.5 (2 samples)
Injected packet rate average = 0.0298908 (2 samples)
	minimum = 0.0235975 (2 samples)
	maximum = 0.0347657 (2 samples)
Accepted packet rate average = 0.0298908 (2 samples)
	minimum = 0.0235975 (2 samples)
	maximum = 0.0347657 (2 samples)
Injected flit rate average = 0.0567477 (2 samples)
	minimum = 0.0453968 (2 samples)
	maximum = 0.0761288 (2 samples)
Accepted flit rate average = 0.0567477 (2 samples)
	minimum = 0.0420199 (2 samples)
	maximum = 0.0684103 (2 samples)
Injected packet size average = 1.8985 (2 samples)
Accepted packet size average = 1.8985 (2 samples)
Hops average = 1 (2 samples)
