

        *** GPGPU-Sim Simulator Version 3.2.2  [build 0] ***


GPGPU-Sim PTX: simulation mode 0 (can change with PTX_SIM_MODE_FUNC environment variable:
               1=functional simulation only, 0=detailed performance simulator)
GPGPU-Sim: Configuration options:

-network_mode                           1 # Interconnection network mode
-inter_config_file   config_fermi_islip.icnt # Interconnection network config file
-gpgpu_ptx_use_cuobjdump                    1 # Use cuobjdump to extract ptx and sass from binaries
-gpgpu_experimental_lib_support                    0 # Try to extract code from cuda libraries [Broken because of unknown cudaGetExportTable]
-gpgpu_ptx_convert_to_ptxplus                    0 # Convert SASS (native ISA) to ptxplus and run ptxplus
-gpgpu_ptx_force_max_capability                   20 # Force maximum compute capability
-gpgpu_ptx_inst_debug_to_file                    0 # Dump executed instructions' debug information to file
-gpgpu_ptx_inst_debug_file       inst_debug.txt # Executed instructions' debug output file
-gpgpu_ptx_inst_debug_thread_uid                    1 # Thread UID for executed instructions' debug output
-gpgpu_simd_model                       1 # 1 = post-dominator
-gpgpu_shader_core_pipeline              1536:32 # shader core pipeline config, i.e., {<nthread>:<warpsize>}
-gpgpu_tex_cache:l1  4:128:24,L:R:m:N:L,F:128:4,128:2 # per-shader L1 texture cache  (READ-ONLY) config  {<nsets>:<bsize>:<assoc>,<rep>:<wr>:<alloc>:<wr_alloc>,<mshr>:<N>:<merge>,<mq>:<rf>}
-gpgpu_const_cache:l1 64:64:2,L:R:f:N:L,A:2:32,4 # per-shader L1 constant memory cache  (READ-ONLY) config  {<nsets>:<bsize>:<assoc>,<rep>:<wr>:<alloc>:<wr_alloc>,<mshr>:<N>:<merge>,<mq>} 
-gpgpu_cache:il1     4:128:4,L:R:f:N:L,A:2:32,4 # shader L1 instruction cache config  {<nsets>:<bsize>:<assoc>,<rep>:<wr>:<alloc>:<wr_alloc>,<mshr>:<N>:<merge>,<mq>} 
-gpgpu_cache:dl1     32:128:4,L:L:m:N:H,A:32:8,8:2,0,1:0:1:1:0:1,1:4:8:16:32:64,/sciclone/data10/hwang07/GPU_RESEARCH/swl/swl_outputs/RESULTS/swl16/ # per-shader L1 data cache config  {<nsets>:<bsize>:<assoc>,<rep>:<wr>:<alloc>:<wr_alloc>,<mshr>:<N>:<merge>,<mq> | none}
-gpgpu_cache:dl1PrefL1                 none # per-shader L1 data cache config  {<nsets>:<bsize>:<assoc>,<rep>:<wr>:<alloc>:<wr_alloc>,<mshr>:<N>:<merge>,<mq> | none}
-gpgpu_cache:dl1PreShared                 none # per-shader L1 data cache config  {<nsets>:<bsize>:<assoc>,<rep>:<wr>:<alloc>:<wr_alloc>,<mshr>:<N>:<merge>,<mq> | none}
-gmem_skip_L1D                          0 # global memory access skip L1D cache (implements -Xptxas -dlcm=cg, default=no skip)
-gpgpu_perfect_mem                      0 # enable perfect memory mode (no cache miss)
-n_regfile_gating_group                    4 # group of lanes that should be read/written together)
-gpgpu_clock_gated_reg_file                    0 # enable clock gated reg file for power calculations
-gpgpu_clock_gated_lanes                    0 # enable clock gated lanes for power calculations
-gpgpu_shader_registers                32768 # Number of registers per shader core. Limits number of concurrent CTAs. (default 8192)
-gpgpu_shader_cta                       8 # Maximum number of concurrent CTAs in shader (default 8)
-gpgpu_num_cta_barriers                   16 # Maximum number of named barriers per CTA (default 16)
-gpgpu_n_clusters                      15 # number of processing clusters
-gpgpu_n_cores_per_cluster                    1 # number of simd cores per cluster
-gpgpu_n_cluster_ejection_buffer_size                    8 # number of packets in ejection buffer
-gpgpu_n_ldst_response_buffer_size                    2 # number of response packets in ld/st unit ejection buffer
-gpgpu_shmem_size                   16384 # Size of shared memory per shader core (default 16kB)
-gpgpu_shmem_size                   49152 # Size of shared memory per shader core (default 16kB)
-gpgpu_shmem_size_PrefL1                16384 # Size of shared memory per shader core (default 16kB)
-gpgpu_shmem_size_PrefShared                16384 # Size of shared memory per shader core (default 16kB)
-gpgpu_shmem_num_banks                   32 # Number of banks in the shared memory in each shader core (default 16)
-gpgpu_shmem_limited_broadcast                    0 # Limit shared memory to do one broadcast per cycle (default on)
-gpgpu_shmem_warp_parts                    1 # Number of portions a warp is divided into for shared memory bank conflict check 
-gpgpu_warpdistro_shader                   -1 # Specify which shader core to collect the warp size distribution from
-gpgpu_warp_issue_shader                    0 # Specify which shader core to collect the warp issue distribution from
-gpgpu_local_mem_map                    1 # Mapping from local memory space address to simulated GPU physical address space (default = enabled)
-gpgpu_num_reg_banks                   16 # Number of register banks (default = 8)
-gpgpu_reg_bank_use_warp_id                    0 # Use warp ID in mapping registers to banks (default = off)
-gpgpu_operand_collector_num_units_sp                    6 # number of collector units (default = 4)
-gpgpu_operand_collector_num_units_sfu                    8 # number of collector units (default = 4)
-gpgpu_operand_collector_num_units_mem                    2 # number of collector units (default = 2)
-gpgpu_operand_collector_num_units_gen                    0 # number of collector units (default = 0)
-gpgpu_operand_collector_num_in_ports_sp                    2 # number of collector unit in ports (default = 1)
-gpgpu_operand_collector_num_in_ports_sfu                    1 # number of collector unit in ports (default = 1)
-gpgpu_operand_collector_num_in_ports_mem                    1 # number of collector unit in ports (default = 1)
-gpgpu_operand_collector_num_in_ports_gen                    0 # number of collector unit in ports (default = 0)
-gpgpu_operand_collector_num_out_ports_sp                    2 # number of collector unit in ports (default = 1)
-gpgpu_operand_collector_num_out_ports_sfu                    1 # number of collector unit in ports (default = 1)
-gpgpu_operand_collector_num_out_ports_mem                    1 # number of collector unit in ports (default = 1)
-gpgpu_operand_collector_num_out_ports_gen                    0 # number of collector unit in ports (default = 0)
-gpgpu_coalesce_arch                   13 # Coalescing arch (default = 13, anything else is off for now)
-gpgpu_num_sched_per_core                    2 # Number of warp schedulers per core
-gpgpu_max_insn_issue_per_warp                    1 # Max number of instructions that can be issued per warp in one cycle by scheduler
-gpgpu_simt_core_sim_order                    1 # Select the simulation order of cores in a cluster (0=Fix, 1=Round-Robin)
-gpgpu_pipeline_widths        2,1,1,2,1,1,2 # Pipeline widths ID_OC_SP,ID_OC_SFU,ID_OC_MEM,OC_EX_SP,OC_EX_SFU,OC_EX_MEM,EX_WB
-gpgpu_num_sp_units                     2 # Number of SP units (default=1)
-gpgpu_num_sfu_units                    1 # Number of SF units (default=1)
-gpgpu_num_mem_units                    1 # Number if ldst units (default=1) WARNING: not hooked up to anything
-gpgpu_scheduler       warp_limiting:2:16 # Scheduler configuration: < lrr | gto | two_level_active > If two_level_active:<num_active_warps>:<inner_prioritization>:<outer_prioritization>For complete list of prioritization values see shader.h enum scheduler_prioritization_typeDefault: gto
-gpgpu_dram_scheduler                    1 # 0 = fifo, 1 = FR-FCFS (defaul)
-gpgpu_dram_partition_queues              8:8:8:8 # i2$:$2d:d2$:$2i
-l2_ideal                               0 # Use a ideal L2 cache that always hit
-gpgpu_cache:dl2     64:128:8,L:B:m:W:L,A:32:4,4:0,32 # unified banked L2 data cache config  {<nsets>:<bsize>:<assoc>,<rep>:<wr>:<alloc>:<wr_alloc>,<mshr>:<N>:<merge>,<mq>}
-gpgpu_cache:dl2_texture_only                    0 # L2 cache used for texture only
-gpgpu_n_mem                            6 # number of memory modules (e.g. memory controllers) in gpu
-gpgpu_n_sub_partition_per_mchannel                    2 # number of memory subpartition in each memory module
-gpgpu_n_mem_per_ctrlr                    2 # number of memory chips per memory controller
-gpgpu_memlatency_stat                   14 # track and display latency statistics 0x2 enables MC, 0x4 enables queue logs
-gpgpu_frfcfs_dram_sched_queue_size                   16 # 0 = unlimited (default); # entries per chip
-gpgpu_dram_return_queue_size                  116 # 0 = unlimited (default); # entries per chip
-gpgpu_dram_buswidth                    4 # default = 4 bytes (8 bytes per cycle at DDR)
-gpgpu_dram_burst_length                    8 # Burst length of each DRAM request (default = 4 data bus cycle)
-dram_data_command_freq_ratio                    4 # Frequency ratio between DRAM data bus and command bus (default = 2 times, i.e. DDR)
-gpgpu_dram_timing_opt nbk=16:CCD=2:RRD=6:RCD=12:RAS=28:RP=12:RC=40: CL=12:WL=4:CDLR=5:WR=12:nbkgrp=4:CCDL=3:RTPL=2 # DRAM timing parameters = {nbk:tCCD:tRRD:tRCD:tRAS:tRP:tRC:CL:WL:tCDLR:tWR:nbkgrp:tCCDL:tRTPL}
-rop_latency                          120 # ROP queue latency (default 85)
-dram_latency                         100 # DRAM latency (default 30)
-gpgpu_mem_addr_mapping dramid@8;00000000.00000000.00000000.00000000.0000RRRR.RRRRRRRR.BBBCCCCB.CCSSSSSS # mapping memory address to dram model {dramid@<start bit>;<memory address map>}
-gpgpu_mem_addr_test                    0 # run sweep test to check address mapping for aliased address
-gpgpu_mem_address_mask                    1 # 0 = old addressing mask, 1 = new addressing mask, 2 = new add. mask + flipped bank sel and chip sel bits
-gpuwattch_xml_file  gpuwattch_gtx480.xml # GPUWattch XML file
-power_simulation_enabled                    0 # Turn on power simulator (1=On, 0=Off)
-power_per_cycle_dump                    0 # Dump detailed power output each cycle
-power_trace_enabled                    0 # produce a file for the power trace (1=On, 0=Off)
-power_trace_zlevel                     6 # Compression level of the power trace output log (0=no comp, 9=highest)
-steady_power_levels_enabled                    0 # produce a file for the steady power levels (1=On, 0=Off)
-steady_state_definition                  8:4 # allowed deviation:number of samples
-gpgpu_max_cycle                        0 # terminates gpu simulation early (0 = no limit)
-gpgpu_max_insn                         0 # terminates gpu simulation early (0 = no limit)
-gpgpu_max_cta                          0 # terminates gpu simulation early (0 = no limit)
-gpgpu_runtime_stat                   500 # display runtime statistics such as dram utilization {<freq>:<flag>}
-liveness_message_freq                    1 # Minimum number of seconds between simulation liveness messages (0 = always print)
-gpgpu_flush_l1_cache                    0 # Flush L1 cache at the end of each kernel call
-gpgpu_flush_l2_cache                    0 # Flush L2 cache at the end of each kernel call
-gpgpu_deadlock_detect                    1 # Stop the simulation at deadlock (1=on (default), 0=off)
-gpgpu_ptx_instruction_classification                    0 # if enabled will classify ptx instruction types per kernel (Max 255 kernels now)
-gpgpu_ptx_sim_mode                     0 # Select between Performance (default) or Functional simulation (1)
-gpgpu_clock_domains 700.0:700.0:700.0:924.0 # Clock Domain Frequencies in MhZ {<Core Clock>:<ICNT Clock>:<L2 Clock>:<DRAM Clock>}
-gpgpu_max_concurrent_kernel                    8 # maximum kernels that can run concurrently on GPU
-gpgpu_cflog_interval                    0 # Interval between each snapshot in control flow logger
-visualizer_enabled                     0 # Turn on visualizer output (1=On, 0=Off)
-visualizer_outputfile                 NULL # Specifies the output log file for visualizer
-visualizer_zlevel                      6 # Compression level of the visualizer output log (0=no comp, 9=highest)
-trace_enabled                          0 # Turn on traces
-trace_components                    none # comma seperated list of traces to enable. Complete list found in trace_streams.tup. Default none
-trace_sampling_core                    0 # The core which is printed using CORE_DPRINTF. Default 0
-trace_sampling_memory_partition                   -1 # The memory partition which is printed using MEMPART_DPRINTF. Default -1 (i.e. all)
-enable_ptx_file_line_stats                    1 # Turn on PTX source line statistic profiling. (1 = On)
-ptx_line_stats_filename gpgpu_inst_stats.txt # Output file for PTX source line statistics.
-save_embedded_ptx                      0 # saves ptx files embedded in binary as <n>.ptx
-keep                                   0 # keep intermediate files created by GPGPU-Sim when interfacing with external programs
-gpgpu_ptx_save_converted_ptxplus                    0 # Saved converted ptxplus to a file
-ptx_opcode_latency_int         4,13,4,5,145 # Opcode latencies for integers <ADD,MAX,MUL,MAD,DIV>Default 1,1,19,25,145
-ptx_opcode_latency_fp          4,13,4,5,39 # Opcode latencies for single precision floating points <ADD,MAX,MUL,MAD,DIV>Default 1,1,1,1,30
-ptx_opcode_latency_dp         8,19,8,8,330 # Opcode latencies for double precision floating points <ADD,MAX,MUL,MAD,DIV>Default 8,8,8,8,335
-ptx_opcode_initiation_int            1,2,2,1,8 # Opcode initiation intervals for integers <ADD,MAX,MUL,MAD,DIV>Default 1,1,4,4,32
-ptx_opcode_initiation_fp            1,2,1,1,4 # Opcode initiation intervals for single precision floating points <ADD,MAX,MUL,MAD,DIV>Default 1,1,1,1,5
-ptx_opcode_initiation_dp         8,16,8,8,130 # Opcode initiation intervals for double precision floating points <ADD,MAX,MUL,MAD,DIV>Default 8,8,8,8,130
DRAM Timing Options:
nbk                                    16 # number of banks
CCD                                     2 # column to column delay
RRD                                     6 # minimal delay between activation of rows in different banks
RCD                                    12 # row to column delay
RAS                                    28 # time needed to activate row
RP                                     12 # time needed to precharge (deactivate) row
RC                                     40 # row cycle time
CDLR                                    5 # switching from write to read (changes tWTR)
WR                                     12 # last data-in to row precharge
CL                                     12 # CAS latency
WL                                      4 # Write latency
nbkgrp                                  4 # number of bank groups
CCDL                                    3 # column to column delay between accesses to different bank groups
RTPL                                    2 # read to precharge delay between accesses to different bank groups
Total number of memory sub partition = 12
addr_dec_mask[CHIP]  = 0000000000000000 	high:64 low:0
addr_dec_mask[BK]    = 000000000000e100 	high:16 low:8
addr_dec_mask[ROW]   = 000000000fff0000 	high:28 low:16
addr_dec_mask[COL]   = 0000000000001eff 	high:13 low:0
addr_dec_mask[BURST] = 000000000000003f 	high:6 low:0
sub_partition_id_mask = 0000000000000100
GPGPU-Sim uArch: clock freqs: 700000000.000000:700000000.000000:700000000.000000:924000000.000000
GPGPU-Sim uArch: clock periods: 0.00000000142857142857:0.00000000142857142857:0.00000000142857142857:0.00000000108225108225
*** Initializing Memory Statistics ***
GPGPU-Sim uArch: interconnect node map (shaderID+MemID to icntID)
GPGPU-Sim uArch: Memory nodes ID start from index: 15
GPGPU-Sim uArch:    0   1   2   3   4
GPGPU-Sim uArch:    5   6   7   8   9
GPGPU-Sim uArch:   10  11  12  13  14
GPGPU-Sim uArch:   15  16  17  18  19
GPGPU-Sim uArch:   20  21  22  23  24
GPGPU-Sim uArch:   25  26
GPGPU-Sim uArch: interconnect node reverse map (icntID to shaderID+MemID)
GPGPU-Sim uArch: Memory nodes start from ID: 15
GPGPU-Sim uArch:    0   1   2   3   4
GPGPU-Sim uArch:    5   6   7   8   9
GPGPU-Sim uArch:   10  11  12  13  14
GPGPU-Sim uArch:   15  16  17  18  19
GPGPU-Sim uArch:   20  21  22  23  24
GPGPU-Sim uArch:   25  26
7fda3539671ef22924a0c4c414b8a557  /sciclone/data10/hwang07/adwait/applications/benchmarks/shoc/bin/Serial/CUDA/MD
GPGPU-Sim uArch: performance model initialization complete.
GPGPU-Sim PTX: __cudaRegisterFatBinary, fat_cubin_handle = 1, filename=MD.cu
self exe links to: /sciclone/data10/hwang07/adwait/applications/benchmarks/shoc/bin/Serial/CUDA/MD
Running md5sum using "md5sum /sciclone/data10/hwang07/adwait/applications/benchmarks/shoc/bin/Serial/CUDA/MD "
Parsing file _cuobjdump_complete_output_Ya5wgN
######### cuobjdump parser ########
## Adding new section ELF
Adding arch: sm_12
Adding identifier: MD.cu
## Adding new section ELF
Adding arch: sm_20
Adding identifier: MD.cu
## Adding new section PTX
Adding ptx filename: _cuobjdump_1.ptx
Adding arch: sm_20
Adding identifier: MD.cu
## Adding new section ELF
Adding arch: sm_13
Adding identifier: MD.cu
Done parsing!!!
GPGPU-Sim PTX: __cudaRegisterFunction _Z16compute_lj_forceId7double37double4Lb1E12texReader_dpEvPT0_PKT1_iPKiT_SA_SA_i : hostFun 0x0x406e30, fat_cubin_handle = 1
GPGPU-Sim PTX: allocating global region for "posTexture" from 0x100 to 0x104 (global memory space)
GPGPU-Sim PTX: instruction assembly for function '_Z16compute_lj_forceIf6float36float4Lb1E12texReader_spEvPT0_PKT1_iPKiT_SA_SA_i'...   done.
GPGPU-Sim PTX: finding reconvergence points for '_Z16compute_lj_forceIf6float36float4Lb1E12texReader_spEvPT0_PKT1_iPKiT_SA_SA_i'...
GPGPU-Sim PTX: Finding dominators for '_Z16compute_lj_forceIf6float36float4Lb1E12texReader_spEvPT0_PKT1_iPKiT_SA_SA_i'...
GPGPU-Sim PTX: Finding immediate dominators for '_Z16compute_lj_forceIf6float36float4Lb1E12texReader_spEvPT0_PKT1_iPKiT_SA_SA_i'...
GPGPU-Sim PTX: Finding postdominators for '_Z16compute_lj_forceIf6float36float4Lb1E12texReader_spEvPT0_PKT1_iPKiT_SA_SA_i'...
GPGPU-Sim PTX: Finding immediate postdominators for '_Z16compute_lj_forceIf6float36float4Lb1E12texReader_spEvPT0_PKT1_iPKiT_SA_SA_i'...
GPGPU-Sim PTX: pre-decoding instructions for '_Z16compute_lj_forceIf6float36float4Lb1E12texReader_spEvPT0_PKT1_iPKiT_SA_SA_i'...
GPGPU-Sim PTX: reconvergence points for _Z16compute_lj_forceIf6float36float4Lb1E12texReader_spEvPT0_PKT1_iPKiT_SA_SA_i...
GPGPU-Sim PTX:  1 (potential) branch divergence @  PC=0x068 (_1.ptx:82) @%p1 bra $Lt_0_4354;
GPGPU-Sim PTX:    immediate post dominator      @  PC=0x218 (_1.ptx:146) ld.param.u64 %rd10, [__cudaparm__Z16compute_lj_forceIf6float36float4Lb1E12texReader_spEvPT0_PKT1_iPKiT_SA_SA_i_force3];
GPGPU-Sim PTX:  2 (potential) branch divergence @  PC=0x170 (_1.ptx:118) @!%p2 bra $Lt_0_3586;
GPGPU-Sim PTX:    immediate post dominator      @  PC=0x1d8 (_1.ptx:135) add.s32 %r10, %r10, 1;
GPGPU-Sim PTX:  3 (potential) branch divergence @  PC=0x1f0 (_1.ptx:138) @%p3 bra $Lt_0_3330;
GPGPU-Sim PTX:    immediate post dominator      @  PC=0x1f8 (_1.ptx:139) bra.uni $Lt_0_2818;
GPGPU-Sim PTX:  4 (potential) branch divergence @  PC=0x1f8 (_1.ptx:139) bra.uni $Lt_0_2818;
GPGPU-Sim PTX:    immediate post dominator      @  PC=0x218 (_1.ptx:146) ld.param.u64 %rd10, [__cudaparm__Z16compute_lj_forceIf6float36float4Lb1E12texReader_spEvPT0_PKT1_iPKiT_SA_SA_i_force3];
GPGPU-Sim PTX: ... end of reconvergence points for _Z16compute_lj_forceIf6float36float4Lb1E12texReader_spEvPT0_PKT1_iPKiT_SA_SA_i
GPGPU-Sim PTX: ... done pre-decoding instructions for '_Z16compute_lj_forceIf6float36float4Lb1E12texReader_spEvPT0_PKT1_iPKiT_SA_SA_i'.
GPGPU-Sim PTX: allocating global region for "posTexture_dp" from 0x104 to 0x108 (global memory space)
GPGPU-Sim PTX: instruction assembly for function '_Z16compute_lj_forceId7double37double4Lb1E12texReader_dpEvPT0_PKT1_iPKiT_SA_SA_i'...   done.
GPGPU-Sim PTX: finding reconvergence points for '_Z16compute_lj_forceId7double37double4Lb1E12texReader_dpEvPT0_PKT1_iPKiT_SA_SA_i'...
GPGPU-Sim PTX: Finding dominators for '_Z16compute_lj_forceId7double37double4Lb1E12texReader_dpEvPT0_PKT1_iPKiT_SA_SA_i'...
GPGPU-Sim PTX: Finding immediate dominators for '_Z16compute_lj_forceId7double37double4Lb1E12texReader_dpEvPT0_PKT1_iPKiT_SA_SA_i'...
GPGPU-Sim PTX: Finding postdominators for '_Z16compute_lj_forceId7double37double4Lb1E12texReader_dpEvPT0_PKT1_iPKiT_SA_SA_i'...
GPGPU-Sim PTX: Finding immediate postdominators for '_Z16compute_lj_forceId7double37double4Lb1E12texReader_dpEvPT0_PKT1_iPKiT_SA_SA_i'...
GPGPU-Sim PTX: pre-decoding instructions for '_Z16compute_lj_forceId7double37double4Lb1E12texReader_dpEvPT0_PKT1_iPKiT_SA_SA_i'...
GPGPU-Sim PTX: reconvergence points for _Z16compute_lj_forceId7double37double4Lb1E12texReader_dpEvPT0_PKT1_iPKiT_SA_SA_i...
GPGPU-Sim PTX:  1 (potential) branch divergence @  PC=0x2c0 (_1.ptx:189) @%p1 bra $Lt_1_4354;
GPGPU-Sim PTX:    immediate post dominator      @  PC=0x4f0 (_1.ptx:270) ld.param.u64 %rd10, [__cudaparm__Z16compute_lj_forceId7double37double4Lb1E12texReader_dpEvPT0_PKT1_iPKiT_SA_SA_i_force3];
GPGPU-Sim PTX:  2 (potential) branch divergence @  PC=0x448 (_1.ptx:242) @!%p2 bra $Lt_1_3586;
GPGPU-Sim PTX:    immediate post dominator      @  PC=0x4b0 (_1.ptx:259) add.s32 %r10, %r10, 1;
GPGPU-Sim PTX:  3 (potential) branch divergence @  PC=0x4c8 (_1.ptx:262) @%p3 bra $Lt_1_3330;
GPGPU-Sim PTX:    immediate post dominator      @  PC=0x4d0 (_1.ptx:263) bra.uni $Lt_1_2818;
GPGPU-Sim PTX:  4 (potential) branch divergence @  PC=0x4d0 (_1.ptx:263) bra.uni $Lt_1_2818;
GPGPU-Sim PTX:    immediate post dominator      @  PC=0x4f0 (_1.ptx:270) ld.param.u64 %rd10, [__cudaparm__Z16compute_lj_forceId7double37double4Lb1E12texReader_dpEvPT0_PKT1_iPKiT_SA_SA_i_force3];
GPGPU-Sim PTX: ... end of reconvergence points for _Z16compute_lj_forceId7double37double4Lb1E12texReader_dpEvPT0_PKT1_iPKiT_SA_SA_i
GPGPU-Sim PTX: ... done pre-decoding instructions for '_Z16compute_lj_forceId7double37double4Lb1E12texReader_dpEvPT0_PKT1_iPKiT_SA_SA_i'.
GPGPU-Sim PTX: finished parsing EMBEDDED .ptx file _1.ptx
Adding _cuobjdump_1.ptx with cubin handle 1
GPGPU-Sim PTX: extracting embedded .ptx to temporary file "_ptx_WOZvep"
Running: cat _ptx_WOZvep | sed 's/.version 1.5/.version 1.4/' | sed 's/, texmode_independent//' | sed 's/\(\.extern \.const\[1\] .b8 \w\+\)\[\]/\1\[1\]/' | sed 's/const\[.\]/const\[0\]/g' > _ptx2_Er5xC1
GPGPU-Sim PTX: generating ptxinfo using "$CUDA_INSTALL_PATH/bin/ptxas --gpu-name=sm_20 -v _ptx2_Er5xC1 --output-file  /dev/null 2> _ptx_WOZvepinfo"
GPGPU-Sim PTX: Kernel '_Z16compute_lj_forceId7double37double4Lb1E12texReader_dpEvPT0_PKT1_iPKiT_SA_SA_i' : regs=37, lmem=0, smem=0, cmem=108
GPGPU-Sim PTX: Kernel '_Z16compute_lj_forceIf6float36float4Lb1E12texReader_spEvPT0_PKT1_iPKiT_SA_SA_i' : regs=26, lmem=0, smem=0, cmem=84
GPGPU-Sim PTX: removing ptxinfo using "rm -f _ptx_WOZvep _ptx2_Er5xC1 _ptx_WOZvepinfo"
GPGPU-Sim PTX: loading globals with explicit initializers... 
GPGPU-Sim PTX: finished loading globals (0 bytes total).
GPGPU-Sim PTX: loading constants with explicit initializers...  done.
GPGPU-Sim PTX: __cudaRegisterFunction _Z16compute_lj_forceIf6float36float4Lb1E12texReader_spEvPT0_PKT1_iPKiT_SA_SA_i : hostFun 0x0x406e20, fat_cubin_handle = 1
GPGPU-Sim PTX: in __cudaRegisterTexture:
GPGPU-Sim PTX:   int dim = 1
GPGPU-Sim PTX:   int norm = 0
GPGPU-Sim PTX:   int ext = 0
GPGPU-Sim PTX:   Execution warning: Not finished implementing "void __cudaRegisterTexture(void**, const textureReference*, const void**, const char*, int, int, int)"
GPGPU-Sim PTX: in __cudaRegisterTexture:
GPGPU-Sim PTX:   int dim = 1
GPGPU-Sim PTX:   int norm = 0
GPGPU-Sim PTX:   int ext = 0
GPGPU-Sim PTX:   Execution warning: Not finished implementing "void __cudaRegisterTexture(void**, const textureReference*, const void**, const char*, int, int, int)"
Chose device: name='GPGPU-Sim_vGPGPU-Sim Simulator Version 3.2.2 ' index=0
Running single precision test
Initializing test problem (this can take several minutes for large problems)
GPGPU-Sim PTX: in cudaBindTexture: sizeof(struct textureReference) = 104
GPGPU-Sim PTX:   size = 196608
GPGPU-Sim PTX:   texref = 0x61ee60, array = 0x2d56960
GPGPU-Sim PTX:   devPtr32 = 80024000
GPGPU-Sim PTX:   Name corresponding to textureReference: posTexture
GPGPU-Sim PTX:   ChannelFormatDesc: x=32, y=32, z=32, w=32
GPGPU-Sim PTX:   Texture Normalized? = 0
GPGPU-Sim PTX:   texel size = 16
GPGPU-Sim PTX:   texture cache linesize = 128
GPGPU-Sim PTX:   Tx = 4; Ty = 2, Tx_numbits = 2, Ty_numbits = 1
GPGPU-Sim PTX:   Texel size = 16 bytes; texel_size_numbits = 4
GPGPU-Sim PTX:   Binding texture to array starting at devPtr32 = 0x80024000
GPGPU-Sim PTX:   Texel size = 16 bytes
GPGPU-Sim PTX: devPtr = 0xffffffff80024000
GPGPU-Sim PTX: in cudaBindTexture: sizeof(struct textureReference) = 104
GPGPU-Sim PTX:   size = 393216
GPGPU-Sim PTX:   texref = 0x61eee0, array = 0x2d5c560
GPGPU-Sim PTX:   devPtr32 = 80024000
GPGPU-Sim PTX:   Name corresponding to textureReference: posTexture_dp
GPGPU-Sim PTX:   ChannelFormatDesc: x=32, y=32, z=32, w=32
GPGPU-Sim PTX:   Texture Normalized? = 0
GPGPU-Sim PTX:   texel size = 16
GPGPU-Sim PTX:   texture cache linesize = 128
GPGPU-Sim PTX:   Tx = 4; Ty = 2, Tx_numbits = 2, Ty_numbits = 1
GPGPU-Sim PTX:   Texel size = 16 bytes; texel_size_numbits = 4
GPGPU-Sim PTX:   Binding texture to array starting at devPtr32 = 0x80024000
GPGPU-Sim PTX:   Texel size = 16 bytes
GPGPU-Sim PTX: devPtr = 0xffffffff80024000
  10% done
  20% done
  30% done
  40% done
  50% done
  60% done
  70% done
  80% done
  90% done
  100% done
Finished.
1570334 of 1572864 pairs within cutoff distance = 99.8391 %
event update
event update
GPGPU-Sim API: cudaEventSynchronize ** waiting for event
GPGPU-Sim API: cudaEventSynchronize ** event detected

GPGPU-Sim PTX: cudaLaunch for 0x0x406e20 (mode=performance simulation) on stream 0
GPGPU-Sim PTX: pushing kernel '_Z16compute_lj_forceIf6float36float4Lb1E12texReader_spEvPT0_PKT1_iPKiT_SA_SA_i' to stream 0, gridDim= (48,1,1) blockDim = (256,1,1) 
kernel '_Z16compute_lj_forceIf6float36float4Lb1E12texReader_spEvPT0_PKT1_iPKiT_SA_SA_i' transfer to GPU hardware scheduler
GPGPU-Sim uArch: Shader 1 bind to kernel 1 '_Z16compute_lj_forceIf6float36float4Lb1E12texReader_spEvPT0_PKT1_iPKiT_SA_SA_i'
GPGPU-Sim uArch: CTA/core = 4, limited by: regs
GPGPU-Sim uArch: core:  1, cta: 0 initialized @(1,0)
GPGPU-Sim uArch: Shader 2 bind to kernel 1 '_Z16compute_lj_forceIf6float36float4Lb1E12texReader_spEvPT0_PKT1_iPKiT_SA_SA_i'
GPGPU-Sim uArch: core:  2, cta: 0 initialized @(1,0)
GPGPU-Sim uArch: Shader 3 bind to kernel 1 '_Z16compute_lj_forceIf6float36float4Lb1E12texReader_spEvPT0_PKT1_iPKiT_SA_SA_i'
GPGPU-Sim uArch: core:  3, cta: 0 initialized @(1,0)
GPGPU-Sim uArch: Shader 4 bind to kernel 1 '_Z16compute_lj_forceIf6float36float4Lb1E12texReader_spEvPT0_PKT1_iPKiT_SA_SA_i'
GPGPU-Sim uArch: core:  4, cta: 0 initialized @(1,0)
GPGPU-Sim uArch: Shader 5 bind to kernel 1 '_Z16compute_lj_forceIf6float36float4Lb1E12texReader_spEvPT0_PKT1_iPKiT_SA_SA_i'
GPGPU-Sim uArch: core:  5, cta: 0 initialized @(1,0)
GPGPU-Sim uArch: Shader 6 bind to kernel 1 '_Z16compute_lj_forceIf6float36float4Lb1E12texReader_spEvPT0_PKT1_iPKiT_SA_SA_i'
GPGPU-Sim uArch: core:  6, cta: 0 initialized @(1,0)
GPGPU-Sim uArch: Shader 7 bind to kernel 1 '_Z16compute_lj_forceIf6float36float4Lb1E12texReader_spEvPT0_PKT1_iPKiT_SA_SA_i'
GPGPU-Sim uArch: core:  7, cta: 0 initialized @(1,0)
GPGPU-Sim uArch: Shader 8 bind to kernel 1 '_Z16compute_lj_forceIf6float36float4Lb1E12texReader_spEvPT0_PKT1_iPKiT_SA_SA_i'
GPGPU-Sim uArch: core:  8, cta: 0 initialized @(1,0)
GPGPU-Sim uArch: Shader 9 bind to kernel 1 '_Z16compute_lj_forceIf6float36float4Lb1E12texReader_spEvPT0_PKT1_iPKiT_SA_SA_i'
GPGPU-Sim uArch: core:  9, cta: 0 initialized @(1,0)
GPGPU-Sim uArch: Shader 10 bind to kernel 1 '_Z16compute_lj_forceIf6float36float4Lb1E12texReader_spEvPT0_PKT1_iPKiT_SA_SA_i'
GPGPU-Sim uArch: core: 10, cta: 0 initialized @(1,0)
GPGPU-Sim uArch: Shader 11 bind to kernel 1 '_Z16compute_lj_forceIf6float36float4Lb1E12texReader_spEvPT0_PKT1_iPKiT_SA_SA_i'
GPGPU-Sim uArch: core: 11, cta: 0 initialized @(1,0)
GPGPU-Sim uArch: Shader 12 bind to kernel 1 '_Z16compute_lj_forceIf6float36float4Lb1E12texReader_spEvPT0_PKT1_iPKiT_SA_SA_i'
GPGPU-Sim uArch: core: 12, cta: 0 initialized @(1,0)
GPGPU-Sim uArch: Shader 13 bind to kernel 1 '_Z16compute_lj_forceIf6float36float4Lb1E12texReader_spEvPT0_PKT1_iPKiT_SA_SA_i'
GPGPU-Sim uArch: core: 13, cta: 0 initialized @(1,0)
GPGPU-Sim uArch: Shader 14 bind to kernel 1 '_Z16compute_lj_forceIf6float36float4Lb1E12texReader_spEvPT0_PKT1_iPKiT_SA_SA_i'
GPGPU-Sim uArch: core: 14, cta: 0 initialized @(1,0)
GPGPU-Sim uArch: Shader 0 bind to kernel 1 '_Z16compute_lj_forceIf6float36float4Lb1E12texReader_spEvPT0_PKT1_iPKiT_SA_SA_i'
GPGPU-Sim uArch: core:  0, cta: 0 initialized @(1,0)
GPGPU-Sim uArch: core:  1, cta: 1 initialized @(2,0)
GPGPU-Sim uArch: core:  2, cta: 1 initialized @(2,0)
GPGPU-Sim uArch: core:  3, cta: 1 initialized @(2,0)
GPGPU-Sim uArch: core:  4, cta: 1 initialized @(2,0)
GPGPU-Sim uArch: core:  5, cta: 1 initialized @(2,0)
GPGPU-Sim uArch: core:  6, cta: 1 initialized @(2,0)
GPGPU-Sim uArch: core:  7, cta: 1 initialized @(2,0)
GPGPU-Sim uArch: core:  8, cta: 1 initialized @(2,0)
GPGPU-Sim uArch: core:  9, cta: 1 initialized @(2,0)
GPGPU-Sim uArch: core: 10, cta: 1 initialized @(2,0)
GPGPU-Sim uArch: core: 11, cta: 1 initialized @(2,0)
GPGPU-Sim uArch: core: 12, cta: 1 initialized @(2,0)
GPGPU-Sim uArch: core: 13, cta: 1 initialized @(2,0)
GPGPU-Sim uArch: core: 14, cta: 1 initialized @(2,0)
GPGPU-Sim uArch: core:  0, cta: 1 initialized @(2,0)
GPGPU-Sim uArch: core:  1, cta: 2 initialized @(3,0)
GPGPU-Sim uArch: core:  2, cta: 2 initialized @(3,0)
GPGPU-Sim uArch: core:  3, cta: 2 initialized @(3,0)
GPGPU-Sim uArch: core:  4, cta: 2 initialized @(3,0)
GPGPU-Sim uArch: core:  5, cta: 2 initialized @(3,0)
GPGPU-Sim uArch: core:  6, cta: 2 initialized @(3,0)
GPGPU-Sim uArch: core:  7, cta: 2 initialized @(3,0)
GPGPU-Sim uArch: core:  8, cta: 2 initialized @(3,0)
GPGPU-Sim uArch: core:  9, cta: 2 initialized @(3,0)
GPGPU-Sim uArch: core: 10, cta: 2 initialized @(3,0)
GPGPU-Sim uArch: core: 11, cta: 2 initialized @(3,0)
GPGPU-Sim uArch: core: 12, cta: 2 initialized @(3,0)
GPGPU-Sim uArch: core: 13, cta: 2 initialized @(3,0)
GPGPU-Sim uArch: core: 14, cta: 2 initialized @(3,0)
GPGPU-Sim uArch: core:  0, cta: 2 initialized @(3,0)
GPGPU-Sim uArch: core:  1, cta: 3 initialized @(4,0)
GPGPU-Sim uArch: core:  2, cta: 3 initialized @(4,0)
GPGPU-Sim uArch: core:  3, cta: 3 initialized @(4,0)
GPGPU-Sim uArch: cycles simulated: 500  inst.: 86016 (ipc=172.0) sim_rate=8601 (inst/sec) elapsed = 0:0:00:10 / Tue Mar 22 12:58:42 2016
GPGPU-Sim PTX: 100000 instructions simulated : ctaid=(30,0,0) tid=(31,0,0)
GPGPU-Sim uArch: cycles simulated: 1000  inst.: 128896 (ipc=128.9) sim_rate=10741 (inst/sec) elapsed = 0:0:00:12 / Tue Mar 22 12:58:44 2016
GPGPU-Sim PTX: 200000 instructions simulated : ctaid=(26,0,0) tid=(127,0,0)
GPGPU-Sim PTX: 300000 instructions simulated : ctaid=(33,0,0) tid=(223,0,0)
GPGPU-Sim uArch: cycles simulated: 2500  inst.: 353792 (ipc=141.5) sim_rate=27214 (inst/sec) elapsed = 0:0:00:13 / Tue Mar 22 12:58:45 2016
GPGPU-Sim PTX: 400000 instructions simulated : ctaid=(34,0,0) tid=(159,0,0)
GPGPU-Sim uArch: cycles simulated: 4000  inst.: 402784 (ipc=100.7) sim_rate=28770 (inst/sec) elapsed = 0:0:00:14 / Tue Mar 22 12:58:46 2016
GPGPU-Sim uArch: cycles simulated: 5500  inst.: 424832 (ipc=77.2) sim_rate=28322 (inst/sec) elapsed = 0:0:00:15 / Tue Mar 22 12:58:47 2016
GPGPU-Sim uArch: cycles simulated: 7000  inst.: 447680 (ipc=64.0) sim_rate=27980 (inst/sec) elapsed = 0:0:00:16 / Tue Mar 22 12:58:48 2016
GPGPU-Sim uArch: cycles simulated: 8500  inst.: 470848 (ipc=55.4) sim_rate=27696 (inst/sec) elapsed = 0:0:00:17 / Tue Mar 22 12:58:49 2016
GPGPU-Sim PTX: 500000 instructions simulated : ctaid=(11,0,0) tid=(127,0,0)
GPGPU-Sim uArch: cycles simulated: 10500  inst.: 523168 (ipc=49.8) sim_rate=29064 (inst/sec) elapsed = 0:0:00:18 / Tue Mar 22 12:58:50 2016
GPGPU-Sim PTX: 600000 instructions simulated : ctaid=(31,0,0) tid=(191,0,0)
GPGPU-Sim uArch: cycles simulated: 12000  inst.: 629696 (ipc=52.5) sim_rate=33141 (inst/sec) elapsed = 0:0:00:19 / Tue Mar 22 12:58:51 2016
GPGPU-Sim PTX: 700000 instructions simulated : ctaid=(33,0,0) tid=(63,0,0)
GPGPU-Sim PTX: 800000 instructions simulated : ctaid=(12,0,0) tid=(159,0,0)
GPGPU-Sim uArch: cycles simulated: 13500  inst.: 801216 (ipc=59.3) sim_rate=40060 (inst/sec) elapsed = 0:0:00:20 / Tue Mar 22 12:58:52 2016
GPGPU-Sim uArch: cycles simulated: 15000  inst.: 857056 (ipc=57.1) sim_rate=40812 (inst/sec) elapsed = 0:0:00:21 / Tue Mar 22 12:58:53 2016
GPGPU-Sim PTX: 900000 instructions simulated : ctaid=(6,0,0) tid=(95,0,0)
GPGPU-Sim uArch: cycles simulated: 16500  inst.: 914976 (ipc=55.5) sim_rate=41589 (inst/sec) elapsed = 0:0:00:22 / Tue Mar 22 12:58:54 2016
GPGPU-Sim PTX: 1000000 instructions simulated : ctaid=(34,0,0) tid=(223,0,0)
GPGPU-Sim uArch: cycles simulated: 18000  inst.: 980288 (ipc=54.5) sim_rate=42621 (inst/sec) elapsed = 0:0:00:23 / Tue Mar 22 12:58:55 2016
GPGPU-Sim uArch: cycles simulated: 19500  inst.: 1037760 (ipc=53.2) sim_rate=43240 (inst/sec) elapsed = 0:0:00:24 / Tue Mar 22 12:58:56 2016
GPGPU-Sim PTX: 1100000 instructions simulated : ctaid=(18,0,0) tid=(255,0,0)
GPGPU-Sim uArch: cycles simulated: 21000  inst.: 1087392 (ipc=51.8) sim_rate=43495 (inst/sec) elapsed = 0:0:00:25 / Tue Mar 22 12:58:57 2016
GPGPU-Sim PTX: 1200000 instructions simulated : ctaid=(22,0,0) tid=(159,0,0)
GPGPU-Sim uArch: cycles simulated: 22500  inst.: 1166880 (ipc=51.9) sim_rate=44880 (inst/sec) elapsed = 0:0:00:26 / Tue Mar 22 12:58:58 2016
GPGPU-Sim uArch: cycles simulated: 24000  inst.: 1237728 (ipc=51.6) sim_rate=45841 (inst/sec) elapsed = 0:0:00:27 / Tue Mar 22 12:58:59 2016
GPGPU-Sim PTX: 1300000 instructions simulated : ctaid=(15,0,0) tid=(63,0,0)
GPGPU-Sim uArch: cycles simulated: 25000  inst.: 1270176 (ipc=50.8) sim_rate=45363 (inst/sec) elapsed = 0:0:00:28 / Tue Mar 22 12:59:00 2016
GPGPU-Sim uArch: cycles simulated: 26500  inst.: 1342720 (ipc=50.7) sim_rate=46300 (inst/sec) elapsed = 0:0:00:29 / Tue Mar 22 12:59:01 2016
GPGPU-Sim PTX: 1400000 instructions simulated : ctaid=(28,0,0) tid=(223,0,0)
GPGPU-Sim uArch: cycles simulated: 28000  inst.: 1407072 (ipc=50.3) sim_rate=46902 (inst/sec) elapsed = 0:0:00:30 / Tue Mar 22 12:59:02 2016
GPGPU-Sim PTX: 1500000 instructions simulated : ctaid=(23,0,0) tid=(95,0,0)
GPGPU-Sim uArch: cycles simulated: 29500  inst.: 1481024 (ipc=50.2) sim_rate=47774 (inst/sec) elapsed = 0:0:00:31 / Tue Mar 22 12:59:03 2016
GPGPU-Sim uArch: cycles simulated: 31000  inst.: 1533120 (ipc=49.5) sim_rate=47910 (inst/sec) elapsed = 0:0:00:32 / Tue Mar 22 12:59:04 2016
GPGPU-Sim PTX: 1600000 instructions simulated : ctaid=(21,0,0) tid=(191,0,0)
GPGPU-Sim uArch: cycles simulated: 32500  inst.: 1601280 (ipc=49.3) sim_rate=48523 (inst/sec) elapsed = 0:0:00:33 / Tue Mar 22 12:59:05 2016
GPGPU-Sim PTX: 1700000 instructions simulated : ctaid=(47,0,0) tid=(159,0,0)
GPGPU-Sim uArch: cycles simulated: 34000  inst.: 1669472 (ipc=49.1) sim_rate=49102 (inst/sec) elapsed = 0:0:00:34 / Tue Mar 22 12:59:06 2016
GPGPU-Sim PTX: 1800000 instructions simulated : ctaid=(6,0,0) tid=(63,0,0)
GPGPU-Sim uArch: cycles simulated: 35500  inst.: 1742464 (ipc=49.1) sim_rate=49784 (inst/sec) elapsed = 0:0:00:35 / Tue Mar 22 12:59:07 2016
GPGPU-Sim uArch: cycles simulated: 37000  inst.: 1792384 (ipc=48.4) sim_rate=49788 (inst/sec) elapsed = 0:0:00:36 / Tue Mar 22 12:59:08 2016
GPGPU-Sim PTX: 1900000 instructions simulated : ctaid=(31,0,0) tid=(95,0,0)
GPGPU-Sim uArch: cycles simulated: 38500  inst.: 1866624 (ipc=48.5) sim_rate=50449 (inst/sec) elapsed = 0:0:00:37 / Tue Mar 22 12:59:09 2016
GPGPU-Sim PTX: 2000000 instructions simulated : ctaid=(20,0,0) tid=(95,0,0)
GPGPU-Sim uArch: cycles simulated: 40000  inst.: 1935584 (ipc=48.4) sim_rate=50936 (inst/sec) elapsed = 0:0:00:38 / Tue Mar 22 12:59:10 2016
GPGPU-Sim uArch: cycles simulated: 41500  inst.: 2005024 (ipc=48.3) sim_rate=51410 (inst/sec) elapsed = 0:0:00:39 / Tue Mar 22 12:59:11 2016
GPGPU-Sim PTX: 2100000 instructions simulated : ctaid=(37,0,0) tid=(63,0,0)
GPGPU-Sim uArch: cycles simulated: 43000  inst.: 2067424 (ipc=48.1) sim_rate=51685 (inst/sec) elapsed = 0:0:00:40 / Tue Mar 22 12:59:12 2016
GPGPU-Sim PTX: 2200000 instructions simulated : ctaid=(21,0,0) tid=(223,0,0)
GPGPU-Sim uArch: cycles simulated: 44500  inst.: 2142944 (ipc=48.2) sim_rate=52266 (inst/sec) elapsed = 0:0:00:41 / Tue Mar 22 12:59:13 2016
GPGPU-Sim uArch: cycles simulated: 46000  inst.: 2215904 (ipc=48.2) sim_rate=52759 (inst/sec) elapsed = 0:0:00:42 / Tue Mar 22 12:59:14 2016
GPGPU-Sim PTX: 2300000 instructions simulated : ctaid=(11,0,0) tid=(255,0,0)
GPGPU-Sim uArch: cycles simulated: 47000  inst.: 2261600 (ipc=48.1) sim_rate=52595 (inst/sec) elapsed = 0:0:00:43 / Tue Mar 22 12:59:15 2016
GPGPU-Sim uArch: cycles simulated: 48500  inst.: 2319072 (ipc=47.8) sim_rate=52706 (inst/sec) elapsed = 0:0:00:44 / Tue Mar 22 12:59:16 2016
GPGPU-Sim PTX: 2400000 instructions simulated : ctaid=(4,0,0) tid=(31,0,0)
GPGPU-Sim uArch: cycles simulated: 50000  inst.: 2372960 (ipc=47.5) sim_rate=52732 (inst/sec) elapsed = 0:0:00:45 / Tue Mar 22 12:59:17 2016
GPGPU-Sim PTX: 2500000 instructions simulated : ctaid=(3,0,0) tid=(127,0,0)
GPGPU-Sim uArch: cycles simulated: 51500  inst.: 2436480 (ipc=47.3) sim_rate=52966 (inst/sec) elapsed = 0:0:00:46 / Tue Mar 22 12:59:18 2016
GPGPU-Sim uArch: cycles simulated: 53000  inst.: 2514208 (ipc=47.4) sim_rate=53493 (inst/sec) elapsed = 0:0:00:47 / Tue Mar 22 12:59:19 2016
GPGPU-Sim PTX: 2600000 instructions simulated : ctaid=(18,0,0) tid=(127,0,0)
GPGPU-Sim uArch: cycles simulated: 54500  inst.: 2570432 (ipc=47.2) sim_rate=53550 (inst/sec) elapsed = 0:0:00:48 / Tue Mar 22 12:59:20 2016
GPGPU-Sim PTX: 2700000 instructions simulated : ctaid=(42,0,0) tid=(31,0,0)
GPGPU-Sim uArch: cycles simulated: 56000  inst.: 2627552 (ipc=46.9) sim_rate=53623 (inst/sec) elapsed = 0:0:00:49 / Tue Mar 22 12:59:21 2016
GPGPU-Sim uArch: cycles simulated: 57500  inst.: 2699616 (ipc=46.9) sim_rate=53992 (inst/sec) elapsed = 0:0:00:50 / Tue Mar 22 12:59:22 2016
GPGPU-Sim PTX: 2800000 instructions simulated : ctaid=(3,0,0) tid=(159,0,0)
GPGPU-Sim uArch: cycles simulated: 59000  inst.: 2766112 (ipc=46.9) sim_rate=54237 (inst/sec) elapsed = 0:0:00:51 / Tue Mar 22 12:59:23 2016
GPGPU-Sim PTX: 2900000 instructions simulated : ctaid=(0,0,0) tid=(31,0,0)
GPGPU-Sim uArch: cycles simulated: 60500  inst.: 2830208 (ipc=46.8) sim_rate=54427 (inst/sec) elapsed = 0:0:00:52 / Tue Mar 22 12:59:24 2016
GPGPU-Sim uArch: cycles simulated: 62000  inst.: 2889248 (ipc=46.6) sim_rate=54514 (inst/sec) elapsed = 0:0:00:53 / Tue Mar 22 12:59:25 2016
GPGPU-Sim PTX: 3000000 instructions simulated : ctaid=(37,0,0) tid=(95,0,0)
GPGPU-Sim uArch: cycles simulated: 63500  inst.: 2958144 (ipc=46.6) sim_rate=54780 (inst/sec) elapsed = 0:0:00:54 / Tue Mar 22 12:59:26 2016
GPGPU-Sim uArch: cycles simulated: 64500  inst.: 3004128 (ipc=46.6) sim_rate=54620 (inst/sec) elapsed = 0:0:00:55 / Tue Mar 22 12:59:27 2016
GPGPU-Sim PTX: 3100000 instructions simulated : ctaid=(44,0,0) tid=(95,0,0)
GPGPU-Sim uArch: cycles simulated: 66000  inst.: 3071136 (ipc=46.5) sim_rate=54841 (inst/sec) elapsed = 0:0:00:56 / Tue Mar 22 12:59:28 2016
GPGPU-Sim PTX: 3200000 instructions simulated : ctaid=(14,0,0) tid=(223,0,0)
GPGPU-Sim uArch: cycles simulated: 67500  inst.: 3127776 (ipc=46.3) sim_rate=54873 (inst/sec) elapsed = 0:0:00:57 / Tue Mar 22 12:59:29 2016
GPGPU-Sim PTX: 3300000 instructions simulated : ctaid=(3,0,0) tid=(95,0,0)
GPGPU-Sim uArch: cycles simulated: 69000  inst.: 3204544 (ipc=46.4) sim_rate=55250 (inst/sec) elapsed = 0:0:00:58 / Tue Mar 22 12:59:30 2016
GPGPU-Sim uArch: cycles simulated: 70500  inst.: 3259072 (ipc=46.2) sim_rate=55238 (inst/sec) elapsed = 0:0:00:59 / Tue Mar 22 12:59:31 2016
GPGPU-Sim PTX: 3400000 instructions simulated : ctaid=(29,0,0) tid=(31,0,0)
GPGPU-Sim uArch: cycles simulated: 72000  inst.: 3330624 (ipc=46.3) sim_rate=55510 (inst/sec) elapsed = 0:0:01:00 / Tue Mar 22 12:59:32 2016
GPGPU-Sim PTX: 3500000 instructions simulated : ctaid=(14,0,0) tid=(127,0,0)
GPGPU-Sim uArch: cycles simulated: 73500  inst.: 3411328 (ipc=46.4) sim_rate=55923 (inst/sec) elapsed = 0:0:01:01 / Tue Mar 22 12:59:33 2016
GPGPU-Sim uArch: cycles simulated: 75000  inst.: 3469568 (ipc=46.3) sim_rate=55960 (inst/sec) elapsed = 0:0:01:02 / Tue Mar 22 12:59:34 2016
GPGPU-Sim PTX: 3600000 instructions simulated : ctaid=(27,0,0) tid=(223,0,0)
GPGPU-Sim uArch: cycles simulated: 76500  inst.: 3524096 (ipc=46.1) sim_rate=55938 (inst/sec) elapsed = 0:0:01:03 / Tue Mar 22 12:59:35 2016
GPGPU-Sim PTX: 3700000 instructions simulated : ctaid=(22,0,0) tid=(63,0,0)
GPGPU-Sim uArch: cycles simulated: 78000  inst.: 3590848 (ipc=46.0) sim_rate=56107 (inst/sec) elapsed = 0:0:01:04 / Tue Mar 22 12:59:36 2016
GPGPU-Sim uArch: cycles simulated: 79500  inst.: 3655776 (ipc=46.0) sim_rate=56242 (inst/sec) elapsed = 0:0:01:05 / Tue Mar 22 12:59:37 2016
GPGPU-Sim PTX: 3800000 instructions simulated : ctaid=(41,0,0) tid=(191,0,0)
GPGPU-Sim uArch: cycles simulated: 81000  inst.: 3717376 (ipc=45.9) sim_rate=56323 (inst/sec) elapsed = 0:0:01:06 / Tue Mar 22 12:59:38 2016
GPGPU-Sim uArch: cycles simulated: 82000  inst.: 3766272 (ipc=45.9) sim_rate=56213 (inst/sec) elapsed = 0:0:01:07 / Tue Mar 22 12:59:39 2016
GPGPU-Sim PTX: 3900000 instructions simulated : ctaid=(18,0,0) tid=(95,0,0)
GPGPU-Sim uArch: cycles simulated: 83500  inst.: 3823552 (ipc=45.8) sim_rate=56228 (inst/sec) elapsed = 0:0:01:08 / Tue Mar 22 12:59:40 2016
GPGPU-Sim PTX: 4000000 instructions simulated : ctaid=(26,0,0) tid=(255,0,0)
GPGPU-Sim uArch: cycles simulated: 85000  inst.: 3886976 (ipc=45.7) sim_rate=56332 (inst/sec) elapsed = 0:0:01:09 / Tue Mar 22 12:59:41 2016
GPGPU-Sim uArch: cycles simulated: 86500  inst.: 3960704 (ipc=45.8) sim_rate=56581 (inst/sec) elapsed = 0:0:01:10 / Tue Mar 22 12:59:42 2016
GPGPU-Sim PTX: 4100000 instructions simulated : ctaid=(27,0,0) tid=(127,0,0)
GPGPU-Sim uArch: cycles simulated: 88000  inst.: 4032192 (ipc=45.8) sim_rate=56791 (inst/sec) elapsed = 0:0:01:11 / Tue Mar 22 12:59:43 2016
GPGPU-Sim PTX: 4200000 instructions simulated : ctaid=(3,0,0) tid=(31,0,0)
GPGPU-Sim uArch: cycles simulated: 89500  inst.: 4091456 (ipc=45.7) sim_rate=56825 (inst/sec) elapsed = 0:0:01:12 / Tue Mar 22 12:59:44 2016
GPGPU-Sim uArch: cycles simulated: 91000  inst.: 4145632 (ipc=45.6) sim_rate=56789 (inst/sec) elapsed = 0:0:01:13 / Tue Mar 22 12:59:45 2016
GPGPU-Sim PTX: 4300000 instructions simulated : ctaid=(8,0,0) tid=(31,0,0)
GPGPU-Sim uArch: cycles simulated: 92500  inst.: 4210048 (ipc=45.5) sim_rate=56892 (inst/sec) elapsed = 0:0:01:14 / Tue Mar 22 12:59:46 2016
GPGPU-Sim PTX: 4400000 instructions simulated : ctaid=(44,0,0) tid=(159,0,0)
GPGPU-Sim uArch: cycles simulated: 94000  inst.: 4273024 (ipc=45.5) sim_rate=56973 (inst/sec) elapsed = 0:0:01:15 / Tue Mar 22 12:59:47 2016
GPGPU-Sim uArch: cycles simulated: 95500  inst.: 4345408 (ipc=45.5) sim_rate=57176 (inst/sec) elapsed = 0:0:01:16 / Tue Mar 22 12:59:48 2016
GPGPU-Sim PTX: 4500000 instructions simulated : ctaid=(43,0,0) tid=(31,0,0)
GPGPU-Sim uArch: cycles simulated: 97000  inst.: 4411488 (ipc=45.5) sim_rate=57292 (inst/sec) elapsed = 0:0:01:17 / Tue Mar 22 12:59:49 2016
GPGPU-Sim PTX: 4600000 instructions simulated : ctaid=(9,0,0) tid=(31,0,0)
GPGPU-Sim uArch: cycles simulated: 98500  inst.: 4476576 (ipc=45.4) sim_rate=57392 (inst/sec) elapsed = 0:0:01:18 / Tue Mar 22 12:59:50 2016
GPGPU-Sim uArch: cycles simulated: 100000  inst.: 4538688 (ipc=45.4) sim_rate=57451 (inst/sec) elapsed = 0:0:01:19 / Tue Mar 22 12:59:51 2016
GPGPU-Sim PTX: 4700000 instructions simulated : ctaid=(13,0,0) tid=(95,0,0)
GPGPU-Sim uArch: cycles simulated: 101000  inst.: 4581056 (ipc=45.4) sim_rate=57263 (inst/sec) elapsed = 0:0:01:20 / Tue Mar 22 12:59:52 2016
GPGPU-Sim uArch: cycles simulated: 102500  inst.: 4634432 (ipc=45.2) sim_rate=57215 (inst/sec) elapsed = 0:0:01:21 / Tue Mar 22 12:59:53 2016
GPGPU-Sim PTX: 4800000 instructions simulated : ctaid=(11,0,0) tid=(127,0,0)
GPGPU-Sim uArch: cycles simulated: 104000  inst.: 4706080 (ipc=45.3) sim_rate=57391 (inst/sec) elapsed = 0:0:01:22 / Tue Mar 22 12:59:54 2016
GPGPU-Sim PTX: 4900000 instructions simulated : ctaid=(28,0,0) tid=(95,0,0)
GPGPU-Sim uArch: cycles simulated: 105500  inst.: 4770400 (ipc=45.2) sim_rate=57474 (inst/sec) elapsed = 0:0:01:23 / Tue Mar 22 12:59:55 2016
GPGPU-Sim uArch: cycles simulated: 107000  inst.: 4835104 (ipc=45.2) sim_rate=57560 (inst/sec) elapsed = 0:0:01:24 / Tue Mar 22 12:59:56 2016
GPGPU-Sim PTX: 5000000 instructions simulated : ctaid=(0,0,0) tid=(31,0,0)
GPGPU-Sim uArch: cycles simulated: 108500  inst.: 4904480 (ipc=45.2) sim_rate=57699 (inst/sec) elapsed = 0:0:01:25 / Tue Mar 22 12:59:57 2016
GPGPU-Sim PTX: 5100000 instructions simulated : ctaid=(7,0,0) tid=(31,0,0)
GPGPU-Sim uArch: cycles simulated: 110000  inst.: 4972992 (ipc=45.2) sim_rate=57825 (inst/sec) elapsed = 0:0:01:26 / Tue Mar 22 12:59:58 2016
GPGPU-Sim PTX: 5200000 instructions simulated : ctaid=(26,0,0) tid=(255,0,0)
GPGPU-Sim uArch: cycles simulated: 111500  inst.: 5049344 (ipc=45.3) sim_rate=58038 (inst/sec) elapsed = 0:0:01:27 / Tue Mar 22 12:59:59 2016
GPGPU-Sim uArch: cycles simulated: 113000  inst.: 5109376 (ipc=45.2) sim_rate=58061 (inst/sec) elapsed = 0:0:01:28 / Tue Mar 22 13:00:00 2016
GPGPU-Sim PTX: 5300000 instructions simulated : ctaid=(23,0,0) tid=(31,0,0)
GPGPU-Sim uArch: cycles simulated: 114500  inst.: 5178624 (ipc=45.2) sim_rate=58186 (inst/sec) elapsed = 0:0:01:29 / Tue Mar 22 13:00:01 2016
GPGPU-Sim PTX: 5400000 instructions simulated : ctaid=(0,0,0) tid=(95,0,0)
GPGPU-Sim uArch: cycles simulated: 116000  inst.: 5249728 (ipc=45.3) sim_rate=58330 (inst/sec) elapsed = 0:0:01:30 / Tue Mar 22 13:00:02 2016
GPGPU-Sim uArch: cycles simulated: 117000  inst.: 5287040 (ipc=45.2) sim_rate=58099 (inst/sec) elapsed = 0:0:01:31 / Tue Mar 22 13:00:03 2016
GPGPU-Sim PTX: 5500000 instructions simulated : ctaid=(5,0,0) tid=(159,0,0)
GPGPU-Sim uArch: cycles simulated: 118500  inst.: 5349792 (ipc=45.1) sim_rate=58149 (inst/sec) elapsed = 0:0:01:32 / Tue Mar 22 13:00:04 2016
GPGPU-Sim uArch: cycles simulated: 120000  inst.: 5424448 (ipc=45.2) sim_rate=58327 (inst/sec) elapsed = 0:0:01:33 / Tue Mar 22 13:00:05 2016
GPGPU-Sim PTX: 5600000 instructions simulated : ctaid=(5,0,0) tid=(223,0,0)
GPGPU-Sim uArch: cycles simulated: 121500  inst.: 5496736 (ipc=45.2) sim_rate=58475 (inst/sec) elapsed = 0:0:01:34 / Tue Mar 22 13:00:06 2016
GPGPU-Sim PTX: 5700000 instructions simulated : ctaid=(25,0,0) tid=(223,0,0)
GPGPU-Sim uArch: cycles simulated: 123000  inst.: 5556128 (ipc=45.2) sim_rate=58485 (inst/sec) elapsed = 0:0:01:35 / Tue Mar 22 13:00:07 2016
GPGPU-Sim uArch: cycles simulated: 124500  inst.: 5621632 (ipc=45.2) sim_rate=58558 (inst/sec) elapsed = 0:0:01:36 / Tue Mar 22 13:00:08 2016
GPGPU-Sim PTX: 5800000 instructions simulated : ctaid=(4,0,0) tid=(31,0,0)
GPGPU-Sim uArch: cycles simulated: 126000  inst.: 5684288 (ipc=45.1) sim_rate=58600 (inst/sec) elapsed = 0:0:01:37 / Tue Mar 22 13:00:09 2016
GPGPU-Sim PTX: 5900000 instructions simulated : ctaid=(18,0,0) tid=(63,0,0)
GPGPU-Sim uArch: cycles simulated: 127500  inst.: 5761472 (ipc=45.2) sim_rate=58790 (inst/sec) elapsed = 0:0:01:38 / Tue Mar 22 13:00:10 2016
GPGPU-Sim uArch: cycles simulated: 129000  inst.: 5812864 (ipc=45.1) sim_rate=58715 (inst/sec) elapsed = 0:0:01:39 / Tue Mar 22 13:00:11 2016
GPGPU-Sim PTX: 6000000 instructions simulated : ctaid=(3,0,0) tid=(159,0,0)
GPGPU-Sim uArch: cycles simulated: 130500  inst.: 5884544 (ipc=45.1) sim_rate=58845 (inst/sec) elapsed = 0:0:01:40 / Tue Mar 22 13:00:12 2016
GPGPU-Sim PTX: 6100000 instructions simulated : ctaid=(13,0,0) tid=(159,0,0)
GPGPU-Sim uArch: cycles simulated: 131500  inst.: 5928736 (ipc=45.1) sim_rate=58700 (inst/sec) elapsed = 0:0:01:41 / Tue Mar 22 13:00:13 2016
GPGPU-Sim uArch: cycles simulated: 133000  inst.: 5991616 (ipc=45.0) sim_rate=58741 (inst/sec) elapsed = 0:0:01:42 / Tue Mar 22 13:00:14 2016
GPGPU-Sim PTX: 6200000 instructions simulated : ctaid=(27,0,0) tid=(127,0,0)
GPGPU-Sim uArch: cycles simulated: 134500  inst.: 6056096 (ipc=45.0) sim_rate=58797 (inst/sec) elapsed = 0:0:01:43 / Tue Mar 22 13:00:15 2016
GPGPU-Sim PTX: 6300000 instructions simulated : ctaid=(23,0,0) tid=(159,0,0)
GPGPU-Sim uArch: cycles simulated: 136000  inst.: 6121344 (ipc=45.0) sim_rate=58859 (inst/sec) elapsed = 0:0:01:44 / Tue Mar 22 13:00:16 2016
GPGPU-Sim uArch: cycles simulated: 137500  inst.: 6190464 (ipc=45.0) sim_rate=58956 (inst/sec) elapsed = 0:0:01:45 / Tue Mar 22 13:00:17 2016
GPGPU-Sim PTX: 6400000 instructions simulated : ctaid=(0,0,0) tid=(223,0,0)
GPGPU-Sim uArch: cycles simulated: 139000  inst.: 6252704 (ipc=45.0) sim_rate=58987 (inst/sec) elapsed = 0:0:01:46 / Tue Mar 22 13:00:18 2016
GPGPU-Sim PTX: 6500000 instructions simulated : ctaid=(28,0,0) tid=(159,0,0)
GPGPU-Sim uArch: cycles simulated: 140500  inst.: 6317824 (ipc=45.0) sim_rate=59045 (inst/sec) elapsed = 0:0:01:47 / Tue Mar 22 13:00:19 2016
GPGPU-Sim uArch: cycles simulated: 142000  inst.: 6386464 (ipc=45.0) sim_rate=59133 (inst/sec) elapsed = 0:0:01:48 / Tue Mar 22 13:00:20 2016
GPGPU-Sim PTX: 6600000 instructions simulated : ctaid=(38,0,0) tid=(31,0,0)
GPGPU-Sim uArch: cycles simulated: 143000  inst.: 6427584 (ipc=44.9) sim_rate=58968 (inst/sec) elapsed = 0:0:01:49 / Tue Mar 22 13:00:21 2016
GPGPU-Sim uArch: cycles simulated: 144500  inst.: 6486048 (ipc=44.9) sim_rate=58964 (inst/sec) elapsed = 0:0:01:50 / Tue Mar 22 13:00:22 2016
GPGPU-Sim PTX: 6700000 instructions simulated : ctaid=(17,0,0) tid=(159,0,0)
GPGPU-Sim uArch: cycles simulated: 146000  inst.: 6548640 (ipc=44.9) sim_rate=58996 (inst/sec) elapsed = 0:0:01:51 / Tue Mar 22 13:00:23 2016
GPGPU-Sim PTX: 6800000 instructions simulated : ctaid=(39,0,0) tid=(159,0,0)
GPGPU-Sim uArch: cycles simulated: 147500  inst.: 6623104 (ipc=44.9) sim_rate=59134 (inst/sec) elapsed = 0:0:01:52 / Tue Mar 22 13:00:24 2016
GPGPU-Sim uArch: cycles simulated: 149000  inst.: 6696288 (ipc=44.9) sim_rate=59259 (inst/sec) elapsed = 0:0:01:53 / Tue Mar 22 13:00:25 2016
GPGPU-Sim PTX: 6900000 instructions simulated : ctaid=(17,0,0) tid=(95,0,0)
GPGPU-Sim uArch: cycles simulated: 150500  inst.: 6754752 (ipc=44.9) sim_rate=59252 (inst/sec) elapsed = 0:0:01:54 / Tue Mar 22 13:00:26 2016
GPGPU-Sim PTX: 7000000 instructions simulated : ctaid=(20,0,0) tid=(255,0,0)
GPGPU-Sim uArch: cycles simulated: 152000  inst.: 6827104 (ipc=44.9) sim_rate=59366 (inst/sec) elapsed = 0:0:01:55 / Tue Mar 22 13:00:27 2016
GPGPU-Sim uArch: cycles simulated: 153500  inst.: 6885600 (ipc=44.9) sim_rate=59358 (inst/sec) elapsed = 0:0:01:56 / Tue Mar 22 13:00:28 2016
GPGPU-Sim PTX: 7100000 instructions simulated : ctaid=(8,0,0) tid=(159,0,0)
GPGPU-Sim uArch: cycles simulated: 155000  inst.: 6953824 (ipc=44.9) sim_rate=59434 (inst/sec) elapsed = 0:0:01:57 / Tue Mar 22 13:00:29 2016
GPGPU-Sim PTX: 7200000 instructions simulated : ctaid=(5,0,0) tid=(191,0,0)
GPGPU-Sim uArch: cycles simulated: 156500  inst.: 7028128 (ipc=44.9) sim_rate=59560 (inst/sec) elapsed = 0:0:01:58 / Tue Mar 22 13:00:30 2016
GPGPU-Sim PTX: 7300000 instructions simulated : ctaid=(13,0,0) tid=(191,0,0)
GPGPU-Sim uArch: cycles simulated: 158000  inst.: 7091680 (ipc=44.9) sim_rate=59593 (inst/sec) elapsed = 0:0:01:59 / Tue Mar 22 13:00:31 2016
GPGPU-Sim uArch: cycles simulated: 159500  inst.: 7158688 (ipc=44.9) sim_rate=59655 (inst/sec) elapsed = 0:0:02:00 / Tue Mar 22 13:00:32 2016
GPGPU-Sim PTX: 7400000 instructions simulated : ctaid=(29,0,0) tid=(223,0,0)
GPGPU-Sim uArch: cycles simulated: 160500  inst.: 7198048 (ipc=44.8) sim_rate=59488 (inst/sec) elapsed = 0:0:02:01 / Tue Mar 22 13:00:33 2016
GPGPU-Sim uArch: cycles simulated: 162000  inst.: 7263264 (ipc=44.8) sim_rate=59534 (inst/sec) elapsed = 0:0:02:02 / Tue Mar 22 13:00:34 2016
GPGPU-Sim PTX: 7500000 instructions simulated : ctaid=(10,0,0) tid=(255,0,0)
GPGPU-Sim uArch: cycles simulated: 163500  inst.: 7337344 (ipc=44.9) sim_rate=59653 (inst/sec) elapsed = 0:0:02:03 / Tue Mar 22 13:00:35 2016
GPGPU-Sim PTX: 7600000 instructions simulated : ctaid=(28,0,0) tid=(127,0,0)
GPGPU-Sim uArch: cycles simulated: 165000  inst.: 7401344 (ipc=44.9) sim_rate=59688 (inst/sec) elapsed = 0:0:02:04 / Tue Mar 22 13:00:36 2016
GPGPU-Sim uArch: cycles simulated: 166500  inst.: 7462912 (ipc=44.8) sim_rate=59703 (inst/sec) elapsed = 0:0:02:05 / Tue Mar 22 13:00:37 2016
GPGPU-Sim PTX: 7700000 instructions simulated : ctaid=(1,0,0) tid=(31,0,0)
GPGPU-Sim uArch: cycles simulated: 168000  inst.: 7523872 (ipc=44.8) sim_rate=59713 (inst/sec) elapsed = 0:0:02:06 / Tue Mar 22 13:00:38 2016
GPGPU-Sim PTX: 7800000 instructions simulated : ctaid=(11,0,0) tid=(223,0,0)
GPGPU-Sim uArch: cycles simulated: 169000  inst.: 7577472 (ipc=44.8) sim_rate=59665 (inst/sec) elapsed = 0:0:02:07 / Tue Mar 22 13:00:39 2016
GPGPU-Sim uArch: cycles simulated: 170500  inst.: 7647104 (ipc=44.9) sim_rate=59743 (inst/sec) elapsed = 0:0:02:08 / Tue Mar 22 13:00:40 2016
GPGPU-Sim PTX: 7900000 instructions simulated : ctaid=(3,0,0) tid=(31,0,0)
GPGPU-Sim uArch: cycles simulated: 172000  inst.: 7706496 (ipc=44.8) sim_rate=59740 (inst/sec) elapsed = 0:0:02:09 / Tue Mar 22 13:00:41 2016
GPGPU-Sim uArch: cycles simulated: 173500  inst.: 7765440 (ipc=44.8) sim_rate=59734 (inst/sec) elapsed = 0:0:02:10 / Tue Mar 22 13:00:42 2016
GPGPU-Sim PTX: 8000000 instructions simulated : ctaid=(13,0,0) tid=(159,0,0)
GPGPU-Sim uArch: cycles simulated: 175000  inst.: 7844096 (ipc=44.8) sim_rate=59878 (inst/sec) elapsed = 0:0:02:11 / Tue Mar 22 13:00:43 2016
GPGPU-Sim PTX: 8100000 instructions simulated : ctaid=(29,0,0) tid=(127,0,0)
GPGPU-Sim uArch: cycles simulated: 176500  inst.: 7911840 (ipc=44.8) sim_rate=59938 (inst/sec) elapsed = 0:0:02:12 / Tue Mar 22 13:00:44 2016
GPGPU-Sim PTX: 8200000 instructions simulated : ctaid=(26,0,0) tid=(159,0,0)
GPGPU-Sim uArch: cycles simulated: 178000  inst.: 7975712 (ipc=44.8) sim_rate=59967 (inst/sec) elapsed = 0:0:02:13 / Tue Mar 22 13:00:45 2016
GPGPU-Sim uArch: cycles simulated: 179500  inst.: 8039872 (ipc=44.8) sim_rate=59999 (inst/sec) elapsed = 0:0:02:14 / Tue Mar 22 13:00:46 2016
GPGPU-Sim PTX: 8300000 instructions simulated : ctaid=(14,0,0) tid=(255,0,0)
GPGPU-Sim uArch: cycles simulated: 180500  inst.: 8084608 (ipc=44.8) sim_rate=59885 (inst/sec) elapsed = 0:0:02:15 / Tue Mar 22 13:00:47 2016
GPGPU-Sim uArch: cycles simulated: 182000  inst.: 8152416 (ipc=44.8) sim_rate=59944 (inst/sec) elapsed = 0:0:02:16 / Tue Mar 22 13:00:48 2016
GPGPU-Sim PTX: 8400000 instructions simulated : ctaid=(22,0,0) tid=(95,0,0)
GPGPU-Sim uArch: cycles simulated: 183500  inst.: 8213888 (ipc=44.8) sim_rate=59955 (inst/sec) elapsed = 0:0:02:17 / Tue Mar 22 13:00:49 2016
GPGPU-Sim PTX: 8500000 instructions simulated : ctaid=(16,0,0) tid=(127,0,0)
GPGPU-Sim uArch: cycles simulated: 185000  inst.: 8274496 (ipc=44.7) sim_rate=59960 (inst/sec) elapsed = 0:0:02:18 / Tue Mar 22 13:00:50 2016
GPGPU-Sim PTX: 8600000 instructions simulated : ctaid=(40,0,0) tid=(255,0,0)
GPGPU-Sim uArch: cycles simulated: 186500  inst.: 8354080 (ipc=44.8) sim_rate=60101 (inst/sec) elapsed = 0:0:02:19 / Tue Mar 22 13:00:51 2016
GPGPU-Sim uArch: cycles simulated: 188000  inst.: 8417856 (ipc=44.8) sim_rate=60127 (inst/sec) elapsed = 0:0:02:20 / Tue Mar 22 13:00:52 2016
GPGPU-Sim PTX: 8700000 instructions simulated : ctaid=(28,0,0) tid=(191,0,0)
GPGPU-Sim uArch: cycles simulated: 189000  inst.: 8459104 (ipc=44.8) sim_rate=59993 (inst/sec) elapsed = 0:0:02:21 / Tue Mar 22 13:00:53 2016
GPGPU-Sim uArch: cycles simulated: 190500  inst.: 8524832 (ipc=44.7) sim_rate=60034 (inst/sec) elapsed = 0:0:02:22 / Tue Mar 22 13:00:54 2016
GPGPU-Sim PTX: 8800000 instructions simulated : ctaid=(4,0,0) tid=(223,0,0)
GPGPU-Sim uArch: cycles simulated: 192000  inst.: 8590368 (ipc=44.7) sim_rate=60072 (inst/sec) elapsed = 0:0:02:23 / Tue Mar 22 13:00:55 2016
GPGPU-Sim PTX: 8900000 instructions simulated : ctaid=(28,0,0) tid=(159,0,0)
GPGPU-Sim uArch: cycles simulated: 193500  inst.: 8656736 (ipc=44.7) sim_rate=60116 (inst/sec) elapsed = 0:0:02:24 / Tue Mar 22 13:00:56 2016
GPGPU-Sim uArch: cycles simulated: 195000  inst.: 8727520 (ipc=44.8) sim_rate=60189 (inst/sec) elapsed = 0:0:02:25 / Tue Mar 22 13:00:57 2016
GPGPU-Sim PTX: 9000000 instructions simulated : ctaid=(11,0,0) tid=(255,0,0)
GPGPU-Sim uArch: cycles simulated: 196500  inst.: 8792256 (ipc=44.7) sim_rate=60220 (inst/sec) elapsed = 0:0:02:26 / Tue Mar 22 13:00:58 2016
GPGPU-Sim PTX: 9100000 instructions simulated : ctaid=(32,0,0) tid=(95,0,0)
GPGPU-Sim uArch: cycles simulated: 198000  inst.: 8844576 (ipc=44.7) sim_rate=60167 (inst/sec) elapsed = 0:0:02:27 / Tue Mar 22 13:00:59 2016
GPGPU-Sim uArch: cycles simulated: 199000  inst.: 8901152 (ipc=44.7) sim_rate=60142 (inst/sec) elapsed = 0:0:02:28 / Tue Mar 22 13:01:00 2016
GPGPU-Sim PTX: 9200000 instructions simulated : ctaid=(29,0,0) tid=(159,0,0)
GPGPU-Sim uArch: cycles simulated: 200500  inst.: 8978784 (ipc=44.8) sim_rate=60260 (inst/sec) elapsed = 0:0:02:29 / Tue Mar 22 13:01:01 2016
GPGPU-Sim PTX: 9300000 instructions simulated : ctaid=(38,0,0) tid=(223,0,0)
GPGPU-Sim uArch: cycles simulated: 202000  inst.: 9034976 (ipc=44.7) sim_rate=60233 (inst/sec) elapsed = 0:0:02:30 / Tue Mar 22 13:01:02 2016
GPGPU-Sim uArch: cycles simulated: 203500  inst.: 9106560 (ipc=44.7) sim_rate=60308 (inst/sec) elapsed = 0:0:02:31 / Tue Mar 22 13:01:03 2016
GPGPU-Sim PTX: 9400000 instructions simulated : ctaid=(16,0,0) tid=(159,0,0)
GPGPU-Sim uArch: cycles simulated: 205000  inst.: 9176128 (ipc=44.8) sim_rate=60369 (inst/sec) elapsed = 0:0:02:32 / Tue Mar 22 13:01:04 2016
GPGPU-Sim uArch: cycles simulated: 206000  inst.: 9223232 (ipc=44.8) sim_rate=60282 (inst/sec) elapsed = 0:0:02:33 / Tue Mar 22 13:01:05 2016
GPGPU-Sim PTX: 9500000 instructions simulated : ctaid=(1,0,0) tid=(95,0,0)
GPGPU-Sim uArch: cycles simulated: 207500  inst.: 9289568 (ipc=44.8) sim_rate=60321 (inst/sec) elapsed = 0:0:02:34 / Tue Mar 22 13:01:06 2016
GPGPU-Sim PTX: 9600000 instructions simulated : ctaid=(10,0,0) tid=(95,0,0)
GPGPU-Sim uArch: cycles simulated: 209000  inst.: 9354240 (ipc=44.8) sim_rate=60349 (inst/sec) elapsed = 0:0:02:35 / Tue Mar 22 13:01:07 2016
GPGPU-Sim PTX: 9700000 instructions simulated : ctaid=(46,0,0) tid=(223,0,0)
GPGPU-Sim uArch: cycles simulated: 210500  inst.: 9423424 (ipc=44.8) sim_rate=60406 (inst/sec) elapsed = 0:0:02:36 / Tue Mar 22 13:01:08 2016
GPGPU-Sim uArch: cycles simulated: 212000  inst.: 9483680 (ipc=44.7) sim_rate=60405 (inst/sec) elapsed = 0:0:02:37 / Tue Mar 22 13:01:09 2016
GPGPU-Sim PTX: 9800000 instructions simulated : ctaid=(6,0,0) tid=(95,0,0)
GPGPU-Sim uArch: cycles simulated: 213500  inst.: 9544608 (ipc=44.7) sim_rate=60408 (inst/sec) elapsed = 0:0:02:38 / Tue Mar 22 13:01:10 2016
GPGPU-Sim PTX: 9900000 instructions simulated : ctaid=(14,0,0) tid=(31,0,0)
GPGPU-Sim uArch: cycles simulated: 215000  inst.: 9615904 (ipc=44.7) sim_rate=60477 (inst/sec) elapsed = 0:0:02:39 / Tue Mar 22 13:01:11 2016
GPGPU-Sim uArch: cycles simulated: 216500  inst.: 9687168 (ipc=44.7) sim_rate=60544 (inst/sec) elapsed = 0:0:02:40 / Tue Mar 22 13:01:12 2016
GPGPU-Sim PTX: 10000000 instructions simulated : ctaid=(38,0,0) tid=(31,0,0)
GPGPU-Sim uArch: cycles simulated: 217500  inst.: 9736224 (ipc=44.8) sim_rate=60473 (inst/sec) elapsed = 0:0:02:41 / Tue Mar 22 13:01:13 2016
GPGPU-Sim uArch: cycles simulated: 219000  inst.: 9789440 (ipc=44.7) sim_rate=60428 (inst/sec) elapsed = 0:0:02:42 / Tue Mar 22 13:01:14 2016
GPGPU-Sim PTX: 10100000 instructions simulated : ctaid=(5,0,0) tid=(159,0,0)
GPGPU-Sim uArch: cycles simulated: 220500  inst.: 9867936 (ipc=44.8) sim_rate=60539 (inst/sec) elapsed = 0:0:02:43 / Tue Mar 22 13:01:15 2016
GPGPU-Sim PTX: 10200000 instructions simulated : ctaid=(20,0,0) tid=(63,0,0)
GPGPU-Sim uArch: cycles simulated: 222000  inst.: 9935680 (ipc=44.8) sim_rate=60583 (inst/sec) elapsed = 0:0:02:44 / Tue Mar 22 13:01:16 2016
GPGPU-Sim uArch: cycles simulated: 223500  inst.: 9997024 (ipc=44.7) sim_rate=60588 (inst/sec) elapsed = 0:0:02:45 / Tue Mar 22 13:01:17 2016
GPGPU-Sim PTX: 10300000 instructions simulated : ctaid=(25,0,0) tid=(95,0,0)
GPGPU-Sim uArch: cycles simulated: 225000  inst.: 10071264 (ipc=44.8) sim_rate=60670 (inst/sec) elapsed = 0:0:02:46 / Tue Mar 22 13:01:18 2016
GPGPU-Sim PTX: 10400000 instructions simulated : ctaid=(34,0,0) tid=(95,0,0)
GPGPU-Sim uArch: cycles simulated: 226000  inst.: 10116256 (ipc=44.8) sim_rate=60576 (inst/sec) elapsed = 0:0:02:47 / Tue Mar 22 13:01:19 2016
GPGPU-Sim uArch: cycles simulated: 227500  inst.: 10178400 (ipc=44.7) sim_rate=60585 (inst/sec) elapsed = 0:0:02:48 / Tue Mar 22 13:01:20 2016
GPGPU-Sim PTX: 10500000 instructions simulated : ctaid=(9,0,0) tid=(223,0,0)
GPGPU-Sim uArch: cycles simulated: 229000  inst.: 10247712 (ipc=44.7) sim_rate=60637 (inst/sec) elapsed = 0:0:02:49 / Tue Mar 22 13:01:21 2016
GPGPU-Sim PTX: 10600000 instructions simulated : ctaid=(7,0,0) tid=(95,0,0)
GPGPU-Sim uArch: cycles simulated: 230500  inst.: 10304640 (ipc=44.7) sim_rate=60615 (inst/sec) elapsed = 0:0:02:50 / Tue Mar 22 13:01:22 2016
GPGPU-Sim uArch: cycles simulated: 232000  inst.: 10369632 (ipc=44.7) sim_rate=60641 (inst/sec) elapsed = 0:0:02:51 / Tue Mar 22 13:01:23 2016
GPGPU-Sim PTX: 10700000 instructions simulated : ctaid=(36,0,0) tid=(95,0,0)
GPGPU-Sim uArch: cycles simulated: 233500  inst.: 10428896 (ipc=44.7) sim_rate=60633 (inst/sec) elapsed = 0:0:02:52 / Tue Mar 22 13:01:24 2016
GPGPU-Sim uArch: cycles simulated: 234500  inst.: 10467008 (ipc=44.6) sim_rate=60502 (inst/sec) elapsed = 0:0:02:53 / Tue Mar 22 13:01:25 2016
GPGPU-Sim PTX: 10800000 instructions simulated : ctaid=(22,0,0) tid=(31,0,0)
GPGPU-Sim uArch: cycles simulated: 236000  inst.: 10543936 (ipc=44.7) sim_rate=60597 (inst/sec) elapsed = 0:0:02:54 / Tue Mar 22 13:01:26 2016
GPGPU-Sim PTX: 10900000 instructions simulated : ctaid=(36,0,0) tid=(31,0,0)
GPGPU-Sim uArch: cycles simulated: 237500  inst.: 10616544 (ipc=44.7) sim_rate=60665 (inst/sec) elapsed = 0:0:02:55 / Tue Mar 22 13:01:27 2016
GPGPU-Sim uArch: cycles simulated: 239000  inst.: 10671808 (ipc=44.7) sim_rate=60635 (inst/sec) elapsed = 0:0:02:56 / Tue Mar 22 13:01:28 2016
GPGPU-Sim PTX: 11000000 instructions simulated : ctaid=(8,0,0) tid=(95,0,0)
GPGPU-Sim uArch: cycles simulated: 240500  inst.: 10737984 (ipc=44.6) sim_rate=60666 (inst/sec) elapsed = 0:0:02:57 / Tue Mar 22 13:01:29 2016
GPGPU-Sim PTX: 11100000 instructions simulated : ctaid=(34,0,0) tid=(31,0,0)
GPGPU-Sim uArch: cycles simulated: 242000  inst.: 10802240 (ipc=44.6) sim_rate=60686 (inst/sec) elapsed = 0:0:02:58 / Tue Mar 22 13:01:30 2016
GPGPU-Sim uArch: cycles simulated: 243000  inst.: 10854368 (ipc=44.7) sim_rate=60638 (inst/sec) elapsed = 0:0:02:59 / Tue Mar 22 13:01:31 2016
GPGPU-Sim PTX: 11200000 instructions simulated : ctaid=(20,0,0) tid=(95,0,0)
GPGPU-Sim uArch: cycles simulated: 244500  inst.: 10918784 (ipc=44.7) sim_rate=60659 (inst/sec) elapsed = 0:0:03:00 / Tue Mar 22 13:01:32 2016
GPGPU-Sim PTX: 11300000 instructions simulated : ctaid=(41,0,0) tid=(95,0,0)
GPGPU-Sim uArch: cycles simulated: 246000  inst.: 10984672 (ipc=44.7) sim_rate=60688 (inst/sec) elapsed = 0:0:03:01 / Tue Mar 22 13:01:33 2016
GPGPU-Sim uArch: cycles simulated: 247500  inst.: 11047424 (ipc=44.6) sim_rate=60700 (inst/sec) elapsed = 0:0:03:02 / Tue Mar 22 13:01:34 2016
GPGPU-Sim PTX: 11400000 instructions simulated : ctaid=(4,0,0) tid=(255,0,0)
GPGPU-Sim uArch: cycles simulated: 249000  inst.: 11114752 (ipc=44.6) sim_rate=60736 (inst/sec) elapsed = 0:0:03:03 / Tue Mar 22 13:01:35 2016
GPGPU-Sim PTX: 11500000 instructions simulated : ctaid=(35,0,0) tid=(63,0,0)
GPGPU-Sim uArch: cycles simulated: 250500  inst.: 11172448 (ipc=44.6) sim_rate=60719 (inst/sec) elapsed = 0:0:03:04 / Tue Mar 22 13:01:36 2016
GPGPU-Sim uArch: cycles simulated: 251500  inst.: 11218464 (ipc=44.6) sim_rate=60640 (inst/sec) elapsed = 0:0:03:05 / Tue Mar 22 13:01:37 2016
GPGPU-Sim PTX: 11600000 instructions simulated : ctaid=(9,0,0) tid=(31,0,0)
GPGPU-Sim uArch: cycles simulated: 253000  inst.: 11293760 (ipc=44.6) sim_rate=60719 (inst/sec) elapsed = 0:0:03:06 / Tue Mar 22 13:01:38 2016
GPGPU-Sim uArch: cycles simulated: 254500  inst.: 11349888 (ipc=44.6) sim_rate=60694 (inst/sec) elapsed = 0:0:03:07 / Tue Mar 22 13:01:39 2016
GPGPU-Sim PTX: 11700000 instructions simulated : ctaid=(10,0,0) tid=(95,0,0)
GPGPU-Sim uArch: cycles simulated: 256000  inst.: 11418912 (ipc=44.6) sim_rate=60738 (inst/sec) elapsed = 0:0:03:08 / Tue Mar 22 13:01:40 2016
GPGPU-Sim PTX: 11800000 instructions simulated : ctaid=(18,0,0) tid=(159,0,0)
GPGPU-Sim uArch: cycles simulated: 257500  inst.: 11479904 (ipc=44.6) sim_rate=60740 (inst/sec) elapsed = 0:0:03:09 / Tue Mar 22 13:01:41 2016
GPGPU-Sim uArch: cycles simulated: 259000  inst.: 11545312 (ipc=44.6) sim_rate=60764 (inst/sec) elapsed = 0:0:03:10 / Tue Mar 22 13:01:42 2016
GPGPU-Sim PTX: 11900000 instructions simulated : ctaid=(12,0,0) tid=(63,0,0)
GPGPU-Sim uArch: cycles simulated: 260500  inst.: 11622016 (ipc=44.6) sim_rate=60848 (inst/sec) elapsed = 0:0:03:11 / Tue Mar 22 13:01:43 2016
GPGPU-Sim PTX: 12000000 instructions simulated : ctaid=(3,0,0) tid=(159,0,0)
GPGPU-Sim uArch: cycles simulated: 262000  inst.: 11672480 (ipc=44.6) sim_rate=60794 (inst/sec) elapsed = 0:0:03:12 / Tue Mar 22 13:01:44 2016
GPGPU-Sim uArch: cycles simulated: 263000  inst.: 11724000 (ipc=44.6) sim_rate=60746 (inst/sec) elapsed = 0:0:03:13 / Tue Mar 22 13:01:45 2016
GPGPU-Sim PTX: 12100000 instructions simulated : ctaid=(44,0,0) tid=(159,0,0)
GPGPU-Sim uArch: cycles simulated: 264500  inst.: 11787200 (ipc=44.6) sim_rate=60758 (inst/sec) elapsed = 0:0:03:14 / Tue Mar 22 13:01:46 2016
GPGPU-Sim uArch: cycles simulated: 266000  inst.: 11849440 (ipc=44.5) sim_rate=60766 (inst/sec) elapsed = 0:0:03:15 / Tue Mar 22 13:01:47 2016
GPGPU-Sim PTX: 12200000 instructions simulated : ctaid=(43,0,0) tid=(191,0,0)
GPGPU-Sim uArch: cycles simulated: 267500  inst.: 11920512 (ipc=44.6) sim_rate=60818 (inst/sec) elapsed = 0:0:03:16 / Tue Mar 22 13:01:48 2016
GPGPU-Sim PTX: 12300000 instructions simulated : ctaid=(29,0,0) tid=(191,0,0)
GPGPU-Sim uArch: cycles simulated: 269000  inst.: 11979488 (ipc=44.5) sim_rate=60809 (inst/sec) elapsed = 0:0:03:17 / Tue Mar 22 13:01:49 2016
GPGPU-Sim uArch: cycles simulated: 270500  inst.: 12041312 (ipc=44.5) sim_rate=60814 (inst/sec) elapsed = 0:0:03:18 / Tue Mar 22 13:01:50 2016
GPGPU-Sim PTX: 12400000 instructions simulated : ctaid=(38,0,0) tid=(223,0,0)
GPGPU-Sim uArch: cycles simulated: 272000  inst.: 12115680 (ipc=44.5) sim_rate=60882 (inst/sec) elapsed = 0:0:03:19 / Tue Mar 22 13:01:51 2016
GPGPU-Sim PTX: 12500000 instructions simulated : ctaid=(41,0,0) tid=(159,0,0)
GPGPU-Sim uArch: cycles simulated: 273000  inst.: 12161408 (ipc=44.5) sim_rate=60807 (inst/sec) elapsed = 0:0:03:20 / Tue Mar 22 13:01:52 2016
GPGPU-Sim uArch: cycles simulated: 274500  inst.: 12225280 (ipc=44.5) sim_rate=60822 (inst/sec) elapsed = 0:0:03:21 / Tue Mar 22 13:01:53 2016
GPGPU-Sim PTX: 12600000 instructions simulated : ctaid=(39,0,0) tid=(31,0,0)
GPGPU-Sim uArch: cycles simulated: 276000  inst.: 12279328 (ipc=44.5) sim_rate=60788 (inst/sec) elapsed = 0:0:03:22 / Tue Mar 22 13:01:54 2016
GPGPU-Sim PTX: 12700000 instructions simulated : ctaid=(40,0,0) tid=(95,0,0)
GPGPU-Sim uArch: cycles simulated: 277500  inst.: 12354432 (ipc=44.5) sim_rate=60859 (inst/sec) elapsed = 0:0:03:23 / Tue Mar 22 13:01:55 2016
GPGPU-Sim uArch: cycles simulated: 279000  inst.: 12429728 (ipc=44.6) sim_rate=60930 (inst/sec) elapsed = 0:0:03:24 / Tue Mar 22 13:01:56 2016
GPGPU-Sim PTX: 12800000 instructions simulated : ctaid=(35,0,0) tid=(127,0,0)
GPGPU-Sim uArch: cycles simulated: 280500  inst.: 12484992 (ipc=44.5) sim_rate=60902 (inst/sec) elapsed = 0:0:03:25 / Tue Mar 22 13:01:57 2016
GPGPU-Sim PTX: 12900000 instructions simulated : ctaid=(1,0,0) tid=(31,0,0)
GPGPU-Sim uArch: cycles simulated: 282000  inst.: 12549216 (ipc=44.5) sim_rate=60918 (inst/sec) elapsed = 0:0:03:26 / Tue Mar 22 13:01:58 2016
GPGPU-Sim uArch: cycles simulated: 283500  inst.: 12617440 (ipc=44.5) sim_rate=60953 (inst/sec) elapsed = 0:0:03:27 / Tue Mar 22 13:01:59 2016
GPGPU-Sim PTX: 13000000 instructions simulated : ctaid=(38,0,0) tid=(127,0,0)
GPGPU-Sim uArch: cycles simulated: 284500  inst.: 12658432 (ipc=44.5) sim_rate=60857 (inst/sec) elapsed = 0:0:03:28 / Tue Mar 22 13:02:00 2016
GPGPU-Sim uArch: cycles simulated: 286000  inst.: 12721600 (ipc=44.5) sim_rate=60868 (inst/sec) elapsed = 0:0:03:29 / Tue Mar 22 13:02:01 2016
GPGPU-Sim PTX: 13100000 instructions simulated : ctaid=(7,0,0) tid=(127,0,0)
GPGPU-Sim uArch: cycles simulated: 287500  inst.: 12791904 (ipc=44.5) sim_rate=60913 (inst/sec) elapsed = 0:0:03:30 / Tue Mar 22 13:02:02 2016
GPGPU-Sim PTX: 13200000 instructions simulated : ctaid=(8,0,0) tid=(255,0,0)
GPGPU-Sim uArch: cycles simulated: 289000  inst.: 12856800 (ipc=44.5) sim_rate=60932 (inst/sec) elapsed = 0:0:03:31 / Tue Mar 22 13:02:03 2016
GPGPU-Sim PTX: 13300000 instructions simulated : ctaid=(3,0,0) tid=(255,0,0)
GPGPU-Sim uArch: cycles simulated: 290500  inst.: 12934208 (ipc=44.5) sim_rate=61010 (inst/sec) elapsed = 0:0:03:32 / Tue Mar 22 13:02:04 2016
GPGPU-Sim uArch: cycles simulated: 292000  inst.: 13003200 (ipc=44.5) sim_rate=61047 (inst/sec) elapsed = 0:0:03:33 / Tue Mar 22 13:02:05 2016
GPGPU-Sim PTX: 13400000 instructions simulated : ctaid=(45,0,0) tid=(95,0,0)
GPGPU-Sim uArch: cycles simulated: 293500  inst.: 13048320 (ipc=44.5) sim_rate=60973 (inst/sec) elapsed = 0:0:03:34 / Tue Mar 22 13:02:06 2016
GPGPU-Sim uArch: cycles simulated: 294500  inst.: 13096032 (ipc=44.5) sim_rate=60911 (inst/sec) elapsed = 0:0:03:35 / Tue Mar 22 13:02:07 2016
GPGPU-Sim PTX: 13500000 instructions simulated : ctaid=(34,0,0) tid=(63,0,0)
GPGPU-Sim uArch: cycles simulated: 296000  inst.: 13158976 (ipc=44.5) sim_rate=60921 (inst/sec) elapsed = 0:0:03:36 / Tue Mar 22 13:02:08 2016
GPGPU-Sim PTX: 13600000 instructions simulated : ctaid=(15,0,0) tid=(159,0,0)
GPGPU-Sim uArch: cycles simulated: 297500  inst.: 13214048 (ipc=44.4) sim_rate=60894 (inst/sec) elapsed = 0:0:03:37 / Tue Mar 22 13:02:09 2016
GPGPU-Sim uArch: cycles simulated: 299000  inst.: 13293600 (ipc=44.5) sim_rate=60979 (inst/sec) elapsed = 0:0:03:38 / Tue Mar 22 13:02:10 2016
GPGPU-Sim PTX: 13700000 instructions simulated : ctaid=(10,0,0) tid=(191,0,0)
GPGPU-Sim uArch: cycles simulated: 300500  inst.: 13371584 (ipc=44.5) sim_rate=61057 (inst/sec) elapsed = 0:0:03:39 / Tue Mar 22 13:02:11 2016
GPGPU-Sim PTX: 13800000 instructions simulated : ctaid=(0,0,0) tid=(127,0,0)
GPGPU-Sim uArch: cycles simulated: 302000  inst.: 13432608 (ipc=44.5) sim_rate=61057 (inst/sec) elapsed = 0:0:03:40 / Tue Mar 22 13:02:12 2016
GPGPU-Sim uArch: cycles simulated: 303000  inst.: 13464896 (ipc=44.4) sim_rate=60927 (inst/sec) elapsed = 0:0:03:41 / Tue Mar 22 13:02:13 2016
GPGPU-Sim PTX: 13900000 instructions simulated : ctaid=(8,0,0) tid=(95,0,0)
GPGPU-Sim uArch: cycles simulated: 304500  inst.: 13530016 (ipc=44.4) sim_rate=60946 (inst/sec) elapsed = 0:0:03:42 / Tue Mar 22 13:02:14 2016
GPGPU-Sim uArch: cycles simulated: 306000  inst.: 13597856 (ipc=44.4) sim_rate=60976 (inst/sec) elapsed = 0:0:03:43 / Tue Mar 22 13:02:15 2016
GPGPU-Sim PTX: 14000000 instructions simulated : ctaid=(38,0,0) tid=(159,0,0)
GPGPU-Sim uArch: cycles simulated: 307500  inst.: 13656640 (ipc=44.4) sim_rate=60967 (inst/sec) elapsed = 0:0:03:44 / Tue Mar 22 13:02:16 2016
GPGPU-Sim PTX: 14100000 instructions simulated : ctaid=(10,0,0) tid=(223,0,0)
GPGPU-Sim uArch: cycles simulated: 309000  inst.: 13716896 (ipc=44.4) sim_rate=60963 (inst/sec) elapsed = 0:0:03:45 / Tue Mar 22 13:02:17 2016
GPGPU-Sim uArch: cycles simulated: 310500  inst.: 13789216 (ipc=44.4) sim_rate=61014 (inst/sec) elapsed = 0:0:03:46 / Tue Mar 22 13:02:18 2016
GPGPU-Sim PTX: 14200000 instructions simulated : ctaid=(27,0,0) tid=(63,0,0)
GPGPU-Sim uArch: cycles simulated: 312000  inst.: 13852384 (ipc=44.4) sim_rate=61023 (inst/sec) elapsed = 0:0:03:47 / Tue Mar 22 13:02:19 2016
GPGPU-Sim PTX: 14300000 instructions simulated : ctaid=(7,0,0) tid=(95,0,0)
GPGPU-Sim uArch: cycles simulated: 313500  inst.: 13926016 (ipc=44.4) sim_rate=61079 (inst/sec) elapsed = 0:0:03:48 / Tue Mar 22 13:02:20 2016
GPGPU-Sim uArch: cycles simulated: 314500  inst.: 13960768 (ipc=44.4) sim_rate=60964 (inst/sec) elapsed = 0:0:03:49 / Tue Mar 22 13:02:21 2016
GPGPU-Sim PTX: 14400000 instructions simulated : ctaid=(6,0,0) tid=(223,0,0)
GPGPU-Sim uArch: cycles simulated: 316000  inst.: 14032544 (ipc=44.4) sim_rate=61011 (inst/sec) elapsed = 0:0:03:50 / Tue Mar 22 13:02:22 2016
GPGPU-Sim PTX: 14500000 instructions simulated : ctaid=(19,0,0) tid=(31,0,0)
GPGPU-Sim uArch: cycles simulated: 317500  inst.: 14104416 (ipc=44.4) sim_rate=61058 (inst/sec) elapsed = 0:0:03:51 / Tue Mar 22 13:02:23 2016
GPGPU-Sim uArch: cycles simulated: 319000  inst.: 14161952 (ipc=44.4) sim_rate=61042 (inst/sec) elapsed = 0:0:03:52 / Tue Mar 22 13:02:24 2016
GPGPU-Sim PTX: 14600000 instructions simulated : ctaid=(44,0,0) tid=(31,0,0)
GPGPU-Sim uArch: cycles simulated: 320500  inst.: 14220096 (ipc=44.4) sim_rate=61030 (inst/sec) elapsed = 0:0:03:53 / Tue Mar 22 13:02:25 2016
GPGPU-Sim uArch: cycles simulated: 321500  inst.: 14265696 (ipc=44.4) sim_rate=60964 (inst/sec) elapsed = 0:0:03:54 / Tue Mar 22 13:02:26 2016
GPGPU-Sim PTX: 14700000 instructions simulated : ctaid=(11,0,0) tid=(223,0,0)
GPGPU-Sim uArch: cycles simulated: 323000  inst.: 14336768 (ipc=44.4) sim_rate=61007 (inst/sec) elapsed = 0:0:03:55 / Tue Mar 22 13:02:27 2016
GPGPU-Sim PTX: 14800000 instructions simulated : ctaid=(2,0,0) tid=(31,0,0)
GPGPU-Sim uArch: cycles simulated: 324500  inst.: 14395936 (ipc=44.4) sim_rate=60999 (inst/sec) elapsed = 0:0:03:56 / Tue Mar 22 13:02:28 2016
GPGPU-Sim uArch: cycles simulated: 326000  inst.: 14460576 (ipc=44.4) sim_rate=61015 (inst/sec) elapsed = 0:0:03:57 / Tue Mar 22 13:02:29 2016
GPGPU-Sim PTX: 14900000 instructions simulated : ctaid=(2,0,0) tid=(191,0,0)
GPGPU-Sim uArch: cycles simulated: 327500  inst.: 14531200 (ipc=44.4) sim_rate=61055 (inst/sec) elapsed = 0:0:03:58 / Tue Mar 22 13:02:30 2016
GPGPU-Sim PTX: 15000000 instructions simulated : ctaid=(14,0,0) tid=(31,0,0)
GPGPU-Sim uArch: cycles simulated: 329000  inst.: 14589920 (ipc=44.3) sim_rate=61045 (inst/sec) elapsed = 0:0:03:59 / Tue Mar 22 13:02:31 2016
GPGPU-Sim uArch: cycles simulated: 330500  inst.: 14659680 (ipc=44.4) sim_rate=61082 (inst/sec) elapsed = 0:0:04:00 / Tue Mar 22 13:02:32 2016
GPGPU-Sim PTX: 15100000 instructions simulated : ctaid=(42,0,0) tid=(127,0,0)
GPGPU-Sim uArch: cycles simulated: 332000  inst.: 14737248 (ipc=44.4) sim_rate=61150 (inst/sec) elapsed = 0:0:04:01 / Tue Mar 22 13:02:33 2016
GPGPU-Sim PTX: 15200000 instructions simulated : ctaid=(10,0,0) tid=(31,0,0)
GPGPU-Sim uArch: cycles simulated: 333000  inst.: 14786208 (ipc=44.4) sim_rate=61100 (inst/sec) elapsed = 0:0:04:02 / Tue Mar 22 13:02:34 2016
GPGPU-Sim uArch: cycles simulated: 334500  inst.: 14846528 (ipc=44.4) sim_rate=61096 (inst/sec) elapsed = 0:0:04:03 / Tue Mar 22 13:02:35 2016
GPGPU-Sim PTX: 15300000 instructions simulated : ctaid=(28,0,0) tid=(223,0,0)
GPGPU-Sim uArch: cycles simulated: 336000  inst.: 14922304 (ipc=44.4) sim_rate=61156 (inst/sec) elapsed = 0:0:04:04 / Tue Mar 22 13:02:36 2016
GPGPU-Sim PTX: 15400000 instructions simulated : ctaid=(12,0,0) tid=(159,0,0)
GPGPU-Sim uArch: cycles simulated: 337500  inst.: 14988736 (ipc=44.4) sim_rate=61178 (inst/sec) elapsed = 0:0:04:05 / Tue Mar 22 13:02:37 2016
GPGPU-Sim uArch: cycles simulated: 338500  inst.: 15028128 (ipc=44.4) sim_rate=61089 (inst/sec) elapsed = 0:0:04:06 / Tue Mar 22 13:02:38 2016
GPGPU-Sim PTX: 15500000 instructions simulated : ctaid=(8,0,0) tid=(31,0,0)
GPGPU-Sim uArch: cycles simulated: 340000  inst.: 15094816 (ipc=44.4) sim_rate=61112 (inst/sec) elapsed = 0:0:04:07 / Tue Mar 22 13:02:39 2016
GPGPU-Sim PTX: 15600000 instructions simulated : ctaid=(19,0,0) tid=(191,0,0)
GPGPU-Sim uArch: cycles simulated: 341500  inst.: 15165216 (ipc=44.4) sim_rate=61150 (inst/sec) elapsed = 0:0:04:08 / Tue Mar 22 13:02:40 2016
GPGPU-Sim uArch: cycles simulated: 343000  inst.: 15228896 (ipc=44.4) sim_rate=61160 (inst/sec) elapsed = 0:0:04:09 / Tue Mar 22 13:02:41 2016
GPGPU-Sim PTX: 15700000 instructions simulated : ctaid=(42,0,0) tid=(95,0,0)
GPGPU-Sim uArch: cycles simulated: 344500  inst.: 15292672 (ipc=44.4) sim_rate=61170 (inst/sec) elapsed = 0:0:04:10 / Tue Mar 22 13:02:42 2016
GPGPU-Sim PTX: 15800000 instructions simulated : ctaid=(17,0,0) tid=(223,0,0)
GPGPU-Sim uArch: cycles simulated: 346000  inst.: 15362784 (ipc=44.4) sim_rate=61206 (inst/sec) elapsed = 0:0:04:11 / Tue Mar 22 13:02:43 2016
GPGPU-Sim uArch: cycles simulated: 347500  inst.: 15419488 (ipc=44.4) sim_rate=61188 (inst/sec) elapsed = 0:0:04:12 / Tue Mar 22 13:02:44 2016
GPGPU-Sim PTX: 15900000 instructions simulated : ctaid=(27,0,0) tid=(31,0,0)
GPGPU-Sim uArch: cycles simulated: 349000  inst.: 15484224 (ipc=44.4) sim_rate=61202 (inst/sec) elapsed = 0:0:04:13 / Tue Mar 22 13:02:45 2016
GPGPU-Sim PTX: 16000000 instructions simulated : ctaid=(22,0,0) tid=(63,0,0)
GPGPU-Sim uArch: cycles simulated: 350500  inst.: 15558784 (ipc=44.4) sim_rate=61255 (inst/sec) elapsed = 0:0:04:14 / Tue Mar 22 13:02:46 2016
GPGPU-Sim uArch: cycles simulated: 352000  inst.: 15622784 (ipc=44.4) sim_rate=61265 (inst/sec) elapsed = 0:0:04:15 / Tue Mar 22 13:02:47 2016
GPGPU-Sim PTX: 16100000 instructions simulated : ctaid=(18,0,0) tid=(223,0,0)
GPGPU-Sim uArch: cycles simulated: 353500  inst.: 15688768 (ipc=44.4) sim_rate=61284 (inst/sec) elapsed = 0:0:04:16 / Tue Mar 22 13:02:48 2016
GPGPU-Sim uArch: cycles simulated: 354500  inst.: 15728640 (ipc=44.4) sim_rate=61200 (inst/sec) elapsed = 0:0:04:17 / Tue Mar 22 13:02:49 2016
GPGPU-Sim PTX: 16200000 instructions simulated : ctaid=(27,0,0) tid=(31,0,0)
GPGPU-Sim uArch: cycles simulated: 356000  inst.: 15791712 (ipc=44.4) sim_rate=61208 (inst/sec) elapsed = 0:0:04:18 / Tue Mar 22 13:02:50 2016
GPGPU-Sim PTX: 16300000 instructions simulated : ctaid=(16,0,0) tid=(31,0,0)
GPGPU-Sim uArch: cycles simulated: 357500  inst.: 15868960 (ipc=44.4) sim_rate=61270 (inst/sec) elapsed = 0:0:04:19 / Tue Mar 22 13:02:51 2016
GPGPU-Sim uArch: cycles simulated: 359000  inst.: 15933248 (ipc=44.4) sim_rate=61281 (inst/sec) elapsed = 0:0:04:20 / Tue Mar 22 13:02:52 2016
GPGPU-Sim PTX: 16400000 instructions simulated : ctaid=(47,0,0) tid=(31,0,0)
GPGPU-Sim uArch: cycles simulated: 360500  inst.: 15996576 (ipc=44.4) sim_rate=61289 (inst/sec) elapsed = 0:0:04:21 / Tue Mar 22 13:02:53 2016
GPGPU-Sim PTX: 16500000 instructions simulated : ctaid=(9,0,0) tid=(159,0,0)
GPGPU-Sim uArch: cycles simulated: 362000  inst.: 16061504 (ipc=44.4) sim_rate=61303 (inst/sec) elapsed = 0:0:04:22 / Tue Mar 22 13:02:54 2016
GPGPU-Sim uArch: cycles simulated: 363500  inst.: 16128608 (ipc=44.4) sim_rate=61325 (inst/sec) elapsed = 0:0:04:23 / Tue Mar 22 13:02:55 2016
GPGPU-Sim PTX: 16600000 instructions simulated : ctaid=(31,0,0) tid=(223,0,0)
GPGPU-Sim uArch: cycles simulated: 365000  inst.: 16193728 (ipc=44.4) sim_rate=61339 (inst/sec) elapsed = 0:0:04:24 / Tue Mar 22 13:02:56 2016
GPGPU-Sim PTX: 16700000 instructions simulated : ctaid=(0,0,0) tid=(95,0,0)
GPGPU-Sim uArch: cycles simulated: 366500  inst.: 16256224 (ipc=44.4) sim_rate=61344 (inst/sec) elapsed = 0:0:04:25 / Tue Mar 22 13:02:57 2016
GPGPU-Sim PTX: 16800000 instructions simulated : ctaid=(4,0,0) tid=(31,0,0)
GPGPU-Sim uArch: cycles simulated: 368000  inst.: 16325600 (ipc=44.4) sim_rate=61374 (inst/sec) elapsed = 0:0:04:26 / Tue Mar 22 13:02:58 2016
GPGPU-Sim uArch: cycles simulated: 369500  inst.: 16397248 (ipc=44.4) sim_rate=61412 (inst/sec) elapsed = 0:0:04:27 / Tue Mar 22 13:02:59 2016
[...]
traffic_breakdown_coretomem[INST_ACC_R] = 600 {8:75,}
traffic_breakdown_coretomem[TEXTURE_ACC_R] = 23589248 {8:2948656,}
traffic_breakdown_memtocore[CONST_ACC_R] = 1080 {72:15,}
traffic_breakdown_memtocore[GLOBAL_ACC_R] = 13787136 {136:101376,}
traffic_breakdown_memtocore[GLOBAL_ACC_W] = 55296 {8:6912,}
traffic_breakdown_memtocore[INST_ACC_R] = 10200 {136:75,}
traffic_breakdown_memtocore[TEXTURE_ACC_R] = 401017216 {136:2948656,}
maxmrqlatency = 221 
maxdqlatency = 0 
maxmflatency = 9371 
averagemflatency = 578 
max_icnt2mem_latency = 116470 
max_icnt2sh_latency = 2815449 
mrq_lat_table:95552 	1736 	777 	1380 	5890 	1966 	425 	103 	0 	0 	0 	0 	0 	0 	0 	0 	0 	0 	0 	0 	0 	0 	0 	0 	0 	0 	0 	0 	0 	0 	0 	0 	
dq_lat_table:0 	0 	0 	0 	0 	0 	0 	0 	0 	0 	0 	0 	0 	0 	0 	0 	0 	0 	0 	0 	0 	0 	0 	0 	0 	0 	0 	0 	0 	0 	0 	0 	
mf_lat_table:0 	0 	0 	0 	2406 	10554 	37177 	212955 	1146311 	1562869 	40584 	25515 	18566 	22 	0 	0 	0 	0 	0 	0 	0 	0 	0 	0 	0 	0 	0 	0 	0 	0 	0 	0 	
icnt2mem_lat_table:0 	0 	0 	47301 	50160 	82203 	151815 	613340 	1541843 	515443 	16221 	25543 	13143 	13 	5 	2 	2 	0 	0 	0 	0 	0 	0 	0 	
icnt2sh_lat_table:0 	0 	0 	37140 	1587170 	1196835 	205382 	23485 	34 	1 	0 	0 	0 	0 	0 	0 	0 	0 	0 	1467 	1989 	3456 	0 	0 	
mf_lat_pw_table:0 	0 	0 	0 	0 	0 	8 	89 	1144 	4389 	0 	0 	0 	0 	0 	0 	0 	0 	0 	0 	0 	0 	0 	0 	0 	0 	0 	0 	0 	0 	0 	0 	
maximum concurrent accesses to same row:
dram[0]:        32        32        32        32        32        32        32        31        32        31        32        30        32        32        32        32 
dram[1]:        27        32        32        32        32        32        40        30        32        38        32        30        32        32        32        32 
dram[2]:        32        32        32        32        32        32        32        32        31        31        31        31        32        32        32        32 
dram[3]:        32        32        32        32        32        32        32        32        31        31        30        31        32        32        32        32 
dram[4]:        32        32        32        32        32        32        31        32        34        31        33        30        32        32        32        32 
dram[5]:        32        32        32        32        32        32        31        32        31        31        30        30        32        32        32        32 
maximum service time to same row:
dram[0]:     56930     55368     59803     57173     54815     56851     55625     53153     51774     54428     51354     51861     55247     54200     55794     53420 
dram[1]:     55579     56997     55973     58092     57088     61001     54820     58672     54078     59890     56940     61223     54026     59853     54456     55589 
dram[2]:     53710     51119     54265     51656     60037     58010     54810     54084     55489     53490     53478     57256     57440     53469     54181     51547 
dram[3]:     58269     51418     55801     54129     59103     59335     57872     55939     53531     53716     58876     55958     59111     54800     56825     50654 
dram[4]:     51875     53024     53603     53641     50982     55052     47275     54779     51503     53135     52050     57299     53419     51841     51260     52669 
dram[5]:     54422     54144     53101     57773     58377     62486     57406     60370     56199     60682     56013     60224     53705     59488     54436     60250 
average row accesses per activate:
dram[0]:  1.415775  1.353846  1.402145  1.332484  1.477551  1.407503  1.535142  1.510922  1.588235  1.479191  1.565737  1.468059  1.442623  1.341804  1.428378  1.342640 
dram[1]:  1.315920  1.320000  1.326996  1.325316  1.450798  1.407692  1.627907  1.552956  1.515115  1.562889  1.501263  1.513241  1.367876  1.344346  1.350384  1.320000 
dram[2]:  1.317955  1.371429  1.358442  1.387268  1.394839  1.425421  1.462810  1.486747  1.456368  1.492159  1.453202  1.404358  1.314286  1.356868  1.321652  1.343511 
dram[3]:  1.295706  1.315920  1.301863  1.336748  1.386768  1.379874  1.448555  1.495204  1.427273  1.421591  1.395294  1.409856  1.324561  1.336283  1.289377  1.322500 
dram[4]:  1.338403  1.339241  1.381266  1.348837  1.491870  1.408451  1.539409  1.547472  1.614796  1.533414  1.559896  1.456227  1.365633  1.321652  1.383508  1.310644 
dram[5]:  1.367876  1.315068  1.414865  1.300125  1.452957  1.387626  1.520936  1.484262  1.493932  1.542751  1.469059  1.450249  1.400000  1.338403  1.416890  1.340101 
average row locality = 107829/76231 = 1.414503
number of total memory accesses made:
dram[0]:         0         0         0         0         0         0         0         0         0         0         0         0         0         0         0         0 
dram[1]:         0         0         0         0         0         0         0         0         0         0         0         0         0         0         0         0 
dram[2]:         0         0         0         0         0         0         0         0         0         0         0         0         0         0         0         0 
dram[3]:         0         0         0         0         0         0         0         0         0         0         0         0         0         0         0         0 
dram[4]:         0         0         0         0         0         0         0         0         0         0         0         0         0         0         0         0 
dram[5]:         0         0         0         0         0         0         0         0         0         0         0         0         0         0         0         0 
total accesses: 0
min_bank_accesses = 0!
min_chip_accesses = 0!
number of total read accesses:
dram[0]:      1059      1056      1046      1046      1044      1044      1088      1088      1088      1088      1078      1078      1056      1056      1057      1058 
dram[1]:      1058      1056      1047      1047      1044      1044      1088      1088      1088      1088      1078      1078      1056      1058      1056      1056 
dram[2]:      1057      1056      1046      1046      1044      1048      1088      1088      1088      1088      1078      1076      1058      1057      1056      1056 
dram[3]:      1056      1058      1048      1044      1044      1048      1088      1088      1088      1088      1078      1076      1057      1057      1056      1058 
dram[4]:      1056      1058      1047      1044      1044      1048      1088      1088      1088      1088      1078      1076      1057      1056      1057      1059 
dram[5]:      1056      1056      1047      1044      1044      1048      1088      1088      1088      1088      1078      1076      1057      1056      1057      1056 
total reads: 102181
bank skew: 1088/1044 = 1.04
chip skew: 17032/17027 = 1.00
number of total write accesses:
dram[0]:         0         0         0         0        42        44       157       157       154       156       101       117         0         0         0         0 
dram[1]:         0         0         0         0        47        54       172       173       165       167       111       122         0         0         0         0 
dram[2]:         0         0         0         0        37        51       151       146       147       149       102        84         0         0         0         0 
dram[3]:         0         0         0         0        46        49       165       159       168       163       108        97         0         0         0         0 
dram[4]:         0         0         0         0        57        52       162       167       178       174       120       105         0         0         0         0 
dram[5]:         0         0         0         0        37        51       147       138       143       157       109        90         0         0         0         0 
total reads: 5648
min_bank_accesses = 0!
chip skew: 1015/867 = 1.17
average mf latency per bank:
dram[0]:      30886     32533     22088     23261      2192      2124      2089      1971      2130      1963     10340     10624     31590     33558     31064     32450
dram[1]:      32856     32100     23115     23288      2161      2093      2049      1964      2029      1957     10571     10666     32446     33303     32627     33489
dram[2]:      33052     32664     23258     21297      2243      2192      2140      2238      2211      2142     10740     12809     33322     32921     33248     32066
dram[3]:      32185     33209     22746     21898      2088      2248      1948      2072      2029      2029     10105     12656     32355     33466     32235     33378
dram[4]:      31866     32235     23184     21421      2073      2169      2007      1978      1984      2037     10454     12048     33291     33047     32766     32267
dram[5]:      33192     31371     23045     20187      2267      2084      2258      2116      2216      2131     10764     12024     32887     31859     32872     31402
maximum mf latency per bank:
dram[0]:       7149      6573      6869      7183      8531      7643      7880      7166      7272      7193      6961      7615      7918      6849      8563      7665
dram[1]:       6868      8459      8195      8431      7822      8483      7652      6961      7408      8443      7573      6723      7097      7625      7697      7717
dram[2]:       7623      7193      7548      7743      7457      8596      7151      7853      7943      8099      7581      7341      6481      7963      8346      7371
dram[3]:       6963      7577      9371      7147      6861      7795      6907      7441      7708      6731      7188      7688      7151      8017      7049      7823
dram[4]:       7985      8289      7730      7767      7456      8789      7978      7183      7327      8781      8066      7043      7624      8359      8611      7139
dram[5]:       9148      7795      8373      7854      7591      8725      8401      8725      7619      6861      7997      6797      7402      7616      7231      7923

Number of Memory Banks Accessed per Memory Operation per Warp (from 0):
0	0	0	0	0	0	0	0	0	0	0	0	0	0	0	0	0	0	0	0	0	0	0	0	0	0	0	0	0	0	0	0	0	0	0	0	0	0	0	0	0	0	0	0	0	0	0	0	0	0	0	0	0	0	0	0	0	0	0	0	0	0	0	0	0	0	0	0	0	0	0	0	0	0	0	0	0	0	0	0	0	0	0	0	0	0	0	0	0	0	0	0	0	0	0	0	
Average # of Memory Banks Accessed per Memory Operation per Warp=-nan

position of mrq chosen
0	0	0	0	0	0	0	0	0	0	0	0	0	0	0	0	

average position of mrq chosen = -nan
Memory Partition 0: 
Cache L2_bank_000:
MSHR contents

Cache L2_bank_001:
MSHR contents

In Dram Latency Queue (total = 0): 
DRAM[0]: 16 bks, busW=4 BL=8 CL=12, tRRD=2 tCCD=6, tRCD=12 tRAS=28 tRP=12 tRC=40
n_cmd=3716393 n_nop=3655615 n_act=12439 n_pre=12423 n_req=17958 n_rd=34060 n_write=1856 bw_util=0.01933
n_activity=524745 dram_eff=0.1369
bk0: 2118a 3692035i bk1: 2112a 3691246i bk2: 2092a 3691870i bk3: 2092a 3690636i bk4: 2088a 3691405i bk5: 2088a 3690613i bk6: 2176a 3688469i bk7: 2176a 3687812i bk8: 2176a 3689285i bk9: 2176a 3687351i bk10: 2156a 3690085i bk11: 2156a 3688632i bk12: 2112a 3691951i bk13: 2112a 3690382i bk14: 2114a 3691643i bk15: 2116a 3689954i 
dram_util_bins: 0 0 0 0 0 0 0 0 0 0
dram_eff_bins: 0 0 0 0 0 0 0 0 0 0
mrqq: max=16 avg=0.0132968
Memory Partition 1: 
Cache L2_bank_002:
MSHR contents

Cache L2_bank_003:
MSHR contents

In Dram Latency Queue (total = 0): 
DRAM[1]: 16 bks, busW=4 BL=8 CL=12, tRRD=2 tCCD=6, tRCD=12 tRAS=28 tRP=12 tRC=40
n_cmd=3716393 n_nop=3655013 n_act=12657 n_pre=12641 n_req=18041 n_rd=34060 n_write=2022 bw_util=0.01942
n_activity=528504 dram_eff=0.1365
bk0: 2116a 3690102i bk1: 2112a 3690476i bk2: 2094a 3690609i bk3: 2094a 3690265i bk4: 2088a 3690873i bk5: 2088a 3690509i bk6: 2176a 3689068i bk7: 2176a 3687936i bk8: 2176a 3687683i bk9: 2176a 3688075i bk10: 2156a 3689015i bk11: 2156a 3688793i bk12: 2112a 3690882i bk13: 2116a 3690371i bk14: 2112a 3690464i bk15: 2112a 3690161i 
dram_util_bins: 0 0 0 0 0 0 0 0 0 0
dram_eff_bins: 0 0 0 0 0 0 0 0 0 0
mrqq: max=16 avg=0.0202796
Memory Partition 2: 
Cache L2_bank_004:
MSHR contents

Cache L2_bank_005:
MSHR contents

In Dram Latency Queue (total = 0): 
DRAM[2]: 16 bks, busW=4 BL=8 CL=12, tRRD=2 tCCD=6, tRCD=12 tRAS=28 tRP=12 tRC=40
n_cmd=3716393 n_nop=3655009 n_act=12803 n_pre=12787 n_req=17897 n_rd=34060 n_write=1734 bw_util=0.01926
n_activity=530380 dram_eff=0.135
bk0: 2114a 3690184i bk1: 2112a 3691231i bk2: 2092a 3691307i bk3: 2092a 3691443i bk4: 2088a 3690645i bk5: 2096a 3690409i bk6: 2176a 3687124i bk7: 2176a 3687341i bk8: 2176a 3687031i bk9: 2176a 3687405i bk10: 2156a 3688714i bk11: 2152a 3688250i bk12: 2116a 3689929i bk13: 2114a 3690482i bk14: 2112a 3690242i bk15: 2112a 3690340i 
dram_util_bins: 0 0 0 0 0 0 0 0 0 0
dram_eff_bins: 0 0 0 0 0 0 0 0 0 0
mrqq: max=16 avg=0.0155175
Memory Partition 3: 
Cache L2_bank_006:
MSHR contents

Cache L2_bank_007:
MSHR contents

In Dram Latency Queue (total = 0): 
DRAM[3]: 16 bks, busW=4 BL=8 CL=12, tRRD=2 tCCD=6, tRCD=12 tRAS=28 tRP=12 tRC=40
n_cmd=3716393 n_nop=3654165 n_act=13135 n_pre=13119 n_req=17987 n_rd=34064 n_write=1910 bw_util=0.01936
n_activity=540151 dram_eff=0.1332
bk0: 2112a 3689925i bk1: 2116a 3690285i bk2: 2096a 3689981i bk3: 2088a 3690567i bk4: 2088a 3690241i bk5: 2096a 3689811i bk6: 2176a 3686547i bk7: 2176a 3687665i bk8: 2176a 3686518i bk9: 2176a 3686301i bk10: 2156a 3687460i bk11: 2152a 3688364i bk12: 2114a 3690062i bk13: 2114a 3690387i bk14: 2112a 3689750i bk15: 2116a 3689942i 
dram_util_bins: 0 0 0 0 0 0 0 0 0 0
dram_eff_bins: 0 0 0 0 0 0 0 0 0 0
mrqq: max=16 avg=0.0140693
Memory Partition 4: 
Cache L2_bank_008:
MSHR contents

Cache L2_bank_009:
MSHR contents

In Dram Latency Queue (total = 0): 
DRAM[4]: 16 bks, busW=4 BL=8 CL=12, tRRD=2 tCCD=6, tRCD=12 tRAS=28 tRP=12 tRC=40
n_cmd=3716393 n_nop=3655147 n_act=12584 n_pre=12568 n_req=18047 n_rd=34064 n_write=2030 bw_util=0.01942
n_activity=527270 dram_eff=0.1369
bk0: 2112a 3690706i bk1: 2116a 3690623i bk2: 2094a 3691252i bk3: 2088a 3691082i bk4: 2088a 3690877i bk5: 2096a 3690223i bk6: 2176a 3687953i bk7: 2176a 3687815i bk8: 2176a 3688586i bk9: 2176a 3687596i bk10: 2156a 3689747i bk11: 2152a 3688692i bk12: 2114a 3690969i bk13: 2112a 3689922i bk14: 2114a 3690813i bk15: 2118a 3690074i 
dram_util_bins: 0 0 0 0 0 0 0 0 0 0
dram_eff_bins: 0 0 0 0 0 0 0 0 0 0
mrqq: max=16 avg=0.0193513
Memory Partition 5: 
Cache L2_bank_010:
MSHR contents

Cache L2_bank_011:
MSHR contents

In Dram Latency Queue (total = 0): 
DRAM[5]: 16 bks, busW=4 BL=8 CL=12, tRRD=2 tCCD=6, tRCD=12 tRAS=28 tRP=12 tRC=40
n_cmd=3716393 n_nop=3655385 n_act=12613 n_pre=12597 n_req=17899 n_rd=34054 n_write=1744 bw_util=0.01926
n_activity=529298 dram_eff=0.1353
bk0: 2112a 3691272i bk1: 2112a 3690553i bk2: 2094a 3691805i bk3: 2088a 3690320i bk4: 2088a 3691046i bk5: 2096a 3690078i bk6: 2176a 3687816i bk7: 2176a 3687543i bk8: 2176a 3687859i bk9: 2176a 3687826i bk10: 2156a 3688490i bk11: 2152a 3688962i bk12: 2114a 3691187i bk13: 2112a 3690117i bk14: 2114a 3691661i bk15: 2112a 3690486i 
dram_util_bins: 0 0 0 0 0 0 0 0 0 0
dram_eff_bins: 0 0 0 0 0 0 0 0 0 0
mrqq: max=16 avg=0.0163244

========= L2 cache stats =========
L2_cache_bank[0]: Access = 253024, Miss = 8516, Miss_rate = 0.034, Pending_hits = 190, Reservation_fails = 506
L2_cache_bank[1]: Access = 256092, Miss = 8514, Miss_rate = 0.033, Pending_hits = 209, Reservation_fails = 4
L2_cache_bank[2]: Access = 254287, Miss = 8515, Miss_rate = 0.033, Pending_hits = 270, Reservation_fails = 281
L2_cache_bank[3]: Access = 254781, Miss = 8515, Miss_rate = 0.033, Pending_hits = 281, Reservation_fails = 31
L2_cache_bank[4]: Access = 255384, Miss = 8515, Miss_rate = 0.033, Pending_hits = 106, Reservation_fails = 17
L2_cache_bank[5]: Access = 254600, Miss = 8515, Miss_rate = 0.033, Pending_hits = 103, Reservation_fails = 207
L2_cache_bank[6]: Access = 254981, Miss = 8515, Miss_rate = 0.033, Pending_hits = 207, Reservation_fails = 2
L2_cache_bank[7]: Access = 256182, Miss = 8517, Miss_rate = 0.033, Pending_hits = 190, Reservation_fails = 252
L2_cache_bank[8]: Access = 254802, Miss = 8515, Miss_rate = 0.033, Pending_hits = 276, Reservation_fails = 262
L2_cache_bank[9]: Access = 255325, Miss = 8517, Miss_rate = 0.033, Pending_hits = 259, Reservation_fails = 36
L2_cache_bank[10]: Access = 254866, Miss = 8515, Miss_rate = 0.033, Pending_hits = 119, Reservation_fails = 181
L2_cache_bank[11]: Access = 252710, Miss = 8512, Miss_rate = 0.034, Pending_hits = 113, Reservation_fails = 17
L2_total_cache_accesses = 3057034
L2_total_cache_misses = 102181
L2_total_cache_miss_rate = 0.0334
L2_total_cache_pending_hits = 2323
L2_total_cache_reservation_fails = 1796
L2_total_cache_breakdown:
	L2_cache_stats_breakdown[GLOBAL_ACC_R][HIT] = 1594
	L2_cache_stats_breakdown[GLOBAL_ACC_R][HIT_RESERVED] = 11
	L2_cache_stats_breakdown[GLOBAL_ACC_R][MISS] = 99771
	L2_cache_stats_breakdown[GLOBAL_ACC_R][RESERVATION_FAIL] = 1251
	L2_cache_stats_breakdown[CONST_ACC_R][HIT] = 11
	L2_cache_stats_breakdown[CONST_ACC_R][HIT_RESERVED] = 3
	L2_cache_stats_breakdown[CONST_ACC_R][MISS] = 1
	L2_cache_stats_breakdown[CONST_ACC_R][RESERVATION_FAIL] = 95
	L2_cache_stats_breakdown[TEXTURE_ACC_R][HIT] = 2948526
	L2_cache_stats_breakdown[TEXTURE_ACC_R][HIT_RESERVED] = 30
	L2_cache_stats_breakdown[TEXTURE_ACC_R][MISS] = 100
	L2_cache_stats_breakdown[GLOBAL_ACC_W][HIT] = 2335
	L2_cache_stats_breakdown[GLOBAL_ACC_W][HIT_RESERVED] = 2273
	L2_cache_stats_breakdown[GLOBAL_ACC_W][MISS] = 2304
	L2_cache_stats_breakdown[GLOBAL_ACC_W][RESERVATION_FAIL] = 212
	L2_cache_stats_breakdown[INST_ACC_R][HIT] = 64
	L2_cache_stats_breakdown[INST_ACC_R][HIT_RESERVED] = 6
	L2_cache_stats_breakdown[INST_ACC_R][MISS] = 5
	L2_cache_stats_breakdown[INST_ACC_R][RESERVATION_FAIL] = 238
L2_cache_data_port_util = 0.350
L2_cache_fill_port_util = 0.012

icnt_total_pkts_mem_to_simt=15257492
icnt_total_pkts_simt_to_mem=3084682
LD_mem_lat_dist  0 0 0 0 0 0 0 0 0 0 0 0 0 0 0 0 0 0 0 0 0 0 0 0 0 0 0
ST_mem_lat_dist  0 0 0 0 0 0 0 0 0 0 0 0 0 0 0 0 0 0 0 0 0 0 0 0 0 0 0
----------------------------Interconnect-DETAILS--------------------------------
Class 0:
Packet latency average = 123.585
	minimum = 6
	maximum = 1065
Network latency average = 68.6062
	minimum = 6
	maximum = 830
Slowest packet = 3059247
Flit latency average = 33.9586
	minimum = 6
	maximum = 830
Slowest flit = 12676102
Fragmentation average = 0.0126035
	minimum = 0
	maximum = 188
Injected packet rate average = 0.0803923
	minimum = 0.067748 (at node 1)
	maximum = 0.0908942 (at node 16)
Accepted packet rate average = 0.0803923
	minimum = 0.067748 (at node 1)
	maximum = 0.0908942 (at node 16)
Injected flit rate average = 0.241177
	minimum = 0.0683615 (at node 1)
	maximum = 0.453653 (at node 16)
Accepted flit rate average= 0.241177
	minimum = 0.0905384 (at node 26)
	maximum = 0.451402 (at node 5)
Injected packet length average = 3
Accepted packet length average = 3
Total in-flight flits = 0 (0 measured)
====== Overall Traffic Statistics ======
====== Traffic class 0 ======
Packet latency average = 123.656 (2 samples)
	minimum = 6 (2 samples)
	maximum = 1111 (2 samples)
Network latency average = 68.6035 (2 samples)
	minimum = 6 (2 samples)
	maximum = 861 (2 samples)
Flit latency average = 33.9513 (2 samples)
	minimum = 6 (2 samples)
	maximum = 861 (2 samples)
Fragmentation average = 0.0127419 (2 samples)
	minimum = 0 (2 samples)
	maximum = 221 (2 samples)
Injected packet rate average = 0.0804301 (2 samples)
	minimum = 0.0677686 (2 samples)
	maximum = 0.0909986 (2 samples)
Accepted packet rate average = 0.0804301 (2 samples)
	minimum = 0.0677686 (2 samples)
	maximum = 0.0909986 (2 samples)
Injected flit rate average = 0.24129 (2 samples)
	minimum = 0.0683823 (2 samples)
	maximum = 0.454175 (2 samples)
Accepted flit rate average = 0.24129 (2 samples)
	minimum = 0.0905767 (2 samples)
	maximum = 0.451873 (2 samples)
Injected packet size average = 3 (2 samples)
Accepted packet size average = 3 (2 samples)
Hops average = 1 (2 samples)
