

        *** GPGPU-Sim Simulator Version 3.2.2  [build 0] ***


GPGPU-Sim PTX: simulation mode 0 (can change with PTX_SIM_MODE_FUNC environment variable:
               1=functional simulation only, 0=detailed performance simulator)
GPGPU-Sim: Configuration options:

-network_mode                           1 # Interconnection network mode
-inter_config_file   config_fermi_islip.icnt # Interconnection network config file
-gpgpu_ptx_use_cuobjdump                    1 # Use cuobjdump to extract ptx and sass from binaries
-gpgpu_experimental_lib_support                    0 # Try to extract code from cuda libraries [Broken because of unknown cudaGetExportTable]
-gpgpu_ptx_convert_to_ptxplus                    0 # Convert SASS (native ISA) to ptxplus and run ptxplus
-gpgpu_ptx_force_max_capability                   20 # Force maximum compute capability
-gpgpu_ptx_inst_debug_to_file                    0 # Dump executed instructions' debug information to file
-gpgpu_ptx_inst_debug_file       inst_debug.txt # Executed instructions' debug output file
-gpgpu_ptx_inst_debug_thread_uid                    1 # Thread UID for executed instructions' debug output
-gpgpu_simd_model                       1 # 1 = post-dominator
-gpgpu_shader_core_pipeline              1536:32 # shader core pipeline config, i.e., {<nthread>:<warpsize>}
-gpgpu_tex_cache:l1  4:128:24,L:R:m:N:L,F:128:4,128:2 # per-shader L1 texture cache  (READ-ONLY) config  {<nsets>:<bsize>:<assoc>,<rep>:<wr>:<alloc>:<wr_alloc>,<mshr>:<N>:<merge>,<mq>:<rf>}
-gpgpu_const_cache:l1 64:64:2,L:R:f:N:L,A:2:32,4 # per-shader L1 constant memory cache  (READ-ONLY) config  {<nsets>:<bsize>:<assoc>,<rep>:<wr>:<alloc>:<wr_alloc>,<mshr>:<N>:<merge>,<mq>} 
-gpgpu_cache:il1     4:128:4,L:R:f:N:L,A:2:32,4 # shader L1 instruction cache config  {<nsets>:<bsize>:<assoc>,<rep>:<wr>:<alloc>:<wr_alloc>,<mshr>:<N>:<merge>,<mq>} 
-gpgpu_cache:dl1     32:128:4,L:L:m:N:H,A:32:8,8:2,0,1:0:1:1:0:1,1:4:8:16:32:64,/sciclone/data10/hwang07/GPU_RESEARCH/swl/swl_outputs/RESULTS/swl2/ # per-shader L1 data cache config  {<nsets>:<bsize>:<assoc>,<rep>:<wr>:<alloc>:<wr_alloc>,<mshr>:<N>:<merge>,<mq> | none}
-gpgpu_cache:dl1PrefL1                 none # per-shader L1 data cache config  {<nsets>:<bsize>:<assoc>,<rep>:<wr>:<alloc>:<wr_alloc>,<mshr>:<N>:<merge>,<mq> | none}
-gpgpu_cache:dl1PreShared                 none # per-shader L1 data cache config  {<nsets>:<bsize>:<assoc>,<rep>:<wr>:<alloc>:<wr_alloc>,<mshr>:<N>:<merge>,<mq> | none}
-gmem_skip_L1D                          0 # global memory access skip L1D cache (implements -Xptxas -dlcm=cg, default=no skip)
-gpgpu_perfect_mem                      0 # enable perfect memory mode (no cache miss)
-n_regfile_gating_group                    4 # group of lanes that should be read/written together)
-gpgpu_clock_gated_reg_file                    0 # enable clock gated reg file for power calculations
-gpgpu_clock_gated_lanes                    0 # enable clock gated lanes for power calculations
-gpgpu_shader_registers                32768 # Number of registers per shader core. Limits number of concurrent CTAs. (default 8192)
-gpgpu_shader_cta                       8 # Maximum number of concurrent CTAs in shader (default 8)
-gpgpu_num_cta_barriers                   16 # Maximum number of named barriers per CTA (default 16)
-gpgpu_n_clusters                      15 # number of processing clusters
-gpgpu_n_cores_per_cluster                    1 # number of simd cores per cluster
-gpgpu_n_cluster_ejection_buffer_size                    8 # number of packets in ejection buffer
-gpgpu_n_ldst_response_buffer_size                    2 # number of response packets in ld/st unit ejection buffer
-gpgpu_shmem_size                   16384 # Size of shared memory per shader core (default 16kB)
-gpgpu_shmem_size                   49152 # Size of shared memory per shader core (default 16kB)
-gpgpu_shmem_size_PrefL1                16384 # Size of shared memory per shader core (default 16kB)
-gpgpu_shmem_size_PrefShared                16384 # Size of shared memory per shader core (default 16kB)
-gpgpu_shmem_num_banks                   32 # Number of banks in the shared memory in each shader core (default 16)
-gpgpu_shmem_limited_broadcast                    0 # Limit shared memory to do one broadcast per cycle (default on)
-gpgpu_shmem_warp_parts                    1 # Number of portions a warp is divided into for shared memory bank conflict check 
-gpgpu_warpdistro_shader                   -1 # Specify which shader core to collect the warp size distribution from
-gpgpu_warp_issue_shader                    0 # Specify which shader core to collect the warp issue distribution from
-gpgpu_local_mem_map                    1 # Mapping from local memory space address to simulated GPU physical address space (default = enabled)
-gpgpu_num_reg_banks                   16 # Number of register banks (default = 8)
-gpgpu_reg_bank_use_warp_id                    0 # Use warp ID in mapping registers to banks (default = off)
-gpgpu_operand_collector_num_units_sp                    6 # number of collector units (default = 4)
-gpgpu_operand_collector_num_units_sfu                    8 # number of collector units (default = 4)
-gpgpu_operand_collector_num_units_mem                    2 # number of collector units (default = 2)
-gpgpu_operand_collector_num_units_gen                    0 # number of collector units (default = 0)
-gpgpu_operand_collector_num_in_ports_sp                    2 # number of collector unit in ports (default = 1)
-gpgpu_operand_collector_num_in_ports_sfu                    1 # number of collector unit in ports (default = 1)
-gpgpu_operand_collector_num_in_ports_mem                    1 # number of collector unit in ports (default = 1)
-gpgpu_operand_collector_num_in_ports_gen                    0 # number of collector unit in ports (default = 0)
-gpgpu_operand_collector_num_out_ports_sp                    2 # number of collector unit in ports (default = 1)
-gpgpu_operand_collector_num_out_ports_sfu                    1 # number of collector unit in ports (default = 1)
-gpgpu_operand_collector_num_out_ports_mem                    1 # number of collector unit in ports (default = 1)
-gpgpu_operand_collector_num_out_ports_gen                    0 # number of collector unit in ports (default = 0)
-gpgpu_coalesce_arch                   13 # Coalescing arch (default = 13, anything else is off for now)
-gpgpu_num_sched_per_core                    2 # Number of warp schedulers per core
-gpgpu_max_insn_issue_per_warp                    1 # Max number of instructions that can be issued per warp in one cycle by scheduler
-gpgpu_simt_core_sim_order                    1 # Select the simulation order of cores in a cluster (0=Fix, 1=Round-Robin)
-gpgpu_pipeline_widths        2,1,1,2,1,1,2 # Pipeline widths ID_OC_SP,ID_OC_SFU,ID_OC_MEM,OC_EX_SP,OC_EX_SFU,OC_EX_MEM,EX_WB
-gpgpu_num_sp_units                     2 # Number of SP units (default=1)
-gpgpu_num_sfu_units                    1 # Number of SF units (default=1)
-gpgpu_num_mem_units                    1 # Number if ldst units (default=1) WARNING: not hooked up to anything
-gpgpu_scheduler        warp_limiting:2:2 # Scheduler configuration: < lrr | gto | two_level_active > If two_level_active:<num_active_warps>:<inner_prioritization>:<outer_prioritization>For complete list of prioritization values see shader.h enum scheduler_prioritization_typeDefault: gto
-gpgpu_dram_scheduler                    1 # 0 = fifo, 1 = FR-FCFS (defaul)
-gpgpu_dram_partition_queues              8:8:8:8 # i2$:$2d:d2$:$2i
-l2_ideal                               0 # Use a ideal L2 cache that always hit
-gpgpu_cache:dl2     64:128:8,L:B:m:W:L,A:32:4,4:0,32 # unified banked L2 data cache config  {<nsets>:<bsize>:<assoc>,<rep>:<wr>:<alloc>:<wr_alloc>,<mshr>:<N>:<merge>,<mq>}
-gpgpu_cache:dl2_texture_only                    0 # L2 cache used for texture only
-gpgpu_n_mem                            6 # number of memory modules (e.g. memory controllers) in gpu
-gpgpu_n_sub_partition_per_mchannel                    2 # number of memory subpartition in each memory module
-gpgpu_n_mem_per_ctrlr                    2 # number of memory chips per memory controller
-gpgpu_memlatency_stat                   14 # track and display latency statistics 0x2 enables MC, 0x4 enables queue logs
-gpgpu_frfcfs_dram_sched_queue_size                   16 # 0 = unlimited (default); # entries per chip
-gpgpu_dram_return_queue_size                  116 # 0 = unlimited (default); # entries per chip
-gpgpu_dram_buswidth                    4 # default = 4 bytes (8 bytes per cycle at DDR)
-gpgpu_dram_burst_length                    8 # Burst length of each DRAM request (default = 4 data bus cycle)
-dram_data_command_freq_ratio                    4 # Frequency ratio between DRAM data bus and command bus (default = 2 times, i.e. DDR)
-gpgpu_dram_timing_opt nbk=16:CCD=2:RRD=6:RCD=12:RAS=28:RP=12:RC=40: CL=12:WL=4:CDLR=5:WR=12:nbkgrp=4:CCDL=3:RTPL=2 # DRAM timing parameters = {nbk:tCCD:tRRD:tRCD:tRAS:tRP:tRC:CL:WL:tCDLR:tWR:nbkgrp:tCCDL:tRTPL}
-rop_latency                          120 # ROP queue latency (default 85)
-dram_latency                         100 # DRAM latency (default 30)
-gpgpu_mem_addr_mapping dramid@8;00000000.00000000.00000000.00000000.0000RRRR.RRRRRRRR.BBBCCCCB.CCSSSSSS # mapping memory address to dram model {dramid@<start bit>;<memory address map>}
-gpgpu_mem_addr_test                    0 # run sweep test to check address mapping for aliased address
-gpgpu_mem_address_mask                    1 # 0 = old addressing mask, 1 = new addressing mask, 2 = new add. mask + flipped bank sel and chip sel bits
-gpuwattch_xml_file  gpuwattch_gtx480.xml # GPUWattch XML file
-power_simulation_enabled                    0 # Turn on power simulator (1=On, 0=Off)
-power_per_cycle_dump                    0 # Dump detailed power output each cycle
-power_trace_enabled                    0 # produce a file for the power trace (1=On, 0=Off)
-power_trace_zlevel                     6 # Compression level of the power trace output log (0=no comp, 9=highest)
-steady_power_levels_enabled                    0 # produce a file for the steady power levels (1=On, 0=Off)
-steady_state_definition                  8:4 # allowed deviation:number of samples
-gpgpu_max_cycle                        0 # terminates gpu simulation early (0 = no limit)
-gpgpu_max_insn                         0 # terminates gpu simulation early (0 = no limit)
-gpgpu_max_cta                          0 # terminates gpu simulation early (0 = no limit)
-gpgpu_runtime_stat                   500 # display runtime statistics such as dram utilization {<freq>:<flag>}
-liveness_message_freq                    1 # Minimum number of seconds between simulation liveness messages (0 = always print)
-gpgpu_flush_l1_cache                    0 # Flush L1 cache at the end of each kernel call
-gpgpu_flush_l2_cache                    0 # Flush L2 cache at the end of each kernel call
-gpgpu_deadlock_detect                    1 # Stop the simulation at deadlock (1=on (default), 0=off)
-gpgpu_ptx_instruction_classification                    0 # if enabled will classify ptx instruction types per kernel (Max 255 kernels now)
-gpgpu_ptx_sim_mode                     0 # Select between Performance (default) or Functional simulation (1)
-gpgpu_clock_domains 700.0:700.0:700.0:924.0 # Clock Domain Frequencies in MhZ {<Core Clock>:<ICNT Clock>:<L2 Clock>:<DRAM Clock>}
-gpgpu_max_concurrent_kernel                    8 # maximum kernels that can run concurrently on GPU
-gpgpu_cflog_interval                    0 # Interval between each snapshot in control flow logger
-visualizer_enabled                     0 # Turn on visualizer output (1=On, 0=Off)
-visualizer_outputfile                 NULL # Specifies the output log file for visualizer
-visualizer_zlevel                      6 # Compression level of the visualizer output log (0=no comp, 9=highest)
-trace_enabled                          0 # Turn on traces
-trace_components                    none # comma seperated list of traces to enable. Complete list found in trace_streams.tup. Default none
-trace_sampling_core                    0 # The core which is printed using CORE_DPRINTF. Default 0
-trace_sampling_memory_partition                   -1 # The memory partition which is printed using MEMPART_DPRINTF. Default -1 (i.e. all)
-enable_ptx_file_line_stats                    1 # Turn on PTX source line statistic profiling. (1 = On)
-ptx_line_stats_filename gpgpu_inst_stats.txt # Output file for PTX source line statistics.
-save_embedded_ptx                      0 # saves ptx files embedded in binary as <n>.ptx
-keep                                   0 # keep intermediate files created by GPGPU-Sim when interfacing with external programs
-gpgpu_ptx_save_converted_ptxplus                    0 # Saved converted ptxplus to a file
-ptx_opcode_latency_int         4,13,4,5,145 # Opcode latencies for integers <ADD,MAX,MUL,MAD,DIV>Default 1,1,19,25,145
-ptx_opcode_latency_fp          4,13,4,5,39 # Opcode latencies for single precision floating points <ADD,MAX,MUL,MAD,DIV>Default 1,1,1,1,30
-ptx_opcode_latency_dp         8,19,8,8,330 # Opcode latencies for double precision floating points <ADD,MAX,MUL,MAD,DIV>Default 8,8,8,8,335
-ptx_opcode_initiation_int            1,2,2,1,8 # Opcode initiation intervals for integers <ADD,MAX,MUL,MAD,DIV>Default 1,1,4,4,32
-ptx_opcode_initiation_fp            1,2,1,1,4 # Opcode initiation intervals for single precision floating points <ADD,MAX,MUL,MAD,DIV>Default 1,1,1,1,5
-ptx_opcode_initiation_dp         8,16,8,8,130 # Opcode initiation intervals for double precision floating points <ADD,MAX,MUL,MAD,DIV>Default 8,8,8,8,130
DRAM Timing Options:
nbk                                    16 # number of banks
CCD                                     2 # column to column delay
RRD                                     6 # minimal delay between activation of rows in different banks
RCD                                    12 # row to column delay
RAS                                    28 # time needed to activate row
RP                                     12 # time needed to precharge (deactivate) row
RC                                     40 # row cycle time
CDLR                                    5 # switching from write to read (changes tWTR)
WR                                     12 # last data-in to row precharge
CL                                     12 # CAS latency
WL                                      4 # Write latency
nbkgrp                                  4 # number of bank groups
CCDL                                    3 # column to column delay between accesses to different bank groups
RTPL                                    2 # read to precharge delay between accesses to different bank groups
Total number of memory sub partition = 12
addr_dec_mask[CHIP]  = 0000000000000000 	high:64 low:0
addr_dec_mask[BK]    = 000000000000e100 	high:16 low:8
addr_dec_mask[ROW]   = 000000000fff0000 	high:28 low:16
addr_dec_mask[COL]   = 0000000000001eff 	high:13 low:0
addr_dec_mask[BURST] = 000000000000003f 	high:6 low:0
sub_partition_id_mask = 0000000000000100
GPGPU-Sim uArch: clock freqs: 700000000.000000:700000000.000000:700000000.000000:924000000.000000
GPGPU-Sim uArch: clock periods: 0.00000000142857142857:0.00000000142857142857:0.00000000142857142857:0.00000000108225108225
*** Initializing Memory Statistics ***
GPGPU-Sim uArch: interconnect node map (shaderID+MemID to icntID)
GPGPU-Sim uArch: Memory nodes ID start from index: 15
GPGPU-Sim uArch:    0   1   2   3   4
GPGPU-Sim uArch:    5   6   7   8   9
GPGPU-Sim uArch:   10  11  12  13  14
GPGPU-Sim uArch:   15  16  17  18  19
GPGPU-Sim uArch:   20  21  22  23  24
GPGPU-Sim uArch:   25  26
GPGPU-Sim uArch: interconnect node reverse map (icntID to shaderID+MemID)
GPGPU-Sim uArch: Memory nodes start from ID: 15
GPGPU-Sim uArch:    0   1   2   3   4
GPGPU-Sim uArch:    5   6   7   8   9
GPGPU-Sim uArch:   10  11  12  13  14
GPGPU-Sim uArch:   15  16  17  18  19
GPGPU-Sim uArch:   20  21  22  23  24
GPGPU-Sim uArch:   25  26
4d7f83d3ae15b575ff42959a5a0368ed  /sciclone/data10/hwang07/adwait/applications/benchmarks/rodinia/cuda/nw/gpgpu_ptx_sim__nw
GPGPU-Sim uArch: performance model initialization complete.
GPGPU-Sim PTX: __cudaRegisterFatBinary, fat_cubin_handle = 1, filename=needle.cu
self exe links to: /sciclone/data10/hwang07/adwait/applications/benchmarks/rodinia/cuda/nw/gpgpu_ptx_sim__nw
Running md5sum using "md5sum /sciclone/data10/hwang07/adwait/applications/benchmarks/rodinia/cuda/nw/gpgpu_ptx_sim__nw "
Parsing file _cuobjdump_complete_output_C9vq2e
######### cuobjdump parser ########
## Adding new section ELF
Adding arch: sm_20
Adding identifier: needle.cu
## Adding new section PTX
Adding ptx filename: _cuobjdump_1.ptx
Adding arch: sm_20
Adding identifier: needle.cu
Done parsing!!!
GPGPU-Sim PTX: __cudaRegisterFunction _Z20needle_cuda_shared_2PiS_S_iiii : hostFun 0x0x4015fd, fat_cubin_handle = 1
GPGPU-Sim PTX: allocating stack frame region for .param "__cudaretf__Z7maximumiii" from 0x0 to 0x4
GPGPU-Sim PTX: allocating stack frame region for .param "__cudaparmf1__Z7maximumiii" from 0x4 to 0x8
GPGPU-Sim PTX: allocating stack frame region for .param "__cudaparmf2__Z7maximumiii" from 0x8 to 0xc
GPGPU-Sim PTX: allocating stack frame region for .param "__cudaparmf3__Z7maximumiii" from 0xc to 0x10
GPGPU-Sim PTX: instruction assembly for function '_Z7maximumiii'...   done.
GPGPU-Sim PTX: finding reconvergence points for '_Z7maximumiii'...
GPGPU-Sim PTX: Finding dominators for '_Z7maximumiii'...
GPGPU-Sim PTX: Finding immediate dominators for '_Z7maximumiii'...
GPGPU-Sim PTX: Finding postdominators for '_Z7maximumiii'...
GPGPU-Sim PTX: Finding immediate postdominators for '_Z7maximumiii'...
GPGPU-Sim PTX: pre-decoding instructions for '_Z7maximumiii'...
GPGPU-Sim PTX: reconvergence points for _Z7maximumiii...
GPGPU-Sim PTX: ... end of reconvergence points for _Z7maximumiii
GPGPU-Sim PTX: ... done pre-decoding instructions for '_Z7maximumiii'.
GPGPU-Sim PTX: allocating shared region for "__cuda___cuda_local_var_39694_31_non_const_temp40" from 0x0 to 0x484 (shared memory space)
GPGPU-Sim PTX: allocating shared region for "__cuda___cuda_local_var_39695_31_non_const_ref1196" from 0x500 to 0x900 (shared memory space)
GPGPU-Sim PTX: instruction assembly for function '_Z20needle_cuda_shared_1PiS_S_iiii'...   done.
GPGPU-Sim PTX: finding reconvergence points for '_Z20needle_cuda_shared_1PiS_S_iiii'...
GPGPU-Sim PTX: Finding dominators for '_Z20needle_cuda_shared_1PiS_S_iiii'...
GPGPU-Sim PTX: Finding immediate dominators for '_Z20needle_cuda_shared_1PiS_S_iiii'...
GPGPU-Sim PTX: Finding postdominators for '_Z20needle_cuda_shared_1PiS_S_iiii'...
GPGPU-Sim PTX: Finding immediate postdominators for '_Z20needle_cuda_shared_1PiS_S_iiii'...
GPGPU-Sim PTX: pre-decoding instructions for '_Z20needle_cuda_shared_1PiS_S_iiii'...
GPGPU-Sim PTX: reconvergence points for _Z20needle_cuda_shared_1PiS_S_iiii...
GPGPU-Sim PTX:  1 (potential) branch divergence @  PC=0x0e0 (_1.ptx:106) @%p1 bra $Lt_1_9730;
GPGPU-Sim PTX:    immediate post dominator      @  PC=0x110 (_1.ptx:114) mov.u64 %rd9, __cuda___cuda_local_var_39695_31_non_const_ref1196;
GPGPU-Sim PTX:  2 (potential) branch divergence @  PC=0x540 (_1.ptx:256) @%p2 bra $Lt_1_11010;
GPGPU-Sim PTX:    immediate post dominator      @  PC=0x600 (_1.ptx:283) bar.sync 0;
GPGPU-Sim PTX:  3 (potential) branch divergence @  PC=0x620 (_1.ptx:287) @%p5 bra $Lt_1_10754;
GPGPU-Sim PTX:    immediate post dominator      @  PC=0x628 (_1.ptx:288) mov.s32 %r77, 14;
GPGPU-Sim PTX:  4 (potential) branch divergence @  PC=0x638 (_1.ptx:292) @%p6 bra $Lt_1_12546;
GPGPU-Sim PTX:    immediate post dominator      @  PC=0x710 (_1.ptx:322) bar.sync 0;
GPGPU-Sim PTX:  5 (potential) branch divergence @  PC=0x730 (_1.ptx:326) @%p9 bra $Lt_1_12290;
GPGPU-Sim PTX:    immediate post dominator      @  PC=0x738 (_1.ptx:328) ld.shared.s32 %r92, [%rd64+72];
GPGPU-Sim PTX: ... end of reconvergence points for _Z20needle_cuda_shared_1PiS_S_iiii
GPGPU-Sim PTX: ... done pre-decoding instructions for '_Z20needle_cuda_shared_1PiS_S_iiii'.
GPGPU-Sim PTX: allocating shared region for "__cuda___cuda_local_var_39779_31_non_const_ref2264" from 0x0 to 0x400 (shared memory space)
GPGPU-Sim PTX: allocating shared region for "__cuda___cuda_local_var_39778_31_non_const_temp3288" from 0x400 to 0x884 (shared memory space)
GPGPU-Sim PTX: instruction assembly for function '_Z20needle_cuda_shared_2PiS_S_iiii'...   done.
GPGPU-Sim PTX: finding reconvergence points for '_Z20needle_cuda_shared_2PiS_S_iiii'...
GPGPU-Sim PTX: Finding dominators for '_Z20needle_cuda_shared_2PiS_S_iiii'...
GPGPU-Sim PTX: Finding immediate dominators for '_Z20needle_cuda_shared_2PiS_S_iiii'...
GPGPU-Sim PTX: Finding postdominators for '_Z20needle_cuda_shared_2PiS_S_iiii'...
GPGPU-Sim PTX: Finding immediate postdominators for '_Z20needle_cuda_shared_2PiS_S_iiii'...
GPGPU-Sim PTX: pre-decoding instructions for '_Z20needle_cuda_shared_2PiS_S_iiii'...
GPGPU-Sim PTX: reconvergence points for _Z20needle_cuda_shared_2PiS_S_iiii...
GPGPU-Sim PTX:  1 (potential) branch divergence @  PC=0xcf8 (_1.ptx:534) @%p1 bra $Lt_2_9730;
GPGPU-Sim PTX:    immediate post dominator      @  PC=0xd28 (_1.ptx:543) add.s32 %r62, %r12, %r9;
GPGPU-Sim PTX:  2 (potential) branch divergence @  PC=0xdb8 (_1.ptx:566) @%p2 bra $Lt_2_11010;
GPGPU-Sim PTX:    immediate post dominator      @  PC=0xe78 (_1.ptx:593) bar.sync 0;
GPGPU-Sim PTX:  3 (potential) branch divergence @  PC=0xe98 (_1.ptx:597) @%p5 bra $Lt_2_10754;
GPGPU-Sim PTX:    immediate post dominator      @  PC=0xea0 (_1.ptx:598) mov.s32 %r80, 14;
GPGPU-Sim PTX:  4 (potential) branch divergence @  PC=0xeb0 (_1.ptx:602) @%p6 bra $Lt_2_12546;
GPGPU-Sim PTX:    immediate post dominator      @  PC=0xf88 (_1.ptx:632) bar.sync 0;
GPGPU-Sim PTX:  5 (potential) branch divergence @  PC=0xfa8 (_1.ptx:636) @%p9 bra $Lt_2_12290;
GPGPU-Sim PTX:    immediate post dominator      @  PC=0xfb0 (_1.ptx:638) ld.shared.s32 %r95, [%rd64+72];
GPGPU-Sim PTX: ... end of reconvergence points for _Z20needle_cuda_shared_2PiS_S_iiii
GPGPU-Sim PTX: ... done pre-decoding instructions for '_Z20needle_cuda_shared_2PiS_S_iiii'.
GPGPU-Sim PTX: finished parsing EMBEDDED .ptx file _1.ptx
Adding _cuobjdump_1.ptx with cubin handle 1
GPGPU-Sim PTX: extracting embedded .ptx to temporary file "_ptx_I0iBgc"
Running: cat _ptx_I0iBgc | sed 's/.version 1.5/.version 1.4/' | sed 's/, texmode_independent//' | sed 's/\(\.extern \.const\[1\] .b8 \w\+\)\[\]/\1\[1\]/' | sed 's/const\[.\]/const\[0\]/g' > _ptx2_tscyCa
GPGPU-Sim PTX: generating ptxinfo using "$CUDA_INSTALL_PATH/bin/ptxas --gpu-name=sm_20 -v _ptx2_tscyCa --output-file  /dev/null 2> _ptx_I0iBgcinfo"
GPGPU-Sim PTX: Kernel '_Z20needle_cuda_shared_2PiS_S_iiii' : regs=47, lmem=0, smem=2180, cmem=72
GPGPU-Sim PTX: Kernel '_Z20needle_cuda_shared_1PiS_S_iiii' : regs=47, lmem=0, smem=2180, cmem=72
GPGPU-Sim PTX: removing ptxinfo using "rm -f _ptx_I0iBgc _ptx2_tscyCa _ptx_I0iBgcinfo"
GPGPU-Sim PTX: loading globals with explicit initializers... 
GPGPU-Sim PTX: finished loading globals (0 bytes total).
GPGPU-Sim PTX: loading constants with explicit initializers...  done.
GPGPU-Sim PTX: __cudaRegisterFunction _Z20needle_cuda_shared_1PiS_S_iiii : hostFun 0x0x401478, fat_cubin_handle = 1
Start Needleman-Wunsch
Processing top-left matrix

GPGPU-Sim PTX: cudaLaunch for 0x0x401478 (mode=performance simulation) on stream 0
GPGPU-Sim PTX: pushing kernel '_Z20needle_cuda_shared_1PiS_S_iiii' to stream 0, gridDim= (1,1,1) blockDim = (16,1,1) 
kernel '_Z20needle_cuda_shared_1PiS_S_iiii' transfer to GPU hardware scheduler
GPGPU-Sim uArch: Shader 1 bind to kernel 1 '_Z20needle_cuda_shared_1PiS_S_iiii'
GPGPU-Sim uArch: CTA/core = 8, limited by: cta_limit
GPGPU-Sim uArch: core:  1, cta: 0 initialized @(1,0)
GPGPU-Sim uArch: cycles simulated: 500  inst.: 32 (ipc= 0.1) sim_rate=2 (inst/sec) elapsed = 0:0:00:12 / Tue Mar 22 12:44:22 2016
GPGPU-Sim uArch: cycles simulated: 1500  inst.: 404 (ipc= 0.3) sim_rate=28 (inst/sec) elapsed = 0:0:00:14 / Tue Mar 22 12:44:24 2016
GPGPU-Sim uArch: cycles simulated: 3000  inst.: 804 (ipc= 0.3) sim_rate=53 (inst/sec) elapsed = 0:0:00:15 / Tue Mar 22 12:44:25 2016
GPGPU-Sim uArch: cycles simulated: 6000  inst.: 1636 (ipc= 0.3) sim_rate=102 (inst/sec) elapsed = 0:0:00:16 / Tue Mar 22 12:44:26 2016
GPGPU-Sim uArch: cycles simulated: 6500  inst.: 1748 (ipc= 0.3) sim_rate=102 (inst/sec) elapsed = 0:0:00:17 / Tue Mar 22 12:44:27 2016
GPGPU-Sim uArch: cycles simulated: 8500  inst.: 2292 (ipc= 0.3) sim_rate=120 (inst/sec) elapsed = 0:0:00:19 / Tue Mar 22 12:44:29 2016
GPGPU-Sim uArch: cycles simulated: 9000  inst.: 2442 (ipc= 0.3) sim_rate=122 (inst/sec) elapsed = 0:0:00:20 / Tue Mar 22 12:44:30 2016
GPGPU-Sim uArch: Shader 1 finished CTA #0 (17637,0), 0 CTAs running
GPGPU-Sim uArch: Shader 1 empty (release kernel 1 '_Z20needle_cuda_shared_1PiS_S_iiii').
GPGPU-Sim uArch: GPU detected kernel '_Z20needle_cuda_shared_1PiS_S_iiii' finished on shader 1.

GPGPU-Sim PTX: cudaLaunch for 0x0x401478 (mode=performance simulation) on stream 0
GPGPU-Sim PTX: pushing kernel '_Z20needle_cuda_shared_1PiS_S_iiii' to stream 0, gridDim= (2,1,1) blockDim = (16,1,1) 
kernel_name = _Z20needle_cuda_shared_1PiS_S_iiii 
kernel_launch_uid = 1 
gpu_sim_cycle = 17638
gpu_sim_insn = 12636
gpu_ipc =       0.7164
gpu_tot_sim_cycle = 17638
gpu_tot_sim_insn = 12636
gpu_tot_ipc =       0.7164
gpu_tot_issued_cta = 1
gpu_stall_dramfull = 0
gpu_stall_icnt2sh    = 28
gpu_total_sim_rate=631

========= Core cache stats =========
L1I_cache:
	L1I_total_cache_accesses = 612
	L1I_total_cache_misses = 18
	L1I_total_cache_miss_rate = 0.0294
	L1I_total_cache_pending_hits = 0
	L1I_total_cache_reservation_fails = 0
L1D_cache:
	L1D_cache_core[0]: Access = 0, Miss = 0, Miss_rate = -nan, Pending_hits = 0, Reservation_fails = 0
	L1D_cache_core[1]: Access = 52, Miss = 35, Miss_rate = 0.673, Pending_hits = 0, Reservation_fails = 0
	L1D_cache_core[2]: Access = 0, Miss = 0, Miss_rate = -nan, Pending_hits = 0, Reservation_fails = 0
	L1D_cache_core[3]: Access = 0, Miss = 0, Miss_rate = -nan, Pending_hits = 0, Reservation_fails = 0
	L1D_cache_core[4]: Access = 0, Miss = 0, Miss_rate = -nan, Pending_hits = 0, Reservation_fails = 0
	L1D_cache_core[5]: Access = 0, Miss = 0, Miss_rate = -nan, Pending_hits = 0, Reservation_fails = 0
	L1D_cache_core[6]: Access = 0, Miss = 0, Miss_rate = -nan, Pending_hits = 0, Reservation_fails = 0
	L1D_cache_core[7]: Access = 0, Miss = 0, Miss_rate = -nan, Pending_hits = 0, Reservation_fails = 0
	L1D_cache_core[8]: Access = 0, Miss = 0, Miss_rate = -nan, Pending_hits = 0, Reservation_fails = 0
	L1D_cache_core[9]: Access = 0, Miss = 0, Miss_rate = -nan, Pending_hits = 0, Reservation_fails = 0
	L1D_cache_core[10]: Access = 0, Miss = 0, Miss_rate = -nan, Pending_hits = 0, Reservation_fails = 0
	L1D_cache_core[11]: Access = 0, Miss = 0, Miss_rate = -nan, Pending_hits = 0, Reservation_fails = 0
	L1D_cache_core[12]: Access = 0, Miss = 0, Miss_rate = -nan, Pending_hits = 0, Reservation_fails = 0
	L1D_cache_core[13]: Access = 0, Miss = 0, Miss_rate = -nan, Pending_hits = 0, Reservation_fails = 0
	L1D_cache_core[14]: Access = 0, Miss = 0, Miss_rate = -nan, Pending_hits = 0, Reservation_fails = 0
	L1D_total_cache_accesses = 52
	L1D_total_cache_misses = 35
	L1D_total_cache_miss_rate = 0.6731
	L1D_total_cache_pending_hits = 0
	L1D_total_cache_reservation_fails = 0
	L1D_cache_data_port_util = 0.001
	L1D_cache_fill_port_util = 0.002
L1C_cache:
	L1C_total_cache_accesses = 35
	L1C_total_cache_misses = 1
	L1C_total_cache_miss_rate = 0.0286
	L1C_total_cache_pending_hits = 0
	L1C_total_cache_reservation_fails = 0
L1T_cache:
	L1T_total_cache_accesses = 0
	L1T_total_cache_misses = 0
	L1T_total_cache_pending_hits = 0
	L1T_total_cache_reservation_fails = 0

Total_core_cache_stats:
	Total_core_cache_stats_breakdown[GLOBAL_ACC_R][HIT] = 1
	Total_core_cache_stats_breakdown[GLOBAL_ACC_R][MISS] = 34
	Total_core_cache_stats_breakdown[CONST_ACC_R][HIT] = 34
	Total_core_cache_stats_breakdown[CONST_ACC_R][MISS] = 1
	Total_core_cache_stats_breakdown[GLOBAL_ACC_W][HIT] = 16
	Total_core_cache_stats_breakdown[GLOBAL_ACC_W][MISS] = 1
	Total_core_cache_stats_breakdown[INST_ACC_R][HIT] = 594
	Total_core_cache_stats_breakdown[INST_ACC_R][MISS] = 18
Shader 0 warp_id issue ditsribution:
warp_id:

distro:

gpgpu_n_tot_thrd_icount = 37760
gpgpu_n_tot_w_icount = 1180
gpgpu_n_stall_shd_mem = 437
gpgpu_n_mem_read_local = 0
gpgpu_n_mem_write_local = 0
gpgpu_n_mem_read_global = 34
gpgpu_n_mem_write_global = 17
gpgpu_n_mem_texture = 0
gpgpu_n_mem_const = 1
gpgpu_n_load_insn  = 289
gpgpu_n_store_insn = 256
gpgpu_n_shmem_insn = 1825
gpgpu_n_tex_insn = 0
gpgpu_n_const_mem_insn = 0
gpgpu_n_param_mem_insn = 320
gpgpu_n_shmem_bkconflict = 0
gpgpu_n_cache_bkconflict = 0
gpgpu_n_intrawarp_mshr_merge = 0
gpgpu_n_cmem_portconflict = 0
gpgpu_stall_shd_mem[c_mem][bk_conf] = 0
gpgpu_stall_shd_mem[c_mem][mshr_rc] = 0
gpgpu_stall_shd_mem[c_mem][icnt_rc] = 0
gpgpu_stall_shd_mem[c_mem][data_port_stall] = 0
gpgpu_stall_shd_mem[t_mem][mshr_rc] = 0
gpgpu_stall_shd_mem[t_mem][icnt_rc] = 0
gpgpu_stall_shd_mem[t_mem][data_port_stall] = 0
gpgpu_stall_shd_mem[s_mem][bk_conf] = 420
gpgpu_stall_shd_mem[gl_mem][bk_conf] = 0
gpgpu_stall_shd_mem[gl_mem][coal_stall] = 17
gpgpu_stall_shd_mem[gl_mem][data_port_stall] = 0
gpgpu_stall_shd_mem[g_mem_ld][mshr_rc] = 0
gpgpu_stall_shd_mem[g_mem_ld][icnt_rc] = 0
gpgpu_stall_shd_mem[g_mem_ld][wb_icnt_rc] = 0
gpgpu_stall_shd_mem[g_mem_ld][wb_rsrv_fail] = 0
gpgpu_stall_shd_mem[g_mem_st][mshr_rc] = 0
gpgpu_stall_shd_mem[g_mem_st][icnt_rc] = 0
gpgpu_stall_shd_mem[g_mem_st][wb_icnt_rc] = 0
gpgpu_stall_shd_mem[g_mem_st][wb_rsrv_fail] = 0
gpgpu_stall_shd_mem[l_mem_ld][mshr_rc] = 0
gpgpu_stall_shd_mem[l_mem_ld][icnt_rc] = 0
gpgpu_stall_shd_mem[l_mem_ld][wb_icnt_rc] = 0
gpgpu_stall_shd_mem[l_mem_ld][wb_rsrv_fail] = 0
gpgpu_stall_shd_mem[l_mem_st][mshr_rc] = 0
gpgpu_stall_shd_mem[l_mem_st][icnt_rc] = 0
gpgpu_stall_shd_mem[l_mem_ld][wb_icnt_rc] = 0
gpgpu_stall_shd_mem[l_mem_ld][wb_rsrv_fail] = 0
gpu_reg_bank_conflict_stalls = 0
Warp Occupancy Distribution:
Stall:0	W0_Idle:23310	W0_Scoreboard:10814	W1:54	W2:49	W3:49	W4:49	W5:49	W6:49	W7:49	W8:49	W9:49	W10:49	W11:49	W12:49	W13:49	W14:49	W15:49	W16:440	W17:0	W18:0	W19:0	W20:0	W21:0	W22:0	W23:0	W24:0	W25:0	W26:0	W27:0	W28:0	W29:0	W30:0	W31:0	W32:0
traffic_breakdown_coretomem[CONST_ACC_R] = 8 {8:1,}
traffic_breakdown_coretomem[GLOBAL_ACC_R] = 272 {8:34,}
traffic_breakdown_coretomem[GLOBAL_ACC_W] = 2088 {40:1,72:2,136:14,}
traffic_breakdown_coretomem[INST_ACC_R] = 144 {8:18,}
traffic_breakdown_memtocore[CONST_ACC_R] = 72 {72:1,}
traffic_breakdown_memtocore[GLOBAL_ACC_R] = 4624 {136:34,}
traffic_breakdown_memtocore[GLOBAL_ACC_W] = 136 {8:17,}
traffic_breakdown_memtocore[INST_ACC_R] = 2448 {136:18,}
maxmrqlatency = 11 
maxdqlatency = 0 
maxmflatency = 343 
averagemflatency = 245 
max_icnt2mem_latency = 24 
max_icnt2sh_latency = 17637 
mrq_lat_table:48 	0 	3 	4 	0 	0 	0 	0 	0 	0 	0 	0 	0 	0 	0 	0 	0 	0 	0 	0 	0 	0 	0 	0 	0 	0 	0 	0 	0 	0 	0 	0 	
dq_lat_table:0 	0 	0 	0 	0 	0 	0 	0 	0 	0 	0 	0 	0 	0 	0 	0 	0 	0 	0 	0 	0 	0 	0 	0 	0 	0 	0 	0 	0 	0 	0 	0 	
mf_lat_table:0 	0 	0 	0 	0 	0 	0 	17 	35 	0 	0 	0 	0 	0 	0 	0 	0 	0 	0 	0 	0 	0 	0 	0 	0 	0 	0 	0 	0 	0 	0 	0 	
icnt2mem_lat_table:0 	0 	0 	61 	9 	0 	0 	0 	0 	0 	0 	0 	0 	0 	0 	0 	0 	0 	0 	0 	0 	0 	0 	0 	
icnt2sh_lat_table:0 	0 	0 	21 	3 	11 	0 	0 	0 	0 	0 	0 	0 	0 	17 	0 	0 	0 	0 	0 	0 	0 	0 	0 	
mf_lat_pw_table:0 	0 	0 	0 	0 	0 	0 	2 	14 	0 	0 	0 	0 	0 	0 	0 	0 	0 	0 	0 	0 	0 	0 	0 	0 	0 	0 	0 	0 	0 	0 	0 	
maximum concurrent accesses to same row:
dram[0]:         1         0         0         0         0         0         0         0         0         0         0         0         0         0         0         0 
dram[1]:         2         0         0         0         0         0         0         0         0         0         0         0         0         0         0         0 
dram[2]:         0         0         0         0         0         0         0         0         0         0         0         0         0         0         0         0 
dram[3]:         0         0         0         0         0         0         0         0         0         0         0         0         0         0         0         0 
dram[4]:         0         0         0         0         0         0         0         0         0         0         0         0         0         0         0         0 
dram[5]:         2         0         0         0         0         0         0         0         0         0         0         0         0         0         0         0 
maximum service time to same row:
dram[0]:       277      9425         0         0         0         0      2300         0      4438         0      7106         0         0         0         0         0 
dram[1]:      7217     13247      8340         0      8328         0      8322         0         0         0         0         0         0         0         0         0 
dram[2]:      2932     16991         0         0         0         0         0      2619         0      5024         0      7425         0         0         0         0 
dram[3]:      4729      8350         0      8338         0      8325         0         0         0         0         0         0         0         0         0         0 
dram[4]:      6788         0         0         0      1741         0      2938         0      5343         0      7993         0         0         0         0         0 
dram[5]:      7275         0      8335         0      8324         0         0         0         0         0         0         0         0         0         0         0 
average row accesses per activate:
dram[0]:  1.000000  2.000000      -nan      -nan      -nan      -nan  2.000000      -nan  2.000000      -nan  1.000000      -nan      -nan      -nan      -nan      -nan 
dram[1]:  1.500000  2.000000  2.000000      -nan  2.000000      -nan  3.000000      -nan      -nan      -nan      -nan      -nan      -nan      -nan      -nan      -nan 
dram[2]:  2.000000  2.000000      -nan      -nan      -nan      -nan      -nan  2.000000      -nan  2.000000      -nan  1.000000      -nan      -nan      -nan      -nan 
dram[3]:  2.000000  1.000000      -nan  2.000000      -nan  2.000000      -nan      -nan      -nan      -nan      -nan      -nan      -nan      -nan      -nan      -nan 
dram[4]:  2.000000      -nan      -nan      -nan  1.000000      -nan  2.000000      -nan  2.000000      -nan  2.000000      -nan      -nan      -nan      -nan      -nan 
dram[5]:  2.000000      -nan  2.000000      -nan  2.000000      -nan      -nan      -nan      -nan      -nan      -nan      -nan      -nan      -nan      -nan      -nan 
average row locality = 55/31 = 1.774194
number of total memory accesses made:
dram[0]:         0         0         0         0         0         0         0         0         0         0         0         0         0         0         0         0 
dram[1]:         0         0         0         0         0         0         0         0         0         0         0         0         0         0         0         0 
dram[2]:         0         0         0         0         0         0         0         0         0         0         0         0         0         0         0         0 
dram[3]:         0         0         0         0         0         0         0         0         0         0         0         0         0         0         0         0 
dram[4]:         0         0         0         0         0         0         0         0         0         0         0         0         0         0         0         0 
dram[5]:         0         0         0         0         0         0         0         0         0         0         0         0         0         0         0         0 
total accesses: 0
min_bank_accesses = 0!
min_chip_accesses = 0!
number of total read accesses:
dram[0]:         3         2         0         0         0         0         2         0         2         0         1         0         0         0         0         0 
dram[1]:         3         2         2         0         2         0         2         0         0         0         0         0         0         0         0         0 
dram[2]:         2         2         0         0         0         0         0         2         0         2         0         1         0         0         0         0 
dram[3]:         2         1         0         2         0         2         0         0         0         0         0         0         0         0         0         0 
dram[4]:         2         0         0         0         1         0         2         0         2         0         2         0         0         0         0         0 
dram[5]:         4         0         2         0         2         0         0         0         0         0         0         0         0         0         0         0 
total reads: 54
min_bank_accesses = 0!
chip skew: 11/7 = 1.57
number of total write accesses:
dram[0]:         0         0         0         0         0         0         0         0         0         0         0         0         0         0         0         0 
dram[1]:         0         0         0         0         0         0         1         0         0         0         0         0         0         0         0         0 
dram[2]:         0         0         0         0         0         0         0         0         0         0         0         0         0         0         0         0 
dram[3]:         0         0         0         0         0         0         0         0         0         0         0         0         0         0         0         0 
dram[4]:         0         0         0         0         0         0         0         0         0         0         0         0         0         0         0         0 
dram[5]:         0         0         0         0         0         0         0         0         0         0         0         0         0         0         0         0 
total reads: 1
min_bank_accesses = 0!
min_chip_accesses = 0!
average mf latency per bank:
dram[0]:         91         0    none      none      none      none         263    none         263    none         268    none      none      none      none      none  
dram[1]:        162         0       463    none         433    none         219    none      none      none      none      none      none      none      none      none  
dram[2]:          0         0    none      none      none      none      none         263    none         263    none         268    none      none      none      none  
dram[3]:          0       475    none         452    none         422    none      none      none      none      none      none      none      none      none      none  
dram[4]:          0    none      none      none         268    none         264    none         263    none         270    none      none      none      none      none  
dram[5]:        183    none         468    none         428    none      none      none      none      none      none      none      none      none      none      none  
maximum mf latency per bank:
dram[0]:        275         0         0         0         0         0       268         0       268         0       268         0         0         0         0         0
dram[1]:        343         0       328         0       298         0       268         0         0         0         0         0         0         0         0         0
dram[2]:          0         0         0         0         0         0         0       268         0       268         0       268         0         0         0         0
dram[3]:          0       332         0       317         0       287         0         0         0         0         0         0         0         0         0         0
dram[4]:          0         0         0         0       268         0       269         0       268         0       273         0         0         0         0         0
dram[5]:        321         0       342         0       294         0         0         0         0         0         0         0         0         0         0         0

Number of Memory Banks Accessed per Memory Operation per Warp (from 0):
0	0	0	0	0	0	0	0	0	0	0	0	0	0	0	0	0	0	0	0	0	0	0	0	0	0	0	0	0	0	0	0	0	0	0	0	0	0	0	0	0	0	0	0	0	0	0	0	0	0	0	0	0	0	0	0	0	0	0	0	0	0	0	0	0	0	0	0	0	0	0	0	0	0	0	0	0	0	0	0	0	0	0	0	0	0	0	0	0	0	0	0	0	0	0	0	
Average # of Memory Banks Accessed per Memory Operation per Warp=-nan

position of mrq chosen
0	0	0	0	0	0	0	0	0	0	0	0	0	0	0	0	

average position of mrq chosen = -nan
Memory Partition 0: 
Cache L2_bank_000:
MSHR contents

Cache L2_bank_001:
MSHR contents

In Dram Latency Queue (total = 0): 
DRAM[0]: 16 bks, busW=4 BL=8 CL=12, tRRD=2 tCCD=6, tRCD=12 tRAS=28 tRP=12 tRC=40
n_cmd=23281 n_nop=23252 n_act=7 n_pre=2 n_req=10 n_rd=20 n_write=0 bw_util=0.001718
n_activity=349 dram_eff=0.1146
bk0: 6a 23210i bk1: 4a 23259i bk2: 0a 23281i bk3: 0a 23281i bk4: 0a 23281i bk5: 0a 23281i bk6: 4a 23260i bk7: 0a 23279i bk8: 4a 23260i bk9: 0a 23280i bk10: 2a 23264i bk11: 0a 23280i bk12: 0a 23282i bk13: 0a 23282i bk14: 0a 23282i bk15: 0a 23282i 
dram_util_bins: 0 0 0 0 0 0 0 0 0 0
dram_eff_bins: 0 0 0 0 0 0 0 0 0 0
mrqq: max=0 avg=0
Memory Partition 1: 
Cache L2_bank_002:
MSHR contents
MSHR: tag=0x81024180, atomic=0 1 entries : 0x7ef75611f110 :  mf: uid=   700, sid01:w00, part=1, addr=0x81024180, load , size=32, unknown  status = IN_PARTITION_DRAM (17635), 

Cache L2_bank_003:
MSHR contents

In Dram Latency Queue (total = 0): 
DRAM[1]: 16 bks, busW=4 BL=8 CL=12, tRRD=2 tCCD=6, tRCD=12 tRAS=28 tRP=12 tRC=40
n_cmd=23281 n_nop=23251 n_act=6 n_pre=1 n_req=12 n_rd=22 n_write=1 bw_util=0.001976
n_activity=221 dram_eff=0.2081
bk0: 6a 23233i bk1: 4a 23261i bk2: 4a 23261i bk3: 0a 23281i bk4: 4a 23259i bk5: 0a 23279i bk6: 4a 23250i bk7: 0a 23279i bk8: 0a 23280i bk9: 0a 23280i bk10: 0a 23280i bk11: 0a 23281i bk12: 0a 23282i bk13: 0a 23282i bk14: 0a 23282i bk15: 0a 23282i 
dram_util_bins: 0 0 0 0 0 0 0 0 0 0
dram_eff_bins: 0 0 0 0 0 0 0 0 0 0
mrqq: max=1 avg=0.000773163
Memory Partition 2: 
Cache L2_bank_004:
MSHR contents

Cache L2_bank_005:
MSHR contents

In Dram Latency Queue (total = 0): 
DRAM[2]: 16 bks, busW=4 BL=8 CL=12, tRRD=2 tCCD=6, tRCD=12 tRAS=28 tRP=12 tRC=40
n_cmd=23281 n_nop=23258 n_act=5 n_pre=0 n_req=9 n_rd=18 n_write=0 bw_util=0.001546
n_activity=260 dram_eff=0.1385
bk0: 4a 23262i bk1: 4a 23261i bk2: 0a 23280i bk3: 0a 23280i bk4: 0a 23281i bk5: 0a 23281i bk6: 0a 23281i bk7: 4a 23261i bk8: 0a 23280i bk9: 4a 23261i bk10: 0a 23280i bk11: 2a 23264i bk12: 0a 23280i bk13: 0a 23281i bk14: 0a 23281i bk15: 0a 23282i 
dram_util_bins: 0 0 0 0 0 0 0 0 0 0
dram_eff_bins: 0 0 0 0 0 0 0 0 0 0
mrqq: max=0 avg=0
Memory Partition 3: 
Cache L2_bank_006:
MSHR contents

Cache L2_bank_007:
MSHR contents

In Dram Latency Queue (total = 0): 
DRAM[3]: 16 bks, busW=4 BL=8 CL=12, tRRD=2 tCCD=6, tRCD=12 tRAS=28 tRP=12 tRC=40
n_cmd=23281 n_nop=23263 n_act=4 n_pre=0 n_req=7 n_rd=14 n_write=0 bw_util=0.001203
n_activity=127 dram_eff=0.2205
bk0: 4a 23262i bk1: 2a 23266i bk2: 0a 23281i bk3: 4a 23260i bk4: 0a 23280i bk5: 4a 23258i bk6: 0a 23279i bk7: 0a 23280i bk8: 0a 23280i bk9: 0a 23281i bk10: 0a 23281i bk11: 0a 23281i bk12: 0a 23281i bk13: 0a 23281i bk14: 0a 23282i bk15: 0a 23282i 
dram_util_bins: 0 0 0 0 0 0 0 0 0 0
dram_eff_bins: 0 0 0 0 0 0 0 0 0 0
mrqq: max=1 avg=0.000773163
Memory Partition 4: 
Cache L2_bank_008:
MSHR contents

Cache L2_bank_009:
MSHR contents

In Dram Latency Queue (total = 0): 
DRAM[4]: 16 bks, busW=4 BL=8 CL=12, tRRD=2 tCCD=6, tRCD=12 tRAS=28 tRP=12 tRC=40
n_cmd=23281 n_nop=23258 n_act=5 n_pre=0 n_req=9 n_rd=18 n_write=0 bw_util=0.001546
n_activity=245 dram_eff=0.1469
bk0: 4a 23260i bk1: 0a 23280i bk2: 0a 23280i bk3: 0a 23282i bk4: 2a 23265i bk5: 0a 23280i bk6: 4a 23260i bk7: 0a 23280i bk8: 4a 23261i bk9: 0a 23282i bk10: 4a 23259i bk11: 0a 23281i bk12: 0a 23281i bk13: 0a 23281i bk14: 0a 23281i bk15: 0a 23281i 
dram_util_bins: 0 0 0 0 0 0 0 0 0 0
dram_eff_bins: 0 0 0 0 0 0 0 0 0 0
mrqq: max=1 avg=0.000601349
Memory Partition 5: 
Cache L2_bank_010:
MSHR contents

Cache L2_bank_011:
MSHR contents

In Dram Latency Queue (total = 0): 
DRAM[5]: 16 bks, busW=4 BL=8 CL=12, tRRD=2 tCCD=6, tRCD=12 tRAS=28 tRP=12 tRC=40
n_cmd=23281 n_nop=23260 n_act=4 n_pre=1 n_req=8 n_rd=16 n_write=0 bw_util=0.001375
n_activity=162 dram_eff=0.1975
bk0: 8a 23228i bk1: 0a 23281i bk2: 4a 23254i bk3: 0a 23280i bk4: 4a 23257i bk5: 0a 23278i bk6: 0a 23279i bk7: 0a 23280i bk8: 0a 23281i bk9: 0a 23281i bk10: 0a 23281i bk11: 0a 23282i bk12: 0a 23282i bk13: 0a 23282i bk14: 0a 23282i bk15: 0a 23282i 
dram_util_bins: 0 0 0 0 0 0 0 0 0 0
dram_eff_bins: 0 0 0 0 0 0 0 0 0 0
mrqq: max=1 avg=0.000816116

========= L2 cache stats =========
L2_cache_bank[0]: Access = 8, Miss = 8, Miss_rate = 1.000, Pending_hits = 0, Reservation_fails = 0
L2_cache_bank[1]: Access = 2, Miss = 2, Miss_rate = 1.000, Pending_hits = 0, Reservation_fails = 0
L2_cache_bank[2]: Access = 15, Miss = 9, Miss_rate = 0.600, Pending_hits = 0, Reservation_fails = 0
L2_cache_bank[3]: Access = 2, Miss = 2, Miss_rate = 1.000, Pending_hits = 0, Reservation_fails = 0
L2_cache_bank[4]: Access = 2, Miss = 2, Miss_rate = 1.000, Pending_hits = 0, Reservation_fails = 0
L2_cache_bank[5]: Access = 7, Miss = 7, Miss_rate = 1.000, Pending_hits = 0, Reservation_fails = 0
L2_cache_bank[6]: Access = 2, Miss = 2, Miss_rate = 1.000, Pending_hits = 0, Reservation_fails = 0
L2_cache_bank[7]: Access = 10, Miss = 5, Miss_rate = 0.500, Pending_hits = 0, Reservation_fails = 0
L2_cache_bank[8]: Access = 9, Miss = 9, Miss_rate = 1.000, Pending_hits = 0, Reservation_fails = 0
L2_cache_bank[9]: Access = 0, Miss = 0, Miss_rate = -nan, Pending_hits = 0, Reservation_fails = 0
L2_cache_bank[10]: Access = 13, Miss = 8, Miss_rate = 0.615, Pending_hits = 0, Reservation_fails = 0
L2_cache_bank[11]: Access = 0, Miss = 0, Miss_rate = -nan, Pending_hits = 0, Reservation_fails = 0
L2_total_cache_accesses = 70
L2_total_cache_misses = 54
L2_total_cache_miss_rate = 0.7714
L2_total_cache_pending_hits = 0
L2_total_cache_reservation_fails = 0
L2_total_cache_breakdown:
	L2_cache_stats_breakdown[GLOBAL_ACC_R][MISS] = 34
	L2_cache_stats_breakdown[CONST_ACC_R][MISS] = 1
	L2_cache_stats_breakdown[GLOBAL_ACC_W][HIT] = 16
	L2_cache_stats_breakdown[GLOBAL_ACC_W][MISS] = 1
	L2_cache_stats_breakdown[INST_ACC_R][MISS] = 18
L2_cache_data_port_util = 0.000
L2_cache_fill_port_util = 0.001

icnt_total_pkts_mem_to_simt=280
icnt_total_pkts_simt_to_mem=131
LD_mem_lat_dist  0 0 0 0 0 0 0 0 0 0 0 0 0 0 0 0 0 0 0 0 0 0 0 0 0 0 0
ST_mem_lat_dist  0 0 0 0 0 0 0 0 0 0 0 0 0 0 0 0 0 0 0 0 0 0 0 0 0 0 0
----------------------------Interconnect-DETAILS--------------------------------
Class 0:
Packet latency average = 12.0643
	minimum = 6
	maximum = 56
Network latency average = 11.2
	minimum = 6
	maximum = 39
Slowest packet = 81
Flit latency average = 9.84672
	minimum = 6
	maximum = 35
Slowest flit = 223
Fragmentation average = 0
	minimum = 0
	maximum = 0
Injected packet rate average = 0.000293978
	minimum = 0 (at node 0)
	maximum = 0.0039687 (at node 1)
Accepted packet rate average = 0.000293978
	minimum = 0 (at node 0)
	maximum = 0.0039687 (at node 1)
Injected flit rate average = 0.000863036
	minimum = 0 (at node 0)
	maximum = 0.00742715 (at node 1)
Accepted flit rate average= 0.000863036
	minimum = 0 (at node 0)
	maximum = 0.0158748 (at node 1)
Injected packet length average = 2.93571
Accepted packet length average = 2.93571
Total in-flight flits = 0 (0 measured)
====== Overall Traffic Statistics ======
====== Traffic class 0 ======
Packet latency average = 12.0643 (1 samples)
	minimum = 6 (1 samples)
	maximum = 56 (1 samples)
Network latency average = 11.2 (1 samples)
	minimum = 6 (1 samples)
	maximum = 39 (1 samples)
Flit latency average = 9.84672 (1 samples)
	minimum = 6 (1 samples)
	maximum = 35 (1 samples)
Fragmentation average = 0 (1 samples)
	minimum = 0 (1 samples)
	maximum = 0 (1 samples)
Injected packet rate average = 0.000293978 (1 samples)
	minimum = 0 (1 samples)
	maximum = 0.0039687 (1 samples)
Accepted packet rate average = 0.000293978 (1 samples)
	minimum = 0 (1 samples)
	maximum = 0.0039687 (1 samples)
Injected flit rate average = 0.000863036 (1 samples)
	minimum = 0 (1 samples)
	maximum = 0.00742715 (1 samples)
Accepted flit rate average = 0.000863036 (1 samples)
	minimum = 0 (1 samples)
	maximum = 0.0158748 (1 samples)
Injected packet size average = 2.93571 (1 samples)
Accepted packet size average = 2.93571 (1 samples)
Hops average = 1 (1 samples)
