

        *** GPGPU-Sim Simulator Version 3.2.2  [build 0] ***


GPGPU-Sim PTX: simulation mode 0 (can change with PTX_SIM_MODE_FUNC environment variable:
               1=functional simulation only, 0=detailed performance simulator)
GPGPU-Sim: Configuration options:

-network_mode                           1 # Interconnection network mode
-inter_config_file   config_fermi_islip.icnt # Interconnection network config file
-gpgpu_ptx_use_cuobjdump                    1 # Use cuobjdump to extract ptx and sass from binaries
-gpgpu_experimental_lib_support                    0 # Try to extract code from cuda libraries [Broken because of unknown cudaGetExportTable]
-gpgpu_ptx_convert_to_ptxplus                    0 # Convert SASS (native ISA) to ptxplus and run ptxplus
-gpgpu_ptx_force_max_capability                   20 # Force maximum compute capability
-gpgpu_ptx_inst_debug_to_file                    0 # Dump executed instructions' debug information to file
-gpgpu_ptx_inst_debug_file       inst_debug.txt # Executed instructions' debug output file
-gpgpu_ptx_inst_debug_thread_uid                    1 # Thread UID for executed instructions' debug output
-gpgpu_simd_model                       1 # 1 = post-dominator
-gpgpu_shader_core_pipeline              1536:32 # shader core pipeline config, i.e., {<nthread>:<warpsize>}
-gpgpu_tex_cache:l1  4:128:24,L:R:m:N:L,F:128:4,128:2 # per-shader L1 texture cache  (READ-ONLY) config  {<nsets>:<bsize>:<assoc>,<rep>:<wr>:<alloc>:<wr_alloc>,<mshr>:<N>:<merge>,<mq>:<rf>}
-gpgpu_const_cache:l1 64:64:2,L:R:f:N:L,A:2:32,4 # per-shader L1 constant memory cache  (READ-ONLY) config  {<nsets>:<bsize>:<assoc>,<rep>:<wr>:<alloc>:<wr_alloc>,<mshr>:<N>:<merge>,<mq>} 
-gpgpu_cache:il1     4:128:4,L:R:f:N:L,A:2:32,4 # shader L1 instruction cache config  {<nsets>:<bsize>:<assoc>,<rep>:<wr>:<alloc>:<wr_alloc>,<mshr>:<N>:<merge>,<mq>} 
-gpgpu_cache:dl1     32:128:4,L:L:m:N:H,A:32:8,8:2,0,1:0:1:1:0:1,1:4:8:16:32:64,/sciclone/data10/hwang07/GPU_RESEARCH/swl/swl_outputs/RESULTS/swl1/ # per-shader L1 data cache config  {<nsets>:<bsize>:<assoc>,<rep>:<wr>:<alloc>:<wr_alloc>,<mshr>:<N>:<merge>,<mq> | none}
-gpgpu_cache:dl1PrefL1                 none # per-shader L1 data cache config  {<nsets>:<bsize>:<assoc>,<rep>:<wr>:<alloc>:<wr_alloc>,<mshr>:<N>:<merge>,<mq> | none}
-gpgpu_cache:dl1PreShared                 none # per-shader L1 data cache config  {<nsets>:<bsize>:<assoc>,<rep>:<wr>:<alloc>:<wr_alloc>,<mshr>:<N>:<merge>,<mq> | none}
-gmem_skip_L1D                          0 # global memory access skip L1D cache (implements -Xptxas -dlcm=cg, default=no skip)
-gpgpu_perfect_mem                      0 # enable perfect memory mode (no cache miss)
-n_regfile_gating_group                    4 # group of lanes that should be read/written together)
-gpgpu_clock_gated_reg_file                    0 # enable clock gated reg file for power calculations
-gpgpu_clock_gated_lanes                    0 # enable clock gated lanes for power calculations
-gpgpu_shader_registers                32768 # Number of registers per shader core. Limits number of concurrent CTAs. (default 8192)
-gpgpu_shader_cta                       8 # Maximum number of concurrent CTAs in shader (default 8)
-gpgpu_num_cta_barriers                   16 # Maximum number of named barriers per CTA (default 16)
-gpgpu_n_clusters                      15 # number of processing clusters
-gpgpu_n_cores_per_cluster                    1 # number of simd cores per cluster
-gpgpu_n_cluster_ejection_buffer_size                    8 # number of packets in ejection buffer
-gpgpu_n_ldst_response_buffer_size                    2 # number of response packets in ld/st unit ejection buffer
-gpgpu_shmem_size                   16384 # Size of shared memory per shader core (default 16kB)
-gpgpu_shmem_size                   49152 # Size of shared memory per shader core (default 16kB)
-gpgpu_shmem_size_PrefL1                16384 # Size of shared memory per shader core (default 16kB)
-gpgpu_shmem_size_PrefShared                16384 # Size of shared memory per shader core (default 16kB)
-gpgpu_shmem_num_banks                   32 # Number of banks in the shared memory in each shader core (default 16)
-gpgpu_shmem_limited_broadcast                    0 # Limit shared memory to do one broadcast per cycle (default on)
-gpgpu_shmem_warp_parts                    1 # Number of portions a warp is divided into for shared memory bank conflict check 
-gpgpu_warpdistro_shader                   -1 # Specify which shader core to collect the warp size distribution from
-gpgpu_warp_issue_shader                    0 # Specify which shader core to collect the warp issue distribution from
-gpgpu_local_mem_map                    1 # Mapping from local memory space address to simulated GPU physical address space (default = enabled)
-gpgpu_num_reg_banks                   16 # Number of register banks (default = 8)
-gpgpu_reg_bank_use_warp_id                    0 # Use warp ID in mapping registers to banks (default = off)
-gpgpu_operand_collector_num_units_sp                    6 # number of collector units (default = 4)
-gpgpu_operand_collector_num_units_sfu                    8 # number of collector units (default = 4)
-gpgpu_operand_collector_num_units_mem                    2 # number of collector units (default = 2)
-gpgpu_operand_collector_num_units_gen                    0 # number of collector units (default = 0)
-gpgpu_operand_collector_num_in_ports_sp                    2 # number of collector unit in ports (default = 1)
-gpgpu_operand_collector_num_in_ports_sfu                    1 # number of collector unit in ports (default = 1)
-gpgpu_operand_collector_num_in_ports_mem                    1 # number of collector unit in ports (default = 1)
-gpgpu_operand_collector_num_in_ports_gen                    0 # number of collector unit in ports (default = 0)
-gpgpu_operand_collector_num_out_ports_sp                    2 # number of collector unit in ports (default = 1)
-gpgpu_operand_collector_num_out_ports_sfu                    1 # number of collector unit in ports (default = 1)
-gpgpu_operand_collector_num_out_ports_mem                    1 # number of collector unit in ports (default = 1)
-gpgpu_operand_collector_num_out_ports_gen                    0 # number of collector unit in ports (default = 0)
-gpgpu_coalesce_arch                   13 # Coalescing arch (default = 13, anything else is off for now)
-gpgpu_num_sched_per_core                    2 # Number of warp schedulers per core
-gpgpu_max_insn_issue_per_warp                    1 # Max number of instructions that can be issued per warp in one cycle by scheduler
-gpgpu_simt_core_sim_order                    1 # Select the simulation order of cores in a cluster (0=Fix, 1=Round-Robin)
-gpgpu_pipeline_widths        2,1,1,2,1,1,2 # Pipeline widths ID_OC_SP,ID_OC_SFU,ID_OC_MEM,OC_EX_SP,OC_EX_SFU,OC_EX_MEM,EX_WB
-gpgpu_num_sp_units                     2 # Number of SP units (default=1)
-gpgpu_num_sfu_units                    1 # Number of SF units (default=1)
-gpgpu_num_mem_units                    1 # Number if ldst units (default=1) WARNING: not hooked up to anything
-gpgpu_scheduler        warp_limiting:2:1 # Scheduler configuration: < lrr | gto | two_level_active > If two_level_active:<num_active_warps>:<inner_prioritization>:<outer_prioritization>For complete list of prioritization values see shader.h enum scheduler_prioritization_typeDefault: gto
-gpgpu_dram_scheduler                    1 # 0 = fifo, 1 = FR-FCFS (defaul)
-gpgpu_dram_partition_queues              8:8:8:8 # i2$:$2d:d2$:$2i
-l2_ideal                               0 # Use a ideal L2 cache that always hit
-gpgpu_cache:dl2     64:128:8,L:B:m:W:L,A:32:4,4:0,32 # unified banked L2 data cache config  {<nsets>:<bsize>:<assoc>,<rep>:<wr>:<alloc>:<wr_alloc>,<mshr>:<N>:<merge>,<mq>}
-gpgpu_cache:dl2_texture_only                    0 # L2 cache used for texture only
-gpgpu_n_mem                            6 # number of memory modules (e.g. memory controllers) in gpu
-gpgpu_n_sub_partition_per_mchannel                    2 # number of memory subpartition in each memory module
-gpgpu_n_mem_per_ctrlr                    2 # number of memory chips per memory controller
-gpgpu_memlatency_stat                   14 # track and display latency statistics 0x2 enables MC, 0x4 enables queue logs
-gpgpu_frfcfs_dram_sched_queue_size                   16 # 0 = unlimited (default); # entries per chip
-gpgpu_dram_return_queue_size                  116 # 0 = unlimited (default); # entries per chip
-gpgpu_dram_buswidth                    4 # default = 4 bytes (8 bytes per cycle at DDR)
-gpgpu_dram_burst_length                    8 # Burst length of each DRAM request (default = 4 data bus cycle)
-dram_data_command_freq_ratio                    4 # Frequency ratio between DRAM data bus and command bus (default = 2 times, i.e. DDR)
-gpgpu_dram_timing_opt nbk=16:CCD=2:RRD=6:RCD=12:RAS=28:RP=12:RC=40: CL=12:WL=4:CDLR=5:WR=12:nbkgrp=4:CCDL=3:RTPL=2 # DRAM timing parameters = {nbk:tCCD:tRRD:tRCD:tRAS:tRP:tRC:CL:WL:tCDLR:tWR:nbkgrp:tCCDL:tRTPL}
-rop_latency                          120 # ROP queue latency (default 85)
-dram_latency                         100 # DRAM latency (default 30)
-gpgpu_mem_addr_mapping dramid@8;00000000.00000000.00000000.00000000.0000RRRR.RRRRRRRR.BBBCCCCB.CCSSSSSS # mapping memory address to dram model {dramid@<start bit>;<memory address map>}
-gpgpu_mem_addr_test                    0 # run sweep test to check address mapping for aliased address
-gpgpu_mem_address_mask                    1 # 0 = old addressing mask, 1 = new addressing mask, 2 = new add. mask + flipped bank sel and chip sel bits
-gpuwattch_xml_file  gpuwattch_gtx480.xml # GPUWattch XML file
-power_simulation_enabled                    0 # Turn on power simulator (1=On, 0=Off)
-power_per_cycle_dump                    0 # Dump detailed power output each cycle
-power_trace_enabled                    0 # produce a file for the power trace (1=On, 0=Off)
-power_trace_zlevel                     6 # Compression level of the power trace output log (0=no comp, 9=highest)
-steady_power_levels_enabled                    0 # produce a file for the steady power levels (1=On, 0=Off)
-steady_state_definition                  8:4 # allowed deviation:number of samples
-gpgpu_max_cycle                        0 # terminates gpu simulation early (0 = no limit)
-gpgpu_max_insn                         0 # terminates gpu simulation early (0 = no limit)
-gpgpu_max_cta                          0 # terminates gpu simulation early (0 = no limit)
-gpgpu_runtime_stat                   500 # display runtime statistics such as dram utilization {<freq>:<flag>}
-liveness_message_freq                    1 # Minimum number of seconds between simulation liveness messages (0 = always print)
-gpgpu_flush_l1_cache                    0 # Flush L1 cache at the end of each kernel call
-gpgpu_flush_l2_cache                    0 # Flush L2 cache at the end of each kernel call
-gpgpu_deadlock_detect                    1 # Stop the simulation at deadlock (1=on (default), 0=off)
-gpgpu_ptx_instruction_classification                    0 # if enabled will classify ptx instruction types per kernel (Max 255 kernels now)
-gpgpu_ptx_sim_mode                     0 # Select between Performance (default) or Functional simulation (1)
-gpgpu_clock_domains 700.0:700.0:700.0:924.0 # Clock Domain Frequencies in MhZ {<Core Clock>:<ICNT Clock>:<L2 Clock>:<DRAM Clock>}
-gpgpu_max_concurrent_kernel                    8 # maximum kernels that can run concurrently on GPU
-gpgpu_cflog_interval                    0 # Interval between each snapshot in control flow logger
-visualizer_enabled                     0 # Turn on visualizer output (1=On, 0=Off)
-visualizer_outputfile                 NULL # Specifies the output log file for visualizer
-visualizer_zlevel                      6 # Compression level of the visualizer output log (0=no comp, 9=highest)
-trace_enabled                          0 # Turn on traces
-trace_components                    none # comma seperated list of traces to enable. Complete list found in trace_streams.tup. Default none
-trace_sampling_core                    0 # The core which is printed using CORE_DPRINTF. Default 0
-trace_sampling_memory_partition                   -1 # The memory partition which is printed using MEMPART_DPRINTF. Default -1 (i.e. all)
-enable_ptx_file_line_stats                    1 # Turn on PTX source line statistic profiling. (1 = On)
-ptx_line_stats_filename gpgpu_inst_stats.txt # Output file for PTX source line statistics.
-save_embedded_ptx                      0 # saves ptx files embedded in binary as <n>.ptx
-keep                                   0 # keep intermediate files created by GPGPU-Sim when interfacing with external programs
-gpgpu_ptx_save_converted_ptxplus                    0 # Saved converted ptxplus to a file
-ptx_opcode_latency_int         4,13,4,5,145 # Opcode latencies for integers <ADD,MAX,MUL,MAD,DIV>Default 1,1,19,25,145
-ptx_opcode_latency_fp          4,13,4,5,39 # Opcode latencies for single precision floating points <ADD,MAX,MUL,MAD,DIV>Default 1,1,1,1,30
-ptx_opcode_latency_dp         8,19,8,8,330 # Opcode latencies for double precision floating points <ADD,MAX,MUL,MAD,DIV>Default 8,8,8,8,335
-ptx_opcode_initiation_int            1,2,2,1,8 # Opcode initiation intervals for integers <ADD,MAX,MUL,MAD,DIV>Default 1,1,4,4,32
-ptx_opcode_initiation_fp            1,2,1,1,4 # Opcode initiation intervals for single precision floating points <ADD,MAX,MUL,MAD,DIV>Default 1,1,1,1,5
-ptx_opcode_initiation_dp         8,16,8,8,130 # Opcode initiation intervals for double precision floating points <ADD,MAX,MUL,MAD,DIV>Default 8,8,8,8,130
DRAM Timing Options:
nbk                                    16 # number of banks
CCD                                     2 # column to column delay
RRD                                     6 # minimal delay between activation of rows in different banks
RCD                                    12 # row to column delay
RAS                                    28 # time needed to activate row
RP                                     12 # time needed to precharge (deactivate) row
RC                                     40 # row cycle time
CDLR                                    5 # switching from write to read (changes tWTR)
WR                                     12 # last data-in to row precharge
CL                                     12 # CAS latency
WL                                      4 # Write latency
nbkgrp                                  4 # number of bank groups
CCDL                                    3 # column to column delay between accesses to different bank groups
RTPL                                    2 # read to precharge delay between accesses to different bank groups
Total number of memory sub partition = 12
addr_dec_mask[CHIP]  = 0000000000000000 	high:64 low:0
addr_dec_mask[BK]    = 000000000000e100 	high:16 low:8
addr_dec_mask[ROW]   = 000000000fff0000 	high:28 low:16
addr_dec_mask[COL]   = 0000000000001eff 	high:13 low:0
addr_dec_mask[BURST] = 000000000000003f 	high:6 low:0
sub_partition_id_mask = 0000000000000100
GPGPU-Sim uArch: clock freqs: 700000000.000000:700000000.000000:700000000.000000:924000000.000000
GPGPU-Sim uArch: clock periods: 0.00000000142857142857:0.00000000142857142857:0.00000000142857142857:0.00000000108225108225
*** Initializing Memory Statistics ***
GPGPU-Sim uArch: interconnect node map (shaderID+MemID to icntID)
GPGPU-Sim uArch: Memory nodes ID start from index: 15
GPGPU-Sim uArch:    0   1   2   3   4
GPGPU-Sim uArch:    5   6   7   8   9
GPGPU-Sim uArch:   10  11  12  13  14
GPGPU-Sim uArch:   15  16  17  18  19
GPGPU-Sim uArch:   20  21  22  23  24
GPGPU-Sim uArch:   25  26
GPGPU-Sim uArch: interconnect node reverse map (icntID to shaderID+MemID)
GPGPU-Sim uArch: Memory nodes start from ID: 15
GPGPU-Sim uArch:    0   1   2   3   4
GPGPU-Sim uArch:    5   6   7   8   9
GPGPU-Sim uArch:   10  11  12  13  14
GPGPU-Sim uArch:   15  16  17  18  19
GPGPU-Sim uArch:   20  21  22  23  24
GPGPU-Sim uArch:   25  26
7fda3539671ef22924a0c4c414b8a557  /sciclone/data10/hwang07/adwait/applications/benchmarks/shoc/bin/Serial/CUDA/MD
GPGPU-Sim uArch: performance model initialization complete.
GPGPU-Sim PTX: __cudaRegisterFatBinary, fat_cubin_handle = 1, filename=MD.cu
self exe links to: /sciclone/data10/hwang07/adwait/applications/benchmarks/shoc/bin/Serial/CUDA/MD
Running md5sum using "md5sum /sciclone/data10/hwang07/adwait/applications/benchmarks/shoc/bin/Serial/CUDA/MD "
Parsing file _cuobjdump_complete_output_CeIXO7
######### cuobjdump parser ########
## Adding new section ELF
Adding arch: sm_12
Adding identifier: MD.cu
## Adding new section ELF
Adding arch: sm_20
Adding identifier: MD.cu
## Adding new section PTX
Adding ptx filename: _cuobjdump_1.ptx
Adding arch: sm_20
Adding identifier: MD.cu
## Adding new section ELF
Adding arch: sm_13
Adding identifier: MD.cu
Done parsing!!!
GPGPU-Sim PTX: __cudaRegisterFunction _Z16compute_lj_forceId7double37double4Lb1E12texReader_dpEvPT0_PKT1_iPKiT_SA_SA_i : hostFun 0x0x406e30, fat_cubin_handle = 1
GPGPU-Sim PTX: allocating global region for "posTexture" from 0x100 to 0x104 (global memory space)
GPGPU-Sim PTX: instruction assembly for function '_Z16compute_lj_forceIf6float36float4Lb1E12texReader_spEvPT0_PKT1_iPKiT_SA_SA_i'...   done.
GPGPU-Sim PTX: finding reconvergence points for '_Z16compute_lj_forceIf6float36float4Lb1E12texReader_spEvPT0_PKT1_iPKiT_SA_SA_i'...
GPGPU-Sim PTX: Finding dominators for '_Z16compute_lj_forceIf6float36float4Lb1E12texReader_spEvPT0_PKT1_iPKiT_SA_SA_i'...
GPGPU-Sim PTX: Finding immediate dominators for '_Z16compute_lj_forceIf6float36float4Lb1E12texReader_spEvPT0_PKT1_iPKiT_SA_SA_i'...
GPGPU-Sim PTX: Finding postdominators for '_Z16compute_lj_forceIf6float36float4Lb1E12texReader_spEvPT0_PKT1_iPKiT_SA_SA_i'...
GPGPU-Sim PTX: Finding immediate postdominators for '_Z16compute_lj_forceIf6float36float4Lb1E12texReader_spEvPT0_PKT1_iPKiT_SA_SA_i'...
GPGPU-Sim PTX: pre-decoding instructions for '_Z16compute_lj_forceIf6float36float4Lb1E12texReader_spEvPT0_PKT1_iPKiT_SA_SA_i'...
GPGPU-Sim PTX: reconvergence points for _Z16compute_lj_forceIf6float36float4Lb1E12texReader_spEvPT0_PKT1_iPKiT_SA_SA_i...
GPGPU-Sim PTX:  1 (potential) branch divergence @  PC=0x068 (_1.ptx:82) @%p1 bra $Lt_0_4354;
GPGPU-Sim PTX:    immediate post dominator      @  PC=0x218 (_1.ptx:146) ld.param.u64 %rd10, [__cudaparm__Z16compute_lj_forceIf6float36float4Lb1E12texReader_spEvPT0_PKT1_iPKiT_SA_SA_i_force3];
GPGPU-Sim PTX:  2 (potential) branch divergence @  PC=0x170 (_1.ptx:118) @!%p2 bra $Lt_0_3586;
GPGPU-Sim PTX:    immediate post dominator      @  PC=0x1d8 (_1.ptx:135) add.s32 %r10, %r10, 1;
GPGPU-Sim PTX:  3 (potential) branch divergence @  PC=0x1f0 (_1.ptx:138) @%p3 bra $Lt_0_3330;
GPGPU-Sim PTX:    immediate post dominator      @  PC=0x1f8 (_1.ptx:139) bra.uni $Lt_0_2818;
GPGPU-Sim PTX:  4 (potential) branch divergence @  PC=0x1f8 (_1.ptx:139) bra.uni $Lt_0_2818;
GPGPU-Sim PTX:    immediate post dominator      @  PC=0x218 (_1.ptx:146) ld.param.u64 %rd10, [__cudaparm__Z16compute_lj_forceIf6float36float4Lb1E12texReader_spEvPT0_PKT1_iPKiT_SA_SA_i_force3];
GPGPU-Sim PTX: ... end of reconvergence points for _Z16compute_lj_forceIf6float36float4Lb1E12texReader_spEvPT0_PKT1_iPKiT_SA_SA_i
GPGPU-Sim PTX: ... done pre-decoding instructions for '_Z16compute_lj_forceIf6float36float4Lb1E12texReader_spEvPT0_PKT1_iPKiT_SA_SA_i'.
GPGPU-Sim PTX: allocating global region for "posTexture_dp" from 0x104 to 0x108 (global memory space)
GPGPU-Sim PTX: instruction assembly for function '_Z16compute_lj_forceId7double37double4Lb1E12texReader_dpEvPT0_PKT1_iPKiT_SA_SA_i'...   done.
GPGPU-Sim PTX: finding reconvergence points for '_Z16compute_lj_forceId7double37double4Lb1E12texReader_dpEvPT0_PKT1_iPKiT_SA_SA_i'...
GPGPU-Sim PTX: Finding dominators for '_Z16compute_lj_forceId7double37double4Lb1E12texReader_dpEvPT0_PKT1_iPKiT_SA_SA_i'...
GPGPU-Sim PTX: Finding immediate dominators for '_Z16compute_lj_forceId7double37double4Lb1E12texReader_dpEvPT0_PKT1_iPKiT_SA_SA_i'...
GPGPU-Sim PTX: Finding postdominators for '_Z16compute_lj_forceId7double37double4Lb1E12texReader_dpEvPT0_PKT1_iPKiT_SA_SA_i'...
GPGPU-Sim PTX: Finding immediate postdominators for '_Z16compute_lj_forceId7double37double4Lb1E12texReader_dpEvPT0_PKT1_iPKiT_SA_SA_i'...
GPGPU-Sim PTX: pre-decoding instructions for '_Z16compute_lj_forceId7double37double4Lb1E12texReader_dpEvPT0_PKT1_iPKiT_SA_SA_i'...
GPGPU-Sim PTX: reconvergence points for _Z16compute_lj_forceId7double37double4Lb1E12texReader_dpEvPT0_PKT1_iPKiT_SA_SA_i...
GPGPU-Sim PTX:  1 (potential) branch divergence @  PC=0x2c0 (_1.ptx:189) @%p1 bra $Lt_1_4354;
GPGPU-Sim PTX:    immediate post dominator      @  PC=0x4f0 (_1.ptx:270) ld.param.u64 %rd10, [__cudaparm__Z16compute_lj_forceId7double37double4Lb1E12texReader_dpEvPT0_PKT1_iPKiT_SA_SA_i_force3];
GPGPU-Sim PTX:  2 (potential) branch divergence @  PC=0x448 (_1.ptx:242) @!%p2 bra $Lt_1_3586;
GPGPU-Sim PTX:    immediate post dominator      @  PC=0x4b0 (_1.ptx:259) add.s32 %r10, %r10, 1;
GPGPU-Sim PTX:  3 (potential) branch divergence @  PC=0x4c8 (_1.ptx:262) @%p3 bra $Lt_1_3330;
GPGPU-Sim PTX:    immediate post dominator      @  PC=0x4d0 (_1.ptx:263) bra.uni $Lt_1_2818;
GPGPU-Sim PTX:  4 (potential) branch divergence @  PC=0x4d0 (_1.ptx:263) bra.uni $Lt_1_2818;
GPGPU-Sim PTX:    immediate post dominator      @  PC=0x4f0 (_1.ptx:270) ld.param.u64 %rd10, [__cudaparm__Z16compute_lj_forceId7double37double4Lb1E12texReader_dpEvPT0_PKT1_iPKiT_SA_SA_i_force3];
GPGPU-Sim PTX: ... end of reconvergence points for _Z16compute_lj_forceId7double37double4Lb1E12texReader_dpEvPT0_PKT1_iPKiT_SA_SA_i
GPGPU-Sim PTX: ... done pre-decoding instructions for '_Z16compute_lj_forceId7double37double4Lb1E12texReader_dpEvPT0_PKT1_iPKiT_SA_SA_i'.
GPGPU-Sim PTX: finished parsing EMBEDDED .ptx file _1.ptx
Adding _cuobjdump_1.ptx with cubin handle 1
GPGPU-Sim PTX: extracting embedded .ptx to temporary file "_ptx_CXPfOI"
Running: cat _ptx_CXPfOI | sed 's/.version 1.5/.version 1.4/' | sed 's/, texmode_independent//' | sed 's/\(\.extern \.const\[1\] .b8 \w\+\)\[\]/\1\[1\]/' | sed 's/const\[.\]/const\[0\]/g' > _ptx2_pl8nhp
GPGPU-Sim PTX: generating ptxinfo using "$CUDA_INSTALL_PATH/bin/ptxas --gpu-name=sm_20 -v _ptx2_pl8nhp --output-file  /dev/null 2> _ptx_CXPfOIinfo"
GPGPU-Sim PTX: Kernel '_Z16compute_lj_forceId7double37double4Lb1E12texReader_dpEvPT0_PKT1_iPKiT_SA_SA_i' : regs=37, lmem=0, smem=0, cmem=108
GPGPU-Sim PTX: Kernel '_Z16compute_lj_forceIf6float36float4Lb1E12texReader_spEvPT0_PKT1_iPKiT_SA_SA_i' : regs=26, lmem=0, smem=0, cmem=84
GPGPU-Sim PTX: removing ptxinfo using "rm -f _ptx_CXPfOI _ptx2_pl8nhp _ptx_CXPfOIinfo"
GPGPU-Sim PTX: loading globals with explicit initializers... 
GPGPU-Sim PTX: finished loading globals (0 bytes total).
GPGPU-Sim PTX: loading constants with explicit initializers...  done.
GPGPU-Sim PTX: __cudaRegisterFunction _Z16compute_lj_forceIf6float36float4Lb1E12texReader_spEvPT0_PKT1_iPKiT_SA_SA_i : hostFun 0x0x406e20, fat_cubin_handle = 1
GPGPU-Sim PTX: in __cudaRegisterTexture:
GPGPU-Sim PTX:   int dim = 1
GPGPU-Sim PTX:   int norm = 0
GPGPU-Sim PTX:   int ext = 0
GPGPU-Sim PTX:   Execution warning: Not finished implementing "void __cudaRegisterTexture(void**, const textureReference*, const void**, const char*, int, int, int)"
GPGPU-Sim PTX: in __cudaRegisterTexture:
GPGPU-Sim PTX:   int dim = 1
GPGPU-Sim PTX:   int norm = 0
GPGPU-Sim PTX:   int ext = 0
GPGPU-Sim PTX:   Execution warning: Not finished implementing "void __cudaRegisterTexture(void**, const textureReference*, const void**, const char*, int, int, int)"
Chose device: name='GPGPU-Sim_vGPGPU-Sim Simulator Version 3.2.2 ' index=0
Running single precision test
Initializing test problem (this can take several minutes for large problems)
GPGPU-Sim PTX: in cudaBindTexture: sizeof(struct textureReference) = 104
GPGPU-Sim PTX:   size = 196608
GPGPU-Sim PTX:   texref = 0x61ee60, array = 0x2967770
GPGPU-Sim PTX:   devPtr32 = 80024000
GPGPU-Sim PTX:   Name corresponding to textureReference: posTexture
GPGPU-Sim PTX:   ChannelFormatDesc: x=32, y=32, z=32, w=32
GPGPU-Sim PTX:   Texture Normalized? = 0
GPGPU-Sim PTX:   texel size = 16
GPGPU-Sim PTX:   texture cache linesize = 128
GPGPU-Sim PTX:   Tx = 4; Ty = 2, Tx_numbits = 2, Ty_numbits = 1
GPGPU-Sim PTX:   Texel size = 16 bytes; texel_size_numbits = 4
GPGPU-Sim PTX:   Binding texture to array starting at devPtr32 = 0x80024000
GPGPU-Sim PTX:   Texel size = 16 bytes
GPGPU-Sim PTX: devPtr = 0xffffffff80024000
GPGPU-Sim PTX: in cudaBindTexture: sizeof(struct textureReference) = 104
GPGPU-Sim PTX:   size = 393216
GPGPU-Sim PTX:   texref = 0x61eee0, array = 0x29c1390
GPGPU-Sim PTX:   devPtr32 = 80024000
GPGPU-Sim PTX:   Name corresponding to textureReference: posTexture_dp
GPGPU-Sim PTX:   ChannelFormatDesc: x=32, y=32, z=32, w=32
GPGPU-Sim PTX:   Texture Normalized? = 0
GPGPU-Sim PTX:   texel size = 16
GPGPU-Sim PTX:   texture cache linesize = 128
GPGPU-Sim PTX:   Tx = 4; Ty = 2, Tx_numbits = 2, Ty_numbits = 1
GPGPU-Sim PTX:   Texel size = 16 bytes; texel_size_numbits = 4
GPGPU-Sim PTX:   Binding texture to array starting at devPtr32 = 0x80024000
GPGPU-Sim PTX:   Texel size = 16 bytes
GPGPU-Sim PTX: devPtr = 0xffffffff80024000
  10% done
  20% done
  30% done
  40% done
  50% done
  60% done
  70% done
  80% done
  90% done
  100% done
Finished.
1570334 of 1572864 pairs within cutoff distance = 99.8391 %
event update
event update
GPGPU-Sim API: cudaEventSynchronize ** waiting for event
GPGPU-Sim API: cudaEventSynchronize ** event detected

GPGPU-Sim PTX: cudaLaunch for 0x0x406e20 (mode=performance simulation) on stream 0
GPGPU-Sim PTX: pushing kernel '_Z16compute_lj_forceIf6float36float4Lb1E12texReader_spEvPT0_PKT1_iPKiT_SA_SA_i' to stream 0, gridDim= (48,1,1) blockDim = (256,1,1) 
kernel '_Z16compute_lj_forceIf6float36float4Lb1E12texReader_spEvPT0_PKT1_iPKiT_SA_SA_i' transfer to GPU hardware scheduler
GPGPU-Sim uArch: Shader 1 bind to kernel 1 '_Z16compute_lj_forceIf6float36float4Lb1E12texReader_spEvPT0_PKT1_iPKiT_SA_SA_i'
GPGPU-Sim uArch: CTA/core = 4, limited by: regs
GPGPU-Sim uArch: core:  1, cta: 0 initialized @(1,0)
GPGPU-Sim uArch: Shader 2 bind to kernel 1 '_Z16compute_lj_forceIf6float36float4Lb1E12texReader_spEvPT0_PKT1_iPKiT_SA_SA_i'
GPGPU-Sim uArch: core:  2, cta: 0 initialized @(1,0)
GPGPU-Sim uArch: Shader 3 bind to kernel 1 '_Z16compute_lj_forceIf6float36float4Lb1E12texReader_spEvPT0_PKT1_iPKiT_SA_SA_i'
GPGPU-Sim uArch: core:  3, cta: 0 initialized @(1,0)
GPGPU-Sim uArch: Shader 4 bind to kernel 1 '_Z16compute_lj_forceIf6float36float4Lb1E12texReader_spEvPT0_PKT1_iPKiT_SA_SA_i'
GPGPU-Sim uArch: core:  4, cta: 0 initialized @(1,0)
GPGPU-Sim uArch: Shader 5 bind to kernel 1 '_Z16compute_lj_forceIf6float36float4Lb1E12texReader_spEvPT0_PKT1_iPKiT_SA_SA_i'
GPGPU-Sim uArch: core:  5, cta: 0 initialized @(1,0)
GPGPU-Sim uArch: Shader 6 bind to kernel 1 '_Z16compute_lj_forceIf6float36float4Lb1E12texReader_spEvPT0_PKT1_iPKiT_SA_SA_i'
GPGPU-Sim uArch: core:  6, cta: 0 initialized @(1,0)
GPGPU-Sim uArch: Shader 7 bind to kernel 1 '_Z16compute_lj_forceIf6float36float4Lb1E12texReader_spEvPT0_PKT1_iPKiT_SA_SA_i'
GPGPU-Sim uArch: core:  7, cta: 0 initialized @(1,0)
GPGPU-Sim uArch: Shader 8 bind to kernel 1 '_Z16compute_lj_forceIf6float36float4Lb1E12texReader_spEvPT0_PKT1_iPKiT_SA_SA_i'
GPGPU-Sim uArch: core:  8, cta: 0 initialized @(1,0)
GPGPU-Sim uArch: Shader 9 bind to kernel 1 '_Z16compute_lj_forceIf6float36float4Lb1E12texReader_spEvPT0_PKT1_iPKiT_SA_SA_i'
GPGPU-Sim uArch: core:  9, cta: 0 initialized @(1,0)
GPGPU-Sim uArch: Shader 10 bind to kernel 1 '_Z16compute_lj_forceIf6float36float4Lb1E12texReader_spEvPT0_PKT1_iPKiT_SA_SA_i'
GPGPU-Sim uArch: core: 10, cta: 0 initialized @(1,0)
GPGPU-Sim uArch: Shader 11 bind to kernel 1 '_Z16compute_lj_forceIf6float36float4Lb1E12texReader_spEvPT0_PKT1_iPKiT_SA_SA_i'
GPGPU-Sim uArch: core: 11, cta: 0 initialized @(1,0)
GPGPU-Sim uArch: Shader 12 bind to kernel 1 '_Z16compute_lj_forceIf6float36float4Lb1E12texReader_spEvPT0_PKT1_iPKiT_SA_SA_i'
GPGPU-Sim uArch: core: 12, cta: 0 initialized @(1,0)
GPGPU-Sim uArch: Shader 13 bind to kernel 1 '_Z16compute_lj_forceIf6float36float4Lb1E12texReader_spEvPT0_PKT1_iPKiT_SA_SA_i'
GPGPU-Sim uArch: core: 13, cta: 0 initialized @(1,0)
GPGPU-Sim uArch: Shader 14 bind to kernel 1 '_Z16compute_lj_forceIf6float36float4Lb1E12texReader_spEvPT0_PKT1_iPKiT_SA_SA_i'
GPGPU-Sim uArch: core: 14, cta: 0 initialized @(1,0)
GPGPU-Sim uArch: Shader 0 bind to kernel 1 '_Z16compute_lj_forceIf6float36float4Lb1E12texReader_spEvPT0_PKT1_iPKiT_SA_SA_i'
GPGPU-Sim uArch: core:  0, cta: 0 initialized @(1,0)
GPGPU-Sim uArch: core:  1, cta: 1 initialized @(2,0)
GPGPU-Sim uArch: core:  2, cta: 1 initialized @(2,0)
GPGPU-Sim uArch: core:  3, cta: 1 initialized @(2,0)
GPGPU-Sim uArch: core:  4, cta: 1 initialized @(2,0)
GPGPU-Sim uArch: core:  5, cta: 1 initialized @(2,0)
GPGPU-Sim uArch: core:  6, cta: 1 initialized @(2,0)
GPGPU-Sim uArch: core:  7, cta: 1 initialized @(2,0)
GPGPU-Sim uArch: core:  8, cta: 1 initialized @(2,0)
GPGPU-Sim uArch: core:  9, cta: 1 initialized @(2,0)
GPGPU-Sim uArch: core: 10, cta: 1 initialized @(2,0)
GPGPU-Sim uArch: core: 11, cta: 1 initialized @(2,0)
GPGPU-Sim uArch: core: 12, cta: 1 initialized @(2,0)
GPGPU-Sim uArch: core: 13, cta: 1 initialized @(2,0)
GPGPU-Sim uArch: core: 14, cta: 1 initialized @(2,0)
GPGPU-Sim uArch: core:  0, cta: 1 initialized @(2,0)
GPGPU-Sim uArch: core:  1, cta: 2 initialized @(3,0)
GPGPU-Sim uArch: core:  2, cta: 2 initialized @(3,0)
GPGPU-Sim uArch: core:  3, cta: 2 initialized @(3,0)
GPGPU-Sim uArch: core:  4, cta: 2 initialized @(3,0)
GPGPU-Sim uArch: core:  5, cta: 2 initialized @(3,0)
GPGPU-Sim uArch: core:  6, cta: 2 initialized @(3,0)
GPGPU-Sim uArch: core:  7, cta: 2 initialized @(3,0)
GPGPU-Sim uArch: core:  8, cta: 2 initialized @(3,0)
GPGPU-Sim uArch: core:  9, cta: 2 initialized @(3,0)
GPGPU-Sim uArch: core: 10, cta: 2 initialized @(3,0)
GPGPU-Sim uArch: core: 11, cta: 2 initialized @(3,0)
GPGPU-Sim uArch: core: 12, cta: 2 initialized @(3,0)
GPGPU-Sim uArch: core: 13, cta: 2 initialized @(3,0)
GPGPU-Sim uArch: core: 14, cta: 2 initialized @(3,0)
GPGPU-Sim uArch: core:  0, cta: 2 initialized @(3,0)
GPGPU-Sim uArch: core:  1, cta: 3 initialized @(4,0)
GPGPU-Sim uArch: core:  2, cta: 3 initialized @(4,0)
GPGPU-Sim uArch: core:  3, cta: 3 initialized @(4,0)
GPGPU-Sim uArch: cycles simulated: 500  inst.: 6720 (ipc=13.4) sim_rate=420 (inst/sec) elapsed = 0:0:00:16 / Tue Mar 22 12:39:57 2016
GPGPU-Sim uArch: cycles simulated: 1000  inst.: 18048 (ipc=18.0) sim_rate=1002 (inst/sec) elapsed = 0:0:00:18 / Tue Mar 22 12:39:59 2016
GPGPU-Sim uArch: cycles simulated: 3000  inst.: 65952 (ipc=22.0) sim_rate=3471 (inst/sec) elapsed = 0:0:00:19 / Tue Mar 22 12:40:00 2016
GPGPU-Sim PTX: 100000 instructions simulated : ctaid=(3,0,0) tid=(63,0,0)
GPGPU-Sim uArch: cycles simulated: 6000  inst.: 167360 (ipc=27.9) sim_rate=8368 (inst/sec) elapsed = 0:0:00:20 / Tue Mar 22 12:40:01 2016
GPGPU-Sim PTX: 200000 instructions simulated : ctaid=(1,0,0) tid=(31,0,0)
GPGPU-Sim PTX: 300000 instructions simulated : ctaid=(6,0,0) tid=(31,0,0)
GPGPU-Sim uArch: cycles simulated: 9500  inst.: 294848 (ipc=31.0) sim_rate=14040 (inst/sec) elapsed = 0:0:00:21 / Tue Mar 22 12:40:02 2016
GPGPU-Sim PTX: 400000 instructions simulated : ctaid=(11,0,0) tid=(63,0,0)
GPGPU-Sim uArch: cycles simulated: 13000  inst.: 408672 (ipc=31.4) sim_rate=18576 (inst/sec) elapsed = 0:0:00:22 / Tue Mar 22 12:40:03 2016
GPGPU-Sim PTX: 500000 instructions simulated : ctaid=(2,0,0) tid=(63,0,0)
GPGPU-Sim uArch: cycles simulated: 16000  inst.: 508640 (ipc=31.8) sim_rate=22114 (inst/sec) elapsed = 0:0:00:23 / Tue Mar 22 12:40:04 2016
GPGPU-Sim PTX: 600000 instructions simulated : ctaid=(3,0,0) tid=(31,0,0)
GPGPU-Sim uArch: cycles simulated: 19500  inst.: 623168 (ipc=32.0) sim_rate=25965 (inst/sec) elapsed = 0:0:00:24 / Tue Mar 22 12:40:05 2016
GPGPU-Sim PTX: 700000 instructions simulated : ctaid=(13,0,0) tid=(31,0,0)
GPGPU-Sim uArch: cycles simulated: 22500  inst.: 722272 (ipc=32.1) sim_rate=28890 (inst/sec) elapsed = 0:0:00:25 / Tue Mar 22 12:40:06 2016
GPGPU-Sim PTX: 800000 instructions simulated : ctaid=(7,0,0) tid=(63,0,0)
GPGPU-Sim uArch: cycles simulated: 26000  inst.: 834496 (ipc=32.1) sim_rate=32096 (inst/sec) elapsed = 0:0:00:26 / Tue Mar 22 12:40:07 2016
GPGPU-Sim PTX: 900000 instructions simulated : ctaid=(4,0,0) tid=(31,0,0)
GPGPU-Sim uArch: cycles simulated: 29000  inst.: 930240 (ipc=32.1) sim_rate=34453 (inst/sec) elapsed = 0:0:00:27 / Tue Mar 22 12:40:08 2016
GPGPU-Sim PTX: 1000000 instructions simulated : ctaid=(3,0,0) tid=(31,0,0)
GPGPU-Sim uArch: cycles simulated: 32500  inst.: 1043776 (ipc=32.1) sim_rate=37277 (inst/sec) elapsed = 0:0:00:28 / Tue Mar 22 12:40:09 2016
GPGPU-Sim PTX: 1100000 instructions simulated : ctaid=(4,0,0) tid=(31,0,0)
GPGPU-Sim uArch: cycles simulated: 35500  inst.: 1135680 (ipc=32.0) sim_rate=39161 (inst/sec) elapsed = 0:0:00:29 / Tue Mar 22 12:40:10 2016
GPGPU-Sim PTX: 1200000 instructions simulated : ctaid=(6,0,0) tid=(31,0,0)
GPGPU-Sim uArch: cycles simulated: 39000  inst.: 1245728 (ipc=31.9) sim_rate=41524 (inst/sec) elapsed = 0:0:00:30 / Tue Mar 22 12:40:11 2016
GPGPU-Sim PTX: 1300000 instructions simulated : ctaid=(3,0,0) tid=(31,0,0)
GPGPU-Sim uArch: cycles simulated: 42500  inst.: 1356512 (ipc=31.9) sim_rate=43758 (inst/sec) elapsed = 0:0:00:31 / Tue Mar 22 12:40:12 2016
GPGPU-Sim PTX: 1400000 instructions simulated : ctaid=(5,0,0) tid=(31,0,0)
GPGPU-Sim uArch: cycles simulated: 45500  inst.: 1450624 (ipc=31.9) sim_rate=45332 (inst/sec) elapsed = 0:0:00:32 / Tue Mar 22 12:40:13 2016
GPGPU-Sim PTX: 1500000 instructions simulated : ctaid=(4,0,0) tid=(31,0,0)
GPGPU-Sim uArch: cycles simulated: 49000  inst.: 1551904 (ipc=31.7) sim_rate=47027 (inst/sec) elapsed = 0:0:00:33 / Tue Mar 22 12:40:14 2016
GPGPU-Sim PTX: 1600000 instructions simulated : ctaid=(7,0,0) tid=(31,0,0)
GPGPU-Sim PTX: 1700000 instructions simulated : ctaid=(4,0,0) tid=(31,0,0)
GPGPU-Sim uArch: cycles simulated: 52500  inst.: 1659104 (ipc=31.6) sim_rate=48797 (inst/sec) elapsed = 0:0:00:34 / Tue Mar 22 12:40:15 2016
GPGPU-Sim PTX: 1800000 instructions simulated : ctaid=(0,0,0) tid=(31,0,0)
GPGPU-Sim uArch: cycles simulated: 55500  inst.: 1754368 (ipc=31.6) sim_rate=50124 (inst/sec) elapsed = 0:0:00:35 / Tue Mar 22 12:40:16 2016
GPGPU-Sim PTX: 1900000 instructions simulated : ctaid=(2,0,0) tid=(31,0,0)
GPGPU-Sim uArch: cycles simulated: 59000  inst.: 1865920 (ipc=31.6) sim_rate=51831 (inst/sec) elapsed = 0:0:00:36 / Tue Mar 22 12:40:17 2016
GPGPU-Sim PTX: 2000000 instructions simulated : ctaid=(5,0,0) tid=(31,0,0)
GPGPU-Sim uArch: cycles simulated: 62000  inst.: 1958368 (ipc=31.6) sim_rate=52928 (inst/sec) elapsed = 0:0:00:37 / Tue Mar 22 12:40:18 2016
GPGPU-Sim PTX: 2100000 instructions simulated : ctaid=(2,0,0) tid=(31,0,0)
GPGPU-Sim uArch: cycles simulated: 65500  inst.: 2068768 (ipc=31.6) sim_rate=54441 (inst/sec) elapsed = 0:0:00:38 / Tue Mar 22 12:40:19 2016
GPGPU-Sim PTX: 2200000 instructions simulated : ctaid=(2,0,0) tid=(31,0,0)
GPGPU-Sim uArch: cycles simulated: 69000  inst.: 2172416 (ipc=31.5) sim_rate=55702 (inst/sec) elapsed = 0:0:00:39 / Tue Mar 22 12:40:20 2016
GPGPU-Sim PTX: 2300000 instructions simulated : ctaid=(10,0,0) tid=(31,0,0)
GPGPU-Sim uArch: cycles simulated: 72500  inst.: 2278816 (ipc=31.4) sim_rate=56970 (inst/sec) elapsed = 0:0:00:40 / Tue Mar 22 12:40:21 2016
GPGPU-Sim PTX: 2400000 instructions simulated : ctaid=(4,0,0) tid=(31,0,0)
GPGPU-Sim uArch: cycles simulated: 76000  inst.: 2387360 (ipc=31.4) sim_rate=58228 (inst/sec) elapsed = 0:0:00:41 / Tue Mar 22 12:40:22 2016
GPGPU-Sim PTX: 2500000 instructions simulated : ctaid=(7,0,0) tid=(31,0,0)
GPGPU-Sim uArch: cycles simulated: 79000  inst.: 2480608 (ipc=31.4) sim_rate=59062 (inst/sec) elapsed = 0:0:00:42 / Tue Mar 22 12:40:23 2016
GPGPU-Sim PTX: 2600000 instructions simulated : ctaid=(0,0,0) tid=(31,0,0)
GPGPU-Sim uArch: cycles simulated: 82500  inst.: 2590208 (ipc=31.4) sim_rate=60237 (inst/sec) elapsed = 0:0:00:43 / Tue Mar 22 12:40:24 2016
GPGPU-Sim PTX: 2700000 instructions simulated : ctaid=(14,0,0) tid=(31,0,0)
GPGPU-Sim uArch: cycles simulated: 86000  inst.: 2699648 (ipc=31.4) sim_rate=61355 (inst/sec) elapsed = 0:0:00:44 / Tue Mar 22 12:40:25 2016
GPGPU-Sim PTX: 2800000 instructions simulated : ctaid=(10,0,0) tid=(63,0,0)
GPGPU-Sim uArch: cycles simulated: 89500  inst.: 2804608 (ipc=31.3) sim_rate=62324 (inst/sec) elapsed = 0:0:00:45 / Tue Mar 22 12:40:26 2016
GPGPU-Sim PTX: 2900000 instructions simulated : ctaid=(13,0,0) tid=(31,0,0)
GPGPU-Sim uArch: cycles simulated: 92500  inst.: 2901568 (ipc=31.4) sim_rate=63077 (inst/sec) elapsed = 0:0:00:46 / Tue Mar 22 12:40:27 2016
GPGPU-Sim PTX: 3000000 instructions simulated : ctaid=(6,0,0) tid=(31,0,0)
GPGPU-Sim uArch: cycles simulated: 96000  inst.: 3009280 (ipc=31.3) sim_rate=64027 (inst/sec) elapsed = 0:0:00:47 / Tue Mar 22 12:40:28 2016
GPGPU-Sim PTX: 3100000 instructions simulated : ctaid=(5,0,0) tid=(31,0,0)
GPGPU-Sim PTX: 3200000 instructions simulated : ctaid=(11,0,0) tid=(31,0,0)
GPGPU-Sim uArch: cycles simulated: 99500  inst.: 3120832 (ipc=31.4) sim_rate=65017 (inst/sec) elapsed = 0:0:00:48 / Tue Mar 22 12:40:29 2016
GPGPU-Sim PTX: 3300000 instructions simulated : ctaid=(1,0,0) tid=(63,0,0)
GPGPU-Sim uArch: cycles simulated: 103000  inst.: 3229376 (ipc=31.4) sim_rate=65905 (inst/sec) elapsed = 0:0:00:49 / Tue Mar 22 12:40:30 2016
GPGPU-Sim PTX: 3400000 instructions simulated : ctaid=(7,0,0) tid=(31,0,0)
GPGPU-Sim uArch: cycles simulated: 106000  inst.: 3329920 (ipc=31.4) sim_rate=66598 (inst/sec) elapsed = 0:0:00:50 / Tue Mar 22 12:40:31 2016
GPGPU-Sim PTX: 3500000 instructions simulated : ctaid=(6,0,0) tid=(63,0,0)
GPGPU-Sim uArch: cycles simulated: 109500  inst.: 3444480 (ipc=31.5) sim_rate=67538 (inst/sec) elapsed = 0:0:00:51 / Tue Mar 22 12:40:32 2016
GPGPU-Sim PTX: 3600000 instructions simulated : ctaid=(7,0,0) tid=(11,0,0)
GPGPU-Sim uArch: cycles simulated: 113000  inst.: 3549545 (ipc=31.4) sim_rate=68260 (inst/sec) elapsed = 0:0:00:52 / Tue Mar 22 12:40:33 2016
GPGPU-Sim PTX: 3700000 instructions simulated : ctaid=(11,0,0) tid=(31,0,0)
GPGPU-Sim uArch: cycles simulated: 116500  inst.: 3651356 (ipc=31.3) sim_rate=68893 (inst/sec) elapsed = 0:0:00:53 / Tue Mar 22 12:40:34 2016
GPGPU-Sim PTX: 3800000 instructions simulated : ctaid=(14,0,0) tid=(43,0,0)
GPGPU-Sim uArch: cycles simulated: 120000  inst.: 3755662 (ipc=31.3) sim_rate=69549 (inst/sec) elapsed = 0:0:00:54 / Tue Mar 22 12:40:35 2016
GPGPU-Sim PTX: 3900000 instructions simulated : ctaid=(10,0,0) tid=(0,0,0)
GPGPU-Sim uArch: cycles simulated: 123000  inst.: 3843540 (ipc=31.2) sim_rate=69882 (inst/sec) elapsed = 0:0:00:55 / Tue Mar 22 12:40:36 2016
GPGPU-Sim PTX: 4000000 instructions simulated : ctaid=(9,0,0) tid=(11,0,0)
GPGPU-Sim uArch: cycles simulated: 126500  inst.: 3959374 (ipc=31.3) sim_rate=70703 (inst/sec) elapsed = 0:0:00:56 / Tue Mar 22 12:40:37 2016
GPGPU-Sim PTX: 4100000 instructions simulated : ctaid=(5,0,0) tid=(63,0,0)
GPGPU-Sim uArch: cycles simulated: 130000  inst.: 4073267 (ipc=31.3) sim_rate=71460 (inst/sec) elapsed = 0:0:00:57 / Tue Mar 22 12:40:38 2016
GPGPU-Sim PTX: 4200000 instructions simulated : ctaid=(4,0,0) tid=(18,0,0)
GPGPU-Sim PTX: 4300000 instructions simulated : ctaid=(12,0,0) tid=(27,0,0)
GPGPU-Sim uArch: cycles simulated: 133500  inst.: 4181685 (ipc=31.3) sim_rate=72098 (inst/sec) elapsed = 0:0:00:58 / Tue Mar 22 12:40:39 2016
GPGPU-Sim PTX: 4400000 instructions simulated : ctaid=(4,0,0) tid=(31,0,0)
GPGPU-Sim uArch: cycles simulated: 136500  inst.: 4277299 (ipc=31.3) sim_rate=72496 (inst/sec) elapsed = 0:0:00:59 / Tue Mar 22 12:40:40 2016
GPGPU-Sim PTX: 4500000 instructions simulated : ctaid=(6,0,0) tid=(99,0,0)
GPGPU-Sim uArch: cycles simulated: 140000  inst.: 4405919 (ipc=31.5) sim_rate=73431 (inst/sec) elapsed = 0:0:01:00 / Tue Mar 22 12:40:41 2016
GPGPU-Sim PTX: 4600000 instructions simulated : ctaid=(11,0,0) tid=(67,0,0)
GPGPU-Sim uArch: cycles simulated: 143000  inst.: 4500895 (ipc=31.5) sim_rate=73785 (inst/sec) elapsed = 0:0:01:01 / Tue Mar 22 12:40:42 2016
GPGPU-Sim PTX: 4700000 instructions simulated : ctaid=(5,0,0) tid=(67,0,0)
GPGPU-Sim uArch: cycles simulated: 146500  inst.: 4606463 (ipc=31.4) sim_rate=74297 (inst/sec) elapsed = 0:0:01:02 / Tue Mar 22 12:40:43 2016
GPGPU-Sim PTX: 4800000 instructions simulated : ctaid=(13,0,0) tid=(67,0,0)
GPGPU-Sim uArch: cycles simulated: 150000  inst.: 4713759 (ipc=31.4) sim_rate=74821 (inst/sec) elapsed = 0:0:01:03 / Tue Mar 22 12:40:44 2016
GPGPU-Sim PTX: 4900000 instructions simulated : ctaid=(12,0,0) tid=(67,0,0)
GPGPU-Sim uArch: cycles simulated: 153500  inst.: 4819647 (ipc=31.4) sim_rate=75306 (inst/sec) elapsed = 0:0:01:04 / Tue Mar 22 12:40:45 2016
GPGPU-Sim PTX: 5000000 instructions simulated : ctaid=(11,0,0) tid=(67,0,0)
GPGPU-Sim uArch: cycles simulated: 157000  inst.: 4924607 (ipc=31.4) sim_rate=75763 (inst/sec) elapsed = 0:0:01:05 / Tue Mar 22 12:40:46 2016
GPGPU-Sim PTX: 5100000 instructions simulated : ctaid=(2,0,0) tid=(67,0,0)
GPGPU-Sim uArch: cycles simulated: 160000  inst.: 5014463 (ipc=31.3) sim_rate=75976 (inst/sec) elapsed = 0:0:01:06 / Tue Mar 22 12:40:47 2016
GPGPU-Sim PTX: 5200000 instructions simulated : ctaid=(4,0,0) tid=(99,0,0)
GPGPU-Sim uArch: cycles simulated: 163500  inst.: 5119967 (ipc=31.3) sim_rate=76417 (inst/sec) elapsed = 0:0:01:07 / Tue Mar 22 12:40:48 2016
GPGPU-Sim PTX: 5300000 instructions simulated : ctaid=(6,0,0) tid=(99,0,0)
GPGPU-Sim uArch: cycles simulated: 167000  inst.: 5231359 (ipc=31.3) sim_rate=76931 (inst/sec) elapsed = 0:0:01:08 / Tue Mar 22 12:40:49 2016
GPGPU-Sim PTX: 5400000 instructions simulated : ctaid=(12,0,0) tid=(99,0,0)
GPGPU-Sim uArch: cycles simulated: 170500  inst.: 5341983 (ipc=31.3) sim_rate=77420 (inst/sec) elapsed = 0:0:01:09 / Tue Mar 22 12:40:50 2016
GPGPU-Sim PTX: 5500000 instructions simulated : ctaid=(6,0,0) tid=(67,0,0)
GPGPU-Sim uArch: cycles simulated: 173500  inst.: 5437695 (ipc=31.3) sim_rate=77681 (inst/sec) elapsed = 0:0:01:10 / Tue Mar 22 12:40:51 2016
GPGPU-Sim PTX: 5600000 instructions simulated : ctaid=(9,0,0) tid=(99,0,0)
GPGPU-Sim PTX: 5700000 instructions simulated : ctaid=(12,0,0) tid=(99,0,0)
GPGPU-Sim uArch: cycles simulated: 177000  inst.: 5552959 (ipc=31.4) sim_rate=78210 (inst/sec) elapsed = 0:0:01:11 / Tue Mar 22 12:40:52 2016
GPGPU-Sim PTX: 5800000 instructions simulated : ctaid=(12,0,0) tid=(67,0,0)
GPGPU-Sim uArch: cycles simulated: 180500  inst.: 5665791 (ipc=31.4) sim_rate=78691 (inst/sec) elapsed = 0:0:01:12 / Tue Mar 22 12:40:53 2016
GPGPU-Sim PTX: 5900000 instructions simulated : ctaid=(13,0,0) tid=(67,0,0)
GPGPU-Sim uArch: cycles simulated: 184000  inst.: 5775263 (ipc=31.4) sim_rate=79113 (inst/sec) elapsed = 0:0:01:13 / Tue Mar 22 12:40:54 2016
GPGPU-Sim PTX: 6000000 instructions simulated : ctaid=(12,0,0) tid=(99,0,0)
GPGPU-Sim uArch: cycles simulated: 187000  inst.: 5869279 (ipc=31.4) sim_rate=79314 (inst/sec) elapsed = 0:0:01:14 / Tue Mar 22 12:40:55 2016
GPGPU-Sim PTX: 6100000 instructions simulated : ctaid=(6,0,0) tid=(67,0,0)
GPGPU-Sim uArch: cycles simulated: 190500  inst.: 5974399 (ipc=31.4) sim_rate=79658 (inst/sec) elapsed = 0:0:01:15 / Tue Mar 22 12:40:56 2016
GPGPU-Sim PTX: 6200000 instructions simulated : ctaid=(0,0,0) tid=(67,0,0)
GPGPU-Sim uArch: cycles simulated: 194000  inst.: 6089951 (ipc=31.4) sim_rate=80130 (inst/sec) elapsed = 0:0:01:16 / Tue Mar 22 12:40:57 2016
GPGPU-Sim PTX: 6300000 instructions simulated : ctaid=(7,0,0) tid=(67,0,0)
GPGPU-Sim uArch: cycles simulated: 197500  inst.: 6200863 (ipc=31.4) sim_rate=80530 (inst/sec) elapsed = 0:0:01:17 / Tue Mar 22 12:40:58 2016
GPGPU-Sim PTX: 6400000 instructions simulated : ctaid=(2,0,0) tid=(67,0,0)
GPGPU-Sim uArch: cycles simulated: 200500  inst.: 6299519 (ipc=31.4) sim_rate=80763 (inst/sec) elapsed = 0:0:01:18 / Tue Mar 22 12:40:59 2016
GPGPU-Sim PTX: 6500000 instructions simulated : ctaid=(5,0,0) tid=(99,0,0)
GPGPU-Sim uArch: cycles simulated: 204000  inst.: 6409887 (ipc=31.4) sim_rate=81137 (inst/sec) elapsed = 0:0:01:19 / Tue Mar 22 12:41:00 2016
GPGPU-Sim PTX: 6600000 instructions simulated : ctaid=(8,0,0) tid=(67,0,0)
GPGPU-Sim uArch: cycles simulated: 207500  inst.: 6508191 (ipc=31.4) sim_rate=81352 (inst/sec) elapsed = 0:0:01:20 / Tue Mar 22 12:41:01 2016
GPGPU-Sim PTX: 6700000 instructions simulated : ctaid=(11,0,0) tid=(99,0,0)
GPGPU-Sim PTX: 6800000 instructions simulated : ctaid=(2,0,0) tid=(99,0,0)
GPGPU-Sim uArch: cycles simulated: 211000  inst.: 6620127 (ipc=31.4) sim_rate=81729 (inst/sec) elapsed = 0:0:01:21 / Tue Mar 22 12:41:02 2016
GPGPU-Sim PTX: 6900000 instructions simulated : ctaid=(4,0,0) tid=(99,0,0)
GPGPU-Sim uArch: cycles simulated: 214000  inst.: 6715391 (ipc=31.4) sim_rate=81895 (inst/sec) elapsed = 0:0:01:22 / Tue Mar 22 12:41:03 2016
GPGPU-Sim PTX: 7000000 instructions simulated : ctaid=(5,0,0) tid=(99,0,0)
GPGPU-Sim uArch: cycles simulated: 217500  inst.: 6822207 (ipc=31.4) sim_rate=82195 (inst/sec) elapsed = 0:0:01:23 / Tue Mar 22 12:41:04 2016
GPGPU-Sim PTX: 7100000 instructions simulated : ctaid=(12,0,0) tid=(67,0,0)
GPGPU-Sim uArch: cycles simulated: 221000  inst.: 6931935 (ipc=31.4) sim_rate=82523 (inst/sec) elapsed = 0:0:01:24 / Tue Mar 22 12:41:05 2016
GPGPU-Sim PTX: 7200000 instructions simulated : ctaid=(0,0,0) tid=(99,0,0)
GPGPU-Sim uArch: cycles simulated: 224000  inst.: 7028831 (ipc=31.4) sim_rate=82692 (inst/sec) elapsed = 0:0:01:25 / Tue Mar 22 12:41:06 2016
GPGPU-Sim PTX: 7300000 instructions simulated : ctaid=(0,0,0) tid=(99,0,0)
GPGPU-Sim uArch: cycles simulated: 227500  inst.: 7143231 (ipc=31.4) sim_rate=83060 (inst/sec) elapsed = 0:0:01:26 / Tue Mar 22 12:41:07 2016
GPGPU-Sim PTX: 7400000 instructions simulated : ctaid=(2,0,0) tid=(99,0,0)
GPGPU-Sim uArch: cycles simulated: 231000  inst.: 7250292 (ipc=31.4) sim_rate=83336 (inst/sec) elapsed = 0:0:01:27 / Tue Mar 22 12:41:08 2016
GPGPU-Sim PTX: 7500000 instructions simulated : ctaid=(2,0,0) tid=(91,0,0)
GPGPU-Sim uArch: cycles simulated: 234500  inst.: 7358067 (ipc=31.4) sim_rate=83614 (inst/sec) elapsed = 0:0:01:28 / Tue Mar 22 12:41:09 2016
GPGPU-Sim PTX: 7600000 instructions simulated : ctaid=(6,0,0) tid=(95,0,0)
GPGPU-Sim uArch: cycles simulated: 237500  inst.: 7454418 (ipc=31.4) sim_rate=83757 (inst/sec) elapsed = 0:0:01:29 / Tue Mar 22 12:41:10 2016
GPGPU-Sim PTX: 7700000 instructions simulated : ctaid=(13,0,0) tid=(99,0,0)
GPGPU-Sim uArch: cycles simulated: 241000  inst.: 7562801 (ipc=31.4) sim_rate=84031 (inst/sec) elapsed = 0:0:01:30 / Tue Mar 22 12:41:11 2016
GPGPU-Sim PTX: 7800000 instructions simulated : ctaid=(5,0,0) tid=(71,0,0)
GPGPU-Sim uArch: cycles simulated: 244500  inst.: 7668976 (ipc=31.4) sim_rate=84274 (inst/sec) elapsed = 0:0:01:31 / Tue Mar 22 12:41:12 2016
GPGPU-Sim PTX: 7900000 instructions simulated : ctaid=(9,0,0) tid=(96,0,0)
GPGPU-Sim PTX: 8000000 instructions simulated : ctaid=(9,0,0) tid=(99,0,0)
GPGPU-Sim uArch: cycles simulated: 248000  inst.: 7778416 (ipc=31.4) sim_rate=84548 (inst/sec) elapsed = 0:0:01:32 / Tue Mar 22 12:41:13 2016
GPGPU-Sim PTX: 8100000 instructions simulated : ctaid=(12,0,0) tid=(71,0,0)
GPGPU-Sim uArch: cycles simulated: 251000  inst.: 7882574 (ipc=31.4) sim_rate=84758 (inst/sec) elapsed = 0:0:01:33 / Tue Mar 22 12:41:14 2016
GPGPU-Sim PTX: 8200000 instructions simulated : ctaid=(3,0,0) tid=(111,0,0)
GPGPU-Sim uArch: cycles simulated: 254500  inst.: 7996822 (ipc=31.4) sim_rate=85072 (inst/sec) elapsed = 0:0:01:34 / Tue Mar 22 12:41:15 2016
GPGPU-Sim PTX: 8300000 instructions simulated : ctaid=(4,0,0) tid=(95,0,0)
GPGPU-Sim uArch: cycles simulated: 258000  inst.: 8110470 (ipc=31.4) sim_rate=85373 (inst/sec) elapsed = 0:0:01:35 / Tue Mar 22 12:41:16 2016
GPGPU-Sim PTX: 8400000 instructions simulated : ctaid=(2,0,0) tid=(123,0,0)
GPGPU-Sim uArch: cycles simulated: 261000  inst.: 8200224 (ipc=31.4) sim_rate=85419 (inst/sec) elapsed = 0:0:01:36 / Tue Mar 22 12:41:17 2016
GPGPU-Sim PTX: 8500000 instructions simulated : ctaid=(6,0,0) tid=(103,0,0)
GPGPU-Sim uArch: cycles simulated: 264500  inst.: 8305585 (ipc=31.4) sim_rate=85624 (inst/sec) elapsed = 0:0:01:37 / Tue Mar 22 12:41:18 2016
GPGPU-Sim PTX: 8600000 instructions simulated : ctaid=(14,0,0) tid=(73,0,0)
GPGPU-Sim uArch: cycles simulated: 268000  inst.: 8427197 (ipc=31.4) sim_rate=85991 (inst/sec) elapsed = 0:0:01:38 / Tue Mar 22 12:41:19 2016
GPGPU-Sim PTX: 8700000 instructions simulated : ctaid=(5,0,0) tid=(92,0,0)
GPGPU-Sim uArch: cycles simulated: 271000  inst.: 8523561 (ipc=31.5) sim_rate=86096 (inst/sec) elapsed = 0:0:01:39 / Tue Mar 22 12:41:20 2016
GPGPU-Sim PTX: 8800000 instructions simulated : ctaid=(9,0,0) tid=(92,0,0)
GPGPU-Sim uArch: cycles simulated: 274500  inst.: 8643658 (ipc=31.5) sim_rate=86436 (inst/sec) elapsed = 0:0:01:40 / Tue Mar 22 12:41:21 2016
GPGPU-Sim PTX: 8900000 instructions simulated : ctaid=(11,0,0) tid=(163,0,0)
GPGPU-Sim PTX: 9000000 instructions simulated : ctaid=(7,0,0) tid=(79,0,0)
GPGPU-Sim uArch: cycles simulated: 277500  inst.: 8752346 (ipc=31.5) sim_rate=86656 (inst/sec) elapsed = 0:0:01:41 / Tue Mar 22 12:41:22 2016
GPGPU-Sim PTX: 9100000 instructions simulated : ctaid=(9,0,0) tid=(167,0,0)
GPGPU-Sim uArch: cycles simulated: 281000  inst.: 8868230 (ipc=31.6) sim_rate=86943 (inst/sec) elapsed = 0:0:01:42 / Tue Mar 22 12:41:23 2016
GPGPU-Sim PTX: 9200000 instructions simulated : ctaid=(3,0,0) tid=(167,0,0)
GPGPU-Sim uArch: cycles simulated: 284500  inst.: 8983302 (ipc=31.6) sim_rate=87216 (inst/sec) elapsed = 0:0:01:43 / Tue Mar 22 12:41:24 2016
GPGPU-Sim PTX: 9300000 instructions simulated : ctaid=(1,0,0) tid=(135,0,0)
GPGPU-Sim uArch: cycles simulated: 287500  inst.: 9074342 (ipc=31.6) sim_rate=87253 (inst/sec) elapsed = 0:0:01:44 / Tue Mar 22 12:41:25 2016
GPGPU-Sim PTX: 9400000 instructions simulated : ctaid=(1,0,0) tid=(135,0,0)
GPGPU-Sim uArch: cycles simulated: 291000  inst.: 9177830 (ipc=31.5) sim_rate=87407 (inst/sec) elapsed = 0:0:01:45 / Tue Mar 22 12:41:26 2016
GPGPU-Sim PTX: 9500000 instructions simulated : ctaid=(2,0,0) tid=(135,0,0)
GPGPU-Sim uArch: cycles simulated: 294500  inst.: 9285510 (ipc=31.5) sim_rate=87599 (inst/sec) elapsed = 0:0:01:46 / Tue Mar 22 12:41:27 2016
GPGPU-Sim PTX: 9600000 instructions simulated : ctaid=(6,0,0) tid=(167,0,0)
GPGPU-Sim uArch: cycles simulated: 298000  inst.: 9398342 (ipc=31.5) sim_rate=87834 (inst/sec) elapsed = 0:0:01:47 / Tue Mar 22 12:41:28 2016
GPGPU-Sim PTX: 9700000 instructions simulated : ctaid=(3,0,0) tid=(167,0,0)
GPGPU-Sim uArch: cycles simulated: 301000  inst.: 9488198 (ipc=31.5) sim_rate=87853 (inst/sec) elapsed = 0:0:01:48 / Tue Mar 22 12:41:29 2016
GPGPU-Sim PTX: 9800000 instructions simulated : ctaid=(5,0,0) tid=(135,0,0)
GPGPU-Sim uArch: cycles simulated: 304500  inst.: 9600294 (ipc=31.5) sim_rate=88076 (inst/sec) elapsed = 0:0:01:49 / Tue Mar 22 12:41:30 2016
GPGPU-Sim PTX: 9900000 instructions simulated : ctaid=(3,0,0) tid=(135,0,0)
GPGPU-Sim uArch: cycles simulated: 308000  inst.: 9699974 (ipc=31.5) sim_rate=88181 (inst/sec) elapsed = 0:0:01:50 / Tue Mar 22 12:41:31 2016
GPGPU-Sim PTX: 10000000 instructions simulated : ctaid=(11,0,0) tid=(135,0,0)
GPGPU-Sim uArch: cycles simulated: 311500  inst.: 9809926 (ipc=31.5) sim_rate=88377 (inst/sec) elapsed = 0:0:01:51 / Tue Mar 22 12:41:32 2016
GPGPU-Sim PTX: 10100000 instructions simulated : ctaid=(0,0,0) tid=(167,0,0)
GPGPU-Sim uArch: cycles simulated: 314500  inst.: 9904646 (ipc=31.5) sim_rate=88434 (inst/sec) elapsed = 0:0:01:52 / Tue Mar 22 12:41:33 2016
GPGPU-Sim PTX: 10200000 instructions simulated : ctaid=(10,0,0) tid=(167,0,0)
GPGPU-Sim PTX: 10300000 instructions simulated : ctaid=(9,0,0) tid=(167,0,0)
GPGPU-Sim uArch: cycles simulated: 318000  inst.: 10019558 (ipc=31.5) sim_rate=88668 (inst/sec) elapsed = 0:0:01:53 / Tue Mar 22 12:41:34 2016
GPGPU-Sim PTX: 10400000 instructions simulated : ctaid=(13,0,0) tid=(135,0,0)
GPGPU-Sim uArch: cycles simulated: 321500  inst.: 10128518 (ipc=31.5) sim_rate=88846 (inst/sec) elapsed = 0:0:01:54 / Tue Mar 22 12:41:35 2016
GPGPU-Sim PTX: 10500000 instructions simulated : ctaid=(11,0,0) tid=(135,0,0)
GPGPU-Sim uArch: cycles simulated: 324500  inst.: 10216358 (ipc=31.5) sim_rate=88837 (inst/sec) elapsed = 0:0:01:55 / Tue Mar 22 12:41:36 2016
GPGPU-Sim PTX: 10600000 instructions simulated : ctaid=(0,0,0) tid=(167,0,0)
GPGPU-Sim uArch: cycles simulated: 328000  inst.: 10318630 (ipc=31.5) sim_rate=88953 (inst/sec) elapsed = 0:0:01:56 / Tue Mar 22 12:41:37 2016
GPGPU-Sim PTX: 10700000 instructions simulated : ctaid=(3,0,0) tid=(135,0,0)
GPGPU-Sim uArch: cycles simulated: 331500  inst.: 10430630 (ipc=31.5) sim_rate=89150 (inst/sec) elapsed = 0:0:01:57 / Tue Mar 22 12:41:38 2016
GPGPU-Sim PTX: 10800000 instructions simulated : ctaid=(0,0,0) tid=(167,0,0)
GPGPU-Sim uArch: cycles simulated: 334500  inst.: 10536774 (ipc=31.5) sim_rate=89294 (inst/sec) elapsed = 0:0:01:58 / Tue Mar 22 12:41:39 2016
GPGPU-Sim PTX: 10900000 instructions simulated : ctaid=(4,0,0) tid=(167,0,0)
GPGPU-Sim uArch: cycles simulated: 338000  inst.: 10644646 (ipc=31.5) sim_rate=89450 (inst/sec) elapsed = 0:0:01:59 / Tue Mar 22 12:41:40 2016
GPGPU-Sim PTX: 11000000 instructions simulated : ctaid=(4,0,0) tid=(167,0,0)
GPGPU-Sim uArch: cycles simulated: 341500  inst.: 10750406 (ipc=31.5) sim_rate=89586 (inst/sec) elapsed = 0:0:02:00 / Tue Mar 22 12:41:41 2016
GPGPU-Sim PTX: 11100000 instructions simulated : ctaid=(9,0,0) tid=(135,0,0)
GPGPU-Sim uArch: cycles simulated: 345000  inst.: 10858278 (ipc=31.5) sim_rate=89737 (inst/sec) elapsed = 0:0:02:01 / Tue Mar 22 12:41:42 2016
GPGPU-Sim PTX: 11200000 instructions simulated : ctaid=(9,0,0) tid=(167,0,0)
GPGPU-Sim uArch: cycles simulated: 348000  inst.: 10951558 (ipc=31.5) sim_rate=89766 (inst/sec) elapsed = 0:0:02:02 / Tue Mar 22 12:41:43 2016
GPGPU-Sim PTX: 11300000 instructions simulated : ctaid=(1,0,0) tid=(135,0,0)
GPGPU-Sim uArch: cycles simulated: 351500  inst.: 11059270 (ipc=31.5) sim_rate=89912 (inst/sec) elapsed = 0:0:02:03 / Tue Mar 22 12:41:44 2016
GPGPU-Sim PTX: 11400000 instructions simulated : ctaid=(7,0,0) tid=(167,0,0)
GPGPU-Sim uArch: cycles simulated: 355000  inst.: 11172870 (ipc=31.5) sim_rate=90103 (inst/sec) elapsed = 0:0:02:04 / Tue Mar 22 12:41:45 2016
GPGPU-Sim PTX: 11500000 instructions simulated : ctaid=(3,0,0) tid=(135,0,0)
GPGPU-Sim uArch: cycles simulated: 358000  inst.: 11270950 (ipc=31.5) sim_rate=90167 (inst/sec) elapsed = 0:0:02:05 / Tue Mar 22 12:41:46 2016
GPGPU-Sim PTX: 11600000 instructions simulated : ctaid=(10,0,0) tid=(167,0,0)
GPGPU-Sim PTX: 11700000 instructions simulated : ctaid=(9,0,0) tid=(135,0,0)
GPGPU-Sim uArch: cycles simulated: 361500  inst.: 11379494 (ipc=31.5) sim_rate=90313 (inst/sec) elapsed = 0:0:02:06 / Tue Mar 22 12:41:47 2016
GPGPU-Sim PTX: 11800000 instructions simulated : ctaid=(0,0,0) tid=(167,0,0)
GPGPU-Sim uArch: cycles simulated: 365000  inst.: 11489606 (ipc=31.5) sim_rate=90469 (inst/sec) elapsed = 0:0:02:07 / Tue Mar 22 12:41:48 2016
GPGPU-Sim PTX: 11900000 instructions simulated : ctaid=(4,0,0) tid=(135,0,0)
GPGPU-Sim uArch: cycles simulated: 368000  inst.: 11589958 (ipc=31.5) sim_rate=90546 (inst/sec) elapsed = 0:0:02:08 / Tue Mar 22 12:41:49 2016
GPGPU-Sim PTX: 12000000 instructions simulated : ctaid=(13,0,0) tid=(167,0,0)
GPGPU-Sim uArch: cycles simulated: 371500  inst.: 11696646 (ipc=31.5) sim_rate=90671 (inst/sec) elapsed = 0:0:02:09 / Tue Mar 22 12:41:50 2016
GPGPU-Sim PTX: 12100000 instructions simulated : ctaid=(11,0,0) tid=(167,0,0)
GPGPU-Sim uArch: cycles simulated: 375000  inst.: 11807739 (ipc=31.5) sim_rate=90828 (inst/sec) elapsed = 0:0:02:10 / Tue Mar 22 12:41:51 2016
GPGPU-Sim PTX: 12200000 instructions simulated : ctaid=(2,0,0) tid=(130,0,0)
GPGPU-Sim uArch: cycles simulated: 378000  inst.: 11898106 (ipc=31.5) sim_rate=90825 (inst/sec) elapsed = 0:0:02:11 / Tue Mar 22 12:41:52 2016
GPGPU-Sim PTX: 12300000 instructions simulated : ctaid=(9,0,0) tid=(143,0,0)
GPGPU-Sim uArch: cycles simulated: 381500  inst.: 12012153 (ipc=31.5) sim_rate=91001 (inst/sec) elapsed = 0:0:02:12 / Tue Mar 22 12:41:53 2016
GPGPU-Sim PTX: 12400000 instructions simulated : ctaid=(11,0,0) tid=(147,0,0)
GPGPU-Sim uArch: cycles simulated: 385000  inst.: 12120173 (ipc=31.5) sim_rate=91129 (inst/sec) elapsed = 0:0:02:13 / Tue Mar 22 12:41:54 2016
GPGPU-Sim PTX: 12500000 instructions simulated : ctaid=(8,0,0) tid=(171,0,0)
GPGPU-Sim uArch: cycles simulated: 388000  inst.: 12211404 (ipc=31.5) sim_rate=91129 (inst/sec) elapsed = 0:0:02:14 / Tue Mar 22 12:41:55 2016
GPGPU-Sim PTX: 12600000 instructions simulated : ctaid=(8,0,0) tid=(169,0,0)
GPGPU-Sim uArch: cycles simulated: 391500  inst.: 12314783 (ipc=31.5) sim_rate=91220 (inst/sec) elapsed = 0:0:02:15 / Tue Mar 22 12:41:56 2016
GPGPU-Sim PTX: 12700000 instructions simulated : ctaid=(8,0,0) tid=(143,0,0)
GPGPU-Sim uArch: cycles simulated: 395000  inst.: 12424466 (ipc=31.5) sim_rate=91356 (inst/sec) elapsed = 0:0:02:16 / Tue Mar 22 12:41:57 2016
GPGPU-Sim PTX: 12800000 instructions simulated : ctaid=(6,0,0) tid=(183,0,0)
GPGPU-Sim uArch: cycles simulated: 398000  inst.: 12521850 (ipc=31.5) sim_rate=91400 (inst/sec) elapsed = 0:0:02:17 / Tue Mar 22 12:41:58 2016
GPGPU-Sim PTX: 12900000 instructions simulated : ctaid=(11,0,0) tid=(163,0,0)
GPGPU-Sim uArch: cycles simulated: 401500  inst.: 12632310 (ipc=31.5) sim_rate=91538 (inst/sec) elapsed = 0:0:02:18 / Tue Mar 22 12:41:59 2016
GPGPU-Sim PTX: 13000000 instructions simulated : ctaid=(7,0,0) tid=(167,0,0)
GPGPU-Sim uArch: cycles simulated: 404500  inst.: 12732541 (ipc=31.5) sim_rate=91601 (inst/sec) elapsed = 0:0:02:19 / Tue Mar 22 12:42:00 2016
GPGPU-Sim PTX: 13100000 instructions simulated : ctaid=(6,0,0) tid=(139,0,0)
GPGPU-Sim PTX: 13200000 instructions simulated : ctaid=(8,0,0) tid=(131,0,0)
GPGPU-Sim uArch: cycles simulated: 408000  inst.: 12840470 (ipc=31.5) sim_rate=91717 (inst/sec) elapsed = 0:0:02:20 / Tue Mar 22 12:42:01 2016
GPGPU-Sim PTX: 13300000 instructions simulated : ctaid=(12,0,0) tid=(187,0,0)
GPGPU-Sim uArch: cycles simulated: 411500  inst.: 12975620 (ipc=31.5) sim_rate=92025 (inst/sec) elapsed = 0:0:02:21 / Tue Mar 22 12:42:02 2016
GPGPU-Sim PTX: 13400000 instructions simulated : ctaid=(1,0,0) tid=(135,0,0)
GPGPU-Sim uArch: cycles simulated: 414500  inst.: 13078520 (ipc=31.6) sim_rate=92102 (inst/sec) elapsed = 0:0:02:22 / Tue Mar 22 12:42:03 2016
GPGPU-Sim PTX: 13500000 instructions simulated : ctaid=(13,0,0) tid=(255,0,0)
GPGPU-Sim uArch: cycles simulated: 418000  inst.: 13195864 (ipc=31.6) sim_rate=92278 (inst/sec) elapsed = 0:0:02:23 / Tue Mar 22 12:42:04 2016
GPGPU-Sim PTX: 13600000 instructions simulated : ctaid=(2,0,0) tid=(255,0,0)
GPGPU-Sim uArch: cycles simulated: 421500  inst.: 13302840 (ipc=31.6) sim_rate=92380 (inst/sec) elapsed = 0:0:02:24 / Tue Mar 22 12:42:05 2016
GPGPU-Sim PTX: 13700000 instructions simulated : ctaid=(6,0,0) tid=(223,0,0)
GPGPU-Sim uArch: cycles simulated: 424500  inst.: 13400408 (ipc=31.6) sim_rate=92416 (inst/sec) elapsed = 0:0:02:25 / Tue Mar 22 12:42:06 2016
GPGPU-Sim PTX: 13800000 instructions simulated : ctaid=(9,0,0) tid=(223,0,0)
GPGPU-Sim PTX: 13900000 instructions simulated : ctaid=(11,0,0) tid=(255,0,0)
GPGPU-Sim uArch: cycles simulated: 428000  inst.: 13510072 (ipc=31.6) sim_rate=92534 (inst/sec) elapsed = 0:0:02:26 / Tue Mar 22 12:42:07 2016
GPGPU-Sim PTX: 14000000 instructions simulated : ctaid=(0,0,0) tid=(255,0,0)
GPGPU-Sim uArch: cycles simulated: 431500  inst.: 13619096 (ipc=31.6) sim_rate=92646 (inst/sec) elapsed = 0:0:02:27 / Tue Mar 22 12:42:08 2016
GPGPU-Sim PTX: 14100000 instructions simulated : ctaid=(6,0,0) tid=(255,0,0)
GPGPU-Sim uArch: cycles simulated: 435000  inst.: 13724664 (ipc=31.6) sim_rate=92734 (inst/sec) elapsed = 0:0:02:28 / Tue Mar 22 12:42:09 2016
GPGPU-Sim PTX: 14200000 instructions simulated : ctaid=(8,0,0) tid=(255,0,0)
GPGPU-Sim uArch: cycles simulated: 438500  inst.: 13833432 (ipc=31.5) sim_rate=92841 (inst/sec) elapsed = 0:0:02:29 / Tue Mar 22 12:42:10 2016
GPGPU-Sim PTX: 14300000 instructions simulated : ctaid=(12,0,0) tid=(223,0,0)
GPGPU-Sim uArch: cycles simulated: 442000  inst.: 13942680 (ipc=31.5) sim_rate=92951 (inst/sec) elapsed = 0:0:02:30 / Tue Mar 22 12:42:11 2016
GPGPU-Sim PTX: 14400000 instructions simulated : ctaid=(0,0,0) tid=(255,0,0)
GPGPU-Sim uArch: cycles simulated: 445000  inst.: 14035768 (ipc=31.5) sim_rate=92952 (inst/sec) elapsed = 0:0:02:31 / Tue Mar 22 12:42:12 2016
GPGPU-Sim PTX: 14500000 instructions simulated : ctaid=(6,0,0) tid=(223,0,0)
GPGPU-Sim uArch: cycles simulated: 448500  inst.: 14141080 (ipc=31.5) sim_rate=93033 (inst/sec) elapsed = 0:0:02:32 / Tue Mar 22 12:42:13 2016
GPGPU-Sim PTX: 14600000 instructions simulated : ctaid=(14,0,0) tid=(223,0,0)
GPGPU-Sim uArch: cycles simulated: 452000  inst.: 14246488 (ipc=31.5) sim_rate=93114 (inst/sec) elapsed = 0:0:02:33 / Tue Mar 22 12:42:14 2016
GPGPU-Sim PTX: 14700000 instructions simulated : ctaid=(2,0,0) tid=(255,0,0)
GPGPU-Sim uArch: cycles simulated: 455500  inst.: 14353400 (ipc=31.5) sim_rate=93203 (inst/sec) elapsed = 0:0:02:34 / Tue Mar 22 12:42:15 2016
GPGPU-Sim PTX: 14800000 instructions simulated : ctaid=(3,0,0) tid=(255,0,0)
GPGPU-Sim uArch: cycles simulated: 459000  inst.: 14459832 (ipc=31.5) sim_rate=93289 (inst/sec) elapsed = 0:0:02:35 / Tue Mar 22 12:42:16 2016
GPGPU-Sim PTX: 14900000 instructions simulated : ctaid=(2,0,0) tid=(255,0,0)
GPGPU-Sim uArch: cycles simulated: 462500  inst.: 14563960 (ipc=31.5) sim_rate=93358 (inst/sec) elapsed = 0:0:02:36 / Tue Mar 22 12:42:17 2016
GPGPU-Sim PTX: 15000000 instructions simulated : ctaid=(7,0,0) tid=(223,0,0)
GPGPU-Sim uArch: cycles simulated: 466000  inst.: 14672824 (ipc=31.5) sim_rate=93457 (inst/sec) elapsed = 0:0:02:37 / Tue Mar 22 12:42:18 2016
GPGPU-Sim PTX: 15100000 instructions simulated : ctaid=(2,0,0) tid=(223,0,0)
GPGPU-Sim uArch: cycles simulated: 469000  inst.: 14766744 (ipc=31.5) sim_rate=93460 (inst/sec) elapsed = 0:0:02:38 / Tue Mar 22 12:42:19 2016
GPGPU-Sim PTX: 15200000 instructions simulated : ctaid=(2,0,0) tid=(223,0,0)
GPGPU-Sim PTX: 15300000 instructions simulated : ctaid=(10,0,0) tid=(255,0,0)
GPGPU-Sim uArch: cycles simulated: 472500  inst.: 14882776 (ipc=31.5) sim_rate=93602 (inst/sec) elapsed = 0:0:02:39 / Tue Mar 22 12:42:20 2016
GPGPU-Sim PTX: 15400000 instructions simulated : ctaid=(14,0,0) tid=(255,0,0)
GPGPU-Sim uArch: cycles simulated: 476000  inst.: 14997720 (ipc=31.5) sim_rate=93735 (inst/sec) elapsed = 0:0:02:40 / Tue Mar 22 12:42:21 2016
GPGPU-Sim PTX: 15500000 instructions simulated : ctaid=(4,0,0) tid=(223,0,0)
GPGPU-Sim uArch: cycles simulated: 479500  inst.: 15109656 (ipc=31.5) sim_rate=93848 (inst/sec) elapsed = 0:0:02:41 / Tue Mar 22 12:42:22 2016
GPGPU-Sim PTX: 15600000 instructions simulated : ctaid=(5,0,0) tid=(255,0,0)
GPGPU-Sim uArch: cycles simulated: 482500  inst.: 15209624 (ipc=31.5) sim_rate=93886 (inst/sec) elapsed = 0:0:02:42 / Tue Mar 22 12:42:23 2016
GPGPU-Sim PTX: 15700000 instructions simulated : ctaid=(1,0,0) tid=(255,0,0)
GPGPU-Sim uArch: cycles simulated: 486000  inst.: 15325784 (ipc=31.5) sim_rate=94023 (inst/sec) elapsed = 0:0:02:43 / Tue Mar 22 12:42:24 2016
GPGPU-Sim PTX: 15800000 instructions simulated : ctaid=(6,0,0) tid=(223,0,0)
GPGPU-Sim uArch: cycles simulated: 489500  inst.: 15433816 (ipc=31.5) sim_rate=94108 (inst/sec) elapsed = 0:0:02:44 / Tue Mar 22 12:42:25 2016
GPGPU-Sim PTX: 15900000 instructions simulated : ctaid=(6,0,0) tid=(223,0,0)
GPGPU-Sim uArch: cycles simulated: 493000  inst.: 15544984 (ipc=31.5) sim_rate=94212 (inst/sec) elapsed = 0:0:02:45 / Tue Mar 22 12:42:26 2016
GPGPU-Sim PTX: 16000000 instructions simulated : ctaid=(0,0,0) tid=(203,0,0)
GPGPU-Sim uArch: cycles simulated: 496000  inst.: 15642967 (ipc=31.5) sim_rate=94234 (inst/sec) elapsed = 0:0:02:46 / Tue Mar 22 12:42:27 2016
GPGPU-Sim PTX: 16100000 instructions simulated : ctaid=(9,0,0) tid=(227,0,0)
GPGPU-Sim PTX: 16200000 instructions simulated : ctaid=(3,0,0) tid=(243,0,0)
GPGPU-Sim uArch: cycles simulated: 499500  inst.: 15754496 (ipc=31.5) sim_rate=94338 (inst/sec) elapsed = 0:0:02:47 / Tue Mar 22 12:42:28 2016
GPGPU-Sim PTX: 16300000 instructions simulated : ctaid=(7,0,0) tid=(251,0,0)
GPGPU-Sim uArch: cycles simulated: 503000  inst.: 15861214 (ipc=31.5) sim_rate=94411 (inst/sec) elapsed = 0:0:02:48 / Tue Mar 22 12:42:29 2016
GPGPU-Sim PTX: 16400000 instructions simulated : ctaid=(13,0,0) tid=(195,0,0)
GPGPU-Sim uArch: cycles simulated: 506000  inst.: 15955943 (ipc=31.5) sim_rate=94413 (inst/sec) elapsed = 0:0:02:49 / Tue Mar 22 12:42:30 2016
GPGPU-Sim PTX: 16500000 instructions simulated : ctaid=(13,0,0) tid=(193,0,0)
GPGPU-Sim uArch: cycles simulated: 509500  inst.: 16065733 (ipc=31.5) sim_rate=94504 (inst/sec) elapsed = 0:0:02:50 / Tue Mar 22 12:42:31 2016
GPGPU-Sim PTX: 16600000 instructions simulated : ctaid=(13,0,0) tid=(255,0,0)
GPGPU-Sim uArch: cycles simulated: 513000  inst.: 16178643 (ipc=31.5) sim_rate=94611 (inst/sec) elapsed = 0:0:02:51 / Tue Mar 22 12:42:32 2016
GPGPU-Sim PTX: 16700000 instructions simulated : ctaid=(7,0,0) tid=(230,0,0)
GPGPU-Sim uArch: cycles simulated: 516500  inst.: 16288457 (ipc=31.5) sim_rate=94700 (inst/sec) elapsed = 0:0:02:52 / Tue Mar 22 12:42:33 2016
GPGPU-Sim PTX: 16800000 instructions simulated : ctaid=(7,0,0) tid=(247,0,0)
GPGPU-Sim uArch: cycles simulated: 519500  inst.: 16386384 (ipc=31.5) sim_rate=94718 (inst/sec) elapsed = 0:0:02:53 / Tue Mar 22 12:42:34 2016
GPGPU-Sim PTX: 16900000 instructions simulated : ctaid=(4,0,0) tid=(227,0,0)
GPGPU-Sim uArch: cycles simulated: 523000  inst.: 16490669 (ipc=31.5) sim_rate=94773 (inst/sec) elapsed = 0:0:02:54 / Tue Mar 22 12:42:35 2016
GPGPU-Sim PTX: 17000000 instructions simulated : ctaid=(1,0,0) tid=(239,0,0)
GPGPU-Sim uArch: cycles simulated: 526500  inst.: 16603860 (ipc=31.5) sim_rate=94879 (inst/sec) elapsed = 0:0:02:55 / Tue Mar 22 12:42:36 2016
GPGPU-Sim PTX: 17100000 instructions simulated : ctaid=(0,0,0) tid=(231,0,0)
GPGPU-Sim uArch: cycles simulated: 530000  inst.: 16709609 (ipc=31.5) sim_rate=94940 (inst/sec) elapsed = 0:0:02:56 / Tue Mar 22 12:42:37 2016
GPGPU-Sim PTX: 17200000 instructions simulated : ctaid=(0,0,0) tid=(251,0,0)
GPGPU-Sim uArch: cycles simulated: 533000  inst.: 16801618 (ipc=31.5) sim_rate=94924 (inst/sec) elapsed = 0:0:02:57 / Tue Mar 22 12:42:38 2016
GPGPU-Sim PTX: 17300000 instructions simulated : ctaid=(14,0,0) tid=(227,0,0)
GPGPU-Sim uArch: cycles simulated: 536500  inst.: 16911172 (ipc=31.5) sim_rate=95006 (inst/sec) elapsed = 0:0:02:58 / Tue Mar 22 12:42:39 2016
GPGPU-Sim PTX: 17400000 instructions simulated : ctaid=(7,0,0) tid=(240,0,0)
GPGPU-Sim PTX: 17500000 instructions simulated : ctaid=(5,0,0) tid=(201,0,0)
GPGPU-Sim uArch: cycles simulated: 540000  inst.: 17023997 (ipc=31.5) sim_rate=95106 (inst/sec) elapsed = 0:0:02:59 / Tue Mar 22 12:42:40 2016
GPGPU-Sim PTX: 17600000 instructions simulated : ctaid=(10,0,0) tid=(239,0,0)
GPGPU-Sim uArch: cycles simulated: 543500  inst.: 17128469 (ipc=31.5) sim_rate=95158 (inst/sec) elapsed = 0:0:03:00 / Tue Mar 22 12:42:41 2016
GPGPU-Sim PTX: 17700000 instructions simulated : ctaid=(11,0,0) tid=(223,0,0)
GPGPU-Sim uArch: cycles simulated: 546500  inst.: 17223085 (ipc=31.5) sim_rate=95155 (inst/sec) elapsed = 0:0:03:01 / Tue Mar 22 12:42:42 2016
GPGPU-Sim uArch: Shader 4 finished CTA #0 (547978,0), 2 CTAs running
GPGPU-Sim uArch: Shader 13 finished CTA #0 (548006,0), 2 CTAs running
GPGPU-Sim uArch: Shader 10 finished CTA #0 (548056,0), 2 CTAs running
GPGPU-Sim uArch: Shader 7 finished CTA #0 (548140,0), 2 CTAs running
GPGPU-Sim uArch: Shader 1 finished CTA #0 (548250,0), 3 CTAs running
GPGPU-Sim PTX: 17800000 instructions simulated : ctaid=(8,0,0) tid=(231,0,0)
GPGPU-Sim uArch: cycles simulated: 550000  inst.: 17345174 (ipc=31.5) sim_rate=95303 (inst/sec) elapsed = 0:0:03:02 / Tue Mar 22 12:42:43 2016
GPGPU-Sim uArch: Shader 3 finished CTA #0 (550273,0), 3 CTAs running
GPGPU-Sim uArch: Shader 12 finished CTA #0 (550548,0), 2 CTAs running
GPGPU-Sim uArch: Shader 9 finished CTA #0 (550586,0), 2 CTAs running
GPGPU-Sim uArch: Shader 0 finished CTA #0 (551194,0), 2 CTAs running
GPGPU-Sim uArch: Shader 6 finished CTA #0 (551246,0), 2 CTAs running
GPGPU-Sim uArch: Shader 8 finished CTA #0 (551246,0), 2 CTAs running
GPGPU-Sim PTX: 17900000 instructions simulated : ctaid=(26,0,0) tid=(55,0,0)
GPGPU-Sim uArch: Shader 2 finished CTA #0 (551344,0), 3 CTAs running
GPGPU-Sim uArch: Shader 14 finished CTA #0 (551536,0), 2 CTAs running
GPGPU-Sim uArch: Shader 5 finished CTA #0 (551944,0), 2 CTAs running
GPGPU-Sim uArch: Shader 11 finished CTA #0 (551954,0), 2 CTAs running
GPGPU-Sim uArch: cycles simulated: 553500  inst.: 17469178 (ipc=31.6) sim_rate=95459 (inst/sec) elapsed = 0:0:03:03 / Tue Mar 22 12:42:44 2016
GPGPU-Sim PTX: 18000000 instructions simulated : ctaid=(27,0,0) tid=(23,0,0)
GPGPU-Sim uArch: cycles simulated: 556500  inst.: 17562714 (ipc=31.6) sim_rate=95449 (inst/sec) elapsed = 0:0:03:04 / Tue Mar 22 12:42:45 2016
GPGPU-Sim PTX: 18100000 instructions simulated : ctaid=(21,0,0) tid=(55,0,0)
GPGPU-Sim uArch: cycles simulated: 560000  inst.: 17676762 (ipc=31.6) sim_rate=95550 (inst/sec) elapsed = 0:0:03:05 / Tue Mar 22 12:42:46 2016
GPGPU-Sim PTX: 18200000 instructions simulated : ctaid=(15,0,0) tid=(23,0,0)
GPGPU-Sim PTX: 18300000 instructions simulated : ctaid=(25,0,0) tid=(23,0,0)
GPGPU-Sim uArch: cycles simulated: 563500  inst.: 17793658 (ipc=31.6) sim_rate=95664 (inst/sec) elapsed = 0:0:03:06 / Tue Mar 22 12:42:47 2016
GPGPU-Sim PTX: 18400000 instructions simulated : ctaid=(28,0,0) tid=(55,0,0)
GPGPU-Sim uArch: cycles simulated: 567000  inst.: 17902362 (ipc=31.6) sim_rate=95734 (inst/sec) elapsed = 0:0:03:07 / Tue Mar 22 12:42:48 2016
GPGPU-Sim PTX: 18500000 instructions simulated : ctaid=(20,0,0) tid=(55,0,0)
GPGPU-Sim uArch: cycles simulated: 570000  inst.: 17999450 (ipc=31.6) sim_rate=95741 (inst/sec) elapsed = 0:0:03:08 / Tue Mar 22 12:42:49 2016
GPGPU-Sim PTX: 18600000 instructions simulated : ctaid=(29,0,0) tid=(55,0,0)
GPGPU-Sim uArch: cycles simulated: 573500  inst.: 18114426 (ipc=31.6) sim_rate=95843 (inst/sec) elapsed = 0:0:03:09 / Tue Mar 22 12:42:50 2016
GPGPU-Sim PTX: 18700000 instructions simulated : ctaid=(23,0,0) tid=(23,0,0)
GPGPU-Sim uArch: cycles simulated: 577000  inst.: 18230330 (ipc=31.6) sim_rate=95949 (inst/sec) elapsed = 0:0:03:10 / Tue Mar 22 12:42:51 2016
GPGPU-Sim PTX: 18800000 instructions simulated : ctaid=(15,0,0) tid=(23,0,0)
GPGPU-Sim uArch: cycles simulated: 580000  inst.: 18330426 (ipc=31.6) sim_rate=95970 (inst/sec) elapsed = 0:0:03:11 / Tue Mar 22 12:42:52 2016
GPGPU-Sim PTX: 18900000 instructions simulated : ctaid=(29,0,0) tid=(55,0,0)
GPGPU-Sim uArch: cycles simulated: 583500  inst.: 18436698 (ipc=31.6) sim_rate=96024 (inst/sec) elapsed = 0:0:03:12 / Tue Mar 22 12:42:53 2016
GPGPU-Sim PTX: 19000000 instructions simulated : ctaid=(22,0,0) tid=(55,0,0)
GPGPU-Sim uArch: cycles simulated: 587000  inst.: 18546394 (ipc=31.6) sim_rate=96095 (inst/sec) elapsed = 0:0:03:13 / Tue Mar 22 12:42:54 2016
GPGPU-Sim PTX: 19100000 instructions simulated : ctaid=(22,0,0) tid=(23,0,0)
GPGPU-Sim uArch: cycles simulated: 590500  inst.: 18659578 (ipc=31.6) sim_rate=96183 (inst/sec) elapsed = 0:0:03:14 / Tue Mar 22 12:42:55 2016
GPGPU-Sim PTX: 19200000 instructions simulated : ctaid=(27,0,0) tid=(23,0,0)
GPGPU-Sim PTX: 19300000 instructions simulated : ctaid=(19,0,0) tid=(55,0,0)
GPGPU-Sim uArch: cycles simulated: 594000  inst.: 18773786 (ipc=31.6) sim_rate=96275 (inst/sec) elapsed = 0:0:03:15 / Tue Mar 22 12:42:56 2016
GPGPU-Sim PTX: 19400000 instructions simulated : ctaid=(28,0,0) tid=(55,0,0)
GPGPU-Sim uArch: cycles simulated: 597000  inst.: 18866298 (ipc=31.6) sim_rate=96256 (inst/sec) elapsed = 0:0:03:16 / Tue Mar 22 12:42:57 2016
GPGPU-Sim PTX: 19500000 instructions simulated : ctaid=(28,0,0) tid=(23,0,0)
GPGPU-Sim uArch: cycles simulated: 600500  inst.: 18979258 (ipc=31.6) sim_rate=96341 (inst/sec) elapsed = 0:0:03:17 / Tue Mar 22 12:42:58 2016
GPGPU-Sim PTX: 19600000 instructions simulated : ctaid=(18,0,0) tid=(55,0,0)
GPGPU-Sim uArch: cycles simulated: 604000  inst.: 19090522 (ipc=31.6) sim_rate=96416 (inst/sec) elapsed = 0:0:03:18 / Tue Mar 22 12:42:59 2016
GPGPU-Sim PTX: 19700000 instructions simulated : ctaid=(15,0,0) tid=(55,0,0)
GPGPU-Sim uArch: cycles simulated: 607000  inst.: 19185338 (ipc=31.6) sim_rate=96408 (inst/sec) elapsed = 0:0:03:19 / Tue Mar 22 12:43:00 2016
GPGPU-Sim PTX: 19800000 instructions simulated : ctaid=(27,0,0) tid=(55,0,0)
GPGPU-Sim uArch: cycles simulated: 610500  inst.: 19297082 (ipc=31.6) sim_rate=96485 (inst/sec) elapsed = 0:0:03:20 / Tue Mar 22 12:43:01 2016
GPGPU-Sim PTX: 19900000 instructions simulated : ctaid=(16,0,0) tid=(55,0,0)
GPGPU-Sim uArch: cycles simulated: 614000  inst.: 19413754 (ipc=31.6) sim_rate=96585 (inst/sec) elapsed = 0:0:03:21 / Tue Mar 22 12:43:02 2016
GPGPU-Sim PTX: 20000000 instructions simulated : ctaid=(23,0,0) tid=(55,0,0)
GPGPU-Sim uArch: cycles simulated: 617500  inst.: 19526586 (ipc=31.6) sim_rate=96666 (inst/sec) elapsed = 0:0:03:22 / Tue Mar 22 12:43:03 2016
GPGPU-Sim PTX: 20100000 instructions simulated : ctaid=(18,0,0) tid=(23,0,0)
GPGPU-Sim uArch: cycles simulated: 620500  inst.: 19619770 (ipc=31.6) sim_rate=96649 (inst/sec) elapsed = 0:0:03:23 / Tue Mar 22 12:43:04 2016
GPGPU-Sim PTX: 20200000 instructions simulated : ctaid=(15,0,0) tid=(23,0,0)
GPGPU-Sim uArch: cycles simulated: 624000  inst.: 19726714 (ipc=31.6) sim_rate=96699 (inst/sec) elapsed = 0:0:03:24 / Tue Mar 22 12:43:05 2016
GPGPU-Sim PTX: 20300000 instructions simulated : ctaid=(19,0,0) tid=(23,0,0)
GPGPU-Sim PTX: 20400000 instructions simulated : ctaid=(20,0,0) tid=(55,0,0)
GPGPU-Sim uArch: cycles simulated: 627500  inst.: 19833978 (ipc=31.6) sim_rate=96751 (inst/sec) elapsed = 0:0:03:25 / Tue Mar 22 12:43:06 2016
GPGPU-Sim PTX: 20500000 instructions simulated : ctaid=(28,0,0) tid=(55,0,0)
GPGPU-Sim uArch: cycles simulated: 631000  inst.: 19944090 (ipc=31.6) sim_rate=96815 (inst/sec) elapsed = 0:0:03:26 / Tue Mar 22 12:43:07 2016
GPGPU-Sim PTX: 20600000 instructions simulated : ctaid=(21,0,0) tid=(55,0,0)
GPGPU-Sim uArch: cycles simulated: 634500  inst.: 20055930 (ipc=31.6) sim_rate=96888 (inst/sec) elapsed = 0:0:03:27 / Tue Mar 22 12:43:08 2016
GPGPU-Sim PTX: 20700000 instructions simulated : ctaid=(26,0,0) tid=(23,0,0)
GPGPU-Sim uArch: cycles simulated: 637500  inst.: 20151642 (ipc=31.6) sim_rate=96882 (inst/sec) elapsed = 0:0:03:28 / Tue Mar 22 12:43:09 2016
GPGPU-Sim PTX: 20800000 instructions simulated : ctaid=(16,0,0) tid=(23,0,0)
GPGPU-Sim uArch: cycles simulated: 641000  inst.: 20259802 (ipc=31.6) sim_rate=96936 (inst/sec) elapsed = 0:0:03:29 / Tue Mar 22 12:43:10 2016
GPGPU-Sim PTX: 20900000 instructions simulated : ctaid=(16,0,0) tid=(23,0,0)
GPGPU-Sim uArch: cycles simulated: 644000  inst.: 20357306 (ipc=31.6) sim_rate=96939 (inst/sec) elapsed = 0:0:03:30 / Tue Mar 22 12:43:11 2016
GPGPU-Sim PTX: 21000000 instructions simulated : ctaid=(25,0,0) tid=(55,0,0)
GPGPU-Sim uArch: cycles simulated: 647500  inst.: 20467450 (ipc=31.6) sim_rate=97002 (inst/sec) elapsed = 0:0:03:31 / Tue Mar 22 12:43:12 2016
GPGPU-Sim PTX: 21100000 instructions simulated : ctaid=(17,0,0) tid=(23,0,0)
GPGPU-Sim uArch: cycles simulated: 650500  inst.: 20564922 (ipc=31.6) sim_rate=97004 (inst/sec) elapsed = 0:0:03:32 / Tue Mar 22 12:43:13 2016
GPGPU-Sim PTX: 21200000 instructions simulated : ctaid=(29,0,0) tid=(55,0,0)
GPGPU-Sim uArch: cycles simulated: 654000  inst.: 20673904 (ipc=31.6) sim_rate=97060 (inst/sec) elapsed = 0:0:03:33 / Tue Mar 22 12:43:14 2016
GPGPU-Sim PTX: 21300000 instructions simulated : ctaid=(29,0,0) tid=(3,0,0)
GPGPU-Sim uArch: cycles simulated: 657000  inst.: 20768121 (ipc=31.6) sim_rate=97047 (inst/sec) elapsed = 0:0:03:34 / Tue Mar 22 12:43:15 2016
GPGPU-Sim PTX: 21400000 instructions simulated : ctaid=(29,0,0) tid=(39,0,0)
GPGPU-Sim uArch: cycles simulated: 660500  inst.: 20881431 (ipc=31.6) sim_rate=97122 (inst/sec) elapsed = 0:0:03:35 / Tue Mar 22 12:43:16 2016
GPGPU-Sim PTX: 21500000 instructions simulated : ctaid=(27,0,0) tid=(55,0,0)
GPGPU-Sim uArch: cycles simulated: 663500  inst.: 20967826 (ipc=31.6) sim_rate=97073 (inst/sec) elapsed = 0:0:03:36 / Tue Mar 22 12:43:17 2016
GPGPU-Sim PTX: 21600000 instructions simulated : ctaid=(28,0,0) tid=(48,0,0)
GPGPU-Sim uArch: cycles simulated: 667000  inst.: 21068961 (ipc=31.6) sim_rate=97091 (inst/sec) elapsed = 0:0:03:37 / Tue Mar 22 12:43:18 2016
GPGPU-Sim PTX: 21700000 instructions simulated : ctaid=(15,0,0) tid=(51,0,0)
GPGPU-Sim uArch: cycles simulated: 670000  inst.: 21163343 (ipc=31.6) sim_rate=97079 (inst/sec) elapsed = 0:0:03:38 / Tue Mar 22 12:43:19 2016
GPGPU-Sim PTX: 21800000 instructions simulated : ctaid=(17,0,0) tid=(47,0,0)
GPGPU-Sim uArch: cycles simulated: 673500  inst.: 21278561 (ipc=31.6) sim_rate=97162 (inst/sec) elapsed = 0:0:03:39 / Tue Mar 22 12:43:20 2016
GPGPU-Sim PTX: 21900000 instructions simulated : ctaid=(17,0,0) tid=(49,0,0)
GPGPU-Sim uArch: cycles simulated: 676500  inst.: 21377450 (ipc=31.6) sim_rate=97170 (inst/sec) elapsed = 0:0:03:40 / Tue Mar 22 12:43:21 2016
GPGPU-Sim PTX: 22000000 instructions simulated : ctaid=(21,0,0) tid=(55,0,0)
GPGPU-Sim PTX: 22100000 instructions simulated : ctaid=(29,0,0) tid=(39,0,0)
GPGPU-Sim uArch: cycles simulated: 680000  inst.: 21489184 (ipc=31.6) sim_rate=97236 (inst/sec) elapsed = 0:0:03:41 / Tue Mar 22 12:43:22 2016
GPGPU-Sim PTX: 22200000 instructions simulated : ctaid=(21,0,0) tid=(111,0,0)
GPGPU-Sim uArch: cycles simulated: 683000  inst.: 21593496 (ipc=31.6) sim_rate=97268 (inst/sec) elapsed = 0:0:03:42 / Tue Mar 22 12:43:23 2016
GPGPU-Sim PTX: 22300000 instructions simulated : ctaid=(28,0,0) tid=(11,0,0)
GPGPU-Sim uArch: cycles simulated: 686500  inst.: 21709590 (ipc=31.6) sim_rate=97352 (inst/sec) elapsed = 0:0:03:43 / Tue Mar 22 12:43:24 2016
GPGPU-Sim PTX: 22400000 instructions simulated : ctaid=(16,0,0) tid=(87,0,0)
GPGPU-Sim uArch: cycles simulated: 689500  inst.: 21817626 (ipc=31.6) sim_rate=97400 (inst/sec) elapsed = 0:0:03:44 / Tue Mar 22 12:43:25 2016
GPGPU-Sim PTX: 22500000 instructions simulated : ctaid=(19,0,0) tid=(119,0,0)
GPGPU-Sim uArch: cycles simulated: 693000  inst.: 21926618 (ipc=31.6) sim_rate=97451 (inst/sec) elapsed = 0:0:03:45 / Tue Mar 22 12:43:26 2016
GPGPU-Sim PTX: 22600000 instructions simulated : ctaid=(21,0,0) tid=(119,0,0)
GPGPU-Sim uArch: cycles simulated: 696000  inst.: 22023034 (ipc=31.6) sim_rate=97447 (inst/sec) elapsed = 0:0:03:46 / Tue Mar 22 12:43:27 2016
GPGPU-Sim PTX: 22700000 instructions simulated : ctaid=(21,0,0) tid=(119,0,0)
GPGPU-Sim uArch: cycles simulated: 699500  inst.: 22137114 (ipc=31.6) sim_rate=97520 (inst/sec) elapsed = 0:0:03:47 / Tue Mar 22 12:43:28 2016
GPGPU-Sim PTX: 22800000 instructions simulated : ctaid=(18,0,0) tid=(119,0,0)
GPGPU-Sim uArch: cycles simulated: 702500  inst.: 22236858 (ipc=31.7) sim_rate=97530 (inst/sec) elapsed = 0:0:03:48 / Tue Mar 22 12:43:29 2016
GPGPU-Sim PTX: 22900000 instructions simulated : ctaid=(21,0,0) tid=(87,0,0)
GPGPU-Sim uArch: cycles simulated: 706000  inst.: 22347098 (ipc=31.7) sim_rate=97585 (inst/sec) elapsed = 0:0:03:49 / Tue Mar 22 12:43:30 2016
GPGPU-Sim PTX: 23000000 instructions simulated : ctaid=(18,0,0) tid=(119,0,0)
GPGPU-Sim PTX: 23100000 instructions simulated : ctaid=(18,0,0) tid=(87,0,0)
GPGPU-Sim uArch: cycles simulated: 709500  inst.: 22453594 (ipc=31.6) sim_rate=97624 (inst/sec) elapsed = 0:0:03:50 / Tue Mar 22 12:43:31 2016
GPGPU-Sim uArch: cycles simulated: 712500  inst.: 22548058 (ipc=31.6) sim_rate=97610 (inst/sec) elapsed = 0:0:03:51 / Tue Mar 22 12:43:32 2016
GPGPU-Sim PTX: 23200000 instructions simulated : ctaid=(29,0,0) tid=(119,0,0)
[...]
traffic_breakdown_coretomem[GLOBAL_ACC_R] = 811008 {8:101376,}
traffic_breakdown_coretomem[GLOBAL_ACC_W] = 940032 {136:6912,}
traffic_breakdown_coretomem[INST_ACC_R] = 600 {8:75,}
traffic_breakdown_coretomem[TEXTURE_ACC_R] = 23600944 {8:2950118,}
traffic_breakdown_memtocore[CONST_ACC_R] = 1080 {72:15,}
traffic_breakdown_memtocore[GLOBAL_ACC_R] = 13787136 {136:101376,}
traffic_breakdown_memtocore[GLOBAL_ACC_W] = 55296 {8:6912,}
traffic_breakdown_memtocore[INST_ACC_R] = 10200 {136:75,}
traffic_breakdown_memtocore[TEXTURE_ACC_R] = 401216048 {136:2950118,}
maxmrqlatency = 205 
maxdqlatency = 0 
maxmflatency = 1023 
averagemflatency = 213 
max_icnt2mem_latency = 634 
max_icnt2sh_latency = 4134092 
mrq_lat_table:84704 	9478 	3584 	3288 	5735 	1873 	742 	57 	0 	0 	0 	0 	0 	0 	0 	0 	0 	0 	0 	0 	0 	0 	0 	0 	0 	0 	0 	0 	0 	0 	0 	0 	
dq_lat_table:0 	0 	0 	0 	0 	0 	0 	0 	0 	0 	0 	0 	0 	0 	0 	0 	0 	0 	0 	0 	0 	0 	0 	0 	0 	0 	0 	0 	0 	0 	0 	0 	
mf_lat_table:0 	0 	0 	0 	68779 	281145 	538059 	1062013 	1070165 	38260 	0 	0 	0 	0 	0 	0 	0 	0 	0 	0 	0 	0 	0 	0 	0 	0 	0 	0 	0 	0 	0 	0 	
icnt2mem_lat_table:0 	0 	0 	508354 	957268 	976595 	313006 	270876 	32342 	55 	0 	0 	0 	0 	0 	0 	0 	0 	0 	0 	0 	0 	0 	0 	
icnt2sh_lat_table:0 	0 	0 	123034 	1121330 	1307057 	446675 	53409 	4 	0 	0 	0 	0 	0 	0 	0 	0 	270 	540 	1080 	1566 	3456 	0 	0 	
mf_lat_pw_table:0 	0 	0 	0 	0 	0 	266 	7256 	745 	1 	0 	0 	0 	0 	0 	0 	0 	0 	0 	0 	0 	0 	0 	0 	0 	0 	0 	0 	0 	0 	0 	0 	
maximum concurrent accesses to same row:
dram[0]:        31        32        32        32        35        38        74        72        70        69        63        63        32        32        31        32 
dram[1]:        17        32        32        32        31        40        74        77        72        72        60        62        32        32        32        32 
dram[2]:        32        31        32        28        34        48        76        68        69        63        60        56        32        32        32        30 
dram[3]:        32        32        32        30        34        47        70        70        47        60        57        50        32        32        32        32 
dram[4]:        32        32        32        30        39        46        79        67        71        64        61        55        30        32        31        32 
dram[5]:        32        32        32        30        40        48        77        72        71        64        64        55        32        32        32        32 
maximum service time to same row:
dram[0]:    422344    417129    429455    425500    422660    415949    420282    361665    421230    417069    423055    417129    422930    417003    422597    417123 
dram[1]:    417934    418022    425335    425065    418817    418341    414960    413563    417568    416690    418422    418233    418364    418189    417940    418125 
dram[2]:    418197    422613    427178    422733    417360    422511    412461    419159    418333    421050    418237    422294    418160    422322    418168    422487 
dram[3]:    419421    427700    428225    427413    419450    428168    417434    428217    416182    413988    419454    418009    419582    428081    419572    427866 
dram[4]:    419674    423938    428871    423720    418663    424353    418167    424269    420432    357636    420175    417609    420064    424110    419812    424015 
dram[5]:    420445    424020    428678    424035    413933    424055    388180    424123    420456    414375    420106    420937    420131    424257    420415    424141 
average row accesses per activate:
dram[0]:  7.270270  7.588653  7.666667  7.807407  8.051471  8.095589  9.313869  9.007092  8.684932  8.800000  8.581560  9.022388  7.503497  7.528169  7.567376  7.496503 
dram[1]:  7.475524  7.451389  7.471831  7.419580  8.074074  7.992754  9.459259  8.563759  8.833333  8.687075  8.830882  8.852942  7.393104  7.676259  7.521127  7.542253 
dram[2]:  7.669065  7.724638  7.604317  7.475177  8.103703  7.914894  9.437037  8.846154  9.107914  8.238709  8.802919  8.460993  7.535211  7.451389  7.319728  7.416667 
dram[3]:  7.400000  7.386207  7.604317  7.742647  8.162963  8.421053  8.326797  8.423841  8.653061  8.719178  8.239726  8.220690  7.661870  7.400000  7.574468  7.581560 
dram[4]:  7.437500  7.549296  7.604317  7.496454  8.356061  8.413534  9.299270  8.300653  9.179856  8.746575  8.838235  8.550000  7.372414  7.676259  7.507042  7.542253 
dram[5]:  7.773723  7.731884  7.464789  7.528572  8.484615  8.549619  9.179856  9.268116  9.411765  9.275362  8.955556  8.859260  7.489511  7.535211  7.581560  7.482518 
average row locality = 109461/13512 = 8.101022
number of total memory accesses made:
dram[0]:         0         0         0         0         0         0         0         0         0         0         0         0         0         0         0         0 
dram[1]:         0         0         0         0         0         0         0         0         0         0         0         0         0         0         0         0 
dram[2]:         0         0         0         0         0         0         0         0         0         0         0         0         0         0         0         0 
dram[3]:         0         0         0         0         0         0         0         0         0         0         0         0         0         0         0         0 
dram[4]:         0         0         0         0         0         0         0         0         0         0         0         0         0         0         0         0 
dram[5]:         0         0         0         0         0         0         0         0         0         0         0         0         0         0         0         0 
total accesses: 0
min_bank_accesses = 0!
min_chip_accesses = 0!
number of total read accesses:
dram[0]:      1076      1070      1058      1054      1044      1044      1088      1088      1088      1088      1082      1078      1073      1069      1067      1072 
dram[1]:      1069      1073      1061      1061      1044      1044      1088      1088      1088      1088      1078      1078      1072      1067      1068      1071 
dram[2]:      1066      1066      1057      1054      1044      1048      1088      1088      1088      1088      1080      1077      1070      1073      1076      1068 
dram[3]:      1073      1071      1057      1053      1044      1048      1088      1088      1088      1088      1079      1076      1065      1073      1068      1069 
dram[4]:      1071      1072      1057      1057      1044      1048      1088      1088      1088      1088      1078      1077      1069      1067      1066      1071 
dram[5]:      1065      1067      1060      1054      1044      1048      1088      1088      1088      1088      1078      1077      1071      1070      1069      1070 
total reads: 102790
bank skew: 1088/1044 = 1.04
chip skew: 17139/17125 = 1.00
number of total write accesses:
dram[0]:         0         0         0         0        51        57       188       182       180       188       128       131         0         0         0         0 
dram[1]:         0         0         0         0        46        59       189       188       184       189       123       126         0         0         0         0 
dram[2]:         0         0         0         0        50        68       186       177       178       189       126       116         0         0         0         0 
dram[3]:         0         0         0         0        58        72       186       184       184       185       124       116         0         0         0         0 
dram[4]:         0         0         0         0        59        71       186       182       188       189       124       120         0         0         0         0 
dram[5]:         0         0         0         0        59        72       188       191       192       192       131       119         0         0         0         0 
total reads: 6671
min_bank_accesses = 0!
chip skew: 1144/1090 = 1.05
average mf latency per bank:
dram[0]:      11308     11265      7408      7385       421       437       401       423       411       399      4227      4195     13547     13640     12441     12262
dram[1]:      11394     11127      7364      7364       442       434       432       426       429       411      4194      4251     13168     13593     12393     12647
dram[2]:      11639     11457      7461      6820       436       446       413       431       415       415      4216      5062     13665     13562     12637     12268
dram[3]:      11385     11632      7418      7007       439       422       424       424       423       425      4072      5098     13555     13635     12599     12686
dram[4]:      11230     11155      7495      6814       429       429       429       439       419       438      4243      4848     13871     13519     12715     12269
dram[5]:      11443     10858      7194      6396       430       411       419       413       422       414      4143      4842     13260     13047     12270     11922
maximum mf latency per bank:
dram[0]:        822       787       856       861       799       860       775       801       794       766       829       875       804       819       886       889
dram[1]:        882       814       816       866       982       838       883       863       895       840       946       798       829       860       846       785
dram[2]:        869       861       873       812       821       855       857       801       830       908       831      1002       862       782       869       817
dram[3]:        816       839       778       833       828       816       869       822       827       980       862       860       824       918       814       863
dram[4]:        833       797       808       782       795       833       923       834       806       913       840       837       829       800       880       924
dram[5]:        798       776       808       763       880       774       878       848       887       786       831       801       789       880      1023       787

Number of Memory Banks Accessed per Memory Operation per Warp (from 0):
0	0	0	0	0	0	0	0	0	0	0	0	0	0	0	0	0	0	0	0	0	0	0	0	0	0	0	0	0	0	0	0	0	0	0	0	0	0	0	0	0	0	0	0	0	0	0	0	0	0	0	0	0	0	0	0	0	0	0	0	0	0	0	0	0	0	0	0	0	0	0	0	0	0	0	0	0	0	0	0	0	0	0	0	0	0	0	0	0	0	0	0	0	0	0	0	
Average # of Memory Banks Accessed per Memory Operation per Warp=-nan

position of mrq chosen
0	0	0	0	0	0	0	0	0	0	0	0	0	0	0	0	

average position of mrq chosen = -nan
Memory Partition 0: 
Cache L2_bank_000:
MSHR contents

Cache L2_bank_001:
MSHR contents

In Dram Latency Queue (total = 0): 
DRAM[0]: 16 bks, busW=4 BL=8 CL=12, tRRD=2 tCCD=6, tRCD=12 tRAS=28 tRP=12 tRC=40
n_cmd=5457002 n_nop=5416036 n_act=2247 n_pre=2231 n_req=18244 n_rd=34278 n_write=2210 bw_util=0.01337
n_activity=298654 dram_eff=0.2443
bk0: 2152a 5448446i bk1: 2140a 5448615i bk2: 2116a 5448521i bk3: 2108a 5448483i bk4: 2088a 5448135i bk5: 2088a 5448013i bk6: 2176a 5446516i bk7: 2176a 5446118i bk8: 2176a 5446389i bk9: 2176a 5446538i bk10: 2164a 5447140i bk11: 2156a 5447331i bk12: 2146a 5448541i bk13: 2138a 5448566i bk14: 2134a 5448537i bk15: 2144a 5448336i 
dram_util_bins: 0 0 0 0 0 0 0 0 0 0
dram_eff_bins: 0 0 0 0 0 0 0 0 0 0
mrqq: max=16 avg=0.00856734
Memory Partition 1: 
Cache L2_bank_002:
MSHR contents

Cache L2_bank_003:
MSHR contents

In Dram Latency Queue (total = 0): 
DRAM[1]: 16 bks, busW=4 BL=8 CL=12, tRRD=2 tCCD=6, tRCD=12 tRAS=28 tRP=12 tRC=40
n_cmd=5457002 n_nop=5416014 n_act=2260 n_pre=2244 n_req=18242 n_rd=34276 n_write=2208 bw_util=0.01337
n_activity=295587 dram_eff=0.2469
bk0: 2138a 5448524i bk1: 2146a 5448444i bk2: 2122a 5448309i bk3: 2122a 5448446i bk4: 2088a 5448185i bk5: 2088a 5448022i bk6: 2176a 5446171i bk7: 2176a 5445824i bk8: 2176a 5446174i bk9: 2176a 5445986i bk10: 2156a 5446829i bk11: 2156a 5446904i bk12: 2144a 5448241i bk13: 2134a 5448361i bk14: 2136a 5448215i bk15: 2142a 5448000i 
dram_util_bins: 0 0 0 0 0 0 0 0 0 0
dram_eff_bins: 0 0 0 0 0 0 0 0 0 0
mrqq: max=16 avg=0.0169305
Memory Partition 2: 
Cache L2_bank_004:
MSHR contents

Cache L2_bank_005:
MSHR contents

In Dram Latency Queue (total = 0): 
DRAM[2]: 16 bks, busW=4 BL=8 CL=12, tRRD=2 tCCD=6, tRCD=12 tRAS=28 tRP=12 tRC=40
n_cmd=5457002 n_nop=5416056 n_act=2260 n_pre=2244 n_req=18221 n_rd=34262 n_write=2180 bw_util=0.01336
n_activity=294233 dram_eff=0.2477
bk0: 2132a 5448607i bk1: 2132a 5448563i bk2: 2114a 5448504i bk3: 2108a 5448360i bk4: 2088a 5448201i bk5: 2096a 5447753i bk6: 2176a 5446239i bk7: 2176a 5445969i bk8: 2176a 5446333i bk9: 2176a 5445714i bk10: 2160a 5446982i bk11: 2154a 5446788i bk12: 2140a 5448485i bk13: 2146a 5448210i bk14: 2152a 5448035i bk15: 2136a 5448101i 
dram_util_bins: 0 0 0 0 0 0 0 0 0 0
dram_eff_bins: 0 0 0 0 0 0 0 0 0 0
mrqq: max=16 avg=0.0157486
Memory Partition 3: 
Cache L2_bank_006:
MSHR contents

Cache L2_bank_007:
MSHR contents

In Dram Latency Queue (total = 0): 
DRAM[3]: 16 bks, busW=4 BL=8 CL=12, tRRD=2 tCCD=6, tRCD=12 tRAS=28 tRP=12 tRC=40
n_cmd=5457002 n_nop=5415970 n_act=2287 n_pre=2271 n_req=18237 n_rd=34256 n_write=2218 bw_util=0.01337
n_activity=295256 dram_eff=0.2471
bk0: 2146a 5448588i bk1: 2142a 5448453i bk2: 2114a 5448594i bk3: 2106a 5448569i bk4: 2088a 5448095i bk5: 2096a 5447916i bk6: 2176a 5445640i bk7: 2176a 5445711i bk8: 2176a 5446060i bk9: 2176a 5446259i bk10: 2158a 5446824i bk11: 2152a 5447072i bk12: 2130a 5448483i bk13: 2146a 5448294i bk14: 2136a 5448315i bk15: 2138a 5448225i 
dram_util_bins: 0 0 0 0 0 0 0 0 0 0
dram_eff_bins: 0 0 0 0 0 0 0 0 0 0
mrqq: max=16 avg=0.0119426
Memory Partition 4: 
Cache L2_bank_008:
MSHR contents

Cache L2_bank_009:
MSHR contents

In Dram Latency Queue (total = 0): 
DRAM[4]: 16 bks, busW=4 BL=8 CL=12, tRRD=2 tCCD=6, tRCD=12 tRAS=28 tRP=12 tRC=40
n_cmd=5457002 n_nop=5416022 n_act=2250 n_pre=2234 n_req=18248 n_rd=34258 n_write=2238 bw_util=0.01338
n_activity=297096 dram_eff=0.2457
bk0: 2142a 5448441i bk1: 2144a 5448533i bk2: 2114a 5448494i bk3: 2114a 5448430i bk4: 2088a 5448146i bk5: 2096a 5447792i bk6: 2176a 5446260i bk7: 2176a 5445676i bk8: 2176a 5446337i bk9: 2176a 5446004i bk10: 2156a 5446948i bk11: 2154a 5447031i bk12: 2138a 5448500i bk13: 2134a 5448584i bk14: 2132a 5448438i bk15: 2142a 5448347i 
dram_util_bins: 0 0 0 0 0 0 0 0 0 0
dram_eff_bins: 0 0 0 0 0 0 0 0 0 0
mrqq: max=16 avg=0.0149674
Memory Partition 5: 
Cache L2_bank_010:
MSHR contents

Cache L2_bank_011:
MSHR contents

In Dram Latency Queue (total = 0): 
DRAM[5]: 16 bks, busW=4 BL=8 CL=12, tRRD=2 tCCD=6, tRCD=12 tRAS=28 tRP=12 tRC=40
n_cmd=5457002 n_nop=5416064 n_act=2208 n_pre=2192 n_req=18269 n_rd=34250 n_write=2288 bw_util=0.01339
n_activity=295877 dram_eff=0.247
bk0: 2130a 5448770i bk1: 2134a 5448731i bk2: 2120a 5448333i bk3: 2108a 5448504i bk4: 2088a 5448262i bk5: 2096a 5447990i bk6: 2176a 5446131i bk7: 2176a 5446070i bk8: 2176a 5446317i bk9: 2176a 5446228i bk10: 2156a 5447030i bk11: 2154a 5447155i bk12: 2142a 5448556i bk13: 2140a 5448436i bk14: 2138a 5448356i bk15: 2140a 5448277i 
dram_util_bins: 0 0 0 0 0 0 0 0 0 0
dram_eff_bins: 0 0 0 0 0 0 0 0 0 0
mrqq: max=16 avg=0.015042

========= L2 cache stats =========
L2_cache_bank[0]: Access = 253837, Miss = 8576, Miss_rate = 0.034, Pending_hits = 354, Reservation_fails = 351
L2_cache_bank[1]: Access = 256364, Miss = 8563, Miss_rate = 0.033, Pending_hits = 363, Reservation_fails = 77
L2_cache_bank[2]: Access = 254263, Miss = 8568, Miss_rate = 0.034, Pending_hits = 350, Reservation_fails = 184
L2_cache_bank[3]: Access = 254760, Miss = 8570, Miss_rate = 0.034, Pending_hits = 357, Reservation_fails = 54
L2_cache_bank[4]: Access = 255322, Miss = 8569, Miss_rate = 0.034, Pending_hits = 355, Reservation_fails = 36
L2_cache_bank[5]: Access = 254862, Miss = 8562, Miss_rate = 0.034, Pending_hits = 350, Reservation_fails = 96
L2_cache_bank[6]: Access = 255131, Miss = 8562, Miss_rate = 0.034, Pending_hits = 337, Reservation_fails = 75
L2_cache_bank[7]: Access = 256268, Miss = 8566, Miss_rate = 0.033, Pending_hits = 351, Reservation_fails = 20
L2_cache_bank[8]: Access = 255065, Miss = 8561, Miss_rate = 0.034, Pending_hits = 363, Reservation_fails = 80
L2_cache_bank[9]: Access = 255299, Miss = 8568, Miss_rate = 0.034, Pending_hits = 350, Reservation_fails = 97
L2_cache_bank[10]: Access = 254794, Miss = 8563, Miss_rate = 0.034, Pending_hits = 382, Reservation_fails = 61
L2_cache_bank[11]: Access = 252531, Miss = 8562, Miss_rate = 0.034, Pending_hits = 389, Reservation_fails = 95
L2_total_cache_accesses = 3058496
L2_total_cache_misses = 102790
L2_total_cache_miss_rate = 0.0336
L2_total_cache_pending_hits = 4301
L2_total_cache_reservation_fails = 1226
L2_total_cache_breakdown:
	L2_cache_stats_breakdown[GLOBAL_ACC_R][HIT] = 2948
	L2_cache_stats_breakdown[GLOBAL_ACC_R][MISS] = 98428
	L2_cache_stats_breakdown[CONST_ACC_R][HIT] = 11
	L2_cache_stats_breakdown[CONST_ACC_R][HIT_RESERVED] = 3
	L2_cache_stats_breakdown[CONST_ACC_R][MISS] = 1
	L2_cache_stats_breakdown[CONST_ACC_R][RESERVATION_FAIL] = 103
	L2_cache_stats_breakdown[TEXTURE_ACC_R][HIT] = 2947821
	L2_cache_stats_breakdown[TEXTURE_ACC_R][HIT_RESERVED] = 245
	L2_cache_stats_breakdown[TEXTURE_ACC_R][MISS] = 2052
	L2_cache_stats_breakdown[TEXTURE_ACC_R][RESERVATION_FAIL] = 416
	L2_cache_stats_breakdown[GLOBAL_ACC_W][HIT] = 569
	L2_cache_stats_breakdown[GLOBAL_ACC_W][HIT_RESERVED] = 4039
	L2_cache_stats_breakdown[GLOBAL_ACC_W][MISS] = 2304
	L2_cache_stats_breakdown[GLOBAL_ACC_W][RESERVATION_FAIL] = 351
	L2_cache_stats_breakdown[INST_ACC_R][HIT] = 56
	L2_cache_stats_breakdown[INST_ACC_R][HIT_RESERVED] = 14
	L2_cache_stats_breakdown[INST_ACC_R][MISS] = 5
	L2_cache_stats_breakdown[INST_ACC_R][RESERVATION_FAIL] = 356
L2_cache_data_port_util = 0.238
L2_cache_fill_port_util = 0.008

icnt_total_pkts_mem_to_simt=15264802
icnt_total_pkts_simt_to_mem=3086144
LD_mem_lat_dist  0 0 0 0 0 0 0 0 0 0 0 0 0 0 0 0 0 0 0 0 0 0 0 0 0 0 0
ST_mem_lat_dist  0 0 0 0 0 0 0 0 0 0 0 0 0 0 0 0 0 0 0 0 0 0 0 0 0 0 0
----------------------------Interconnect-DETAILS--------------------------------
Class 0:
Packet latency average = 33.1454
	minimum = 6
	maximum = 437
Network latency average = 23.6086
	minimum = 6
	maximum = 372
Slowest packet = 3058843
Flit latency average = 21.678
	minimum = 6
	maximum = 372
Slowest flit = 10605086
Fragmentation average = 0.00277476
	minimum = 0
	maximum = 211
Injected packet rate average = 0.0546457
	minimum = 0.0460348 (at node 13)
	maximum = 0.0618323 (at node 16)
Accepted packet rate average = 0.0546457
	minimum = 0.0460348 (at node 13)
	maximum = 0.0618323 (at node 16)
Injected flit rate average = 0.163937
	minimum = 0.0464515 (at node 13)
	maximum = 0.308606 (at node 16)
Accepted flit rate average= 0.163937
	minimum = 0.061471 (at node 26)
	maximum = 0.306898 (at node 6)
Injected packet length average = 3
Accepted packet length average = 3
Total in-flight flits = 0 (0 measured)
====== Overall Traffic Statistics ======
====== Traffic class 0 ======
Packet latency average = 33.114 (2 samples)
	minimum = 6 (2 samples)
	maximum = 452 (2 samples)
Network latency average = 23.5977 (2 samples)
	minimum = 6 (2 samples)
	maximum = 398.5 (2 samples)
Flit latency average = 21.6388 (2 samples)
	minimum = 6 (2 samples)
	maximum = 398.5 (2 samples)
Fragmentation average = 0.00288852 (2 samples)
	minimum = 0 (2 samples)
	maximum = 231 (2 samples)
Injected packet rate average = 0.0548021 (2 samples)
	minimum = 0.0461672 (2 samples)
	maximum = 0.0620127 (2 samples)
Accepted packet rate average = 0.0548021 (2 samples)
	minimum = 0.0461672 (2 samples)
	maximum = 0.0620127 (2 samples)
Injected flit rate average = 0.164406 (2 samples)
	minimum = 0.0465852 (2 samples)
	maximum = 0.309506 (2 samples)
Accepted flit rate average = 0.164406 (2 samples)
	minimum = 0.0616428 (2 samples)
	maximum = 0.307822 (2 samples)
Injected packet size average = 3 (2 samples)
Accepted packet size average = 3 (2 samples)
Hops average = 1 (2 samples)
