

        *** GPGPU-Sim Simulator Version 3.2.2  [build 0] ***


GPGPU-Sim PTX: simulation mode 0 (can change with PTX_SIM_MODE_FUNC environment variable:
               1=functional simulation only, 0=detailed performance simulator)
GPGPU-Sim: Configuration options:

-network_mode                           1 # Interconnection network mode
-inter_config_file   config_fermi_islip.icnt # Interconnection network config file
-gpgpu_ptx_use_cuobjdump                    1 # Use cuobjdump to extract ptx and sass from binaries
-gpgpu_experimental_lib_support                    0 # Try to extract code from cuda libraries [Broken because of unknown cudaGetExportTable]
-gpgpu_ptx_convert_to_ptxplus                    0 # Convert SASS (native ISA) to ptxplus and run ptxplus
-gpgpu_ptx_force_max_capability                   20 # Force maximum compute capability
-gpgpu_ptx_inst_debug_to_file                    0 # Dump executed instructions' debug information to file
-gpgpu_ptx_inst_debug_file       inst_debug.txt # Executed instructions' debug output file
-gpgpu_ptx_inst_debug_thread_uid                    1 # Thread UID for executed instructions' debug output
-gpgpu_simd_model                       1 # 1 = post-dominator
-gpgpu_shader_core_pipeline              1536:32 # shader core pipeline config, i.e., {<nthread>:<warpsize>}
-gpgpu_tex_cache:l1  4:128:24,L:R:m:N:L,F:128:4,128:2 # per-shader L1 texture cache  (READ-ONLY) config  {<nsets>:<bsize>:<assoc>,<rep>:<wr>:<alloc>:<wr_alloc>,<mshr>:<N>:<merge>,<mq>:<rf>}
-gpgpu_const_cache:l1 64:64:2,L:R:f:N:L,A:2:32,4 # per-shader L1 constant memory cache  (READ-ONLY) config  {<nsets>:<bsize>:<assoc>,<rep>:<wr>:<alloc>:<wr_alloc>,<mshr>:<N>:<merge>,<mq>} 
-gpgpu_cache:il1     4:128:4,L:R:f:N:L,A:2:32,4 # shader L1 instruction cache config  {<nsets>:<bsize>:<assoc>,<rep>:<wr>:<alloc>:<wr_alloc>,<mshr>:<N>:<merge>,<mq>} 
-gpgpu_cache:dl1     32:128:4,L:L:m:N:H,A:32:8,8:2,0,0:0:1:1:0:1,1:4:8:16:32:64,/sciclone/data10/hwang07/GPU_RESEARCH/swl/swl_outputs/RESULTS/ # per-shader L1 data cache config  {<nsets>:<bsize>:<assoc>,<rep>:<wr>:<alloc>:<wr_alloc>,<mshr>:<N>:<merge>,<mq> | none}
-gpgpu_cache:dl1PrefL1                 none # per-shader L1 data cache config  {<nsets>:<bsize>:<assoc>,<rep>:<wr>:<alloc>:<wr_alloc>,<mshr>:<N>:<merge>,<mq> | none}
-gpgpu_cache:dl1PreShared                 none # per-shader L1 data cache config  {<nsets>:<bsize>:<assoc>,<rep>:<wr>:<alloc>:<wr_alloc>,<mshr>:<N>:<merge>,<mq> | none}
-gmem_skip_L1D                          0 # global memory access skip L1D cache (implements -Xptxas -dlcm=cg, default=no skip)
-gpgpu_perfect_mem                      0 # enable perfect memory mode (no cache miss)
-n_regfile_gating_group                    4 # group of lanes that should be read/written together)
-gpgpu_clock_gated_reg_file                    0 # enable clock gated reg file for power calculations
-gpgpu_clock_gated_lanes                    0 # enable clock gated lanes for power calculations
-gpgpu_shader_registers                32768 # Number of registers per shader core. Limits number of concurrent CTAs. (default 8192)
-gpgpu_shader_cta                       8 # Maximum number of concurrent CTAs in shader (default 8)
-gpgpu_num_cta_barriers                   16 # Maximum number of named barriers per CTA (default 16)
-gpgpu_n_clusters                      15 # number of processing clusters
-gpgpu_n_cores_per_cluster                    1 # number of simd cores per cluster
-gpgpu_n_cluster_ejection_buffer_size                    8 # number of packets in ejection buffer
-gpgpu_n_ldst_response_buffer_size                    2 # number of response packets in ld/st unit ejection buffer
-gpgpu_shmem_size                   16384 # Size of shared memory per shader core (default 16kB)
-gpgpu_shmem_size                   49152 # Size of shared memory per shader core (default 16kB)
-gpgpu_shmem_size_PrefL1                16384 # Size of shared memory per shader core (default 16kB)
-gpgpu_shmem_size_PrefShared                16384 # Size of shared memory per shader core (default 16kB)
-gpgpu_shmem_num_banks                   32 # Number of banks in the shared memory in each shader core (default 16)
-gpgpu_shmem_limited_broadcast                    0 # Limit shared memory to do one broadcast per cycle (default on)
-gpgpu_shmem_warp_parts                    1 # Number of portions a warp is divided into for shared memory bank conflict check 
-gpgpu_warpdistro_shader                   -1 # Specify which shader core to collect the warp size distribution from
-gpgpu_warp_issue_shader                    0 # Specify which shader core to collect the warp issue distribution from
-gpgpu_local_mem_map                    1 # Mapping from local memory space address to simulated GPU physical address space (default = enabled)
-gpgpu_num_reg_banks                   16 # Number of register banks (default = 8)
-gpgpu_reg_bank_use_warp_id                    0 # Use warp ID in mapping registers to banks (default = off)
-gpgpu_operand_collector_num_units_sp                    6 # number of collector units (default = 4)
-gpgpu_operand_collector_num_units_sfu                    8 # number of collector units (default = 4)
-gpgpu_operand_collector_num_units_mem                    2 # number of collector units (default = 2)
-gpgpu_operand_collector_num_units_gen                    0 # number of collector units (default = 0)
-gpgpu_operand_collector_num_in_ports_sp                    2 # number of collector unit in ports (default = 1)
-gpgpu_operand_collector_num_in_ports_sfu                    1 # number of collector unit in ports (default = 1)
-gpgpu_operand_collector_num_in_ports_mem                    1 # number of collector unit in ports (default = 1)
-gpgpu_operand_collector_num_in_ports_gen                    0 # number of collector unit in ports (default = 0)
-gpgpu_operand_collector_num_out_ports_sp                    2 # number of collector unit in ports (default = 1)
-gpgpu_operand_collector_num_out_ports_sfu                    1 # number of collector unit in ports (default = 1)
-gpgpu_operand_collector_num_out_ports_mem                    1 # number of collector unit in ports (default = 1)
-gpgpu_operand_collector_num_out_ports_gen                    0 # number of collector unit in ports (default = 0)
-gpgpu_coalesce_arch                   13 # Coalescing arch (default = 13, anything else is off for now)
-gpgpu_num_sched_per_core                    2 # Number of warp schedulers per core
-gpgpu_max_insn_issue_per_warp                    1 # Max number of instructions that can be issued per warp in one cycle by scheduler
-gpgpu_simt_core_sim_order                    1 # Select the simulation order of cores in a cluster (0=Fix, 1=Round-Robin)
-gpgpu_pipeline_widths        2,1,1,2,1,1,2 # Pipeline widths ID_OC_SP,ID_OC_SFU,ID_OC_MEM,OC_EX_SP,OC_EX_SFU,OC_EX_MEM,EX_WB
-gpgpu_num_sp_units                     2 # Number of SP units (default=1)
-gpgpu_num_sfu_units                    1 # Number of SF units (default=1)
-gpgpu_num_mem_units                    1 # Number if ldst units (default=1) WARNING: not hooked up to anything
-gpgpu_scheduler      warp_limiting:2:1:1 # Scheduler configuration: < lrr | gto | two_level_active > If two_level_active:<num_active_warps>:<inner_prioritization>:<outer_prioritization>For complete list of prioritization values see shader.h enum scheduler_prioritization_typeDefault: gto
-gpgpu_dram_scheduler                    1 # 0 = fifo, 1 = FR-FCFS (defaul)
-gpgpu_dram_partition_queues              8:8:8:8 # i2$:$2d:d2$:$2i
-l2_ideal                               0 # Use a ideal L2 cache that always hit
-gpgpu_cache:dl2     64:128:8,L:B:m:W:L,A:32:4,4:0,32 # unified banked L2 data cache config  {<nsets>:<bsize>:<assoc>,<rep>:<wr>:<alloc>:<wr_alloc>,<mshr>:<N>:<merge>,<mq>}
-gpgpu_cache:dl2_texture_only                    0 # L2 cache used for texture only
-gpgpu_n_mem                            6 # number of memory modules (e.g. memory controllers) in gpu
-gpgpu_n_sub_partition_per_mchannel                    2 # number of memory subpartition in each memory module
-gpgpu_n_mem_per_ctrlr                    2 # number of memory chips per memory controller
-gpgpu_memlatency_stat                   14 # track and display latency statistics 0x2 enables MC, 0x4 enables queue logs
-gpgpu_frfcfs_dram_sched_queue_size                   16 # 0 = unlimited (default); # entries per chip
-gpgpu_dram_return_queue_size                  116 # 0 = unlimited (default); # entries per chip
-gpgpu_dram_buswidth                    4 # default = 4 bytes (8 bytes per cycle at DDR)
-gpgpu_dram_burst_length                    8 # Burst length of each DRAM request (default = 4 data bus cycle)
-dram_data_command_freq_ratio                    4 # Frequency ratio between DRAM data bus and command bus (default = 2 times, i.e. DDR)
-gpgpu_dram_timing_opt nbk=16:CCD=2:RRD=6:RCD=12:RAS=28:RP=12:RC=40: CL=12:WL=4:CDLR=5:WR=12:nbkgrp=4:CCDL=3:RTPL=2 # DRAM timing parameters = {nbk:tCCD:tRRD:tRCD:tRAS:tRP:tRC:CL:WL:tCDLR:tWR:nbkgrp:tCCDL:tRTPL}
-rop_latency                          120 # ROP queue latency (default 85)
-dram_latency                         100 # DRAM latency (default 30)
-gpgpu_mem_addr_mapping dramid@8;00000000.00000000.00000000.00000000.0000RRRR.RRRRRRRR.BBBCCCCB.CCSSSSSS # mapping memory address to dram model {dramid@<start bit>;<memory address map>}
-gpgpu_mem_addr_test                    0 # run sweep test to check address mapping for aliased address
-gpgpu_mem_address_mask                    1 # 0 = old addressing mask, 1 = new addressing mask, 2 = new add. mask + flipped bank sel and chip sel bits
-gpuwattch_xml_file  gpuwattch_gtx480.xml # GPUWattch XML file
-power_simulation_enabled                    0 # Turn on power simulator (1=On, 0=Off)
-power_per_cycle_dump                    0 # Dump detailed power output each cycle
-power_trace_enabled                    0 # produce a file for the power trace (1=On, 0=Off)
-power_trace_zlevel                     6 # Compression level of the power trace output log (0=no comp, 9=highest)
-steady_power_levels_enabled                    0 # produce a file for the steady power levels (1=On, 0=Off)
-steady_state_definition                  8:4 # allowed deviation:number of samples
-gpgpu_max_cycle                        0 # terminates gpu simulation early (0 = no limit)
-gpgpu_max_insn                         0 # terminates gpu simulation early (0 = no limit)
-gpgpu_max_cta                          0 # terminates gpu simulation early (0 = no limit)
-gpgpu_runtime_stat                   500 # display runtime statistics such as dram utilization {<freq>:<flag>}
-liveness_message_freq                    1 # Minimum number of seconds between simulation liveness messages (0 = always print)
-gpgpu_flush_l1_cache                    0 # Flush L1 cache at the end of each kernel call
-gpgpu_flush_l2_cache                    0 # Flush L2 cache at the end of each kernel call
-gpgpu_deadlock_detect                    1 # Stop the simulation at deadlock (1=on (default), 0=off)
-gpgpu_ptx_instruction_classification                    0 # if enabled will classify ptx instruction types per kernel (Max 255 kernels now)
-gpgpu_ptx_sim_mode                     0 # Select between Performance (default) or Functional simulation (1)
-gpgpu_clock_domains 700.0:700.0:700.0:924.0 # Clock Domain Frequencies in MhZ {<Core Clock>:<ICNT Clock>:<L2 Clock>:<DRAM Clock>}
-gpgpu_max_concurrent_kernel                    8 # maximum kernels that can run concurrently on GPU
-gpgpu_cflog_interval                    0 # Interval between each snapshot in control flow logger
-visualizer_enabled                     0 # Turn on visualizer output (1=On, 0=Off)
-visualizer_outputfile                 NULL # Specifies the output log file for visualizer
-visualizer_zlevel                      6 # Compression level of the visualizer output log (0=no comp, 9=highest)
-trace_enabled                          0 # Turn on traces
-trace_components                    none # comma seperated list of traces to enable. Complete list found in trace_streams.tup. Default none
-trace_sampling_core                    0 # The core which is printed using CORE_DPRINTF. Default 0
-trace_sampling_memory_partition                   -1 # The memory partition which is printed using MEMPART_DPRINTF. Default -1 (i.e. all)
-enable_ptx_file_line_stats                    1 # Turn on PTX source line statistic profiling. (1 = On)
-ptx_line_stats_filename gpgpu_inst_stats.txt # Output file for PTX source line statistics.
-save_embedded_ptx                      0 # saves ptx files embedded in binary as <n>.ptx
-keep                                   0 # keep intermediate files created by GPGPU-Sim when interfacing with external programs
-gpgpu_ptx_save_converted_ptxplus                    0 # Saved converted ptxplus to a file
-ptx_opcode_latency_int         4,13,4,5,145 # Opcode latencies for integers <ADD,MAX,MUL,MAD,DIV>Default 1,1,19,25,145
-ptx_opcode_latency_fp          4,13,4,5,39 # Opcode latencies for single precision floating points <ADD,MAX,MUL,MAD,DIV>Default 1,1,1,1,30
-ptx_opcode_latency_dp         8,19,8,8,330 # Opcode latencies for double precision floating points <ADD,MAX,MUL,MAD,DIV>Default 8,8,8,8,335
-ptx_opcode_initiation_int            1,2,2,1,8 # Opcode initiation intervals for integers <ADD,MAX,MUL,MAD,DIV>Default 1,1,4,4,32
-ptx_opcode_initiation_fp            1,2,1,1,4 # Opcode initiation intervals for single precision floating points <ADD,MAX,MUL,MAD,DIV>Default 1,1,1,1,5
-ptx_opcode_initiation_dp         8,16,8,8,130 # Opcode initiation intervals for double precision floating points <ADD,MAX,MUL,MAD,DIV>Default 8,8,8,8,130
DRAM Timing Options:
nbk                                    16 # number of banks
CCD                                     2 # column to column delay
RRD                                     6 # minimal delay between activation of rows in different banks
RCD                                    12 # row to column delay
RAS                                    28 # time needed to activate row
RP                                     12 # time needed to precharge (deactivate) row
RC                                     40 # row cycle time
CDLR                                    5 # switching from write to read (changes tWTR)
WR                                     12 # last data-in to row precharge
CL                                     12 # CAS latency
WL                                      4 # Write latency
nbkgrp                                  4 # number of bank groups
CCDL                                    3 # column to column delay between accesses to different bank groups
RTPL                                    2 # read to precharge delay between accesses to different bank groups
Total number of memory sub partition = 12
addr_dec_mask[CHIP]  = 0000000000000000 	high:64 low:0
addr_dec_mask[BK]    = 000000000000e100 	high:16 low:8
addr_dec_mask[ROW]   = 000000000fff0000 	high:28 low:16
addr_dec_mask[COL]   = 0000000000001eff 	high:13 low:0
addr_dec_mask[BURST] = 000000000000003f 	high:6 low:0
sub_partition_id_mask = 0000000000000100
GPGPU-Sim uArch: clock freqs: 700000000.000000:700000000.000000:700000000.000000:924000000.000000
GPGPU-Sim uArch: clock periods: 0.00000000142857142857:0.00000000142857142857:0.00000000142857142857:0.00000000108225108225
*** Initializing Memory Statistics ***
GPGPU-Sim uArch: interconnect node map (shaderID+MemID to icntID)
GPGPU-Sim uArch: Memory nodes ID start from index: 15
GPGPU-Sim uArch:    0   1   2   3   4
GPGPU-Sim uArch:    5   6   7   8   9
GPGPU-Sim uArch:   10  11  12  13  14
GPGPU-Sim uArch:   15  16  17  18  19
GPGPU-Sim uArch:   20  21  22  23  24
GPGPU-Sim uArch:   25  26
GPGPU-Sim uArch: interconnect node reverse map (icntID to shaderID+MemID)
GPGPU-Sim uArch: Memory nodes start from ID: 15
GPGPU-Sim uArch:    0   1   2   3   4
GPGPU-Sim uArch:    5   6   7   8   9
GPGPU-Sim uArch:   10  11  12  13  14
GPGPU-Sim uArch:   15  16  17  18  19
GPGPU-Sim uArch:   20  21  22  23  24
GPGPU-Sim uArch:   25  26
316bcbff5f8f022bb22b20bb4721e93e  /sciclone/data10/hwang07/adwait/applications/benchmarks/CUDA/RAY/gpgpu_ptx_sim__RAY
GPGPU-Sim uArch: performance model initialization complete.
GPGPU-Sim PTX: __cudaRegisterFatBinary, fat_cubin_handle = 1, filename=rayTracing.cu
self exe links to: /sciclone/data10/hwang07/adwait/applications/benchmarks/CUDA/RAY/gpgpu_ptx_sim__RAY
Running md5sum using "md5sum /sciclone/data10/hwang07/adwait/applications/benchmarks/CUDA/RAY/gpgpu_ptx_sim__RAY "
Parsing file _cuobjdump_complete_output_RMnNyq
######### cuobjdump parser ########
## Adding new section ELF
Adding arch: sm_20
Adding identifier: rayTracing.cu
## Adding new section PTX
Adding ptx filename: _cuobjdump_1.ptx
Adding arch: sm_20
Adding identifier: rayTracing.cu
Done parsing!!!
GPGPU-Sim PTX: __cudaRegisterFunction _Z6renderPjP4Nodejjff : hostFun 0x0x40ce13, fat_cubin_handle = 1
GPGPU-Sim PTX: allocating stack frame region for .param "__cudaretf__Zmi6float3S_" from 0x0 to 0xc
GPGPU-Sim PTX: allocating stack frame region for .param "__cudaparmf1__Zmi6float3S_" from 0xc to 0x18
GPGPU-Sim PTX: allocating stack frame region for .param "__cudaparmf2__Zmi6float3S_" from 0x18 to 0x24
GPGPU-Sim PTX: allocating stack frame region for .param "__cudaretf__Z9normalize6float3" from 0x0 to 0xc
GPGPU-Sim PTX: allocating stack frame region for .param "__cudaparmf1__Z9normalize6float3" from 0xc to 0x18
GPGPU-Sim PTX: allocating stack frame region for .param "__cudaretf__Z18intersectionSphere5Rayon6float3f" from 0x0 to 0x4
GPGPU-Sim PTX: allocating stack frame region for .param "__cudaparmf1__Z18intersectionSphere5Rayon6float3f" from 0x4 to 0x1c
GPGPU-Sim PTX: allocating stack frame region for .param "__cudaparmf2__Z18intersectionSphere5Rayon6float3f" from 0x1c to 0x28
GPGPU-Sim PTX: allocating stack frame region for .param "__cudaparmf3__Z18intersectionSphere5Rayon6float3f" from 0x28 to 0x2c
GPGPU-Sim PTX: allocating stack frame region for .param "__cudaretf__Z16intersectionPlan5Rayon6float3S0_" from 0x0 to 0x4
GPGPU-Sim PTX: allocating stack frame region for .param "__cudaparmf1__Z16intersectionPlan5Rayon6float3S0_" from 0x4 to 0x1c
GPGPU-Sim PTX: allocating stack frame region for .param "__cudaparmf2__Z16intersectionPlan5Rayon6float3S0_" from 0x1c to 0x28
GPGPU-Sim PTX: allocating stack frame region for .param "__cudaparmf3__Z16intersectionPlan5Rayon6float3S0_" from 0x28 to 0x34
GPGPU-Sim PTX: allocating stack frame region for .param "__cudaretf__Z10getNormale6float3S_" from 0x0 to 0xc
GPGPU-Sim PTX: allocating stack frame region for .param "__cudaparmf1__Z10getNormale6float3S_" from 0xc to 0x18
GPGPU-Sim PTX: allocating stack frame region for .param "__cudaparmf2__Z10getNormale6float3S_" from 0x18 to 0x24
GPGPU-Sim PTX: allocating stack frame region for .param "__cudaretf__Z11getNormaleP6float3" from 0x0 to 0xc
GPGPU-Sim PTX: allocating stack frame region for .param "__cudaparmf1__Z11getNormaleP6float3" from 0xc to 0x18
GPGPU-Sim PTX: allocating stack frame region for .param "__cudaretf__Z14rgbaFloatToInt6float4" from 0x0 to 0x4
GPGPU-Sim PTX: allocating stack frame region for .param "__cudaparmf1__Z14rgbaFloatToInt6float4" from 0x4 to 0x14
GPGPU-Sim PTX: allocating stack frame region for .param "__cudaretf__Z12notShadowRayP4Node6float3S1_f" from 0x0 to 0x4
GPGPU-Sim PTX: allocating stack frame region for .param "__cudaparmf1__Z12notShadowRayP4Node6float3S1_f" from 0x4 to 0xc
GPGPU-Sim PTX: allocating stack frame region for .param "__cudaparmf2__Z12notShadowRayP4Node6float3S1_f" from 0xc to 0x18
GPGPU-Sim PTX: allocating stack frame region for .param "__cudaparmf3__Z12notShadowRayP4Node6float3S1_f" from 0x18 to 0x24
GPGPU-Sim PTX: allocating stack frame region for .param "__cudaparmf4__Z12notShadowRayP4Node6float3S1_f" from 0x24 to 0x28
GPGPU-Sim PTX: allocating stack frame region for .param "__cudaretf__Z15float2int_pow20f" from 0x0 to 0x4
GPGPU-Sim PTX: allocating stack frame region for .param "__cudaparmf1__Z15float2int_pow20f" from 0x4 to 0x8
GPGPU-Sim PTX: allocating stack frame region for .param "__cudaretf__Z15float2int_pow50f" from 0x0 to 0x4
GPGPU-Sim PTX: allocating stack frame region for .param "__cudaparmf1__Z15float2int_pow50f" from 0x4 to 0x8
GPGPU-Sim PTX: allocating stack frame region for .param "__cudaparmf1__ZN4dim3C1Ejjj" from 0x0 to 0x8
GPGPU-Sim PTX: allocating stack frame region for .param "__cudaparmf2__ZN4dim3C1Ejjj" from 0x8 to 0xc
GPGPU-Sim PTX: allocating stack frame region for .param "__cudaparmf3__ZN4dim3C1Ejjj" from 0xc to 0x10
GPGPU-Sim PTX: allocating stack frame region for .param "__cudaparmf4__ZN4dim3C1Ejjj" from 0x10 to 0x14
GPGPU-Sim PTX: instruction assembly for function '_Zmi6float3S_'...   done.
GPGPU-Sim PTX: finding reconvergence points for '_Zmi6float3S_'...
GPGPU-Sim PTX: Finding dominators for '_Zmi6float3S_'...
GPGPU-Sim PTX: Finding immediate dominators for '_Zmi6float3S_'...
GPGPU-Sim PTX: Finding postdominators for '_Zmi6float3S_'...
GPGPU-Sim PTX: Finding immediate postdominators for '_Zmi6float3S_'...
GPGPU-Sim PTX: pre-decoding instructions for '_Zmi6float3S_'...
GPGPU-Sim PTX: reconvergence points for _Zmi6float3S_...
GPGPU-Sim PTX: ... end of reconvergence points for _Zmi6float3S_
GPGPU-Sim PTX: ... done pre-decoding instructions for '_Zmi6float3S_'.
GPGPU-Sim PTX: instruction assembly for function '_Z9normalize6float3'...   done.
GPGPU-Sim PTX: finding reconvergence points for '_Z9normalize6float3'...
GPGPU-Sim PTX: Finding dominators for '_Z9normalize6float3'...
GPGPU-Sim PTX: Finding immediate dominators for '_Z9normalize6float3'...
GPGPU-Sim PTX: Finding postdominators for '_Z9normalize6float3'...
GPGPU-Sim PTX: Finding immediate postdominators for '_Z9normalize6float3'...
GPGPU-Sim PTX: pre-decoding instructions for '_Z9normalize6float3'...
GPGPU-Sim PTX: reconvergence points for _Z9normalize6float3...
GPGPU-Sim PTX: ... end of reconvergence points for _Z9normalize6float3
GPGPU-Sim PTX: ... done pre-decoding instructions for '_Z9normalize6float3'.
GPGPU-Sim PTX: instruction assembly for function '_Z18intersectionSphere5Rayon6float3f'...   done.
GPGPU-Sim PTX: finding reconvergence points for '_Z18intersectionSphere5Rayon6float3f'...
GPGPU-Sim PTX: Finding dominators for '_Z18intersectionSphere5Rayon6float3f'...
GPGPU-Sim PTX: Finding immediate dominators for '_Z18intersectionSphere5Rayon6float3f'...
GPGPU-Sim PTX: Finding postdominators for '_Z18intersectionSphere5Rayon6float3f'...
GPGPU-Sim PTX: Finding immediate postdominators for '_Z18intersectionSphere5Rayon6float3f'...
GPGPU-Sim PTX: pre-decoding instructions for '_Z18intersectionSphere5Rayon6float3f'...
GPGPU-Sim PTX: reconvergence points for _Z18intersectionSphere5Rayon6float3f...
GPGPU-Sim PTX:  1 (potential) branch divergence @  PC=0x250 (_1.ptx:173) @%p2 bra $Lt_2_3074;
GPGPU-Sim PTX:    immediate post dominator      @  PC=0x2c0 (_1.ptx:193) mov.f32 %f39, %f32;
GPGPU-Sim PTX:  2 (potential) branch divergence @  PC=0x260 (_1.ptx:175) bra.uni $Lt_2_2818;
GPGPU-Sim PTX:    immediate post dominator      @  PC=0x2c0 (_1.ptx:193) mov.f32 %f39, %f32;
GPGPU-Sim PTX:  3 (potential) branch divergence @  PC=0x280 (_1.ptx:180) @!%p3 bra $Lt_2_3586;
GPGPU-Sim PTX:    immediate post dominator      @  PC=0x2c0 (_1.ptx:193) mov.f32 %f39, %f32;
GPGPU-Sim PTX:  4 (potential) branch divergence @  PC=0x290 (_1.ptx:182) bra.uni $Lt_2_3330;
GPGPU-Sim PTX:    immediate post dominator      @  PC=0x2c0 (_1.ptx:193) mov.f32 %f39, %f32;
GPGPU-Sim PTX: ... end of reconvergence points for _Z18intersectionSphere5Rayon6float3f
GPGPU-Sim PTX: ... done pre-decoding instructions for '_Z18intersectionSphere5Rayon6float3f'.
GPGPU-Sim PTX: instruction assembly for function '_Z16intersectionPlan5Rayon6float3S0_'...   done.
GPGPU-Sim PTX: finding reconvergence points for '_Z16intersectionPlan5Rayon6float3S0_'...
GPGPU-Sim PTX: Finding dominators for '_Z16intersectionPlan5Rayon6float3S0_'...
GPGPU-Sim PTX: Finding immediate dominators for '_Z16intersectionPlan5Rayon6float3S0_'...
GPGPU-Sim PTX: Finding postdominators for '_Z16intersectionPlan5Rayon6float3S0_'...
GPGPU-Sim PTX: Finding immediate postdominators for '_Z16intersectionPlan5Rayon6float3S0_'...
GPGPU-Sim PTX: pre-decoding instructions for '_Z16intersectionPlan5Rayon6float3S0_'...
GPGPU-Sim PTX: reconvergence points for _Z16intersectionPlan5Rayon6float3S0_...
GPGPU-Sim PTX:  1 (potential) branch divergence @  PC=0x320 (_1.ptx:214) @!%p1 bra $Lt_3_2050;
GPGPU-Sim PTX:    immediate post dominator      @  PC=0x368 (_1.ptx:227) mov.f32 %f14, %f9;
GPGPU-Sim PTX:  2 (potential) branch divergence @  PC=0x330 (_1.ptx:216) bra.uni $Lt_3_1794;
GPGPU-Sim PTX:    immediate post dominator      @  PC=0x368 (_1.ptx:227) mov.f32 %f14, %f9;
GPGPU-Sim PTX: ... end of reconvergence points for _Z16intersectionPlan5Rayon6float3S0_
GPGPU-Sim PTX: ... done pre-decoding instructions for '_Z16intersectionPlan5Rayon6float3S0_'.
GPGPU-Sim PTX: instruction assembly for function '_Z10getNormale6float3S_'...   done.
GPGPU-Sim PTX: finding reconvergence points for '_Z10getNormale6float3S_'...
GPGPU-Sim PTX: Finding dominators for '_Z10getNormale6float3S_'...
GPGPU-Sim PTX: Finding immediate dominators for '_Z10getNormale6float3S_'...
GPGPU-Sim PTX: Finding postdominators for '_Z10getNormale6float3S_'...
GPGPU-Sim PTX: Finding immediate postdominators for '_Z10getNormale6float3S_'...
GPGPU-Sim PTX: pre-decoding instructions for '_Z10getNormale6float3S_'...
GPGPU-Sim PTX: reconvergence points for _Z10getNormale6float3S_...
GPGPU-Sim PTX: ... end of reconvergence points for _Z10getNormale6float3S_
GPGPU-Sim PTX: ... done pre-decoding instructions for '_Z10getNormale6float3S_'.
GPGPU-Sim PTX: instruction assembly for function '_Z11getNormaleP6float3'...   done.
GPGPU-Sim PTX: finding reconvergence points for '_Z11getNormaleP6float3'...
GPGPU-Sim PTX: Finding dominators for '_Z11getNormaleP6float3'...
GPGPU-Sim PTX: Finding immediate dominators for '_Z11getNormaleP6float3'...
GPGPU-Sim PTX: Finding postdominators for '_Z11getNormaleP6float3'...
GPGPU-Sim PTX: Finding immediate postdominators for '_Z11getNormaleP6float3'...
GPGPU-Sim PTX: pre-decoding instructions for '_Z11getNormaleP6float3'...
GPGPU-Sim PTX: reconvergence points for _Z11getNormaleP6float3...
GPGPU-Sim PTX: ... end of reconvergence points for _Z11getNormaleP6float3
GPGPU-Sim PTX: ... done pre-decoding instructions for '_Z11getNormaleP6float3'.
GPGPU-Sim PTX: instruction assembly for function '_Z14rgbaFloatToInt6float4'...   done.
GPGPU-Sim PTX: finding reconvergence points for '_Z14rgbaFloatToInt6float4'...
GPGPU-Sim PTX: Finding dominators for '_Z14rgbaFloatToInt6float4'...
GPGPU-Sim PTX: Finding immediate dominators for '_Z14rgbaFloatToInt6float4'...
GPGPU-Sim PTX: Finding postdominators for '_Z14rgbaFloatToInt6float4'...
GPGPU-Sim PTX: Finding immediate postdominators for '_Z14rgbaFloatToInt6float4'...
GPGPU-Sim PTX: pre-decoding instructions for '_Z14rgbaFloatToInt6float4'...
GPGPU-Sim PTX: reconvergence points for _Z14rgbaFloatToInt6float4...
GPGPU-Sim PTX: ... end of reconvergence points for _Z14rgbaFloatToInt6float4
GPGPU-Sim PTX: ... done pre-decoding instructions for '_Z14rgbaFloatToInt6float4'.
GPGPU-Sim PTX: allocating global region for "cnode" from 0x100 to 0x1a0 (global memory space)
GPGPU-Sim PTX: instruction assembly for function '_Z12notShadowRayP4Node6float3S1_f'...   done.
GPGPU-Sim PTX: finding reconvergence points for '_Z12notShadowRayP4Node6float3S1_f'...
GPGPU-Sim PTX: Finding dominators for '_Z12notShadowRayP4Node6float3S1_f'...
GPGPU-Sim PTX: Finding immediate dominators for '_Z12notShadowRayP4Node6float3S1_f'...
GPGPU-Sim PTX: Finding postdominators for '_Z12notShadowRayP4Node6float3S1_f'...
GPGPU-Sim PTX: Finding immediate postdominators for '_Z12notShadowRayP4Node6float3S1_f'...
GPGPU-Sim PTX: pre-decoding instructions for '_Z12notShadowRayP4Node6float3S1_f'...
GPGPU-Sim PTX: reconvergence points for _Z12notShadowRayP4Node6float3S1_f...
GPGPU-Sim PTX:  1 (potential) branch divergence @  PC=0x638 (_1.ptx:364) @%p1 bra $Lt_7_8450;
GPGPU-Sim PTX:    immediate post dominator      @  PC=0x828 (_1.ptx:441) mov.f32 %f58, 0f00000000;    // 0
GPGPU-Sim PTX:  2 (potential) branch divergence @  PC=0x658 (_1.ptx:369) @!%p2 bra $Lt_7_8962;
GPGPU-Sim PTX:    immediate post dominator      @  PC=0x6b8 (_1.ptx:385) mov.f32 %f28, %f20;
GPGPU-Sim PTX:  3 (potential) branch divergence @  PC=0x668 (_1.ptx:371) bra.uni $Lt_7_8706;
GPGPU-Sim PTX:    immediate post dominator      @  PC=0x6b8 (_1.ptx:385) mov.f32 %f28, %f20;
GPGPU-Sim PTX:  4 (potential) branch divergence @  PC=0x6c0 (_1.ptx:386) bra.uni $Lt_7_8194;
GPGPU-Sim PTX:    immediate post dominator      @  PC=0x828 (_1.ptx:441) mov.f32 %f58, 0f00000000;    // 0
GPGPU-Sim PTX:  5 (potential) branch divergence @  PC=0x7b0 (_1.ptx:418) @%p5 bra $Lt_7_9474;
GPGPU-Sim PTX:    immediate post dominator      @  PC=0x820 (_1.ptx:438) mov.f32 %f28, %f51;
GPGPU-Sim PTX:  6 (potential) branch divergence @  PC=0x7c0 (_1.ptx:420) bra.uni $Lt_7_9730;
GPGPU-Sim PTX:    immediate post dominator      @  PC=0x820 (_1.ptx:438) mov.f32 %f28, %f51;
GPGPU-Sim PTX:  7 (potential) branch divergence @  PC=0x7e0 (_1.ptx:425) @!%p6 bra $Lt_7_9986;
GPGPU-Sim PTX:    immediate post dominator      @  PC=0x820 (_1.ptx:438) mov.f32 %f28, %f51;
GPGPU-Sim PTX:  8 (potential) branch divergence @  PC=0x7f0 (_1.ptx:427) bra.uni $Lt_7_9730;
GPGPU-Sim PTX:    immediate post dominator      @  PC=0x820 (_1.ptx:438) mov.f32 %f28, %f51;
GPGPU-Sim PTX:  9 (potential) branch divergence @  PC=0x838 (_1.ptx:443) @!%p7 bra $Lt_7_10242;
GPGPU-Sim PTX:    immediate post dominator      @  PC=0x8e8 (_1.ptx:468) add.s32 %r1, %r1, 1;
GPGPU-Sim PTX: 10 (potential) branch divergence @  PC=0x8d8 (_1.ptx:463) @!%p8 bra $Lt_7_10242;
GPGPU-Sim PTX:    immediate post dominator      @  PC=0x8e8 (_1.ptx:468) add.s32 %r1, %r1, 1;
GPGPU-Sim PTX: 11 (potential) branch divergence @  PC=0x908 (_1.ptx:472) @%p9 bra $Lt_7_10754;
GPGPU-Sim PTX:    immediate post dominator      @  PC=0x960 (_1.ptx:486) selp.s32 %r10, 1, 0, %p11;
GPGPU-Sim PTX: 12 (potential) branch divergence @  PC=0x930 (_1.ptx:477) @%p10 bra $L_7_7170;
GPGPU-Sim PTX:    immediate post dominator      @  PC=0x960 (_1.ptx:486) selp.s32 %r10, 1, 0, %p11;
GPGPU-Sim PTX: 13 (potential) branch divergence @  PC=0x938 (_1.ptx:478) bra.uni $L_7_7938;
GPGPU-Sim PTX:    immediate post dominator      @  PC=0x960 (_1.ptx:486) selp.s32 %r10, 1, 0, %p11;
GPGPU-Sim PTX: ... end of reconvergence points for _Z12notShadowRayP4Node6float3S1_f
GPGPU-Sim PTX: ... done pre-decoding instructions for '_Z12notShadowRayP4Node6float3S1_f'.
GPGPU-Sim PTX: instruction assembly for function '_Z15float2int_pow20f'...   done.
GPGPU-Sim PTX: finding reconvergence points for '_Z15float2int_pow20f'...
GPGPU-Sim PTX: Finding dominators for '_Z15float2int_pow20f'...
GPGPU-Sim PTX: Finding immediate dominators for '_Z15float2int_pow20f'...
GPGPU-Sim PTX: Finding postdominators for '_Z15float2int_pow20f'...
GPGPU-Sim PTX: Finding immediate postdominators for '_Z15float2int_pow20f'...
GPGPU-Sim PTX: pre-decoding instructions for '_Z15float2int_pow20f'...
GPGPU-Sim PTX: reconvergence points for _Z15float2int_pow20f...
GPGPU-Sim PTX: ... end of reconvergence points for _Z15float2int_pow20f
GPGPU-Sim PTX: ... done pre-decoding instructions for '_Z15float2int_pow20f'.
GPGPU-Sim PTX: instruction assembly for function '_Z15float2int_pow50f'...   done.
GPGPU-Sim PTX: finding reconvergence points for '_Z15float2int_pow50f'...
GPGPU-Sim PTX: Finding dominators for '_Z15float2int_pow50f'...
GPGPU-Sim PTX: Finding immediate dominators for '_Z15float2int_pow50f'...
GPGPU-Sim PTX: Finding postdominators for '_Z15float2int_pow50f'...
GPGPU-Sim PTX: Finding immediate postdominators for '_Z15float2int_pow50f'...
GPGPU-Sim PTX: pre-decoding instructions for '_Z15float2int_pow50f'...
GPGPU-Sim PTX: reconvergence points for _Z15float2int_pow50f...
GPGPU-Sim PTX: ... end of reconvergence points for _Z15float2int_pow50f
GPGPU-Sim PTX: ... done pre-decoding instructions for '_Z15float2int_pow50f'.
GPGPU-Sim PTX: allocating constant region for "MView" from 0x200 to 0x230 (global memory space) 1
GPGPU-Sim PTX: allocating stack frame region for .local "__cuda___cuda_local_var_35463_9_non_const_pile_32240" from 0x0 to 0x50
GPGPU-Sim PTX: instruction assembly for function '_Z6renderPjP4Nodejjff'...   done.
GPGPU-Sim PTX: finding reconvergence points for '_Z6renderPjP4Nodejjff'...
GPGPU-Sim PTX: Finding dominators for '_Z6renderPjP4Nodejjff'...
GPGPU-Sim PTX: Finding immediate dominators for '_Z6renderPjP4Nodejjff'...
GPGPU-Sim PTX: Finding postdominators for '_Z6renderPjP4Nodejjff'...
GPGPU-Sim PTX: Finding immediate postdominators for '_Z6renderPjP4Nodejjff'...
GPGPU-Sim PTX: pre-decoding instructions for '_Z6renderPjP4Nodejjff'...
GPGPU-Sim PTX: reconvergence points for _Z6renderPjP4Nodejjff...
GPGPU-Sim PTX:  1 (potential) branch divergence @  PC=0xdb0 (_1.ptx:663) @%p1 bra $Lt_10_44034;
GPGPU-Sim PTX:    immediate post dominator      @  PC=0x2370 (_1.ptx:1495) exit;
GPGPU-Sim PTX:  2 (potential) branch divergence @  PC=0x1028 (_1.ptx:751) @%p2 bra $Lt_10_45570;
GPGPU-Sim PTX:    immediate post dominator      @  PC=0x11b8 (_1.ptx:815) mov.f32 %f108, 0f00000000;   // 0
GPGPU-Sim PTX:  3 (potential) branch divergence @  PC=0x1048 (_1.ptx:756) @!%p3 bra $Lt_10_46082;
GPGPU-Sim PTX:    immediate post dominator      @  PC=0x1090 (_1.ptx:769) mov.f32 %f87, %f82;
GPGPU-Sim PTX:  4 (potential) branch divergence @  PC=0x1058 (_1.ptx:758) bra.uni $Lt_10_45826;
GPGPU-Sim PTX:    immediate post dominator      @  PC=0x1090 (_1.ptx:769) mov.f32 %f87, %f82;
GPGPU-Sim PTX:  5 (potential) branch divergence @  PC=0x1098 (_1.ptx:770) bra.uni $Lt_10_45314;
GPGPU-Sim PTX:    immediate post dominator      @  PC=0x11b8 (_1.ptx:815) mov.f32 %f108, 0f00000000;   // 0
GPGPU-Sim PTX:  6 (potential) branch divergence @  PC=0x1140 (_1.ptx:793) @%p6 bra $Lt_10_46594;
GPGPU-Sim PTX:    immediate post dominator      @  PC=0x11b0 (_1.ptx:813) mov.f32 %f87, %f101;
GPGPU-Sim PTX:  7 (potential) branch divergence @  PC=0x1150 (_1.ptx:795) bra.uni $Lt_10_46850;
GPGPU-Sim PTX:    immediate post dominator      @  PC=0x11b0 (_1.ptx:813) mov.f32 %f87, %f101;
GPGPU-Sim PTX:  8 (potential) branch divergence @  PC=0x1170 (_1.ptx:800) @!%p7 bra $Lt_10_47106;
GPGPU-Sim PTX:    immediate post dominator      @  PC=0x11b0 (_1.ptx:813) mov.f32 %f87, %f101;
GPGPU-Sim PTX:  9 (potential) branch divergence @  PC=0x1180 (_1.ptx:802) bra.uni $Lt_10_46850;
GPGPU-Sim PTX:    immediate post dominator      @  PC=0x11b0 (_1.ptx:813) mov.f32 %f87, %f101;
GPGPU-Sim PTX: 10 (potential) branch divergence @  PC=0x11f8 (_1.ptx:823) @%p8 bra $Lt_10_47362;
GPGPU-Sim PTX:    immediate post dominator      @  PC=0x1210 (_1.ptx:829) add.s32 %r25, %r25, 1;
GPGPU-Sim PTX: 11 (potential) branch divergence @  PC=0x1230 (_1.ptx:833) @%p9 bra $Lt_10_45058;
GPGPU-Sim PTX:    immediate post dominator      @  PC=0x1238 (_1.ptx:834) mov.f32 %f109, 0f00000000;   // 0
GPGPU-Sim PTX: 12 (potential) branch divergence @  PC=0x1280 (_1.ptx:843) @%p10 bra $Lt_10_48130;
GPGPU-Sim PTX:    immediate post dominator      @  PC=0x2140 (_1.ptx:1416) add.s32 %r23, %r23, 1;
GPGPU-Sim PTX: 13 (potential) branch divergence @  PC=0x1330 (_1.ptx:868) @%p11 bra $Lt_10_48898;
GPGPU-Sim PTX:    immediate post dominator      @  PC=0x13b8 (_1.ptx:888) sub.f32 %f136, %f21, %f119;
GPGPU-Sim PTX: 14 (potential) branch divergence @  PC=0x1350 (_1.ptx:873) bra.uni $Lt_10_48642;
GPGPU-Sim PTX:    immediate post dominator      @  PC=0x13b8 (_1.ptx:888) sub.f32 %f136, %f21, %f119;
GPGPU-Sim PTX: 15 (potential) branch divergence @  PC=0x1430 (_1.ptx:903) @!%p12 bra $Lt_10_49410;
GPGPU-Sim PTX:    immediate post dominator      @  PC=0x1470 (_1.ptx:915) mov.f32 %f153, 0f3d4ccccd;   // 0.05
GPGPU-Sim PTX: 16 (potential) branch divergence @  PC=0x1450 (_1.ptx:908) bra.uni $Lt_10_49154;
GPGPU-Sim PTX:    immediate post dominator      @  PC=0x1470 (_1.ptx:915) mov.f32 %f153, 0f3d4ccccd;   // 0.05
GPGPU-Sim PTX: 17 (potential) branch divergence @  PC=0x1578 (_1.ptx:949) @!%p13 bra $Lt_10_58114;
GPGPU-Sim PTX:    immediate post dominator      @  PC=0x2080 (_1.ptx:1388) add.f32 %f399, %f126, %f126;
GPGPU-Sim PTX: 18 (potential) branch divergence @  PC=0x15c0 (_1.ptx:961) @%p14 bra $Lt_10_49922;
GPGPU-Sim PTX:    immediate post dominator      @  PC=0x17b0 (_1.ptx:1039) mov.f32 %f221, 0f00000000;   // 0
GPGPU-Sim PTX: 19 (potential) branch divergence @  PC=0x15e0 (_1.ptx:966) @!%p15 bra $Lt_10_50434;
GPGPU-Sim PTX:    immediate post dominator      @  PC=0x1638 (_1.ptx:982) mov.f32 %f190, %f183;
GPGPU-Sim PTX: 20 (potential) branch divergence @  PC=0x15f0 (_1.ptx:968) bra.uni $Lt_10_50178;
GPGPU-Sim PTX:    immediate post dominator      @  PC=0x1638 (_1.ptx:982) mov.f32 %f190, %f183;
GPGPU-Sim PTX: 21 (potential) branch divergence @  PC=0x1640 (_1.ptx:983) bra.uni $Lt_10_49666;
GPGPU-Sim PTX:    immediate post dominator      @  PC=0x17b0 (_1.ptx:1039) mov.f32 %f221, 0f00000000;   // 0
GPGPU-Sim PTX: 22 (potential) branch divergence @  PC=0x1738 (_1.ptx:1016) @%p18 bra $Lt_10_50946;
GPGPU-Sim PTX:    immediate post dominator      @  PC=0x17a8 (_1.ptx:1036) mov.f32 %f190, %f214;
GPGPU-Sim PTX: 23 (potential) branch divergence @  PC=0x1748 (_1.ptx:1018) bra.uni $Lt_10_51202;
GPGPU-Sim PTX:    immediate post dominator      @  PC=0x17a8 (_1.ptx:1036) mov.f32 %f190, %f214;
GPGPU-Sim PTX: 24 (potential) branch divergence @  PC=0x1768 (_1.ptx:1023) @!%p19 bra $Lt_10_51458;
GPGPU-Sim PTX:    immediate post dominator      @  PC=0x17a8 (_1.ptx:1036) mov.f32 %f190, %f214;
GPGPU-Sim PTX: 25 (potential) branch divergence @  PC=0x1778 (_1.ptx:1025) bra.uni $Lt_10_51202;
GPGPU-Sim PTX:    immediate post dominator      @  PC=0x17a8 (_1.ptx:1036) mov.f32 %f190, %f214;
GPGPU-Sim PTX: 26 (potential) branch divergence @  PC=0x17c0 (_1.ptx:1041) @!%p20 bra $Lt_10_58370;
GPGPU-Sim PTX:    immediate post dominator      @  PC=0x1828 (_1.ptx:1057) add.s32 %r50, %r50, 1;
GPGPU-Sim PTX: 27 (potential) branch divergence @  PC=0x1818 (_1.ptx:1052) @!%p21 bra $Lt_10_58370;
GPGPU-Sim PTX:    immediate post dominator      @  PC=0x1828 (_1.ptx:1057) add.s32 %r50, %r50, 1;
GPGPU-Sim PTX: 28 (potential) branch divergence @  PC=0x1848 (_1.ptx:1061) @%p22 bra $Lt_10_58882;
GPGPU-Sim PTX:    immediate post dominator      @  PC=0x1880 (_1.ptx:1071) @!%p23 bra $Lt_10_58114;
GPGPU-Sim PTX: 29 (potential) branch divergence @  PC=0x1860 (_1.ptx:1064) @%p23 bra $L_10_42498;
GPGPU-Sim PTX:    immediate post dominator      @  PC=0x1880 (_1.ptx:1071) @!%p23 bra $Lt_10_58114;
GPGPU-Sim PTX: 30 (potential) branch divergence @  PC=0x1868 (_1.ptx:1065) bra.uni $L_10_43266;
GPGPU-Sim PTX:    immediate post dominator      @  PC=0x1880 (_1.ptx:1071) @!%p23 bra $Lt_10_58114;
GPGPU-Sim PTX: 31 (potential) branch divergence @  PC=0x1880 (_1.ptx:1071) @!%p23 bra $Lt_10_58114;
GPGPU-Sim PTX:    immediate post dominator      @  PC=0x2080 (_1.ptx:1388) add.f32 %f399, %f126, %f126;
GPGPU-Sim PTX: 32 (potential) branch divergence @  PC=0x19c8 (_1.ptx:1115) @!%p24 bra $Lt_10_51714;
GPGPU-Sim PTX:    immediate post dominator      @  PC=0x2040 (_1.ptx:1375) mov.f32 %f394, 0f3f4ccccd;   // 0.8
GPGPU-Sim PTX: 33 (potential) branch divergence @  PC=0x19d8 (_1.ptx:1118) bra.uni $LDWendi___isnanf_192_1;
GPGPU-Sim PTX:    immediate post dominator      @  PC=0x2040 (_1.ptx:1375) mov.f32 %f394, 0f3f4ccccd;   // 0.8
GPGPU-Sim PTX: 34 (potential) branch divergence @  PC=0x19f8 (_1.ptx:1124) @!%p25 bra $Lt_10_7682;
GPGPU-Sim PTX:    immediate post dominator      @  PC=0x2040 (_1.ptx:1375) mov.f32 %f394, 0f3f4ccccd;   // 0.8
GPGPU-Sim PTX: 35 (potential) branch divergence @  PC=0x1a00 (_1.ptx:1125) bra.uni $Lt_10_7938;
GPGPU-Sim PTX:    immediate post dominator      @  PC=0x1a20 (_1.ptx:1133) mov.f32 %f272, 0f7f800000;   // ((1.0F)/(0.0F))
GPGPU-Sim PTX: 36 (potential) branch divergence @  PC=0x1a18 (_1.ptx:1130) bra.uni $LDWendi___isnanf_192_1;
GPGPU-Sim PTX:    immediate post dominator      @  PC=0x2040 (_1.ptx:1375) mov.f32 %f394, 0f3f4ccccd;   // 0.8
GPGPU-Sim PTX: 37 (potential) branch divergence @  PC=0x1a30 (_1.ptx:1135) @!%p26 bra $Lt_10_52226;
GPGPU-Sim PTX:    immediate post dominator      @  PC=0x2040 (_1.ptx:1375) mov.f32 %f394, 0f3f4ccccd;   // 0.8
GPGPU-Sim PTX: 38 (potential) branch divergence @  PC=0x1a40 (_1.ptx:1138) bra.uni $LDWendi___isnanf_192_1;
GPGPU-Sim PTX:    immediate post dominator      @  PC=0x2040 (_1.ptx:1375) mov.f32 %f394, 0f3f4ccccd;   // 0.8
GPGPU-Sim PTX: 39 (potential) branch divergence @  PC=0x1a58 (_1.ptx:1142) @!%p27 bra $Lt_10_52738;
GPGPU-Sim PTX:    immediate post dominator      @  PC=0x2040 (_1.ptx:1375) mov.f32 %f394, 0f3f4ccccd;   // 0.8
GPGPU-Sim PTX: 40 (potential) branch divergence @  PC=0x1ab8 (_1.ptx:1155) bra.uni $LDWendi___isnanf_192_1;
GPGPU-Sim PTX:    immediate post dominator      @  PC=0x2040 (_1.ptx:1375) mov.f32 %f394, 0f3f4ccccd;   // 0.8
GPGPU-Sim PTX: 41 (potential) branch divergence @  PC=0x1ad0 (_1.ptx:1159) @!%p29 bra $Lt_10_53250;
GPGPU-Sim PTX:    immediate post dominator      @  PC=0x2040 (_1.ptx:1375) mov.f32 %f394, 0f3f4ccccd;   // 0.8
GPGPU-Sim PTX: 42 (potential) branch divergence @  PC=0x1b20 (_1.ptx:1170) @!%p30 bra $Lt_10_53762;
GPGPU-Sim PTX:    immediate post dominator      @  PC=0x1b40 (_1.ptx:1177) mov.f32 %f268, %f284;
GPGPU-Sim PTX: 43 (potential) branch divergence @  PC=0x1b48 (_1.ptx:1178) bra.uni $LDWendi___isnanf_192_1;
GPGPU-Sim PTX:    immediate post dominator      @  PC=0x2040 (_1.ptx:1375) mov.f32 %f394, 0f3f4ccccd;   // 0.8
GPGPU-Sim PTX: 44 (potential) branch divergence @  PC=0x1b60 (_1.ptx:1183) @!%p31 bra $Lt_10_59394;
GPGPU-Sim PTX:    immediate post dominator      @  PC=0x2040 (_1.ptx:1375) mov.f32 %f394, 0f3f4ccccd;   // 0.8
GPGPU-Sim PTX: 45 (potential) branch divergence @  PC=0x1b88 (_1.ptx:1188) @!%p32 bra $Lt_10_59394;
GPGPU-Sim PTX:    immediate post dominator      @  PC=0x2040 (_1.ptx:1375) mov.f32 %f394, 0f3f4ccccd;   // 0.8
GPGPU-Sim PTX: 46 (potential) branch divergence @  PC=0x1ba0 (_1.ptx:1192) bra.uni $LDWendi___isnanf_192_1;
GPGPU-Sim PTX:    immediate post dominator      @  PC=0x2040 (_1.ptx:1375) mov.f32 %f394, 0f3f4ccccd;   // 0.8
GPGPU-Sim PTX: 47 (potential) branch divergence @  PC=0x1bd8 (_1.ptx:1202) @%p33 bra $Lt_10_54530;
GPGPU-Sim PTX:    immediate post dominator      @  PC=0x1c20 (_1.ptx:1216) sub.s32 %r64, %r64, 127;
GPGPU-Sim PTX: 48 (potential) branch divergence @  PC=0x1c10 (_1.ptx:1211) bra.uni $Lt_10_54274;
GPGPU-Sim PTX:    immediate post dominator      @  PC=0x1c20 (_1.ptx:1216) sub.s32 %r64, %r64, 127;
GPGPU-Sim PTX: 49 (potential) branch divergence @  PC=0x1c58 (_1.ptx:1224) @!%p34 bra $Lt_10_54786;
GPGPU-Sim PTX:    immediate post dominator      @  PC=0x1c78 (_1.ptx:1232) mov.f32 %f302, 0fbf800000;   // -1
GPGPU-Sim PTX: 50 (potential) branch divergence @  PC=0x1eb0 (_1.ptx:1312) @%p35 bra $Lt_10_55298;
GPGPU-Sim PTX:    immediate post dominator      @  PC=0x1ed8 (_1.ptx:1321) mov.f32 %f367, %f365;
GPGPU-Sim PTX: 51 (potential) branch divergence @  PC=0x1f98 (_1.ptx:1346) @!%p38 bra $Lt_10_55810;
GPGPU-Sim PTX:    immediate post dominator      @  PC=0x1fa8 (_1.ptx:1351) mov.f32 %f284, %f386;
GPGPU-Sim PTX: 52 (potential) branch divergence @  PC=0x2018 (_1.ptx:1365) @%p39 bra $Lt_10_56322;
GPGPU-Sim PTX:    immediate post dominator      @  PC=0x2038 (_1.ptx:1372) mov.f32 %f268, %f284;
GPGPU-Sim PTX: 53 (potential) branch divergence @  PC=0x2158 (_1.ptx:1419) @%p40 bra $L_10_42242;
GPGPU-Sim PTX:    immediate post dominator      @  PC=0x2170 (_1.ptx:1424) sub.s32 %r86, %r24, 1;
GPGPU-Sim PTX: 54 (potential) branch divergence @  PC=0x2168 (_1.ptx:1421) @%p41 bra $L_10_41474;
GPGPU-Sim PTX:    immediate post dominator      @  PC=0x2170 (_1.ptx:1424) sub.s32 %r86, %r24, 1;
GPGPU-Sim PTX: 55 (potential) branch divergence @  PC=0x2190 (_1.ptx:1428) @%p42 bra $Lt_10_56834;
GPGPU-Sim PTX:    immediate post dominator      @  PC=0x2288 (_1.ptx:1464) ld.global.u32 %r92, [%rd4+0];
GPGPU-Sim PTX: 56 (potential) branch divergence @  PC=0x2280 (_1.ptx:1461) @%p43 bra $Lt_10_57346;
GPGPU-Sim PTX:    immediate post dominator      @  PC=0x2288 (_1.ptx:1464) ld.global.u32 %r92, [%rd4+0];
GPGPU-Sim PTX: ... end of reconvergence points for _Z6renderPjP4Nodejjff
GPGPU-Sim PTX: ... done pre-decoding instructions for '_Z6renderPjP4Nodejjff'.
GPGPU-Sim PTX: instruction assembly for function '_ZN4dim3C1Ejjj'...   done.
GPGPU-Sim PTX: finding reconvergence points for '_ZN4dim3C1Ejjj'...
GPGPU-Sim PTX: Finding dominators for '_ZN4dim3C1Ejjj'...
GPGPU-Sim PTX: Finding immediate dominators for '_ZN4dim3C1Ejjj'...
GPGPU-Sim PTX: Finding postdominators for '_ZN4dim3C1Ejjj'...
GPGPU-Sim PTX: Finding immediate postdominators for '_ZN4dim3C1Ejjj'...
GPGPU-Sim PTX: pre-decoding instructions for '_ZN4dim3C1Ejjj'...
GPGPU-Sim PTX: reconvergence points for _ZN4dim3C1Ejjj...
GPGPU-Sim PTX: ... end of reconvergence points for _ZN4dim3C1Ejjj
GPGPU-Sim PTX: ... done pre-decoding instructions for '_ZN4dim3C1Ejjj'.
GPGPU-Sim PTX: finished parsing EMBEDDED .ptx file _1.ptx
Adding _cuobjdump_1.ptx with cubin handle 1
GPGPU-Sim PTX: extracting embedded .ptx to temporary file "_ptx_aHgv92"
Running: cat _ptx_aHgv92 | sed 's/.version 1.5/.version 1.4/' | sed 's/, texmode_independent//' | sed 's/\(\.extern \.const\[1\] .b8 \w\+\)\[\]/\1\[1\]/' | sed 's/const\[.\]/const\[0\]/g' > _ptx2_TXCe3F
GPGPU-Sim PTX: generating ptxinfo using "$CUDA_INSTALL_PATH/bin/ptxas --gpu-name=sm_20 -v _ptx2_TXCe3F --output-file  /dev/null 2> _ptx_aHgv92info"
GPGPU-Sim PTX: Kernel '_Z6renderPjP4Nodejjff' : regs=45, lmem=4, smem=0, cmem=180
GPGPU-Sim PTX: removing ptxinfo using "rm -f _ptx_aHgv92 _ptx2_TXCe3F _ptx_aHgv92info"
GPGPU-Sim PTX: loading globals with explicit initializers... 
GPGPU-Sim PTX: finished loading globals (0 bytes total).
GPGPU-Sim PTX: loading constants with explicit initializers...  done.
GPGPU-Sim PTX: __cudaRegisterVar: hostVar = 0x62fda0; deviceAddress = MView; deviceName = MView
GPGPU-Sim PTX: __cudaRegisterVar: Registering const memory space of 48 bytes
GPGPU-Sim PTX registering constant MView (48 bytes) to name mapping
GPGPU-Sim PTX: __cudaRegisterVar: hostVar = 0x62fde0; deviceAddress = cnode; deviceName = cnode
GPGPU-Sim PTX: __cudaRegisterVar: Registering const memory space of 160 bytes
GPGPU-Sim PTX registering constant cnode (160 bytes) to name mapping
GPGPU-Sim PTX: cudaMemcpyToSymbol: symbol = 0x62fde0
GPGPU-Sim PTX: starting gpgpu_ptx_sim_memcpy_symbol with hostVar 0x0x62fde0
GPGPU-Sim PTX: gpgpu_ptx_sim_memcpy_symbol: Found PTX symbol w/ hostVar=0x62fde0
GPGPU-Sim PTX: gpgpu_ptx_sim_memcpy_symbol: copying const memory 160 bytes  to  symbol cnode+0 @0x100 ...
GPGPU-Sim PTX: cudaMemcpyToSymbol: symbol = 0x62fda0
GPGPU-Sim PTX: starting gpgpu_ptx_sim_memcpy_symbol with hostVar 0x0x62fda0
GPGPU-Sim PTX: gpgpu_ptx_sim_memcpy_symbol: Found PTX symbol w/ hostVar=0x62fda0
GPGPU-Sim PTX: gpgpu_ptx_sim_memcpy_symbol: copying const memory 48 bytes  to  symbol MView+0 @0x200 ...

GPGPU-Sim PTX: cudaLaunch for 0x0x40ce13 (mode=performance simulation) on stream 0
GPGPU-Sim PTX: pushing kernel '_Z6renderPjP4Nodejjff' to stream 0, gridDim= (16,32,1) blockDim = (16,8,1) 
kernel '_Z6renderPjP4Nodejjff' transfer to GPU hardware scheduler
GPGPU-Sim uArch: Shader 1 bind to kernel 1 '_Z6renderPjP4Nodejjff'
GPGPU-Sim uArch: CTA/core = 5, limited by: regs
GPGPU-Sim uArch: core:  1, cta: 0 initialized @(1,0)
GPGPU-Sim uArch: Shader 2 bind to kernel 1 '_Z6renderPjP4Nodejjff'
GPGPU-Sim uArch: core:  2, cta: 0 initialized @(1,0)
GPGPU-Sim uArch: Shader 3 bind to kernel 1 '_Z6renderPjP4Nodejjff'
GPGPU-Sim uArch: core:  3, cta: 0 initialized @(1,0)
GPGPU-Sim uArch: Shader 4 bind to kernel 1 '_Z6renderPjP4Nodejjff'
GPGPU-Sim uArch: core:  4, cta: 0 initialized @(1,0)
GPGPU-Sim uArch: Shader 5 bind to kernel 1 '_Z6renderPjP4Nodejjff'
GPGPU-Sim uArch: core:  5, cta: 0 initialized @(1,0)
GPGPU-Sim uArch: Shader 6 bind to kernel 1 '_Z6renderPjP4Nodejjff'
GPGPU-Sim uArch: core:  6, cta: 0 initialized @(1,0)
GPGPU-Sim uArch: Shader 7 bind to kernel 1 '_Z6renderPjP4Nodejjff'
GPGPU-Sim uArch: core:  7, cta: 0 initialized @(1,0)
GPGPU-Sim uArch: Shader 8 bind to kernel 1 '_Z6renderPjP4Nodejjff'
GPGPU-Sim uArch: core:  8, cta: 0 initialized @(1,0)
GPGPU-Sim uArch: Shader 9 bind to kernel 1 '_Z6renderPjP4Nodejjff'
GPGPU-Sim uArch: core:  9, cta: 0 initialized @(1,0)
GPGPU-Sim uArch: Shader 10 bind to kernel 1 '_Z6renderPjP4Nodejjff'
GPGPU-Sim uArch: core: 10, cta: 0 initialized @(1,0)
GPGPU-Sim uArch: Shader 11 bind to kernel 1 '_Z6renderPjP4Nodejjff'
GPGPU-Sim uArch: core: 11, cta: 0 initialized @(1,0)
GPGPU-Sim uArch: Shader 12 bind to kernel 1 '_Z6renderPjP4Nodejjff'
GPGPU-Sim uArch: core: 12, cta: 0 initialized @(1,0)
GPGPU-Sim uArch: Shader 13 bind to kernel 1 '_Z6renderPjP4Nodejjff'
GPGPU-Sim uArch: core: 13, cta: 0 initialized @(1,0)
GPGPU-Sim uArch: Shader 14 bind to kernel 1 '_Z6renderPjP4Nodejjff'
GPGPU-Sim uArch: core: 14, cta: 0 initialized @(1,0)
GPGPU-Sim uArch: Shader 0 bind to kernel 1 '_Z6renderPjP4Nodejjff'
GPGPU-Sim uArch: core:  0, cta: 0 initialized @(1,0)
GPGPU-Sim uArch: core:  1, cta: 1 initialized @(2,0)
GPGPU-Sim uArch: core:  2, cta: 1 initialized @(2,0)
GPGPU-Sim uArch: core:  3, cta: 1 initialized @(2,0)
GPGPU-Sim uArch: core:  4, cta: 1 initialized @(2,0)
GPGPU-Sim uArch: core:  5, cta: 1 initialized @(2,0)
GPGPU-Sim uArch: core:  6, cta: 1 initialized @(2,0)
GPGPU-Sim uArch: core:  7, cta: 1 initialized @(2,0)
GPGPU-Sim uArch: core:  8, cta: 1 initialized @(2,0)
GPGPU-Sim uArch: core:  9, cta: 1 initialized @(2,0)
GPGPU-Sim uArch: core: 10, cta: 1 initialized @(2,0)
GPGPU-Sim uArch: core: 11, cta: 1 initialized @(2,0)
GPGPU-Sim uArch: core: 12, cta: 1 initialized @(2,0)
GPGPU-Sim uArch: core: 13, cta: 1 initialized @(2,0)
GPGPU-Sim uArch: core: 14, cta: 1 initialized @(2,0)
GPGPU-Sim uArch: core:  0, cta: 1 initialized @(2,0)
GPGPU-Sim uArch: core:  1, cta: 2 initialized @(3,0)
GPGPU-Sim uArch: core:  2, cta: 2 initialized @(3,0)
GPGPU-Sim uArch: core:  3, cta: 2 initialized @(3,0)
GPGPU-Sim uArch: core:  4, cta: 2 initialized @(3,0)
GPGPU-Sim uArch: core:  5, cta: 2 initialized @(3,0)
GPGPU-Sim uArch: core:  6, cta: 2 initialized @(3,0)
GPGPU-Sim uArch: core:  7, cta: 2 initialized @(3,0)
GPGPU-Sim uArch: core:  8, cta: 2 initialized @(3,0)
GPGPU-Sim uArch: core:  9, cta: 2 initialized @(3,0)
GPGPU-Sim uArch: core: 10, cta: 2 initialized @(3,0)
GPGPU-Sim uArch: core: 11, cta: 2 initialized @(3,0)
GPGPU-Sim uArch: core: 12, cta: 2 initialized @(3,0)
GPGPU-Sim uArch: core: 13, cta: 2 initialized @(3,0)
GPGPU-Sim uArch: core: 14, cta: 2 initialized @(3,0)
GPGPU-Sim uArch: core:  0, cta: 2 initialized @(3,0)
GPGPU-Sim uArch: core:  1, cta: 3 initialized @(4,0)
GPGPU-Sim uArch: core:  2, cta: 3 initialized @(4,0)
GPGPU-Sim uArch: core:  3, cta: 3 initialized @(4,0)
GPGPU-Sim uArch: core:  4, cta: 3 initialized @(4,0)
GPGPU-Sim uArch: core:  5, cta: 3 initialized @(4,0)
GPGPU-Sim uArch: core:  6, cta: 3 initialized @(4,0)
GPGPU-Sim uArch: core:  7, cta: 3 initialized @(4,0)
GPGPU-Sim uArch: core:  8, cta: 3 initialized @(4,0)
GPGPU-Sim uArch: core:  9, cta: 3 initialized @(4,0)
GPGPU-Sim uArch: core: 10, cta: 3 initialized @(4,0)
GPGPU-Sim uArch: core: 11, cta: 3 initialized @(4,0)
GPGPU-Sim uArch: core: 12, cta: 3 initialized @(4,0)
GPGPU-Sim uArch: core: 13, cta: 3 initialized @(4,0)
GPGPU-Sim uArch: core: 14, cta: 3 initialized @(4,0)
GPGPU-Sim uArch: core:  0, cta: 3 initialized @(4,0)
GPGPU-Sim uArch: core:  1, cta: 4 initialized @(5,0)
GPGPU-Sim uArch: core:  2, cta: 4 initialized @(5,0)
GPGPU-Sim uArch: core:  3, cta: 4 initialized @(5,0)
GPGPU-Sim uArch: core:  4, cta: 4 initialized @(5,0)
GPGPU-Sim uArch: core:  5, cta: 4 initialized @(5,0)
GPGPU-Sim uArch: core:  6, cta: 4 initialized @(5,0)
GPGPU-Sim uArch: core:  7, cta: 4 initialized @(5,0)
GPGPU-Sim uArch: core:  8, cta: 4 initialized @(5,0)
GPGPU-Sim uArch: core:  9, cta: 4 initialized @(5,0)
GPGPU-Sim uArch: core: 10, cta: 4 initialized @(5,0)
GPGPU-Sim uArch: core: 11, cta: 4 initialized @(5,0)
GPGPU-Sim uArch: core: 12, cta: 4 initialized @(5,0)
GPGPU-Sim uArch: core: 13, cta: 4 initialized @(5,0)
GPGPU-Sim uArch: core: 14, cta: 4 initialized @(5,0)
GPGPU-Sim uArch: core:  0, cta: 4 initialized @(5,0)
GPGPU-Sim uArch: cycles simulated: 500  inst.: 5760 (ipc=11.5) sim_rate=2880 (inst/sec) elapsed = 0:0:00:02 / Tue Mar 22 07:00:40 2016
GPGPU-Sim PTX: 100000 instructions simulated : ctaid=(1,1,0) tid=(15,1,0)
GPGPU-Sim uArch: cycles simulated: 3500  inst.: 170336 (ipc=48.7) sim_rate=56778 (inst/sec) elapsed = 0:0:00:03 / Tue Mar 22 07:00:41 2016
GPGPU-Sim PTX: 200000 instructions simulated : ctaid=(3,1,0) tid=(15,1,0)
GPGPU-Sim PTX: 300000 instructions simulated : ctaid=(1,0,0) tid=(15,5,0)
GPGPU-Sim PTX: 400000 instructions simulated : ctaid=(3,1,0) tid=(15,1,0)
GPGPU-Sim uArch: cycles simulated: 5500  inst.: 446304 (ipc=81.1) sim_rate=111576 (inst/sec) elapsed = 0:0:00:04 / Tue Mar 22 07:00:42 2016
GPGPU-Sim PTX: 500000 instructions simulated : ctaid=(8,1,0) tid=(15,1,0)
GPGPU-Sim PTX: 600000 instructions simulated : ctaid=(4,0,0) tid=(15,5,0)
GPGPU-Sim PTX: 700000 instructions simulated : ctaid=(6,4,0) tid=(15,5,0)
GPGPU-Sim uArch: cycles simulated: 7500  inst.: 769504 (ipc=102.6) sim_rate=153900 (inst/sec) elapsed = 0:0:00:05 / Tue Mar 22 07:00:43 2016
GPGPU-Sim PTX: 800000 instructions simulated : ctaid=(8,0,0) tid=(15,1,0)
GPGPU-Sim PTX: 900000 instructions simulated : ctaid=(13,0,0) tid=(15,1,0)
GPGPU-Sim PTX: 1000000 instructions simulated : ctaid=(2,0,0) tid=(15,5,0)
GPGPU-Sim PTX: 1100000 instructions simulated : ctaid=(6,0,0) tid=(15,7,0)
GPGPU-Sim uArch: cycles simulated: 10000  inst.: 1143904 (ipc=114.4) sim_rate=190650 (inst/sec) elapsed = 0:0:00:06 / Tue Mar 22 07:00:44 2016
GPGPU-Sim PTX: 1200000 instructions simulated : ctaid=(12,0,0) tid=(15,3,0)
GPGPU-Sim PTX: 1300000 instructions simulated : ctaid=(10,1,0) tid=(15,7,0)
GPGPU-Sim PTX: 1400000 instructions simulated : ctaid=(12,0,0) tid=(15,1,0)
GPGPU-Sim uArch: cycles simulated: 13000  inst.: 1390528 (ipc=107.0) sim_rate=198646 (inst/sec) elapsed = 0:0:00:07 / Tue Mar 22 07:00:45 2016
GPGPU-Sim PTX: 1500000 instructions simulated : ctaid=(0,0,0) tid=(15,7,0)
GPGPU-Sim PTX: 1600000 instructions simulated : ctaid=(12,0,0) tid=(15,5,0)
GPGPU-Sim PTX: 1700000 instructions simulated : ctaid=(6,1,0) tid=(15,1,0)
GPGPU-Sim PTX: 1800000 instructions simulated : ctaid=(2,0,0) tid=(15,4,0)
GPGPU-Sim PTX: 1900000 instructions simulated : ctaid=(4,1,0) tid=(15,4,0)
GPGPU-Sim PTX: 2000000 instructions simulated : ctaid=(7,1,0) tid=(15,0,0)
GPGPU-Sim uArch: cycles simulated: 15000  inst.: 2008624 (ipc=133.9) sim_rate=251078 (inst/sec) elapsed = 0:0:00:08 / Tue Mar 22 07:00:46 2016
GPGPU-Sim PTX: 2100000 instructions simulated : ctaid=(10,0,0) tid=(15,6,0)
GPGPU-Sim PTX: 2200000 instructions simulated : ctaid=(5,1,0) tid=(15,0,0)
GPGPU-Sim PTX: 2300000 instructions simulated : ctaid=(3,1,0) tid=(15,0,0)
GPGPU-Sim PTX: 2400000 instructions simulated : ctaid=(4,1,0) tid=(15,0,0)
GPGPU-Sim uArch: cycles simulated: 17000  inst.: 2425870 (ipc=142.7) sim_rate=269541 (inst/sec) elapsed = 0:0:00:09 / Tue Mar 22 07:00:47 2016
GPGPU-Sim PTX: 2500000 instructions simulated : ctaid=(11,1,0) tid=(2,0,0)
GPGPU-Sim PTX: 2600000 instructions simulated : ctaid=(3,1,0) tid=(2,6,0)
GPGPU-Sim PTX: 2700000 instructions simulated : ctaid=(5,1,0) tid=(6,1,0)
GPGPU-Sim PTX: 2800000 instructions simulated : ctaid=(4,1,0) tid=(6,7,0)
GPGPU-Sim PTX: 2900000 instructions simulated : ctaid=(11,1,0) tid=(6,3,0)
GPGPU-Sim uArch: cycles simulated: 18500  inst.: 2855645 (ipc=154.4) sim_rate=285564 (inst/sec) elapsed = 0:0:00:10 / Tue Mar 22 07:00:48 2016
GPGPU-Sim PTX: 3000000 instructions simulated : ctaid=(14,0,0) tid=(6,0,0)
GPGPU-Sim PTX: 3100000 instructions simulated : ctaid=(8,1,0) tid=(6,6,0)
GPGPU-Sim PTX: 3200000 instructions simulated : ctaid=(10,1,0) tid=(6,0,0)
GPGPU-Sim PTX: 3300000 instructions simulated : ctaid=(1,1,0) tid=(10,0,0)
GPGPU-Sim uArch: cycles simulated: 21000  inst.: 3265714 (ipc=155.5) sim_rate=296883 (inst/sec) elapsed = 0:0:00:11 / Tue Mar 22 07:00:49 2016
GPGPU-Sim PTX: 3400000 instructions simulated : ctaid=(4,1,0) tid=(10,0,0)
GPGPU-Sim PTX: 3500000 instructions simulated : ctaid=(9,0,0) tid=(13,4,0)
GPGPU-Sim PTX: 3600000 instructions simulated : ctaid=(11,0,0) tid=(2,6,0)
GPGPU-Sim PTX: 3700000 instructions simulated : ctaid=(8,0,0) tid=(2,0,0)
GPGPU-Sim PTX: 3800000 instructions simulated : ctaid=(13,1,0) tid=(1,4,0)
GPGPU-Sim uArch: cycles simulated: 22500  inst.: 3771273 (ipc=167.6) sim_rate=314272 (inst/sec) elapsed = 0:0:00:12 / Tue Mar 22 07:00:50 2016
GPGPU-Sim PTX: 3900000 instructions simulated : ctaid=(14,2,0) tid=(4,2,0)
GPGPU-Sim PTX: 4000000 instructions simulated : ctaid=(4,3,0) tid=(13,6,0)
GPGPU-Sim PTX: 4100000 instructions simulated : ctaid=(7,2,0) tid=(14,2,0)
GPGPU-Sim PTX: 4200000 instructions simulated : ctaid=(8,1,0) tid=(6,5,0)
GPGPU-Sim uArch: cycles simulated: 24500  inst.: 4168413 (ipc=170.1) sim_rate=320647 (inst/sec) elapsed = 0:0:00:13 / Tue Mar 22 07:00:51 2016
GPGPU-Sim uArch: Shader 14 finished CTA #0 (24597,0), 4 CTAs running
GPGPU-Sim uArch: core: 14, cta: 0 initialized @(24598,0)
GPGPU-Sim PTX: 4300000 instructions simulated : ctaid=(3,0,0) tid=(15,1,0)
GPGPU-Sim uArch: Shader 0 finished CTA #0 (24614,0), 4 CTAs running
GPGPU-Sim uArch: core:  0, cta: 0 initialized @(24615,0)
GPGPU-Sim uArch: Shader 3 finished CTA #0 (24740,0), 4 CTAs running
GPGPU-Sim uArch: core:  3, cta: 0 initialized @(24741,0)
GPGPU-Sim uArch: Shader 2 finished CTA #0 (24766,0), 4 CTAs running
GPGPU-Sim uArch: core:  2, cta: 0 initialized @(24767,0)
GPGPU-Sim uArch: Shader 1 finished CTA #0 (24770,0), 4 CTAs running
GPGPU-Sim uArch: core:  1, cta: 0 initialized @(24771,0)
GPGPU-Sim PTX: 4400000 instructions simulated : ctaid=(2,1,0) tid=(8,6,0)
GPGPU-Sim PTX: 4500000 instructions simulated : ctaid=(4,1,0) tid=(13,0,0)
GPGPU-Sim PTX: 4600000 instructions simulated : ctaid=(11,4,0) tid=(3,4,0)
GPGPU-Sim PTX: 4700000 instructions simulated : ctaid=(15,1,0) tid=(6,3,0)
GPGPU-Sim PTX: 4800000 instructions simulated : ctaid=(11,0,0) tid=(6,5,0)
GPGPU-Sim uArch: cycles simulated: 26000  inst.: 4720655 (ipc=181.6) sim_rate=337189 (inst/sec) elapsed = 0:0:00:14 / Tue Mar 22 07:00:52 2016
GPGPU-Sim PTX: 4900000 instructions simulated : ctaid=(11,1,0) tid=(13,6,0)
GPGPU-Sim PTX: 5000000 instructions simulated : ctaid=(10,1,0) tid=(4,2,0)
GPGPU-Sim PTX: 5100000 instructions simulated : ctaid=(6,1,0) tid=(3,5,0)
GPGPU-Sim PTX: 5200000 instructions simulated : ctaid=(7,2,0) tid=(11,0,0)
GPGPU-Sim uArch: Shader 3 finished CTA #1 (26906,0), 4 CTAs running
GPGPU-Sim uArch: core:  3, cta: 1 initialized @(26907,0)
GPGPU-Sim uArch: Shader 1 finished CTA #1 (26929,0), 4 CTAs running
GPGPU-Sim uArch: core:  1, cta: 1 initialized @(26930,0)
GPGPU-Sim uArch: cycles simulated: 27000  inst.: 5152814 (ipc=190.8) sim_rate=343520 (inst/sec) elapsed = 0:0:00:15 / Tue Mar 22 07:00:53 2016
GPGPU-Sim PTX: 5300000 instructions simulated : ctaid=(7,0,0) tid=(1,5,0)
GPGPU-Sim uArch: Shader 2 finished CTA #1 (27107,0), 4 CTAs running
GPGPU-Sim uArch: core:  2, cta: 1 initialized @(27108,0)
GPGPU-Sim PTX: 5400000 instructions simulated : ctaid=(7,1,0) tid=(15,1,0)
GPGPU-Sim uArch: Shader 0 finished CTA #1 (27511,0), 4 CTAs running
GPGPU-Sim uArch: core:  0, cta: 1 initialized @(27512,0)
GPGPU-Sim PTX: 5500000 instructions simulated : ctaid=(11,1,0) tid=(11,0,0)
GPGPU-Sim PTX: 5600000 instructions simulated : ctaid=(14,2,0) tid=(10,7,0)
GPGPU-Sim PTX: 5700000 instructions simulated : ctaid=(7,3,0) tid=(14,4,0)
GPGPU-Sim uArch: Shader 4 finished CTA #1 (28085,0), 4 CTAs running
GPGPU-Sim uArch: core:  4, cta: 1 initialized @(28086,0)
GPGPU-Sim PTX: 5800000 instructions simulated : ctaid=(0,3,0) tid=(15,6,0)
GPGPU-Sim uArch: cycles simulated: 28500  inst.: 5738126 (ipc=201.3) sim_rate=358632 (inst/sec) elapsed = 0:0:00:16 / Tue Mar 22 07:00:54 2016
GPGPU-Sim PTX: 5900000 instructions simulated : ctaid=(5,3,0) tid=(11,3,0)
GPGPU-Sim PTX: 6000000 instructions simulated : ctaid=(7,3,0) tid=(11,6,0)
GPGPU-Sim PTX: 6100000 instructions simulated : ctaid=(5,1,0) tid=(4,6,0)
GPGPU-Sim PTX: 6200000 instructions simulated : ctaid=(13,2,0) tid=(5,4,0)
GPGPU-Sim uArch: cycles simulated: 29500  inst.: 6086470 (ipc=206.3) sim_rate=358027 (inst/sec) elapsed = 0:0:00:17 / Tue Mar 22 07:00:55 2016
GPGPU-Sim PTX: 6300000 instructions simulated : ctaid=(3,0,0) tid=(13,0,0)
GPGPU-Sim PTX: 6400000 instructions simulated : ctaid=(2,3,0) tid=(11,2,0)
GPGPU-Sim PTX: 6500000 instructions simulated : ctaid=(11,0,0) tid=(4,3,0)
GPGPU-Sim PTX: 6600000 instructions simulated : ctaid=(14,2,0) tid=(8,1,0)
GPGPU-Sim PTX: 6700000 instructions simulated : ctaid=(12,0,0) tid=(6,0,0)
GPGPU-Sim uArch: cycles simulated: 31500  inst.: 6615594 (ipc=210.0) sim_rate=367533 (inst/sec) elapsed = 0:0:00:18 / Tue Mar 22 07:00:56 2016
GPGPU-Sim PTX: 6800000 instructions simulated : ctaid=(14,1,0) tid=(11,5,0)
GPGPU-Sim PTX: 6900000 instructions simulated : ctaid=(9,1,0) tid=(10,2,0)
GPGPU-Sim PTX: 7000000 instructions simulated : ctaid=(15,1,0) tid=(15,2,0)
GPGPU-Sim PTX: 7100000 instructions simulated : ctaid=(7,3,0) tid=(15,0,0)
GPGPU-Sim PTX: 7200000 instructions simulated : ctaid=(9,2,0) tid=(5,7,0)
GPGPU-Sim uArch: cycles simulated: 33500  inst.: 7038989 (ipc=210.1) sim_rate=370473 (inst/sec) elapsed = 0:0:00:19 / Tue Mar 22 07:00:57 2016
GPGPU-Sim PTX: 7300000 instructions simulated : ctaid=(4,2,0) tid=(13,6,0)
GPGPU-Sim PTX: 7400000 instructions simulated : ctaid=(11,3,0) tid=(12,0,0)
GPGPU-Sim PTX: 7500000 instructions simulated : ctaid=(11,0,0) tid=(5,0,0)
GPGPU-Sim PTX: 7600000 instructions simulated : ctaid=(12,4,0) tid=(0,3,0)
GPGPU-Sim uArch: cycles simulated: 35000  inst.: 7477234 (ipc=213.6) sim_rate=373861 (inst/sec) elapsed = 0:0:00:20 / Tue Mar 22 07:00:58 2016
GPGPU-Sim PTX: 7700000 instructions simulated : ctaid=(4,2,0) tid=(1,3,0)
GPGPU-Sim PTX: 7800000 instructions simulated : ctaid=(12,3,0) tid=(15,2,0)
GPGPU-Sim PTX: 7900000 instructions simulated : ctaid=(9,3,0) tid=(0,3,0)
GPGPU-Sim PTX: 8000000 instructions simulated : ctaid=(15,2,0) tid=(7,7,0)
GPGPU-Sim PTX: 8100000 instructions simulated : ctaid=(2,3,0) tid=(1,5,0)
GPGPU-Sim uArch: cycles simulated: 36000  inst.: 7957145 (ipc=221.0) sim_rate=378911 (inst/sec) elapsed = 0:0:00:21 / Tue Mar 22 07:00:59 2016
GPGPU-Sim PTX: 8200000 instructions simulated : ctaid=(6,2,0) tid=(14,2,0)
GPGPU-Sim PTX: 8300000 instructions simulated : ctaid=(4,0,0) tid=(10,7,0)
GPGPU-Sim PTX: 8400000 instructions simulated : ctaid=(8,3,0) tid=(13,7,0)
GPGPU-Sim PTX: 8500000 instructions simulated : ctaid=(14,3,0) tid=(3,0,0)
GPGPU-Sim PTX: 8600000 instructions simulated : ctaid=(7,4,0) tid=(14,2,0)
GPGPU-Sim PTX: 8700000 instructions simulated : ctaid=(8,1,0) tid=(10,5,0)
GPGPU-Sim uArch: Shader 13 finished CTA #0 (37180,0), 4 CTAs running
GPGPU-Sim uArch: core: 13, cta: 0 initialized @(37181,0)
GPGPU-Sim PTX: 8800000 instructions simulated : ctaid=(1,3,0) tid=(3,5,0)
GPGPU-Sim uArch: cycles simulated: 37500  inst.: 8593051 (ipc=229.1) sim_rate=390593 (inst/sec) elapsed = 0:0:00:22 / Tue Mar 22 07:01:00 2016
GPGPU-Sim uArch: Shader 4 finished CTA #0 (37668,0), 4 CTAs running
GPGPU-Sim uArch: core:  4, cta: 0 initialized @(37669,0)
GPGPU-Sim PTX: 8900000 instructions simulated : ctaid=(12,3,0) tid=(15,5,0)
GPGPU-Sim PTX: 9000000 instructions simulated : ctaid=(5,4,0) tid=(8,5,0)
GPGPU-Sim uArch: Shader 2 finished CTA #2 (38151,0), 4 CTAs running
GPGPU-Sim uArch: core:  2, cta: 2 initialized @(38152,0)
GPGPU-Sim uArch: Shader 1 finished CTA #2 (38178,0), 4 CTAs running
GPGPU-Sim uArch: core:  1, cta: 2 initialized @(38179,0)
GPGPU-Sim uArch: Shader 0 finished CTA #2 (38195,0), 4 CTAs running
GPGPU-Sim uArch: core:  0, cta: 2 initialized @(38196,0)
GPGPU-Sim uArch: Shader 3 finished CTA #2 (38330,0), 4 CTAs running
GPGPU-Sim uArch: core:  3, cta: 2 initialized @(38331,0)
GPGPU-Sim PTX: 9100000 instructions simulated : ctaid=(6,4,0) tid=(6,0,0)
GPGPU-Sim uArch: Shader 14 finished CTA #1 (38480,0), 4 CTAs running
GPGPU-Sim uArch: core: 14, cta: 1 initialized @(38481,0)
GPGPU-Sim uArch: cycles simulated: 38500  inst.: 8889364 (ipc=230.9) sim_rate=386494 (inst/sec) elapsed = 0:0:00:23 / Tue Mar 22 07:01:01 2016
GPGPU-Sim PTX: 9200000 instructions simulated : ctaid=(8,1,0) tid=(10,7,0)
GPGPU-Sim PTX: 9300000 instructions simulated : ctaid=(15,3,0) tid=(1,1,0)
GPGPU-Sim PTX: 9400000 instructions simulated : ctaid=(8,2,0) tid=(6,7,0)
GPGPU-Sim uArch: Shader 6 finished CTA #1 (39357,0), 4 CTAs running
GPGPU-Sim uArch: core:  6, cta: 1 initialized @(39358,0)
GPGPU-Sim PTX: 9500000 instructions simulated : ctaid=(1,3,0) tid=(2,6,0)
GPGPU-Sim uArch: Shader 5 finished CTA #1 (39635,0), 4 CTAs running
GPGPU-Sim uArch: core:  5, cta: 1 initialized @(39636,0)
GPGPU-Sim PTX: 9600000 instructions simulated : ctaid=(14,4,0) tid=(5,1,0)
GPGPU-Sim uArch: cycles simulated: 40000  inst.: 9436092 (ipc=235.9) sim_rate=393170 (inst/sec) elapsed = 0:0:00:24 / Tue Mar 22 07:01:02 2016
GPGPU-Sim PTX: 9700000 instructions simulated : ctaid=(9,4,0) tid=(7,7,0)
GPGPU-Sim PTX: 9800000 instructions simulated : ctaid=(5,4,0) tid=(11,0,0)
GPGPU-Sim PTX: 9900000 instructions simulated : ctaid=(10,3,0) tid=(5,4,0)
GPGPU-Sim PTX: 10000000 instructions simulated : ctaid=(1,4,0) tid=(15,5,0)
GPGPU-Sim uArch: cycles simulated: 41500  inst.: 9828004 (ipc=236.8) sim_rate=393120 (inst/sec) elapsed = 0:0:00:25 / Tue Mar 22 07:01:03 2016
GPGPU-Sim PTX: 10100000 instructions simulated : ctaid=(13,3,0) tid=(15,7,0)
GPGPU-Sim PTX: 10200000 instructions simulated : ctaid=(13,5,0) tid=(5,4,0)
GPGPU-Sim uArch: Shader 14 finished CTA #2 (41960,0), 4 CTAs running
GPGPU-Sim uArch: core: 14, cta: 2 initialized @(41961,0)
GPGPU-Sim PTX: 10300000 instructions simulated : ctaid=(14,3,0) tid=(0,3,0)
GPGPU-Sim uArch: Shader 3 finished CTA #3 (42685,0), 4 CTAs running
GPGPU-Sim uArch: core:  3, cta: 3 initialized @(42686,0)
GPGPU-Sim PTX: 10400000 instructions simulated : ctaid=(10,4,0) tid=(10,7,0)
GPGPU-Sim uArch: Shader 13 finished CTA #1 (42720,0), 4 CTAs running
GPGPU-Sim uArch: core: 13, cta: 1 initialized @(42721,0)
GPGPU-Sim uArch: cycles simulated: 43000  inst.: 10189329 (ipc=237.0) sim_rate=391897 (inst/sec) elapsed = 0:0:00:26 / Tue Mar 22 07:01:04 2016
GPGPU-Sim PTX: 10500000 instructions simulated : ctaid=(8,2,0) tid=(4,0,0)
GPGPU-Sim uArch: Shader 2 finished CTA #3 (43322,0), 4 CTAs running
GPGPU-Sim uArch: core:  2, cta: 3 initialized @(43323,0)
GPGPU-Sim PTX: 10600000 instructions simulated : ctaid=(10,1,0) tid=(14,5,0)
GPGPU-Sim PTX: 10700000 instructions simulated : ctaid=(10,4,0) tid=(12,1,0)
GPGPU-Sim PTX: 10800000 instructions simulated : ctaid=(11,3,0) tid=(10,6,0)
GPGPU-Sim uArch: cycles simulated: 44500  inst.: 10585368 (ipc=237.9) sim_rate=392050 (inst/sec) elapsed = 0:0:00:27 / Tue Mar 22 07:01:05 2016
GPGPU-Sim PTX: 10900000 instructions simulated : ctaid=(11,5,0) tid=(5,0,0)
GPGPU-Sim PTX: 11000000 instructions simulated : ctaid=(14,3,0) tid=(13,7,0)
GPGPU-Sim uArch: Shader 4 finished CTA #2 (44838,0), 4 CTAs running
GPGPU-Sim uArch: core:  4, cta: 2 initialized @(44839,0)
GPGPU-Sim PTX: 11100000 instructions simulated : ctaid=(2,6,0) tid=(15,1,0)
GPGPU-Sim PTX: 11200000 instructions simulated : ctaid=(15,4,0) tid=(0,5,0)
GPGPU-Sim uArch: Shader 6 finished CTA #2 (45276,0), 4 CTAs running
GPGPU-Sim uArch: core:  6, cta: 2 initialized @(45277,0)
GPGPU-Sim PTX: 11300000 instructions simulated : ctaid=(8,2,0) tid=(7,6,0)
GPGPU-Sim uArch: cycles simulated: 45500  inst.: 11030535 (ipc=242.4) sim_rate=393947 (inst/sec) elapsed = 0:0:00:28 / Tue Mar 22 07:01:06 2016
GPGPU-Sim PTX: 11400000 instructions simulated : ctaid=(4,3,0) tid=(12,4,0)
GPGPU-Sim PTX: 11500000 instructions simulated : ctaid=(9,3,0) tid=(0,0,0)
GPGPU-Sim PTX: 11600000 instructions simulated : ctaid=(7,3,0) tid=(6,0,0)
GPGPU-Sim uArch: Shader 0 finished CTA #3 (46280,0), 4 CTAs running
GPGPU-Sim uArch: core:  0, cta: 3 initialized @(46281,0)
GPGPU-Sim PTX: 11700000 instructions simulated : ctaid=(1,5,0) tid=(4,0,0)
GPGPU-Sim PTX: 11800000 instructions simulated : ctaid=(7,4,0) tid=(1,0,0)
GPGPU-Sim PTX: 11900000 instructions simulated : ctaid=(3,5,0) tid=(9,2,0)
GPGPU-Sim uArch: Shader 1 finished CTA #3 (46770,0), 4 CTAs running
GPGPU-Sim uArch: core:  1, cta: 3 initialized @(46771,0)
GPGPU-Sim PTX: 12000000 instructions simulated : ctaid=(2,3,0) tid=(15,2,0)
GPGPU-Sim uArch: cycles simulated: 47000  inst.: 11749972 (ipc=250.0) sim_rate=405171 (inst/sec) elapsed = 0:0:00:29 / Tue Mar 22 07:01:07 2016
GPGPU-Sim PTX: 12100000 instructions simulated : ctaid=(7,4,0) tid=(0,5,0)
GPGPU-Sim PTX: 12200000 instructions simulated : ctaid=(12,5,0) tid=(8,7,0)
GPGPU-Sim PTX: 12300000 instructions simulated : ctaid=(6,2,0) tid=(13,0,0)
GPGPU-Sim PTX: 12400000 instructions simulated : ctaid=(4,4,0) tid=(2,1,0)
GPGPU-Sim PTX: 12500000 instructions simulated : ctaid=(8,3,0) tid=(13,3,0)
GPGPU-Sim PTX: 12600000 instructions simulated : ctaid=(5,5,0) tid=(11,4,0)
GPGPU-Sim uArch: cycles simulated: 48000  inst.: 12285574 (ipc=255.9) sim_rate=409519 (inst/sec) elapsed = 0:0:00:30 / Tue Mar 22 07:01:08 2016
GPGPU-Sim uArch: Shader 5 finished CTA #2 (48009,0), 4 CTAs running
GPGPU-Sim uArch: core:  5, cta: 2 initialized @(48010,0)
GPGPU-Sim PTX: 12700000 instructions simulated : ctaid=(2,5,0) tid=(4,5,0)
GPGPU-Sim PTX: 12800000 instructions simulated : ctaid=(4,2,0) tid=(8,0,0)
GPGPU-Sim PTX: 12900000 instructions simulated : ctaid=(7,5,0) tid=(3,5,0)
GPGPU-Sim uArch: Shader 9 finished CTA #0 (48763,0), 4 CTAs running
GPGPU-Sim uArch: core:  9, cta: 0 initialized @(48764,0)
GPGPU-Sim PTX: 13000000 instructions simulated : ctaid=(5,4,0) tid=(12,7,0)
GPGPU-Sim uArch: cycles simulated: 49000  inst.: 12727227 (ipc=259.7) sim_rate=410555 (inst/sec) elapsed = 0:0:00:31 / Tue Mar 22 07:01:09 2016
GPGPU-Sim PTX: 13100000 instructions simulated : ctaid=(10,5,0) tid=(2,2,0)
GPGPU-Sim PTX: 13200000 instructions simulated : ctaid=(2,5,0) tid=(12,0,0)
GPGPU-Sim uArch: Shader 2 finished CTA #4 (49462,0), 4 CTAs running
GPGPU-Sim uArch: core:  2, cta: 4 initialized @(49463,0)
GPGPU-Sim PTX: 13300000 instructions simulated : ctaid=(7,3,0) tid=(3,6,0)
GPGPU-Sim uArch: Shader 4 finished CTA #3 (49607,0), 4 CTAs running
GPGPU-Sim uArch: core:  4, cta: 3 initialized @(49608,0)
GPGPU-Sim uArch: Shader 6 finished CTA #3 (49635,0), 4 CTAs running
GPGPU-Sim uArch: core:  6, cta: 3 initialized @(49636,0)
GPGPU-Sim uArch: Shader 14 finished CTA #3 (49637,0), 4 CTAs running
GPGPU-Sim uArch: core: 14, cta: 3 initialized @(49638,0)
GPGPU-Sim uArch: Shader 3 finished CTA #4 (49641,0), 4 CTAs running
GPGPU-Sim uArch: core:  3, cta: 4 initialized @(49642,0)
GPGPU-Sim PTX: 13400000 instructions simulated : ctaid=(14,5,0) tid=(15,3,0)
GPGPU-Sim PTX: 13500000 instructions simulated : ctaid=(13,5,0) tid=(15,5,0)
GPGPU-Sim uArch: cycles simulated: 50000  inst.: 13170361 (ipc=263.4) sim_rate=411573 (inst/sec) elapsed = 0:0:00:32 / Tue Mar 22 07:01:10 2016
GPGPU-Sim PTX: 13600000 instructions simulated : ctaid=(4,3,0) tid=(14,0,0)
GPGPU-Sim PTX: 13700000 instructions simulated : ctaid=(4,5,0) tid=(6,3,0)
GPGPU-Sim uArch: cycles simulated: 51000  inst.: 13425040 (ipc=263.2) sim_rate=406819 (inst/sec) elapsed = 0:0:00:33 / Tue Mar 22 07:01:11 2016
GPGPU-Sim PTX: 13800000 instructions simulated : ctaid=(0,6,0) tid=(8,4,0)
GPGPU-Sim uArch: Shader 10 finished CTA #0 (51357,0), 4 CTAs running
GPGPU-Sim uArch: core: 10, cta: 0 initialized @(51358,0)
GPGPU-Sim PTX: 13900000 instructions simulated : ctaid=(4,3,0) tid=(2,0,0)
GPGPU-Sim uArch: Shader 0 finished CTA #4 (51774,0), 4 CTAs running
GPGPU-Sim uArch: core:  0, cta: 4 initialized @(51775,0)
GPGPU-Sim PTX: 14000000 instructions simulated : ctaid=(9,4,0) tid=(8,4,0)
GPGPU-Sim PTX: 14100000 instructions simulated : ctaid=(6,5,0) tid=(1,3,0)
GPGPU-Sim PTX: 14200000 instructions simulated : ctaid=(0,4,0) tid=(3,7,0)
GPGPU-Sim uArch: Shader 1 finished CTA #4 (52833,0), 4 CTAs running
GPGPU-Sim uArch: core:  1, cta: 4 initialized @(52834,0)
GPGPU-Sim uArch: cycles simulated: 53000  inst.: 13910827 (ipc=262.5) sim_rate=409141 (inst/sec) elapsed = 0:0:00:34 / Tue Mar 22 07:01:12 2016
GPGPU-Sim PTX: 14300000 instructions simulated : ctaid=(7,2,0) tid=(8,2,0)
GPGPU-Sim uArch: Shader 8 finished CTA #0 (53126,0), 4 CTAs running
GPGPU-Sim uArch: core:  8, cta: 0 initialized @(53127,0)
GPGPU-Sim PTX: 14400000 instructions simulated : ctaid=(0,5,0) tid=(14,1,0)
GPGPU-Sim PTX: 14500000 instructions simulated : ctaid=(9,4,0) tid=(8,4,0)
GPGPU-Sim uArch: Shader 12 finished CTA #0 (54053,0), 4 CTAs running
GPGPU-Sim uArch: core: 12, cta: 0 initialized @(54054,0)
GPGPU-Sim uArch: Shader 7 finished CTA #2 (54150,0), 4 CTAs running
GPGPU-Sim uArch: core:  7, cta: 2 initialized @(54151,0)
GPGPU-Sim uArch: Shader 7 finished CTA #1 (54242,0), 4 CTAs running
GPGPU-Sim uArch: core:  7, cta: 1 initialized @(54243,0)
GPGPU-Sim PTX: 14600000 instructions simulated : ctaid=(6,3,0) tid=(14,0,0)
GPGPU-Sim uArch: cycles simulated: 54500  inst.: 14234844 (ipc=261.2) sim_rate=406709 (inst/sec) elapsed = 0:0:00:35 / Tue Mar 22 07:01:13 2016
GPGPU-Sim PTX: 14700000 instructions simulated : ctaid=(14,4,0) tid=(12,3,0)
GPGPU-Sim PTX: 14800000 instructions simulated : ctaid=(1,6,0) tid=(9,5,0)
GPGPU-Sim PTX: 14900000 instructions simulated : ctaid=(3,6,0) tid=(15,1,0)
GPGPU-Sim uArch: Shader 12 finished CTA #1 (55385,0), 4 CTAs running
GPGPU-Sim uArch: core: 12, cta: 1 initialized @(55386,0)
GPGPU-Sim uArch: Shader 5 finished CTA #0 (55416,0), 4 CTAs running
GPGPU-Sim uArch: core:  5, cta: 0 initialized @(55417,0)
GPGPU-Sim PTX: 15000000 instructions simulated : ctaid=(9,6,0) tid=(9,0,0)
GPGPU-Sim uArch: Shader 3 finished CTA #0 (55716,0), 4 CTAs running
GPGPU-Sim uArch: core:  3, cta: 0 initialized @(55717,0)
GPGPU-Sim PTX: 15100000 instructions simulated : ctaid=(11,6,0) tid=(9,5,0)
GPGPU-Sim uArch: cycles simulated: 56000  inst.: 14770356 (ipc=263.8) sim_rate=410287 (inst/sec) elapsed = 0:0:00:36 / Tue Mar 22 07:01:14 2016
GPGPU-Sim uArch: Shader 11 finished CTA #0 (56042,0), 4 CTAs running
GPGPU-Sim uArch: core: 11, cta: 0 initialized @(56043,0)
GPGPU-Sim uArch: Shader 11 finished CTA #1 (56051,0), 4 CTAs running
GPGPU-Sim uArch: core: 11, cta: 1 initialized @(56052,0)
GPGPU-Sim PTX: 15200000 instructions simulated : ctaid=(3,3,0) tid=(7,6,0)
GPGPU-Sim uArch: Shader 4 finished CTA #4 (56102,0), 4 CTAs running
GPGPU-Sim uArch: core:  4, cta: 4 initialized @(56103,0)
GPGPU-Sim PTX: 15300000 instructions simulated : ctaid=(5,5,0) tid=(10,1,0)
GPGPU-Sim PTX: 15400000 instructions simulated : ctaid=(1,5,0) tid=(10,1,0)
GPGPU-Sim PTX: 15500000 instructions simulated : ctaid=(9,5,0) tid=(8,0,0)
GPGPU-Sim uArch: Shader 3 finished CTA #1 (56829,0), 4 CTAs running
GPGPU-Sim uArch: core:  3, cta: 1 initialized @(56830,0)
GPGPU-Sim uArch: Shader 2 finished CTA #0 (56943,0), 4 CTAs running
GPGPU-Sim uArch: core:  2, cta: 0 initialized @(56944,0)
GPGPU-Sim uArch: cycles simulated: 57000  inst.: 15178030 (ipc=266.3) sim_rate=410217 (inst/sec) elapsed = 0:0:00:37 / Tue Mar 22 07:01:15 2016
GPGPU-Sim PTX: 15600000 instructions simulated : ctaid=(9,5,0) tid=(4,5,0)
GPGPU-Sim uArch: Shader 2 finished CTA #1 (57047,0), 4 CTAs running
GPGPU-Sim uArch: core:  2, cta: 1 initialized @(57048,0)
GPGPU-Sim PTX: 15700000 instructions simulated : ctaid=(6,1,0) tid=(12,5,0)
GPGPU-Sim PTX: 15800000 instructions simulated : ctaid=(9,5,0) tid=(3,1,0)
GPGPU-Sim uArch: Shader 6 finished CTA #4 (57501,0), 4 CTAs running
GPGPU-Sim uArch: core:  6, cta: 4 initialized @(57502,0)
GPGPU-Sim PTX: 15900000 instructions simulated : ctaid=(2,4,0) tid=(8,1,0)
GPGPU-Sim PTX: 16000000 instructions simulated : ctaid=(3,3,0) tid=(7,4,0)
GPGPU-Sim uArch: cycles simulated: 58000  inst.: 15616990 (ipc=269.3) sim_rate=410973 (inst/sec) elapsed = 0:0:00:38 / Tue Mar 22 07:01:16 2016
GPGPU-Sim PTX: 16100000 instructions simulated : ctaid=(6,1,0) tid=(13,5,0)
GPGPU-Sim uArch: Shader 1 finished CTA #0 (58164,0), 4 CTAs running
GPGPU-Sim uArch: core:  1, cta: 0 initialized @(58165,0)
GPGPU-Sim PTX: 16200000 instructions simulated : ctaid=(4,5,0) tid=(5,6,0)
GPGPU-Sim PTX: 16300000 instructions simulated : ctaid=(9,6,0) tid=(0,0,0)
GPGPU-Sim uArch: Shader 7 finished CTA #3 (58652,0), 4 CTAs running
GPGPU-Sim uArch: core:  7, cta: 3 initialized @(58653,0)
GPGPU-Sim PTX: 16400000 instructions simulated : ctaid=(9,6,0) tid=(12,5,0)
GPGPU-Sim uArch: Shader 0 finished CTA #1 (58743,0), 4 CTAs running
GPGPU-Sim uArch: core:  0, cta: 1 initialized @(58744,0)
GPGPU-Sim uArch: Shader 0 finished CTA #0 (58753,0), 4 CTAs running
GPGPU-Sim uArch: core:  0, cta: 0 initialized @(58754,0)
GPGPU-Sim uArch: Shader 13 finished CTA #2 (58758,0), 4 CTAs running
GPGPU-Sim uArch: core: 13, cta: 2 initialized @(58759,0)
GPGPU-Sim PTX: 16500000 instructions simulated : ctaid=(2,8,0) tid=(8,1,0)
GPGPU-Sim uArch: cycles simulated: 59000  inst.: 16103640 (ipc=272.9) sim_rate=412913 (inst/sec) elapsed = 0:0:00:39 / Tue Mar 22 07:01:17 2016
GPGPU-Sim PTX: 16600000 instructions simulated : ctaid=(2,4,0) tid=(1,4,0)
GPGPU-Sim uArch: Shader 5 finished CTA #3 (59222,0), 4 CTAs running
GPGPU-Sim uArch: core:  5, cta: 3 initialized @(59223,0)
GPGPU-Sim uArch: Shader 5 finished CTA #4 (59248,0), 4 CTAs running
GPGPU-Sim uArch: core:  5, cta: 4 initialized @(59249,0)
GPGPU-Sim PTX: 16700000 instructions simulated : ctaid=(5,5,0) tid=(10,3,0)
GPGPU-Sim uArch: Shader 8 finished CTA #2 (59507,0), 4 CTAs running
GPGPU-Sim uArch: core:  8, cta: 2 initialized @(59508,0)
GPGPU-Sim PTX: 16800000 instructions simulated : ctaid=(4,8,0) tid=(10,1,0)
GPGPU-Sim uArch: Shader 8 finished CTA #3 (59512,0), 4 CTAs running
GPGPU-Sim uArch: core:  8, cta: 3 initialized @(59513,0)
GPGPU-Sim uArch: Shader 14 finished CTA #0 (59698,0), 4 CTAs running
GPGPU-Sim uArch: core: 14, cta: 0 initialized @(59699,0)
GPGPU-Sim PTX: 16900000 instructions simulated : ctaid=(12,7,0) tid=(5,2,0)
GPGPU-Sim PTX: 17000000 instructions simulated : ctaid=(13,5,0) tid=(13,3,0)
GPGPU-Sim uArch: cycles simulated: 60000  inst.: 16591762 (ipc=276.5) sim_rate=414794 (inst/sec) elapsed = 0:0:00:40 / Tue Mar 22 07:01:18 2016
GPGPU-Sim PTX: 17100000 instructions simulated : ctaid=(14,6,0) tid=(7,3,0)
GPGPU-Sim PTX: 17200000 instructions simulated : ctaid=(11,6,0) tid=(10,1,0)
GPGPU-Sim uArch: Shader 1 finished CTA #1 (60346,0), 4 CTAs running
GPGPU-Sim uArch: core:  1, cta: 1 initialized @(60347,0)
GPGPU-Sim uArch: Shader 9 finished CTA #3 (60471,0), 4 CTAs running
GPGPU-Sim uArch: core:  9, cta: 3 initialized @(60472,0)
GPGPU-Sim uArch: Shader 9 finished CTA #4 (60479,0), 4 CTAs running
GPGPU-Sim uArch: core:  9, cta: 4 initialized @(60480,0)
GPGPU-Sim PTX: 17300000 instructions simulated : ctaid=(6,0,0) tid=(2,0,0)
GPGPU-Sim PTX: 17400000 instructions simulated : ctaid=(14,5,0) tid=(5,6,0)
GPGPU-Sim PTX: 17500000 instructions simulated : ctaid=(5,8,0) tid=(10,1,0)
GPGPU-Sim uArch: cycles simulated: 61000  inst.: 17044671 (ipc=279.4) sim_rate=415723 (inst/sec) elapsed = 0:0:00:41 / Tue Mar 22 07:01:19 2016
GPGPU-Sim uArch: Shader 4 finished CTA #1 (61128,0), 4 CTAs running
GPGPU-Sim uArch: core:  4, cta: 1 initialized @(61129,0)
GPGPU-Sim PTX: 17600000 instructions simulated : ctaid=(5,4,0) tid=(5,6,0)
GPGPU-Sim PTX: 17700000 instructions simulated : ctaid=(6,7,0) tid=(2,0,0)
GPGPU-Sim PTX: 17800000 instructions simulated : ctaid=(8,3,0) tid=(9,6,0)
GPGPU-Sim PTX: 17900000 instructions simulated : ctaid=(6,6,0) tid=(4,7,0)
GPGPU-Sim uArch: cycles simulated: 62000  inst.: 17496054 (ipc=282.2) sim_rate=416572 (inst/sec) elapsed = 0:0:00:42 / Tue Mar 22 07:01:20 2016
[...]
maxmrqlatency = 709 
maxdqlatency = 0 
maxmflatency = 1728 
averagemflatency = 230 
max_icnt2mem_latency = 1071 
max_icnt2sh_latency = 327583 
mrq_lat_table:13774 	1737 	983 	1884 	5018 	3133 	2887 	1647 	187 	16 	0 	0 	0 	0 	0 	0 	0 	0 	0 	0 	0 	0 	0 	0 	0 	0 	0 	0 	0 	0 	0 	0 	
dq_lat_table:0 	0 	0 	0 	0 	0 	0 	0 	0 	0 	0 	0 	0 	0 	0 	0 	0 	0 	0 	0 	0 	0 	0 	0 	0 	0 	0 	0 	0 	0 	0 	0 	
mf_lat_table:0 	0 	0 	0 	0 	0 	0 	53095 	8081 	3485 	602 	0 	0 	0 	0 	0 	0 	0 	0 	0 	0 	0 	0 	0 	0 	0 	0 	0 	0 	0 	0 	0 	
icnt2mem_lat_table:0 	0 	0 	43262 	20127 	14663 	17060 	1095 	1311 	380 	1 	0 	0 	0 	0 	0 	0 	0 	0 	0 	0 	0 	0 	0 	
icnt2sh_lat_table:0 	0 	0 	5439 	4069 	1577 	195 	0 	0 	92 	517 	1306 	2204 	1014 	3887 	9052 	14513 	21154 	244 	0 	0 	0 	0 	0 	
mf_lat_pw_table:0 	0 	0 	0 	0 	0 	0 	478 	12 	13 	0 	0 	0 	0 	0 	0 	0 	0 	0 	0 	0 	0 	0 	0 	0 	0 	0 	0 	0 	0 	0 	0 	
maximum concurrent accesses to same row:
dram[0]:        12        20        20        20        16        16        17        16        16        18        24        18        18        18        26        32 
dram[1]:        20        18        18        18        16        16        18        16        16        16        16        18        14        19        26        26 
dram[2]:        20        20        18        22        16        16        16        19        16        16        30        18        24        19        26        26 
dram[3]:        20        20        21        16        16        20        16        18        26        16        17        18        25        20        49        30 
dram[4]:        20        20        18        16        16        18        18        16        20        16        18        19        20        25        26        26 
dram[5]:        20        20        18        22        22        16        17        27        18        16        16        18        20        20        26        26 
maximum service time to same row:
dram[0]:     20994     18804     27611     38824     21953     36947     22133     60028     16646     21768     22907     60343     66427     18255     30164     24850 
dram[1]:     12710     28110     23663     54913     16205     21932     14604     43300     21319     23228     11587     25755     12620     33073     21776     32483 
dram[2]:     29124     22303     30219     26530     24438     26421     30003     29363     41064     30783     25642     36749     29554     26980     30104     77691 
dram[3]:     39917     34329     42551     45365     36927     37236     52419     36084     36130     35217     29458     20747     46635     19462     36328     41846 
dram[4]:     12480     28308     25433     13543     23277     22253     14010     15502     25614     21529     16186     48328     33943     21900     34170     14066 
dram[5]:     17623     15471     25763     20819     11916     24388     10912     18766     26264     23212     18044     29736     13031     20722     24843     38280 
average row accesses per activate:
dram[0]:  3.550562  4.169014  4.909091  5.058824  3.786517  4.681818  3.605769  3.355140  3.319672  3.660000  3.829545  3.840909  3.633663  4.506849  3.666667  5.068965 
dram[1]:  3.576087  4.896552  4.181818  5.657143  3.323529  3.380952  3.467290  3.549451  3.434783  3.421569  3.342857  3.848101  3.641510  4.471428  4.121622  5.134615 
dram[2]:  4.102941  4.063291  4.028169  4.387097  3.216495  3.407767  3.762376  3.532110  3.625000  3.307018  3.586957  3.514852  4.484848  3.541284  3.986842  4.202703 
dram[3]:  4.215384  4.500000  4.295082  4.810345  3.464286  3.635417  3.494950  3.464286  4.630769  3.316239  3.463158  3.718750  4.273973  3.528302  5.175438  4.346154 
dram[4]:  4.260870  4.627119  4.418182  4.301587  3.347826  4.105263  3.548387  3.125000  3.533333  3.678161  3.333333  3.846154  3.882979  4.428571  5.206897  5.241379 
dram[5]:  4.236842  4.323077  5.326530  3.884058  3.764045  3.750000  3.237705  3.604396  3.361538  3.465347  3.309091  3.459184  3.737864  4.151163  4.866667  4.558824 
average row locality = 31266/8137 = 3.842448
number of total memory accesses made:
dram[0]:         0         0         0         0         0         0         0         0         0         0         0         0         0         0         0         0 
dram[1]:         0         0         0         0         0         0         0         0         0         0         0         0         0         0         0         0 
dram[2]:         0         0         0         0         0         0         0         0         0         0         0         0         0         0         0         0 
dram[3]:         0         0         0         0         0         0         0         0         0         0         0         0         0         0         0         0 
dram[4]:         0         0         0         0         0         0         0         0         0         0         0         0         0         0         0         0 
dram[5]:         0         0         0         0         0         0         0         0         0         0         0         0         0         0         0         0 
total accesses: 0
min_bank_accesses = 0!
min_chip_accesses = 0!
number of total read accesses:
dram[0]:       135       125       113       111       134       126       150       143       165       152       144       146       159       147       138       131 
dram[1]:       143       121       113        89       139       117       153       132       160       145       149       131       167       137       136       120 
dram[2]:       120       137       121       116       131       138       153       154       144       157       140       149       133       166       134       138 
dram[3]:       115       119       110       118       120       142       143       158       126       157       141       153       136       162       130       148 
dram[4]:       125       116       104       113       125       128       132       162       153       133       145       147       161       149       134       137 
dram[5]:       135       118       108       114       138       128       160       138       177       145       151       140       167       150       132       136 
total reads: 13181
bank skew: 177/89 = 1.99
chip skew: 2237/2152 = 1.04
number of total write accesses:
dram[0]:       181       171       157       147       203       183       225       216       240       214       193       192       208       182       170       163 
dram[1]:       186       163       163       109       200       167       218       191       235       204       202       173       219       176       169       147 
dram[2]:       159       184       165       156       181       213       227       231       204       220       190       206       163       220       169       173 
dram[3]:       159       160       152       161       171       207       203       230       175       231       188       204       176       212       165       191 
dram[4]:       169       157       139       158       183       184       198       238       218       187       205       203       204       192       168       167 
dram[5]:       187       163       153       154       197       187       235       190       260       205       213       199       218       207       160       174 
total reads: 18085
bank skew: 260/109 = 2.39
chip skew: 3102/2922 = 1.06
average mf latency per bank:
dram[0]:        492       437       513       518       476       467       473       491       439       470       501       514       470       522       484       491
dram[1]:        499       446       477       665       443       487       469       512       436       478       456       540       432       535       466       533
dram[2]:        478       440       464       475       461       421       455       444       465       426       500       445       540       424       477       448
dram[3]:        471       543       511       476       490       435       499       457       560       435       496       471       535       436       494       416
dram[4]:        492       453       549       516       452       469       526       434       460       520       474       490       472       498       472       503
dram[5]:        462       496       560       527       453       483       459       565       416       499       466       511       460       492       503       498
maximum mf latency per bank:
dram[0]:       1075      1375      1042      1040      1655      1728      1253      1260      1377      1459      1430      1218      1098      1470      1648      1300
dram[1]:       1211      1270      1405      1124      1485      1450      1504      1216      1344      1215      1193      1135      1239      1174      1218      1054
dram[2]:       1197      1008      1151       972      1324      1222      1522      1024      1203      1161      1104      1235      1135      1577      1138      1133
dram[3]:       1419      1464      1588      1412      1398      1393      1534      1426      1351      1428      1472      1349      1434      1342      1346      1358
dram[4]:       1243      1276      1353      1276      1180      1348      1313      1186       973      1013      1154      1371      1367      1296      1164      1290
dram[5]:       1240      1440      1499      1430      1331      1506      1500      1487      1386      1305      1361      1216      1247      1407      1332      1340

Number of Memory Banks Accessed per Memory Operation per Warp (from 0):
0	0	0	0	0	0	0	0	0	0	0	0	0	0	0	0	0	0	0	0	0	0	0	0	0	0	0	0	0	0	0	0	0	0	0	0	0	0	0	0	0	0	0	0	0	0	0	0	0	0	0	0	0	0	0	0	0	0	0	0	0	0	0	0	0	0	0	0	0	0	0	0	0	0	0	0	0	0	0	0	0	0	0	0	0	0	0	0	0	0	0	0	0	0	0	0	
Average # of Memory Banks Accessed per Memory Operation per Warp=-nan

position of mrq chosen
0	0	0	0	0	0	0	0	0	0	0	0	0	0	0	0	

average position of mrq chosen = -nan
Memory Partition 0: 
Cache L2_bank_000:
MSHR contents

Cache L2_bank_001:
MSHR contents

In Dram Latency Queue (total = 0): 
DRAM[0]: 16 bks, busW=4 BL=8 CL=12, tRRD=2 tCCD=6, tRCD=12 tRAS=28 tRP=12 tRC=40
n_cmd=432410 n_nop=419626 n_act=1346 n_pre=1330 n_req=5264 n_rd=4438 n_write=5670 bw_util=0.04675
n_activity=57732 dram_eff=0.3502
bk0: 270a 423813i bk1: 250a 425013i bk2: 226a 424575i bk3: 222a 424907i bk4: 268a 422105i bk5: 252a 423214i bk6: 300a 421545i bk7: 286a 421723i bk8: 330a 421557i bk9: 304a 422046i bk10: 288a 422198i bk11: 292a 422514i bk12: 318a 421984i bk13: 294a 422648i bk14: 276a 423650i bk15: 262a 424261i 
dram_util_bins: 0 0 0 0 0 0 0 0 0 0
dram_eff_bins: 0 0 0 0 0 0 0 0 0 0
mrqq: max=16 avg=0.455649
Memory Partition 1: 
Cache L2_bank_002:
MSHR contents

Cache L2_bank_003:
MSHR contents

In Dram Latency Queue (total = 0): 
DRAM[1]: 16 bks, busW=4 BL=8 CL=12, tRRD=2 tCCD=6, tRCD=12 tRAS=28 tRP=12 tRC=40
n_cmd=432410 n_nop=420002 n_act=1338 n_pre=1322 n_req=5074 n_rd=4304 n_write=5444 bw_util=0.04509
n_activity=54690 dram_eff=0.3565
bk0: 286a 423260i bk1: 242a 424049i bk2: 226a 424252i bk3: 178a 426017i bk4: 278a 421691i bk5: 234a 423217i bk6: 306a 421588i bk7: 264a 422518i bk8: 320a 421233i bk9: 290a 421668i bk10: 298a 422264i bk11: 262a 422619i bk12: 334a 421114i bk13: 274a 422552i bk14: 272a 424208i bk15: 240a 424806i 
dram_util_bins: 0 0 0 0 0 0 0 0 0 0
dram_eff_bins: 0 0 0 0 0 0 0 0 0 0
mrqq: max=16 avg=0.431752
Memory Partition 2: 
Cache L2_bank_004:
MSHR contents

Cache L2_bank_005:
MSHR contents

In Dram Latency Queue (total = 0): 
DRAM[2]: 16 bks, busW=4 BL=8 CL=12, tRRD=2 tCCD=6, tRCD=12 tRAS=28 tRP=12 tRC=40
n_cmd=432410 n_nop=419425 n_act=1418 n_pre=1402 n_req=5292 n_rd=4462 n_write=5703 bw_util=0.04702
n_activity=59112 dram_eff=0.3439
bk0: 240a 424786i bk1: 274a 424358i bk2: 242a 424425i bk3: 232a 424825i bk4: 262a 423583i bk5: 276a 421995i bk6: 306a 421392i bk7: 308a 421303i bk8: 288a 422857i bk9: 314a 422405i bk10: 280a 422781i bk11: 298a 422092i bk12: 266a 423237i bk13: 332a 421617i bk14: 268a 424602i bk15: 276a 424184i 
dram_util_bins: 0 0 0 0 0 0 0 0 0 0
dram_eff_bins: 0 0 0 0 0 0 0 0 0 0
mrqq: max=16 avg=0.450429
Memory Partition 3: 
Cache L2_bank_006:
MSHR contents

Cache L2_bank_007:
MSHR contents

In Dram Latency Queue (total = 0): 
DRAM[3]: 16 bks, busW=4 BL=8 CL=12, tRRD=2 tCCD=6, tRCD=12 tRAS=28 tRP=12 tRC=40
n_cmd=432410 n_nop=419874 n_act=1324 n_pre=1308 n_req=5163 n_rd=4356 n_write=5548 bw_util=0.04581
n_activity=56378 dram_eff=0.3513
bk0: 230a 424560i bk1: 238a 424302i bk2: 220a 424705i bk3: 236a 424264i bk4: 240a 423263i bk5: 284a 422092i bk6: 286a 422126i bk7: 316a 420459i bk8: 252a 423347i bk9: 314a 421291i bk10: 282a 422753i bk11: 306a 421253i bk12: 272a 422957i bk13: 324a 421224i bk14: 260a 424651i bk15: 296a 423505i 
dram_util_bins: 0 0 0 0 0 0 0 0 0 0
dram_eff_bins: 0 0 0 0 0 0 0 0 0 0
mrqq: max=16 avg=0.458611
Memory Partition 4: 
Cache L2_bank_008:
MSHR contents

Cache L2_bank_009:
MSHR contents

In Dram Latency Queue (total = 0): 
DRAM[4]: 16 bks, busW=4 BL=8 CL=12, tRRD=2 tCCD=6, tRCD=12 tRAS=28 tRP=12 tRC=40
n_cmd=432410 n_nop=419944 n_act=1310 n_pre=1294 n_req=5134 n_rd=4328 n_write=5534 bw_util=0.04561
n_activity=56245 dram_eff=0.3507
bk0: 250a 424696i bk1: 232a 424826i bk2: 208a 424926i bk3: 226a 424183i bk4: 250a 422979i bk5: 256a 422795i bk6: 264a 422539i bk7: 324a 420641i bk8: 306a 422158i bk9: 266a 423464i bk10: 290a 422254i bk11: 294a 422328i bk12: 322a 422064i bk13: 298a 422282i bk14: 268a 424647i bk15: 274a 424741i 
dram_util_bins: 0 0 0 0 0 0 0 0 0 0
dram_eff_bins: 0 0 0 0 0 0 0 0 0 0
mrqq: max=16 avg=0.449058
Memory Partition 5: 
Cache L2_bank_010:
MSHR contents

Cache L2_bank_011:
MSHR contents

In Dram Latency Queue (total = 0): 
DRAM[5]: 16 bks, busW=4 BL=8 CL=12, tRRD=2 tCCD=6, tRCD=12 tRAS=28 tRP=12 tRC=40
n_cmd=432410 n_nop=419365 n_act=1401 n_pre=1385 n_req=5339 n_rd=4474 n_write=5785 bw_util=0.04745
n_activity=57194 dram_eff=0.3587
bk0: 270a 423619i bk1: 236a 424011i bk2: 216a 424669i bk3: 228a 423976i bk4: 276a 421993i bk5: 256a 422336i bk6: 320a 420353i bk7: 276a 422020i bk8: 354a 420766i bk9: 290a 421802i bk10: 302a 421962i bk11: 280a 421805i bk12: 334a 421280i bk13: 300a 421763i bk14: 264a 424706i bk15: 272a 423756i 
dram_util_bins: 0 0 0 0 0 0 0 0 0 0
dram_eff_bins: 0 0 0 0 0 0 0 0 0 0
mrqq: max=16 avg=0.445848

========= L2 cache stats =========
L2_cache_bank[0]: Access = 8184, Miss = 1138, Miss_rate = 0.139, Pending_hits = 63, Reservation_fails = 1386
L2_cache_bank[1]: Access = 8291, Miss = 1081, Miss_rate = 0.130, Pending_hits = 47, Reservation_fails = 408
L2_cache_bank[2]: Access = 7901, Miss = 1160, Miss_rate = 0.147, Pending_hits = 57, Reservation_fails = 1185
L2_cache_bank[3]: Access = 7994, Miss = 992, Miss_rate = 0.124, Pending_hits = 45, Reservation_fails = 531
L2_cache_bank[4]: Access = 7669, Miss = 1076, Miss_rate = 0.140, Pending_hits = 40, Reservation_fails = 1239
L2_cache_bank[5]: Access = 8112, Miss = 1155, Miss_rate = 0.142, Pending_hits = 52, Reservation_fails = 577
L2_cache_bank[6]: Access = 8144, Miss = 1021, Miss_rate = 0.125, Pending_hits = 43, Reservation_fails = 316
L2_cache_bank[7]: Access = 8569, Miss = 1157, Miss_rate = 0.135, Pending_hits = 49, Reservation_fails = 368
L2_cache_bank[8]: Access = 8406, Miss = 1079, Miss_rate = 0.128, Pending_hits = 48, Reservation_fails = 516
L2_cache_bank[9]: Access = 7882, Miss = 1085, Miss_rate = 0.138, Pending_hits = 37, Reservation_fails = 395
L2_cache_bank[10]: Access = 8462, Miss = 1168, Miss_rate = 0.138, Pending_hits = 46, Reservation_fails = 412
L2_cache_bank[11]: Access = 8285, Miss = 1069, Miss_rate = 0.129, Pending_hits = 49, Reservation_fails = 307
L2_total_cache_accesses = 97899
L2_total_cache_misses = 13181
L2_total_cache_miss_rate = 0.1346
L2_total_cache_pending_hits = 576
L2_total_cache_reservation_fails = 7640
L2_total_cache_breakdown:
	L2_cache_stats_breakdown[GLOBAL_ACC_R][HIT] = 3934
	L2_cache_stats_breakdown[GLOBAL_ACC_R][HIT_RESERVED] = 7
	L2_cache_stats_breakdown[GLOBAL_ACC_R][MISS] = 119
	L2_cache_stats_breakdown[GLOBAL_ACC_R][RESERVATION_FAIL] = 201
	L2_cache_stats_breakdown[LOCAL_ACC_R][HIT] = 7001
	L2_cache_stats_breakdown[LOCAL_ACC_R][HIT_RESERVED] = 50
	L2_cache_stats_breakdown[LOCAL_ACC_R][MISS] = 139
	L2_cache_stats_breakdown[CONST_ACC_R][HIT] = 22
	L2_cache_stats_breakdown[CONST_ACC_R][HIT_RESERVED] = 6
	L2_cache_stats_breakdown[CONST_ACC_R][MISS] = 2
	L2_cache_stats_breakdown[CONST_ACC_R][RESERVATION_FAIL] = 586
	L2_cache_stats_breakdown[GLOBAL_ACC_W][HIT] = 5773
	L2_cache_stats_breakdown[GLOBAL_ACC_W][HIT_RESERVED] = 366
	L2_cache_stats_breakdown[GLOBAL_ACC_W][MISS] = 2053
	L2_cache_stats_breakdown[GLOBAL_ACC_W][RESERVATION_FAIL] = 30
	L2_cache_stats_breakdown[LOCAL_ACC_W][HIT] = 36184
	L2_cache_stats_breakdown[LOCAL_ACC_W][HIT_RESERVED] = 7
	L2_cache_stats_breakdown[LOCAL_ACC_W][MISS] = 9600
	L2_cache_stats_breakdown[LOCAL_ACC_W][RESERVATION_FAIL] = 975
	L2_cache_stats_breakdown[L1_WRBK_ACC][HIT] = 3713
	L2_cache_stats_breakdown[L1_WRBK_ACC][MISS] = 1218
	L2_cache_stats_breakdown[L1_WRBK_ACC][RESERVATION_FAIL] = 1
	L2_cache_stats_breakdown[INST_ACC_R][HIT] = 27515
	L2_cache_stats_breakdown[INST_ACC_R][HIT_RESERVED] = 140
	L2_cache_stats_breakdown[INST_ACC_R][MISS] = 50
	L2_cache_stats_breakdown[INST_ACC_R][RESERVATION_FAIL] = 5847
L2_cache_data_port_util = 0.082
L2_cache_fill_port_util = 0.013

icnt_total_pkts_mem_to_simt=248848
icnt_total_pkts_simt_to_mem=313995
LD_mem_lat_dist  0 0 0 0 0 0 0 0 0 0 0 0 0 0 0 0 0 0 0 0 0 0 0 0 0 0 0
ST_mem_lat_dist  0 0 0 0 0 0 0 0 0 0 0 0 0 0 0 0 0 0 0 0 0 0 0 0 0 0 0
----------------------------Interconnect-DETAILS--------------------------------
Class 0:
Packet latency average = 14.1096
	minimum = 6
	maximum = 890
Network latency average = 11.6852
	minimum = 6
	maximum = 870
Slowest packet = 3773
Flit latency average = 10.4145
	minimum = 6
	maximum = 866
Slowest flit = 12124
Fragmentation average = 0.0657264
	minimum = 0
	maximum = 613
Injected packet rate average = 0.0215797
	minimum = 0.0175283 (at node 2)
	maximum = 0.0247784 (at node 22)
Accepted packet rate average = 0.0215797
	minimum = 0.0168873 (at node 2)
	maximum = 0.0261582 (at node 22)
Injected flit rate average = 0.0636357
	minimum = 0.0550943 (at node 2)
	maximum = 0.074387 (at node 11)
Accepted flit rate average= 0.0636357
	minimum = 0.0460706 (at node 2)
	maximum = 0.0820797 (at node 25)
Injected packet length average = 2.94888
Accepted packet length average = 2.94888
Total in-flight flits = 0 (0 measured)
====== Overall Traffic Statistics ======
====== Traffic class 0 ======
Packet latency average = 14.1096 (1 samples)
	minimum = 6 (1 samples)
	maximum = 890 (1 samples)
Network latency average = 11.6852 (1 samples)
	minimum = 6 (1 samples)
	maximum = 870 (1 samples)
Flit latency average = 10.4145 (1 samples)
	minimum = 6 (1 samples)
	maximum = 866 (1 samples)
Fragmentation average = 0.0657264 (1 samples)
	minimum = 0 (1 samples)
	maximum = 613 (1 samples)
Injected packet rate average = 0.0215797 (1 samples)
	minimum = 0.0175283 (1 samples)
	maximum = 0.0247784 (1 samples)
Accepted packet rate average = 0.0215797 (1 samples)
	minimum = 0.0168873 (1 samples)
	maximum = 0.0261582 (1 samples)
Injected flit rate average = 0.0636357 (1 samples)
	minimum = 0.0550943 (1 samples)
	maximum = 0.074387 (1 samples)
Accepted flit rate average = 0.0636357 (1 samples)
	minimum = 0.0460706 (1 samples)
	maximum = 0.0820797 (1 samples)
Injected packet size average = 2.94888 (1 samples)
Accepted packet size average = 2.94888 (1 samples)
Hops average = 1 (1 samples)
----------------------------END-of-Interconnect-DETAILS-------------------------


gpgpu_simulation_time = 0 days, 0 hrs, 2 min, 42 sec (162 sec)
gpgpu_simulation_rate = 386929 (inst/sec)
gpgpu_simulation_rate = 2022 (cycle/sec)
GPGPU-Sim API: Stream Manager State
GPGPU-Sim: detected inactive GPU simulation thread

checksum=75ef40cb5b8e
Kernel Time: 161153.437500 
