

        *** GPGPU-Sim Simulator Version 3.2.2  [build 0] ***


GPGPU-Sim PTX: simulation mode 0 (can change with PTX_SIM_MODE_FUNC environment variable:
               1=functional simulation only, 0=detailed performance simulator)
GPGPU-Sim: Configuration options:

-network_mode                           1 # Interconnection network mode
-inter_config_file   config_fermi_islip.icnt # Interconnection network config file
-gpgpu_ptx_use_cuobjdump                    1 # Use cuobjdump to extract ptx and sass from binaries
-gpgpu_experimental_lib_support                    0 # Try to extract code from cuda libraries [Broken because of unknown cudaGetExportTable]
-gpgpu_ptx_convert_to_ptxplus                    0 # Convert SASS (native ISA) to ptxplus and run ptxplus
-gpgpu_ptx_force_max_capability                   20 # Force maximum compute capability
-gpgpu_ptx_inst_debug_to_file                    0 # Dump executed instructions' debug information to file
-gpgpu_ptx_inst_debug_file       inst_debug.txt # Executed instructions' debug output file
-gpgpu_ptx_inst_debug_thread_uid                    1 # Thread UID for executed instructions' debug output
-gpgpu_simd_model                       1 # 1 = post-dominator
-gpgpu_shader_core_pipeline              1536:32 # shader core pipeline config, i.e., {<nthread>:<warpsize>}
-gpgpu_tex_cache:l1  4:128:24,L:R:m:N:L,F:128:4,128:2 # per-shader L1 texture cache  (READ-ONLY) config  {<nsets>:<bsize>:<assoc>,<rep>:<wr>:<alloc>:<wr_alloc>,<mshr>:<N>:<merge>,<mq>:<rf>}
-gpgpu_const_cache:l1 64:64:2,L:R:f:N:L,A:2:32,4 # per-shader L1 constant memory cache  (READ-ONLY) config  {<nsets>:<bsize>:<assoc>,<rep>:<wr>:<alloc>:<wr_alloc>,<mshr>:<N>:<merge>,<mq>} 
-gpgpu_cache:il1     4:128:4,L:R:f:N:L,A:2:32,4 # shader L1 instruction cache config  {<nsets>:<bsize>:<assoc>,<rep>:<wr>:<alloc>:<wr_alloc>,<mshr>:<N>:<merge>,<mq>} 
-gpgpu_cache:dl1     32:128:4,L:L:m:N:H,A:32:8,8:2,0,1:0:1:1:0:1,1:4:8:16:32:64,/sciclone/data10/hwang07/GPU_RESEARCH/swl/swl_outputs/RESULTS/swl1/ # per-shader L1 data cache config  {<nsets>:<bsize>:<assoc>,<rep>:<wr>:<alloc>:<wr_alloc>,<mshr>:<N>:<merge>,<mq> | none}
-gpgpu_cache:dl1PrefL1                 none # per-shader L1 data cache config  {<nsets>:<bsize>:<assoc>,<rep>:<wr>:<alloc>:<wr_alloc>,<mshr>:<N>:<merge>,<mq> | none}
-gpgpu_cache:dl1PreShared                 none # per-shader L1 data cache config  {<nsets>:<bsize>:<assoc>,<rep>:<wr>:<alloc>:<wr_alloc>,<mshr>:<N>:<merge>,<mq> | none}
-gmem_skip_L1D                          0 # global memory access skip L1D cache (implements -Xptxas -dlcm=cg, default=no skip)
-gpgpu_perfect_mem                      0 # enable perfect memory mode (no cache miss)
-n_regfile_gating_group                    4 # group of lanes that should be read/written together)
-gpgpu_clock_gated_reg_file                    0 # enable clock gated reg file for power calculations
-gpgpu_clock_gated_lanes                    0 # enable clock gated lanes for power calculations
-gpgpu_shader_registers                32768 # Number of registers per shader core. Limits number of concurrent CTAs. (default 8192)
-gpgpu_shader_cta                       8 # Maximum number of concurrent CTAs in shader (default 8)
-gpgpu_num_cta_barriers                   16 # Maximum number of named barriers per CTA (default 16)
-gpgpu_n_clusters                      15 # number of processing clusters
-gpgpu_n_cores_per_cluster                    1 # number of simd cores per cluster
-gpgpu_n_cluster_ejection_buffer_size                    8 # number of packets in ejection buffer
-gpgpu_n_ldst_response_buffer_size                    2 # number of response packets in ld/st unit ejection buffer
-gpgpu_shmem_size                   16384 # Size of shared memory per shader core (default 16kB)
-gpgpu_shmem_size                   49152 # Size of shared memory per shader core (default 16kB)
-gpgpu_shmem_size_PrefL1                16384 # Size of shared memory per shader core (default 16kB)
-gpgpu_shmem_size_PrefShared                16384 # Size of shared memory per shader core (default 16kB)
-gpgpu_shmem_num_banks                   32 # Number of banks in the shared memory in each shader core (default 16)
-gpgpu_shmem_limited_broadcast                    0 # Limit shared memory to do one broadcast per cycle (default on)
-gpgpu_shmem_warp_parts                    1 # Number of portions a warp is divided into for shared memory bank conflict check 
-gpgpu_warpdistro_shader                   -1 # Specify which shader core to collect the warp size distribution from
-gpgpu_warp_issue_shader                    0 # Specify which shader core to collect the warp issue distribution from
-gpgpu_local_mem_map                    1 # Mapping from local memory space address to simulated GPU physical address space (default = enabled)
-gpgpu_num_reg_banks                   16 # Number of register banks (default = 8)
-gpgpu_reg_bank_use_warp_id                    0 # Use warp ID in mapping registers to banks (default = off)
-gpgpu_operand_collector_num_units_sp                    6 # number of collector units (default = 4)
-gpgpu_operand_collector_num_units_sfu                    8 # number of collector units (default = 4)
-gpgpu_operand_collector_num_units_mem                    2 # number of collector units (default = 2)
-gpgpu_operand_collector_num_units_gen                    0 # number of collector units (default = 0)
-gpgpu_operand_collector_num_in_ports_sp                    2 # number of collector unit in ports (default = 1)
-gpgpu_operand_collector_num_in_ports_sfu                    1 # number of collector unit in ports (default = 1)
-gpgpu_operand_collector_num_in_ports_mem                    1 # number of collector unit in ports (default = 1)
-gpgpu_operand_collector_num_in_ports_gen                    0 # number of collector unit in ports (default = 0)
-gpgpu_operand_collector_num_out_ports_sp                    2 # number of collector unit in ports (default = 1)
-gpgpu_operand_collector_num_out_ports_sfu                    1 # number of collector unit in ports (default = 1)
-gpgpu_operand_collector_num_out_ports_mem                    1 # number of collector unit in ports (default = 1)
-gpgpu_operand_collector_num_out_ports_gen                    0 # number of collector unit in ports (default = 0)
-gpgpu_coalesce_arch                   13 # Coalescing arch (default = 13, anything else is off for now)
-gpgpu_num_sched_per_core                    2 # Number of warp schedulers per core
-gpgpu_max_insn_issue_per_warp                    1 # Max number of instructions that can be issued per warp in one cycle by scheduler
-gpgpu_simt_core_sim_order                    1 # Select the simulation order of cores in a cluster (0=Fix, 1=Round-Robin)
-gpgpu_pipeline_widths        2,1,1,2,1,1,2 # Pipeline widths ID_OC_SP,ID_OC_SFU,ID_OC_MEM,OC_EX_SP,OC_EX_SFU,OC_EX_MEM,EX_WB
-gpgpu_num_sp_units                     2 # Number of SP units (default=1)
-gpgpu_num_sfu_units                    1 # Number of SF units (default=1)
-gpgpu_num_mem_units                    1 # Number if ldst units (default=1) WARNING: not hooked up to anything
-gpgpu_scheduler        warp_limiting:2:1 # Scheduler configuration: < lrr | gto | two_level_active > If two_level_active:<num_active_warps>:<inner_prioritization>:<outer_prioritization>For complete list of prioritization values see shader.h enum scheduler_prioritization_typeDefault: gto
-gpgpu_dram_scheduler                    1 # 0 = fifo, 1 = FR-FCFS (defaul)
-gpgpu_dram_partition_queues              8:8:8:8 # i2$:$2d:d2$:$2i
-l2_ideal                               0 # Use a ideal L2 cache that always hit
-gpgpu_cache:dl2     64:128:8,L:B:m:W:L,A:32:4,4:0,32 # unified banked L2 data cache config  {<nsets>:<bsize>:<assoc>,<rep>:<wr>:<alloc>:<wr_alloc>,<mshr>:<N>:<merge>,<mq>}
-gpgpu_cache:dl2_texture_only                    0 # L2 cache used for texture only
-gpgpu_n_mem                            6 # number of memory modules (e.g. memory controllers) in gpu
-gpgpu_n_sub_partition_per_mchannel                    2 # number of memory subpartition in each memory module
-gpgpu_n_mem_per_ctrlr                    2 # number of memory chips per memory controller
-gpgpu_memlatency_stat                   14 # track and display latency statistics 0x2 enables MC, 0x4 enables queue logs
-gpgpu_frfcfs_dram_sched_queue_size                   16 # 0 = unlimited (default); # entries per chip
-gpgpu_dram_return_queue_size                  116 # 0 = unlimited (default); # entries per chip
-gpgpu_dram_buswidth                    4 # default = 4 bytes (8 bytes per cycle at DDR)
-gpgpu_dram_burst_length                    8 # Burst length of each DRAM request (default = 4 data bus cycle)
-dram_data_command_freq_ratio                    4 # Frequency ratio between DRAM data bus and command bus (default = 2 times, i.e. DDR)
-gpgpu_dram_timing_opt nbk=16:CCD=2:RRD=6:RCD=12:RAS=28:RP=12:RC=40: CL=12:WL=4:CDLR=5:WR=12:nbkgrp=4:CCDL=3:RTPL=2 # DRAM timing parameters = {nbk:tCCD:tRRD:tRCD:tRAS:tRP:tRC:CL:WL:tCDLR:tWR:nbkgrp:tCCDL:tRTPL}
-rop_latency                          120 # ROP queue latency (default 85)
-dram_latency                         100 # DRAM latency (default 30)
-gpgpu_mem_addr_mapping dramid@8;00000000.00000000.00000000.00000000.0000RRRR.RRRRRRRR.BBBCCCCB.CCSSSSSS # mapping memory address to dram model {dramid@<start bit>;<memory address map>}
-gpgpu_mem_addr_test                    0 # run sweep test to check address mapping for aliased address
-gpgpu_mem_address_mask                    1 # 0 = old addressing mask, 1 = new addressing mask, 2 = new add. mask + flipped bank sel and chip sel bits
-gpuwattch_xml_file  gpuwattch_gtx480.xml # GPUWattch XML file
-power_simulation_enabled                    0 # Turn on power simulator (1=On, 0=Off)
-power_per_cycle_dump                    0 # Dump detailed power output each cycle
-power_trace_enabled                    0 # produce a file for the power trace (1=On, 0=Off)
-power_trace_zlevel                     6 # Compression level of the power trace output log (0=no comp, 9=highest)
-steady_power_levels_enabled                    0 # produce a file for the steady power levels (1=On, 0=Off)
-steady_state_definition                  8:4 # allowed deviation:number of samples
-gpgpu_max_cycle                        0 # terminates gpu simulation early (0 = no limit)
-gpgpu_max_insn                         0 # terminates gpu simulation early (0 = no limit)
-gpgpu_max_cta                          0 # terminates gpu simulation early (0 = no limit)
-gpgpu_runtime_stat                   500 # display runtime statistics such as dram utilization {<freq>:<flag>}
-liveness_message_freq                    1 # Minimum number of seconds between simulation liveness messages (0 = always print)
-gpgpu_flush_l1_cache                    0 # Flush L1 cache at the end of each kernel call
-gpgpu_flush_l2_cache                    0 # Flush L2 cache at the end of each kernel call
-gpgpu_deadlock_detect                    1 # Stop the simulation at deadlock (1=on (default), 0=off)
-gpgpu_ptx_instruction_classification                    0 # if enabled will classify ptx instruction types per kernel (Max 255 kernels now)
-gpgpu_ptx_sim_mode                     0 # Select between Performance (default) or Functional simulation (1)
-gpgpu_clock_domains 700.0:700.0:700.0:924.0 # Clock Domain Frequencies in MhZ {<Core Clock>:<ICNT Clock>:<L2 Clock>:<DRAM Clock>}
-gpgpu_max_concurrent_kernel                    8 # maximum kernels that can run concurrently on GPU
-gpgpu_cflog_interval                    0 # Interval between each snapshot in control flow logger
-visualizer_enabled                     0 # Turn on visualizer output (1=On, 0=Off)
-visualizer_outputfile                 NULL # Specifies the output log file for visualizer
-visualizer_zlevel                      6 # Compression level of the visualizer output log (0=no comp, 9=highest)
-trace_enabled                          0 # Turn on traces
-trace_components                    none # comma seperated list of traces to enable. Complete list found in trace_streams.tup. Default none
-trace_sampling_core                    0 # The core which is printed using CORE_DPRINTF. Default 0
-trace_sampling_memory_partition                   -1 # The memory partition which is printed using MEMPART_DPRINTF. Default -1 (i.e. all)
-enable_ptx_file_line_stats                    1 # Turn on PTX source line statistic profiling. (1 = On)
-ptx_line_stats_filename gpgpu_inst_stats.txt # Output file for PTX source line statistics.
-save_embedded_ptx                      0 # saves ptx files embedded in binary as <n>.ptx
-keep                                   0 # keep intermediate files created by GPGPU-Sim when interfacing with external programs
-gpgpu_ptx_save_converted_ptxplus                    0 # Saved converted ptxplus to a file
-ptx_opcode_latency_int         4,13,4,5,145 # Opcode latencies for integers <ADD,MAX,MUL,MAD,DIV>Default 1,1,19,25,145
-ptx_opcode_latency_fp          4,13,4,5,39 # Opcode latencies for single precision floating points <ADD,MAX,MUL,MAD,DIV>Default 1,1,1,1,30
-ptx_opcode_latency_dp         8,19,8,8,330 # Opcode latencies for double precision floating points <ADD,MAX,MUL,MAD,DIV>Default 8,8,8,8,335
-ptx_opcode_initiation_int            1,2,2,1,8 # Opcode initiation intervals for integers <ADD,MAX,MUL,MAD,DIV>Default 1,1,4,4,32
-ptx_opcode_initiation_fp            1,2,1,1,4 # Opcode initiation intervals for single precision floating points <ADD,MAX,MUL,MAD,DIV>Default 1,1,1,1,5
-ptx_opcode_initiation_dp         8,16,8,8,130 # Opcode initiation intervals for double precision floating points <ADD,MAX,MUL,MAD,DIV>Default 8,8,8,8,130
DRAM Timing Options:
nbk                                    16 # number of banks
CCD                                     2 # column to column delay
RRD                                     6 # minimal delay between activation of rows in different banks
RCD                                    12 # row to column delay
RAS                                    28 # time needed to activate row
RP                                     12 # time needed to precharge (deactivate) row
RC                                     40 # row cycle time
CDLR                                    5 # switching from write to read (changes tWTR)
WR                                     12 # last data-in to row precharge
CL                                     12 # CAS latency
WL                                      4 # Write latency
nbkgrp                                  4 # number of bank groups
CCDL                                    3 # column to column delay between accesses to different bank groups
RTPL                                    2 # read to precharge delay between accesses to different bank groups
Total number of memory sub partition = 12
addr_dec_mask[CHIP]  = 0000000000000000 	high:64 low:0
addr_dec_mask[BK]    = 000000000000e100 	high:16 low:8
addr_dec_mask[ROW]   = 000000000fff0000 	high:28 low:16
addr_dec_mask[COL]   = 0000000000001eff 	high:13 low:0
addr_dec_mask[BURST] = 000000000000003f 	high:6 low:0
sub_partition_id_mask = 0000000000000100
GPGPU-Sim uArch: clock freqs: 700000000.000000:700000000.000000:700000000.000000:924000000.000000
GPGPU-Sim uArch: clock periods: 0.00000000142857142857:0.00000000142857142857:0.00000000142857142857:0.00000000108225108225
*** Initializing Memory Statistics ***
GPGPU-Sim uArch: interconnect node map (shaderID+MemID to icntID)
GPGPU-Sim uArch: Memory nodes ID start from index: 15
GPGPU-Sim uArch:    0   1   2   3   4
GPGPU-Sim uArch:    5   6   7   8   9
GPGPU-Sim uArch:   10  11  12  13  14
GPGPU-Sim uArch:   15  16  17  18  19
GPGPU-Sim uArch:   20  21  22  23  24
GPGPU-Sim uArch:   25  26
GPGPU-Sim uArch: interconnect node reverse map (icntID to shaderID+MemID)
GPGPU-Sim uArch: Memory nodes start from ID: 15
GPGPU-Sim uArch:    0   1   2   3   4
GPGPU-Sim uArch:    5   6   7   8   9
GPGPU-Sim uArch:   10  11  12  13  14
GPGPU-Sim uArch:   15  16  17  18  19
GPGPU-Sim uArch:   20  21  22  23  24
GPGPU-Sim uArch:   25  26
916227844eacf47b27f90dc95594571e  /sciclone/data10/hwang07/adwait/applications/benchmarks/CUDA/kmeans/gpgpu_ptx_sim__kmeans
GPGPU-Sim uArch: performance model initialization complete.
GPGPU-Sim PTX: __cudaRegisterFatBinary, fat_cubin_handle = 1, filename=kmeans_cuda.cu
self exe links to: /sciclone/data10/hwang07/adwait/applications/benchmarks/CUDA/kmeans/gpgpu_ptx_sim__kmeans
Running md5sum using "md5sum /sciclone/data10/hwang07/adwait/applications/benchmarks/CUDA/kmeans/gpgpu_ptx_sim__kmeans "
Parsing file _cuobjdump_complete_output_a3hlhx
######### cuobjdump parser ########
## Adding new section ELF
Adding arch: sm_20
Adding identifier: kmeans_cuda.cu
## Adding new section PTX
Adding ptx filename: _cuobjdump_1.ptx
Adding arch: sm_20
Adding identifier: kmeans_cuda.cu
Done parsing!!!
GPGPU-Sim PTX: __cudaRegisterFunction _Z11kmeansPointPfiiiPiS_S_S0_ : hostFun 0x0x402e47, fat_cubin_handle = 1
GPGPU-Sim PTX: instruction assembly for function '_Z14invert_mappingPfS_ii'...   done.
GPGPU-Sim PTX: finding reconvergence points for '_Z14invert_mappingPfS_ii'...
GPGPU-Sim PTX: Finding dominators for '_Z14invert_mappingPfS_ii'...
GPGPU-Sim PTX: Finding immediate dominators for '_Z14invert_mappingPfS_ii'...
GPGPU-Sim PTX: Finding postdominators for '_Z14invert_mappingPfS_ii'...
GPGPU-Sim PTX: Finding immediate postdominators for '_Z14invert_mappingPfS_ii'...
GPGPU-Sim PTX: pre-decoding instructions for '_Z14invert_mappingPfS_ii'...
GPGPU-Sim PTX: reconvergence points for _Z14invert_mappingPfS_ii...
GPGPU-Sim PTX:  1 (potential) branch divergence @  PC=0x038 (_1.ptx:70) @%p1 bra $Lt_0_2050;
GPGPU-Sim PTX:    immediate post dominator      @  PC=0x110 (_1.ptx:103) exit;
GPGPU-Sim PTX:  2 (potential) branch divergence @  PC=0x058 (_1.ptx:74) @%p2 bra $Lt_0_2562;
GPGPU-Sim PTX:    immediate post dominator      @  PC=0x110 (_1.ptx:103) exit;
GPGPU-Sim PTX:  3 (potential) branch divergence @  PC=0x108 (_1.ptx:99) @%p3 bra $Lt_0_3074;
GPGPU-Sim PTX:    immediate post dominator      @  PC=0x110 (_1.ptx:103) exit;
GPGPU-Sim PTX: ... end of reconvergence points for _Z14invert_mappingPfS_ii
GPGPU-Sim PTX: ... done pre-decoding instructions for '_Z14invert_mappingPfS_ii'.
GPGPU-Sim PTX: allocating global region for "t_features" from 0x100 to 0x104 (global memory space)
GPGPU-Sim PTX: allocating constant region for "c_clusters" from 0x180 to 0x1280 (global memory space) 1
GPGPU-Sim PTX: instruction assembly for function '_Z11kmeansPointPfiiiPiS_S_S0_'...   done.
GPGPU-Sim PTX: finding reconvergence points for '_Z11kmeansPointPfiiiPiS_S_S0_'...
GPGPU-Sim PTX: Finding dominators for '_Z11kmeansPointPfiiiPiS_S_S0_'...
GPGPU-Sim PTX: Finding immediate dominators for '_Z11kmeansPointPfiiiPiS_S_S0_'...
GPGPU-Sim PTX: Finding postdominators for '_Z11kmeansPointPfiiiPiS_S_S0_'...
GPGPU-Sim PTX: Finding immediate postdominators for '_Z11kmeansPointPfiiiPiS_S_S0_'...
GPGPU-Sim PTX: pre-decoding instructions for '_Z11kmeansPointPfiiiPiS_S_S0_'...
GPGPU-Sim PTX: reconvergence points for _Z11kmeansPointPfiiiPiS_S_S0_...
GPGPU-Sim PTX:  1 (potential) branch divergence @  PC=0x180 (_1.ptx:138) @!%p1 bra $Lt_1_4866;
GPGPU-Sim PTX:    immediate post dominator      @  PC=0x338 (_1.ptx:207) @!%p1 bra $Lt_1_7682;
GPGPU-Sim PTX:  2 (potential) branch divergence @  PC=0x1a0 (_1.ptx:142) @%p2 bra $Lt_1_8194;
GPGPU-Sim PTX:    immediate post dominator      @  PC=0x338 (_1.ptx:207) @!%p1 bra $Lt_1_7682;
GPGPU-Sim PTX:  3 (potential) branch divergence @  PC=0x1f0 (_1.ptx:154) @!%p3 bra $Lt_1_8450;
GPGPU-Sim PTX:    immediate post dominator      @  PC=0x2e0 (_1.ptx:190) setp.lt.f32 %p5, %f2, %f1;
GPGPU-Sim PTX:  4 (potential) branch divergence @  PC=0x2c8 (_1.ptx:185) @%p4 bra $Lt_1_6402;
GPGPU-Sim PTX:    immediate post dominator      @  PC=0x2d0 (_1.ptx:186) bra.uni $Lt_1_5890;
GPGPU-Sim PTX:  5 (potential) branch divergence @  PC=0x2d0 (_1.ptx:186) bra.uni $Lt_1_5890;
GPGPU-Sim PTX:    immediate post dominator      @  PC=0x2e0 (_1.ptx:190) setp.lt.f32 %p5, %f2, %f1;
GPGPU-Sim PTX:  6 (potential) branch divergence @  PC=0x2e8 (_1.ptx:191) @!%p5 bra $Lt_1_6914;
GPGPU-Sim PTX:    immediate post dominator      @  PC=0x300 (_1.ptx:197) add.s32 %r18, %r18, 1;
GPGPU-Sim PTX:  7 (potential) branch divergence @  PC=0x310 (_1.ptx:199) @%p6 bra $Lt_1_5634;
GPGPU-Sim PTX:    immediate post dominator      @  PC=0x318 (_1.ptx:200) bra.uni $Lt_1_4610;
GPGPU-Sim PTX:  8 (potential) branch divergence @  PC=0x318 (_1.ptx:200) bra.uni $Lt_1_4610;
GPGPU-Sim PTX:    immediate post dominator      @  PC=0x338 (_1.ptx:207) @!%p1 bra $Lt_1_7682;
GPGPU-Sim PTX:  9 (potential) branch divergence @  PC=0x328 (_1.ptx:203) bra.uni $Lt_1_4610;
GPGPU-Sim PTX:    immediate post dominator      @  PC=0x338 (_1.ptx:207) @!%p1 bra $Lt_1_7682;
GPGPU-Sim PTX: 10 (potential) branch divergence @  PC=0x338 (_1.ptx:207) @!%p1 bra $Lt_1_7682;
GPGPU-Sim PTX:    immediate post dominator      @  PC=0x368 (_1.ptx:216) exit;
GPGPU-Sim PTX: ... end of reconvergence points for _Z11kmeansPointPfiiiPiS_S_S0_
GPGPU-Sim PTX: ... done pre-decoding instructions for '_Z11kmeansPointPfiiiPiS_S_S0_'.
GPGPU-Sim PTX: allocating global region for "t_features_flipped" from 0x1280 to 0x1284 (global memory space)
GPGPU-Sim PTX: allocating global region for "t_clusters" from 0x1284 to 0x1288 (global memory space)
GPGPU-Sim PTX: finished parsing EMBEDDED .ptx file _1.ptx
Adding _cuobjdump_1.ptx with cubin handle 1
GPGPU-Sim PTX: extracting embedded .ptx to temporary file "_ptx_rk2Y7e"
Running: cat _ptx_rk2Y7e | sed 's/.version 1.5/.version 1.4/' | sed 's/, texmode_independent//' | sed 's/\(\.extern \.const\[1\] .b8 \w\+\)\[\]/\1\[1\]/' | sed 's/const\[.\]/const\[0\]/g' > _ptx2_IdLukY
GPGPU-Sim PTX: generating ptxinfo using "$CUDA_INSTALL_PATH/bin/ptxas --gpu-name=sm_20 -v _ptx2_IdLukY --output-file  /dev/null 2> _ptx_rk2Y7einfo"
GPGPU-Sim PTX: Kernel '_Z11kmeansPointPfiiiPiS_S_S0_' : regs=12, lmem=0, smem=0, cmem=4440
GPGPU-Sim PTX: Kernel '_Z14invert_mappingPfS_ii' : regs=10, lmem=0, smem=0, cmem=4408
GPGPU-Sim PTX: removing ptxinfo using "rm -f _ptx_rk2Y7e _ptx2_IdLukY _ptx_rk2Y7einfo"
GPGPU-Sim PTX: loading globals with explicit initializers... 
GPGPU-Sim PTX: finished loading globals (0 bytes total).
GPGPU-Sim PTX: loading constants with explicit initializers...  done.
GPGPU-Sim PTX: __cudaRegisterFunction _Z14invert_mappingPfS_ii : hostFun 0x0x402cb7, fat_cubin_handle = 1
GPGPU-Sim PTX: in __cudaRegisterTexture:
GPGPU-Sim PTX:   int dim = 1
GPGPU-Sim PTX:   int norm = 0
GPGPU-Sim PTX:   int ext = 0
GPGPU-Sim PTX:   Execution warning: Not finished implementing "void __cudaRegisterTexture(void**, const textureReference*, const void**, const char*, int, int, int)"
GPGPU-Sim PTX: in __cudaRegisterTexture:
GPGPU-Sim PTX:   int dim = 1
GPGPU-Sim PTX:   int norm = 0
GPGPU-Sim PTX:   int ext = 0
GPGPU-Sim PTX:   Execution warning: Not finished implementing "void __cudaRegisterTexture(void**, const textureReference*, const void**, const char*, int, int, int)"
GPGPU-Sim PTX: in __cudaRegisterTexture:
GPGPU-Sim PTX:   int dim = 1
GPGPU-Sim PTX:   int norm = 0
GPGPU-Sim PTX:   int ext = 0
GPGPU-Sim PTX:   Execution warning: Not finished implementing "void __cudaRegisterTexture(void**, const textureReference*, const void**, const char*, int, int, int)"
GPGPU-Sim PTX: __cudaRegisterVar: hostVar = 0x6085e0; deviceAddress = c_clusters; deviceName = c_clusters
GPGPU-Sim PTX: __cudaRegisterVar: Registering const memory space of 4352 bytes
GPGPU-Sim PTX registering constant c_clusters (4352 bytes) to name mapping

I/O completed

Number of objects: 204800
Number of features: 34

GPGPU-Sim PTX: cudaLaunch for 0x0x402cb7 (mode=performance simulation) on stream 0
GPGPU-Sim PTX: pushing kernel '_Z14invert_mappingPfS_ii' to stream 0, gridDim= (841,1,1) blockDim = (256,1,1) 
kernel '_Z14invert_mappingPfS_ii' transfer to GPU hardware scheduler
GPGPU-Sim uArch: Shader 1 bind to kernel 1 '_Z14invert_mappingPfS_ii'
GPGPU-Sim uArch: CTA/core = 6, limited by: threads
GPGPU-Sim uArch: core:  1, cta: 0 initialized @(1,0)
GPGPU-Sim uArch: Shader 2 bind to kernel 1 '_Z14invert_mappingPfS_ii'
GPGPU-Sim uArch: core:  2, cta: 0 initialized @(1,0)
GPGPU-Sim uArch: Shader 3 bind to kernel 1 '_Z14invert_mappingPfS_ii'
GPGPU-Sim uArch: core:  3, cta: 0 initialized @(1,0)
GPGPU-Sim uArch: Shader 4 bind to kernel 1 '_Z14invert_mappingPfS_ii'
GPGPU-Sim uArch: core:  4, cta: 0 initialized @(1,0)
GPGPU-Sim uArch: Shader 5 bind to kernel 1 '_Z14invert_mappingPfS_ii'
GPGPU-Sim uArch: core:  5, cta: 0 initialized @(1,0)
GPGPU-Sim uArch: Shader 6 bind to kernel 1 '_Z14invert_mappingPfS_ii'
GPGPU-Sim uArch: core:  6, cta: 0 initialized @(1,0)
GPGPU-Sim uArch: Shader 7 bind to kernel 1 '_Z14invert_mappingPfS_ii'
GPGPU-Sim uArch: core:  7, cta: 0 initialized @(1,0)
GPGPU-Sim uArch: Shader 8 bind to kernel 1 '_Z14invert_mappingPfS_ii'
GPGPU-Sim uArch: core:  8, cta: 0 initialized @(1,0)
GPGPU-Sim uArch: Shader 9 bind to kernel 1 '_Z14invert_mappingPfS_ii'
GPGPU-Sim uArch: core:  9, cta: 0 initialized @(1,0)
GPGPU-Sim uArch: Shader 10 bind to kernel 1 '_Z14invert_mappingPfS_ii'
GPGPU-Sim uArch: core: 10, cta: 0 initialized @(1,0)
GPGPU-Sim uArch: Shader 11 bind to kernel 1 '_Z14invert_mappingPfS_ii'
GPGPU-Sim uArch: core: 11, cta: 0 initialized @(1,0)
GPGPU-Sim uArch: Shader 12 bind to kernel 1 '_Z14invert_mappingPfS_ii'
GPGPU-Sim uArch: core: 12, cta: 0 initialized @(1,0)
GPGPU-Sim uArch: Shader 13 bind to kernel 1 '_Z14invert_mappingPfS_ii'
GPGPU-Sim uArch: core: 13, cta: 0 initialized @(1,0)
GPGPU-Sim uArch: Shader 14 bind to kernel 1 '_Z14invert_mappingPfS_ii'
GPGPU-Sim uArch: core: 14, cta: 0 initialized @(1,0)
GPGPU-Sim uArch: Shader 0 bind to kernel 1 '_Z14invert_mappingPfS_ii'
GPGPU-Sim uArch: core:  0, cta: 0 initialized @(1,0)
GPGPU-Sim uArch: core:  1, cta: 1 initialized @(2,0)
GPGPU-Sim uArch: core:  2, cta: 1 initialized @(2,0)
GPGPU-Sim uArch: core:  3, cta: 1 initialized @(2,0)
GPGPU-Sim uArch: core:  4, cta: 1 initialized @(2,0)
GPGPU-Sim uArch: core:  5, cta: 1 initialized @(2,0)
GPGPU-Sim uArch: core:  6, cta: 1 initialized @(2,0)
GPGPU-Sim uArch: core:  7, cta: 1 initialized @(2,0)
GPGPU-Sim uArch: core:  8, cta: 1 initialized @(2,0)
GPGPU-Sim uArch: core:  9, cta: 1 initialized @(2,0)
GPGPU-Sim uArch: core: 10, cta: 1 initialized @(2,0)
GPGPU-Sim uArch: core: 11, cta: 1 initialized @(2,0)
GPGPU-Sim uArch: core: 12, cta: 1 initialized @(2,0)
GPGPU-Sim uArch: core: 13, cta: 1 initialized @(2,0)
GPGPU-Sim uArch: core: 14, cta: 1 initialized @(2,0)
GPGPU-Sim uArch: core:  0, cta: 1 initialized @(2,0)
GPGPU-Sim uArch: core:  1, cta: 2 initialized @(3,0)
GPGPU-Sim uArch: core:  2, cta: 2 initialized @(3,0)
GPGPU-Sim uArch: core:  3, cta: 2 initialized @(3,0)
GPGPU-Sim uArch: core:  4, cta: 2 initialized @(3,0)
GPGPU-Sim uArch: core:  5, cta: 2 initialized @(3,0)
GPGPU-Sim uArch: core:  6, cta: 2 initialized @(3,0)
GPGPU-Sim uArch: core:  7, cta: 2 initialized @(3,0)
GPGPU-Sim uArch: core:  8, cta: 2 initialized @(3,0)
GPGPU-Sim uArch: core:  9, cta: 2 initialized @(3,0)
GPGPU-Sim uArch: core: 10, cta: 2 initialized @(3,0)
GPGPU-Sim uArch: core: 11, cta: 2 initialized @(3,0)
GPGPU-Sim uArch: core: 12, cta: 2 initialized @(3,0)
GPGPU-Sim uArch: core: 13, cta: 2 initialized @(3,0)
GPGPU-Sim uArch: core: 14, cta: 2 initialized @(3,0)
GPGPU-Sim uArch: core:  0, cta: 2 initialized @(3,0)
GPGPU-Sim uArch: core:  1, cta: 3 initialized @(4,0)
GPGPU-Sim uArch: core:  2, cta: 3 initialized @(4,0)
GPGPU-Sim uArch: core:  3, cta: 3 initialized @(4,0)
GPGPU-Sim uArch: core:  4, cta: 3 initialized @(4,0)
GPGPU-Sim uArch: core:  5, cta: 3 initialized @(4,0)
GPGPU-Sim uArch: core:  6, cta: 3 initialized @(4,0)
GPGPU-Sim uArch: core:  7, cta: 3 initialized @(4,0)
GPGPU-Sim uArch: core:  8, cta: 3 initialized @(4,0)
GPGPU-Sim uArch: core:  9, cta: 3 initialized @(4,0)
GPGPU-Sim uArch: core: 10, cta: 3 initialized @(4,0)
GPGPU-Sim uArch: core: 11, cta: 3 initialized @(4,0)
GPGPU-Sim uArch: core: 12, cta: 3 initialized @(4,0)
GPGPU-Sim uArch: core: 13, cta: 3 initialized @(4,0)
GPGPU-Sim uArch: core: 14, cta: 3 initialized @(4,0)
GPGPU-Sim uArch: core:  0, cta: 3 initialized @(4,0)
GPGPU-Sim uArch: core:  1, cta: 4 initialized @(5,0)
GPGPU-Sim uArch: core:  2, cta: 4 initialized @(5,0)
GPGPU-Sim uArch: core:  3, cta: 4 initialized @(5,0)
GPGPU-Sim uArch: core:  4, cta: 4 initialized @(5,0)
GPGPU-Sim uArch: core:  5, cta: 4 initialized @(5,0)
GPGPU-Sim uArch: core:  6, cta: 4 initialized @(5,0)
GPGPU-Sim uArch: core:  7, cta: 4 initialized @(5,0)
GPGPU-Sim uArch: core:  8, cta: 4 initialized @(5,0)
GPGPU-Sim uArch: core:  9, cta: 4 initialized @(5,0)
GPGPU-Sim uArch: core: 10, cta: 4 initialized @(5,0)
GPGPU-Sim uArch: core: 11, cta: 4 initialized @(5,0)
GPGPU-Sim uArch: core: 12, cta: 4 initialized @(5,0)
GPGPU-Sim uArch: core: 13, cta: 4 initialized @(5,0)
GPGPU-Sim uArch: core: 14, cta: 4 initialized @(5,0)
GPGPU-Sim uArch: core:  0, cta: 4 initialized @(5,0)
GPGPU-Sim uArch: core:  1, cta: 5 initialized @(6,0)
GPGPU-Sim uArch: core:  2, cta: 5 initialized @(6,0)
GPGPU-Sim uArch: core:  3, cta: 5 initialized @(6,0)
GPGPU-Sim uArch: core:  4, cta: 5 initialized @(6,0)
GPGPU-Sim uArch: core:  5, cta: 5 initialized @(6,0)
GPGPU-Sim uArch: core:  6, cta: 5 initialized @(6,0)
GPGPU-Sim uArch: core:  7, cta: 5 initialized @(6,0)
GPGPU-Sim uArch: core:  8, cta: 5 initialized @(6,0)
GPGPU-Sim uArch: core:  9, cta: 5 initialized @(6,0)
GPGPU-Sim uArch: core: 10, cta: 5 initialized @(6,0)
GPGPU-Sim uArch: core: 11, cta: 5 initialized @(6,0)
GPGPU-Sim uArch: core: 12, cta: 5 initialized @(6,0)
GPGPU-Sim uArch: core: 13, cta: 5 initialized @(6,0)
GPGPU-Sim uArch: core: 14, cta: 5 initialized @(6,0)
GPGPU-Sim uArch: core:  0, cta: 5 initialized @(6,0)
GPGPU-Sim uArch: cycles simulated: 500  inst.: 4800 (ipc= 9.6) sim_rate=800 (inst/sec) elapsed = 0:0:00:06 / Tue Mar 22 12:40:05 2016
GPGPU-Sim uArch: cycles simulated: 1000  inst.: 20928 (ipc=20.9) sim_rate=2325 (inst/sec) elapsed = 0:0:00:09 / Tue Mar 22 12:40:08 2016
GPGPU-Sim uArch: cycles simulated: 2000  inst.: 27424 (ipc=13.7) sim_rate=2742 (inst/sec) elapsed = 0:0:00:10 / Tue Mar 22 12:40:09 2016
GPGPU-Sim PTX: 100000 instructions simulated : ctaid=(12,0,0) tid=(63,0,0)
GPGPU-Sim PTX: 200000 instructions simulated : ctaid=(12,0,0) tid=(31,0,0)
GPGPU-Sim uArch: cycles simulated: 4500  inst.: 224384 (ipc=49.9) sim_rate=20398 (inst/sec) elapsed = 0:0:00:11 / Tue Mar 22 12:40:10 2016
GPGPU-Sim PTX: 300000 instructions simulated : ctaid=(2,0,0) tid=(127,0,0)
GPGPU-Sim uArch: cycles simulated: 7000  inst.: 297376 (ipc=42.5) sim_rate=24781 (inst/sec) elapsed = 0:0:00:12 / Tue Mar 22 12:40:11 2016
GPGPU-Sim PTX: 400000 instructions simulated : ctaid=(10,0,0) tid=(127,0,0)
GPGPU-Sim uArch: cycles simulated: 8500  inst.: 441472 (ipc=51.9) sim_rate=33959 (inst/sec) elapsed = 0:0:00:13 / Tue Mar 22 12:40:12 2016
GPGPU-Sim PTX: 500000 instructions simulated : ctaid=(14,0,0) tid=(127,0,0)
GPGPU-Sim uArch: cycles simulated: 10500  inst.: 530752 (ipc=50.5) sim_rate=37910 (inst/sec) elapsed = 0:0:00:14 / Tue Mar 22 12:40:13 2016
GPGPU-Sim PTX: 600000 instructions simulated : ctaid=(5,0,0) tid=(191,0,0)
GPGPU-Sim uArch: cycles simulated: 12500  inst.: 678464 (ipc=54.3) sim_rate=45230 (inst/sec) elapsed = 0:0:00:15 / Tue Mar 22 12:40:14 2016
GPGPU-Sim PTX: 700000 instructions simulated : ctaid=(10,0,0) tid=(159,0,0)
GPGPU-Sim uArch: cycles simulated: 14500  inst.: 784896 (ipc=54.1) sim_rate=49056 (inst/sec) elapsed = 0:0:00:16 / Tue Mar 22 12:40:15 2016
GPGPU-Sim PTX: 800000 instructions simulated : ctaid=(7,0,0) tid=(255,0,0)
GPGPU-Sim PTX: 900000 instructions simulated : ctaid=(8,0,0) tid=(223,0,0)
GPGPU-Sim uArch: cycles simulated: 16500  inst.: 923648 (ipc=56.0) sim_rate=54332 (inst/sec) elapsed = 0:0:00:17 / Tue Mar 22 12:40:16 2016
GPGPU-Sim PTX: 1000000 instructions simulated : ctaid=(17,0,0) tid=(63,0,0)
GPGPU-Sim uArch: Shader 1 finished CTA #0 (18202,0), 5 CTAs running
GPGPU-Sim uArch: core:  1, cta: 0 initialized @(18203,0)
GPGPU-Sim uArch: Shader 9 finished CTA #0 (18206,0), 5 CTAs running
GPGPU-Sim uArch: core:  9, cta: 0 initialized @(18207,0)
GPGPU-Sim uArch: Shader 7 finished CTA #0 (18307,0), 5 CTAs running
GPGPU-Sim uArch: core:  7, cta: 0 initialized @(18308,0)
GPGPU-Sim uArch: Shader 11 finished CTA #0 (18547,0), 5 CTAs running
GPGPU-Sim uArch: core: 11, cta: 0 initialized @(18548,0)
GPGPU-Sim uArch: Shader 5 finished CTA #0 (18634,0), 5 CTAs running
GPGPU-Sim uArch: core:  5, cta: 0 initialized @(18635,0)
GPGPU-Sim uArch: Shader 8 finished CTA #0 (18729,0), 5 CTAs running
GPGPU-Sim uArch: core:  8, cta: 0 initialized @(18730,0)
GPGPU-Sim uArch: Shader 3 finished CTA #0 (18751,0), 5 CTAs running
GPGPU-Sim uArch: core:  3, cta: 0 initialized @(18752,0)
GPGPU-Sim uArch: Shader 12 finished CTA #0 (18819,0), 5 CTAs running
GPGPU-Sim uArch: core: 12, cta: 0 initialized @(18820,0)
GPGPU-Sim uArch: cycles simulated: 19000  inst.: 1043680 (ipc=54.9) sim_rate=57982 (inst/sec) elapsed = 0:0:00:18 / Tue Mar 22 12:40:17 2016
GPGPU-Sim uArch: Shader 6 finished CTA #0 (19061,0), 5 CTAs running
GPGPU-Sim uArch: core:  6, cta: 0 initialized @(19062,0)
GPGPU-Sim uArch: Shader 14 finished CTA #0 (19104,0), 5 CTAs running
GPGPU-Sim uArch: core: 14, cta: 0 initialized @(19105,0)
GPGPU-Sim uArch: Shader 0 finished CTA #0 (19139,0), 5 CTAs running
GPGPU-Sim uArch: core:  0, cta: 0 initialized @(19140,0)
GPGPU-Sim uArch: Shader 13 finished CTA #0 (19141,0), 5 CTAs running
GPGPU-Sim uArch: core: 13, cta: 0 initialized @(19142,0)
GPGPU-Sim uArch: Shader 10 finished CTA #0 (19143,0), 5 CTAs running
GPGPU-Sim uArch: core: 10, cta: 0 initialized @(19144,0)
GPGPU-Sim uArch: Shader 2 finished CTA #0 (19295,0), 5 CTAs running
GPGPU-Sim uArch: core:  2, cta: 0 initialized @(19296,0)
GPGPU-Sim uArch: Shader 4 finished CTA #0 (19435,0), 5 CTAs running
GPGPU-Sim uArch: core:  4, cta: 0 initialized @(19436,0)
GPGPU-Sim PTX: 1100000 instructions simulated : ctaid=(16,0,0) tid=(63,0,0)
GPGPU-Sim PTX: 1200000 instructions simulated : ctaid=(15,0,0) tid=(31,0,0)
GPGPU-Sim uArch: cycles simulated: 21000  inst.: 1210816 (ipc=57.7) sim_rate=63727 (inst/sec) elapsed = 0:0:00:19 / Tue Mar 22 12:40:18 2016
GPGPU-Sim PTX: 1300000 instructions simulated : ctaid=(27,0,0) tid=(95,0,0)
GPGPU-Sim uArch: cycles simulated: 23000  inst.: 1298848 (ipc=56.5) sim_rate=64942 (inst/sec) elapsed = 0:0:00:20 / Tue Mar 22 12:40:19 2016
GPGPU-Sim PTX: 1400000 instructions simulated : ctaid=(23,0,0) tid=(95,0,0)
GPGPU-Sim uArch: cycles simulated: 25000  inst.: 1467968 (ipc=58.7) sim_rate=69903 (inst/sec) elapsed = 0:0:00:21 / Tue Mar 22 12:40:20 2016
GPGPU-Sim PTX: 1500000 instructions simulated : ctaid=(25,0,0) tid=(95,0,0)
GPGPU-Sim PTX: 1600000 instructions simulated : ctaid=(15,0,0) tid=(191,0,0)
GPGPU-Sim uArch: cycles simulated: 27500  inst.: 1579808 (ipc=57.4) sim_rate=71809 (inst/sec) elapsed = 0:0:00:22 / Tue Mar 22 12:40:21 2016
GPGPU-Sim PTX: 1700000 instructions simulated : ctaid=(17,0,0) tid=(159,0,0)
GPGPU-Sim uArch: cycles simulated: 29500  inst.: 1759552 (ipc=59.6) sim_rate=76502 (inst/sec) elapsed = 0:0:00:23 / Tue Mar 22 12:40:22 2016
GPGPU-Sim PTX: 1800000 instructions simulated : ctaid=(26,0,0) tid=(223,0,0)
GPGPU-Sim uArch: cycles simulated: 31500  inst.: 1842144 (ipc=58.5) sim_rate=76756 (inst/sec) elapsed = 0:0:00:24 / Tue Mar 22 12:40:23 2016
GPGPU-Sim PTX: 1900000 instructions simulated : ctaid=(29,0,0) tid=(223,0,0)
GPGPU-Sim uArch: Shader 7 finished CTA #1 (32787,0), 5 CTAs running
GPGPU-Sim uArch: core:  7, cta: 1 initialized @(32788,0)
GPGPU-Sim PTX: 2000000 instructions simulated : ctaid=(16,0,0) tid=(223,0,0)
GPGPU-Sim uArch: cycles simulated: 33500  inst.: 2021472 (ipc=60.3) sim_rate=80858 (inst/sec) elapsed = 0:0:00:25 / Tue Mar 22 12:40:24 2016
GPGPU-Sim uArch: Shader 9 finished CTA #1 (33746,0), 5 CTAs running
GPGPU-Sim uArch: core:  9, cta: 1 initialized @(33747,0)
GPGPU-Sim uArch: Shader 5 finished CTA #1 (34234,0), 5 CTAs running
GPGPU-Sim uArch: core:  5, cta: 1 initialized @(34235,0)
GPGPU-Sim uArch: Shader 11 finished CTA #1 (34516,0), 5 CTAs running
GPGPU-Sim uArch: core: 11, cta: 1 initialized @(34517,0)
GPGPU-Sim uArch: Shader 6 finished CTA #1 (34640,0), 5 CTAs running
GPGPU-Sim uArch: core:  6, cta: 1 initialized @(34641,0)
GPGPU-Sim uArch: Shader 0 finished CTA #1 (34742,0), 5 CTAs running
GPGPU-Sim uArch: core:  0, cta: 1 initialized @(34743,0)
GPGPU-Sim uArch: Shader 3 finished CTA #1 (34860,0), 5 CTAs running
GPGPU-Sim uArch: core:  3, cta: 1 initialized @(34861,0)
GPGPU-Sim uArch: Shader 12 finished CTA #1 (34949,0), 5 CTAs running
GPGPU-Sim uArch: core: 12, cta: 1 initialized @(34950,0)
GPGPU-Sim uArch: Shader 8 finished CTA #1 (34979,0), 5 CTAs running
GPGPU-Sim uArch: core:  8, cta: 1 initialized @(34980,0)
GPGPU-Sim uArch: Shader 13 finished CTA #1 (35043,0), 5 CTAs running
GPGPU-Sim uArch: core: 13, cta: 1 initialized @(35044,0)
GPGPU-Sim uArch: Shader 4 finished CTA #1 (35057,0), 5 CTAs running
GPGPU-Sim uArch: core:  4, cta: 1 initialized @(35058,0)
GPGPU-Sim PTX: 2100000 instructions simulated : ctaid=(32,0,0) tid=(63,0,0)
GPGPU-Sim uArch: Shader 1 finished CTA #1 (35063,0), 5 CTAs running
GPGPU-Sim uArch: core:  1, cta: 1 initialized @(35064,0)
GPGPU-Sim uArch: Shader 10 finished CTA #1 (35065,0), 5 CTAs running
GPGPU-Sim uArch: core: 10, cta: 1 initialized @(35066,0)
GPGPU-Sim uArch: Shader 14 finished CTA #1 (35096,0), 5 CTAs running
GPGPU-Sim uArch: core: 14, cta: 1 initialized @(35097,0)
GPGPU-Sim uArch: Shader 2 finished CTA #1 (35122,0), 5 CTAs running
GPGPU-Sim uArch: core:  2, cta: 1 initialized @(35123,0)
GPGPU-Sim uArch: cycles simulated: 35500  inst.: 2102176 (ipc=59.2) sim_rate=80852 (inst/sec) elapsed = 0:0:00:26 / Tue Mar 22 12:40:25 2016
GPGPU-Sim PTX: 2200000 instructions simulated : ctaid=(30,0,0) tid=(31,0,0)
GPGPU-Sim PTX: 2300000 instructions simulated : ctaid=(44,0,0) tid=(31,0,0)
GPGPU-Sim uArch: cycles simulated: 37500  inst.: 2286368 (ipc=61.0) sim_rate=84680 (inst/sec) elapsed = 0:0:00:27 / Tue Mar 22 12:40:26 2016
GPGPU-Sim PTX: 2400000 instructions simulated : ctaid=(40,0,0) tid=(95,0,0)
GPGPU-Sim uArch: cycles simulated: 39500  inst.: 2382560 (ipc=60.3) sim_rate=85091 (inst/sec) elapsed = 0:0:00:28 / Tue Mar 22 12:40:27 2016
GPGPU-Sim PTX: 2500000 instructions simulated : ctaid=(32,0,0) tid=(127,0,0)
GPGPU-Sim uArch: cycles simulated: 41500  inst.: 2555840 (ipc=61.6) sim_rate=88132 (inst/sec) elapsed = 0:0:00:29 / Tue Mar 22 12:40:28 2016
GPGPU-Sim PTX: 2600000 instructions simulated : ctaid=(38,0,0) tid=(191,0,0)
GPGPU-Sim uArch: cycles simulated: 43500  inst.: 2661056 (ipc=61.2) sim_rate=88701 (inst/sec) elapsed = 0:0:00:30 / Tue Mar 22 12:40:29 2016
GPGPU-Sim PTX: 2700000 instructions simulated : ctaid=(39,0,0) tid=(159,0,0)
GPGPU-Sim PTX: 2800000 instructions simulated : ctaid=(44,0,0) tid=(191,0,0)
GPGPU-Sim uArch: cycles simulated: 45500  inst.: 2821248 (ipc=62.0) sim_rate=91008 (inst/sec) elapsed = 0:0:00:31 / Tue Mar 22 12:40:30 2016
GPGPU-Sim uArch: Shader 7 finished CTA #2 (46152,0), 5 CTAs running
GPGPU-Sim uArch: core:  7, cta: 2 initialized @(46153,0)
GPGPU-Sim PTX: 2900000 instructions simulated : ctaid=(41,0,0) tid=(255,0,0)
GPGPU-Sim PTX: 3000000 instructions simulated : ctaid=(40,0,0) tid=(255,0,0)
GPGPU-Sim uArch: cycles simulated: 48000  inst.: 2985088 (ipc=62.2) sim_rate=93284 (inst/sec) elapsed = 0:0:00:32 / Tue Mar 22 12:40:31 2016
GPGPU-Sim uArch: Shader 9 finished CTA #2 (48643,0), 5 CTAs running
GPGPU-Sim uArch: core:  9, cta: 2 initialized @(48644,0)
GPGPU-Sim PTX: 3100000 instructions simulated : ctaid=(30,0,0) tid=(223,0,0)
GPGPU-Sim uArch: Shader 6 finished CTA #2 (49206,0), 5 CTAs running
GPGPU-Sim uArch: core:  6, cta: 2 initialized @(49207,0)
GPGPU-Sim uArch: Shader 3 finished CTA #2 (49454,0), 5 CTAs running
GPGPU-Sim uArch: core:  3, cta: 2 initialized @(49455,0)
GPGPU-Sim uArch: Shader 4 finished CTA #2 (49549,0), 5 CTAs running
GPGPU-Sim uArch: core:  4, cta: 2 initialized @(49550,0)
GPGPU-Sim uArch: Shader 5 finished CTA #2 (49555,0), 5 CTAs running
GPGPU-Sim uArch: core:  5, cta: 2 initialized @(49556,0)
GPGPU-Sim uArch: Shader 13 finished CTA #2 (49643,0), 5 CTAs running
GPGPU-Sim uArch: core: 13, cta: 2 initialized @(49644,0)
GPGPU-Sim uArch: Shader 8 finished CTA #2 (49749,0), 5 CTAs running
GPGPU-Sim uArch: core:  8, cta: 2 initialized @(49750,0)
GPGPU-Sim uArch: Shader 12 finished CTA #2 (49819,0), 5 CTAs running
GPGPU-Sim uArch: core: 12, cta: 2 initialized @(49820,0)
GPGPU-Sim uArch: Shader 14 finished CTA #2 (49880,0), 5 CTAs running
GPGPU-Sim uArch: core: 14, cta: 2 initialized @(49881,0)
GPGPU-Sim uArch: Shader 1 finished CTA #2 (49950,0), 5 CTAs running
GPGPU-Sim uArch: core:  1, cta: 2 initialized @(49951,0)
GPGPU-Sim uArch: Shader 0 finished CTA #2 (49963,0), 5 CTAs running
GPGPU-Sim uArch: core:  0, cta: 2 initialized @(49964,0)
GPGPU-Sim uArch: cycles simulated: 50000  inst.: 3089280 (ipc=61.8) sim_rate=93614 (inst/sec) elapsed = 0:0:00:33 / Tue Mar 22 12:40:32 2016
GPGPU-Sim uArch: Shader 10 finished CTA #2 (50081,0), 5 CTAs running
GPGPU-Sim uArch: core: 10, cta: 2 initialized @(50082,0)
GPGPU-Sim uArch: Shader 11 finished CTA #2 (50090,0), 5 CTAs running
GPGPU-Sim uArch: core: 11, cta: 2 initialized @(50091,0)
GPGPU-Sim uArch: Shader 2 finished CTA #2 (50092,0), 5 CTAs running
GPGPU-Sim uArch: core:  2, cta: 2 initialized @(50093,0)
GPGPU-Sim PTX: 3200000 instructions simulated : ctaid=(50,0,0) tid=(31,0,0)
GPGPU-Sim PTX: 3300000 instructions simulated : ctaid=(46,0,0) tid=(63,0,0)
GPGPU-Sim uArch: cycles simulated: 52000  inst.: 3271904 (ipc=62.9) sim_rate=96232 (inst/sec) elapsed = 0:0:00:34 / Tue Mar 22 12:40:33 2016
GPGPU-Sim uArch: cycles simulated: 54000  inst.: 3355072 (ipc=62.1) sim_rate=95859 (inst/sec) elapsed = 0:0:00:35 / Tue Mar 22 12:40:34 2016
GPGPU-Sim PTX: 3400000 instructions simulated : ctaid=(46,0,0) tid=(127,0,0)
GPGPU-Sim PTX: 3500000 instructions simulated : ctaid=(46,0,0) tid=(127,0,0)
GPGPU-Sim uArch: cycles simulated: 56000  inst.: 3548320 (ipc=63.4) sim_rate=98564 (inst/sec) elapsed = 0:0:00:36 / Tue Mar 22 12:40:35 2016
GPGPU-Sim PTX: 3600000 instructions simulated : ctaid=(54,0,0) tid=(191,0,0)
GPGPU-Sim uArch: cycles simulated: 58000  inst.: 3637600 (ipc=62.7) sim_rate=98313 (inst/sec) elapsed = 0:0:00:37 / Tue Mar 22 12:40:36 2016
GPGPU-Sim PTX: 3700000 instructions simulated : ctaid=(45,0,0) tid=(191,0,0)
GPGPU-Sim PTX: 3800000 instructions simulated : ctaid=(50,0,0) tid=(159,0,0)
GPGPU-Sim uArch: cycles simulated: 60000  inst.: 3824032 (ipc=63.7) sim_rate=100632 (inst/sec) elapsed = 0:0:00:38 / Tue Mar 22 12:40:37 2016
GPGPU-Sim uArch: Shader 7 finished CTA #3 (60482,0), 5 CTAs running
GPGPU-Sim uArch: core:  7, cta: 3 initialized @(60483,0)
GPGPU-Sim PTX: 3900000 instructions simulated : ctaid=(46,0,0) tid=(223,0,0)
GPGPU-Sim uArch: cycles simulated: 62000  inst.: 3916192 (ipc=63.2) sim_rate=100415 (inst/sec) elapsed = 0:0:00:39 / Tue Mar 22 12:40:38 2016
GPGPU-Sim PTX: 4000000 instructions simulated : ctaid=(68,0,0) tid=(63,0,0)
GPGPU-Sim uArch: Shader 9 finished CTA #3 (63318,0), 5 CTAs running
GPGPU-Sim uArch: core:  9, cta: 3 initialized @(63319,0)
GPGPU-Sim PTX: 4100000 instructions simulated : ctaid=(52,0,0) tid=(255,0,0)
GPGPU-Sim uArch: cycles simulated: 64000  inst.: 4081856 (ipc=63.8) sim_rate=102046 (inst/sec) elapsed = 0:0:00:40 / Tue Mar 22 12:40:39 2016
GPGPU-Sim uArch: Shader 12 finished CTA #3 (64431,0), 5 CTAs running
GPGPU-Sim uArch: core: 12, cta: 3 initialized @(64432,0)
GPGPU-Sim uArch: Shader 3 finished CTA #3 (64571,0), 5 CTAs running
GPGPU-Sim uArch: core:  3, cta: 3 initialized @(64572,0)
GPGPU-Sim uArch: Shader 0 finished CTA #3 (64747,0), 5 CTAs running
GPGPU-Sim uArch: core:  0, cta: 3 initialized @(64748,0)
GPGPU-Sim uArch: Shader 4 finished CTA #3 (64755,0), 5 CTAs running
GPGPU-Sim uArch: core:  4, cta: 3 initialized @(64756,0)
GPGPU-Sim uArch: Shader 5 finished CTA #3 (64831,0), 5 CTAs running
GPGPU-Sim uArch: core:  5, cta: 3 initialized @(64832,0)
GPGPU-Sim uArch: Shader 11 finished CTA #3 (64930,0), 5 CTAs running
GPGPU-Sim uArch: core: 11, cta: 3 initialized @(64931,0)
GPGPU-Sim uArch: Shader 13 finished CTA #3 (64932,0), 5 CTAs running
GPGPU-Sim uArch: core: 13, cta: 3 initialized @(64933,0)
GPGPU-Sim uArch: Shader 6 finished CTA #3 (64972,0), 5 CTAs running
GPGPU-Sim uArch: core:  6, cta: 3 initialized @(64973,0)
GPGPU-Sim uArch: Shader 1 finished CTA #3 (65024,0), 5 CTAs running
GPGPU-Sim uArch: core:  1, cta: 3 initialized @(65025,0)
GPGPU-Sim uArch: Shader 2 finished CTA #3 (65029,0), 5 CTAs running
GPGPU-Sim uArch: core:  2, cta: 3 initialized @(65030,0)
GPGPU-Sim uArch: Shader 10 finished CTA #3 (65064,0), 5 CTAs running
GPGPU-Sim uArch: core: 10, cta: 3 initialized @(65065,0)
GPGPU-Sim uArch: Shader 8 finished CTA #3 (65141,0), 5 CTAs running
GPGPU-Sim uArch: core:  8, cta: 3 initialized @(65142,0)
GPGPU-Sim uArch: Shader 14 finished CTA #3 (65161,0), 5 CTAs running
GPGPU-Sim uArch: core: 14, cta: 3 initialized @(65162,0)
GPGPU-Sim PTX: 4200000 instructions simulated : ctaid=(74,0,0) tid=(31,0,0)
GPGPU-Sim uArch: cycles simulated: 66000  inst.: 4176608 (ipc=63.3) sim_rate=101868 (inst/sec) elapsed = 0:0:00:41 / Tue Mar 22 12:40:40 2016
GPGPU-Sim PTX: 4300000 instructions simulated : ctaid=(60,0,0) tid=(31,0,0)
GPGPU-Sim uArch: cycles simulated: 68000  inst.: 4338208 (ipc=63.8) sim_rate=103290 (inst/sec) elapsed = 0:0:00:42 / Tue Mar 22 12:40:41 2016
GPGPU-Sim PTX: 4400000 instructions simulated : ctaid=(66,0,0) tid=(159,0,0)
GPGPU-Sim PTX: 4500000 instructions simulated : ctaid=(61,0,0) tid=(127,0,0)
GPGPU-Sim uArch: cycles simulated: 70000  inst.: 4451136 (ipc=63.6) sim_rate=103514 (inst/sec) elapsed = 0:0:00:43 / Tue Mar 22 12:40:42 2016
GPGPU-Sim PTX: 4600000 instructions simulated : ctaid=(63,0,0) tid=(95,0,0)
GPGPU-Sim uArch: cycles simulated: 72000  inst.: 4596192 (ipc=63.8) sim_rate=104458 (inst/sec) elapsed = 0:0:00:44 / Tue Mar 22 12:40:43 2016
GPGPU-Sim PTX: 4700000 instructions simulated : ctaid=(67,0,0) tid=(159,0,0)
GPGPU-Sim uArch: cycles simulated: 74000  inst.: 4733024 (ipc=64.0) sim_rate=105178 (inst/sec) elapsed = 0:0:00:45 / Tue Mar 22 12:40:44 2016
GPGPU-Sim PTX: 4800000 instructions simulated : ctaid=(74,0,0) tid=(159,0,0)
GPGPU-Sim uArch: Shader 7 finished CTA #4 (74789,0), 5 CTAs running
GPGPU-Sim uArch: core:  7, cta: 4 initialized @(74790,0)
GPGPU-Sim PTX: 4900000 instructions simulated : ctaid=(74,0,0) tid=(255,0,0)
GPGPU-Sim uArch: cycles simulated: 76000  inst.: 4853504 (ipc=63.9) sim_rate=105510 (inst/sec) elapsed = 0:0:00:46 / Tue Mar 22 12:40:45 2016
GPGPU-Sim PTX: 5000000 instructions simulated : ctaid=(81,0,0) tid=(31,0,0)
GPGPU-Sim uArch: cycles simulated: 78000  inst.: 5009632 (ipc=64.2) sim_rate=106587 (inst/sec) elapsed = 0:0:00:47 / Tue Mar 22 12:40:46 2016
GPGPU-Sim uArch: Shader 9 finished CTA #4 (78119,0), 5 CTAs running
GPGPU-Sim uArch: core:  9, cta: 4 initialized @(78120,0)
GPGPU-Sim PTX: 5100000 instructions simulated : ctaid=(60,0,0) tid=(223,0,0)
GPGPU-Sim uArch: Shader 14 finished CTA #4 (79367,0), 5 CTAs running
GPGPU-Sim uArch: core: 14, cta: 4 initialized @(79368,0)
GPGPU-Sim uArch: Shader 6 finished CTA #4 (79513,0), 5 CTAs running
GPGPU-Sim uArch: core:  6, cta: 4 initialized @(79514,0)
GPGPU-Sim uArch: Shader 3 finished CTA #4 (79689,0), 5 CTAs running
GPGPU-Sim uArch: core:  3, cta: 4 initialized @(79690,0)
GPGPU-Sim uArch: Shader 1 finished CTA #4 (79754,0), 5 CTAs running
GPGPU-Sim uArch: core:  1, cta: 4 initialized @(79755,0)
GPGPU-Sim uArch: Shader 13 finished CTA #4 (79837,0), 5 CTAs running
GPGPU-Sim uArch: core: 13, cta: 4 initialized @(79838,0)
GPGPU-Sim uArch: Shader 11 finished CTA #4 (79848,0), 5 CTAs running
GPGPU-Sim uArch: core: 11, cta: 4 initialized @(79849,0)
GPGPU-Sim uArch: Shader 10 finished CTA #4 (79985,0), 5 CTAs running
GPGPU-Sim uArch: core: 10, cta: 4 initialized @(79986,0)
GPGPU-Sim uArch: cycles simulated: 80000  inst.: 5113024 (ipc=63.9) sim_rate=106521 (inst/sec) elapsed = 0:0:00:48 / Tue Mar 22 12:40:47 2016
GPGPU-Sim uArch: Shader 8 finished CTA #4 (80041,0), 5 CTAs running
GPGPU-Sim uArch: core:  8, cta: 4 initialized @(80042,0)
GPGPU-Sim uArch: Shader 5 finished CTA #4 (80089,0), 5 CTAs running
GPGPU-Sim uArch: core:  5, cta: 4 initialized @(80090,0)
GPGPU-Sim uArch: Shader 4 finished CTA #4 (80097,0), 5 CTAs running
GPGPU-Sim uArch: core:  4, cta: 4 initialized @(80098,0)
GPGPU-Sim uArch: Shader 2 finished CTA #4 (80117,0), 5 CTAs running
GPGPU-Sim uArch: core:  2, cta: 4 initialized @(80118,0)
GPGPU-Sim uArch: Shader 0 finished CTA #4 (80320,0), 5 CTAs running
GPGPU-Sim uArch: core:  0, cta: 4 initialized @(80321,0)
GPGPU-Sim uArch: Shader 12 finished CTA #4 (80322,0), 5 CTAs running
GPGPU-Sim uArch: core: 12, cta: 4 initialized @(80323,0)
GPGPU-Sim PTX: 5200000 instructions simulated : ctaid=(83,0,0) tid=(127,0,0)
GPGPU-Sim PTX: 5300000 instructions simulated : ctaid=(80,0,0) tid=(63,0,0)
GPGPU-Sim uArch: cycles simulated: 82000  inst.: 5280608 (ipc=64.4) sim_rate=107767 (inst/sec) elapsed = 0:0:00:49 / Tue Mar 22 12:40:48 2016
GPGPU-Sim PTX: 5400000 instructions simulated : ctaid=(87,0,0) tid=(95,0,0)
GPGPU-Sim uArch: cycles simulated: 84000  inst.: 5378752 (ipc=64.0) sim_rate=107575 (inst/sec) elapsed = 0:0:00:50 / Tue Mar 22 12:40:49 2016
GPGPU-Sim PTX: 5500000 instructions simulated : ctaid=(77,0,0) tid=(95,0,0)
GPGPU-Sim PTX: 5600000 instructions simulated : ctaid=(85,0,0) tid=(127,0,0)
GPGPU-Sim uArch: cycles simulated: 86000  inst.: 5563392 (ipc=64.7) sim_rate=109086 (inst/sec) elapsed = 0:0:00:51 / Tue Mar 22 12:40:50 2016
GPGPU-Sim uArch: cycles simulated: 87500  inst.: 5624512 (ipc=64.3) sim_rate=108163 (inst/sec) elapsed = 0:0:00:52 / Tue Mar 22 12:40:51 2016
GPGPU-Sim PTX: 5700000 instructions simulated : ctaid=(83,0,0) tid=(255,0,0)
GPGPU-Sim uArch: Shader 7 finished CTA #5 (88718,0), 5 CTAs running
GPGPU-Sim uArch: core:  7, cta: 5 initialized @(88719,0)
GPGPU-Sim PTX: 5800000 instructions simulated : ctaid=(83,0,0) tid=(255,0,0)
GPGPU-Sim uArch: cycles simulated: 89500  inst.: 5783744 (ipc=64.6) sim_rate=109127 (inst/sec) elapsed = 0:0:00:53 / Tue Mar 22 12:40:52 2016
GPGPU-Sim PTX: 5900000 instructions simulated : ctaid=(83,0,0) tid=(223,0,0)
GPGPU-Sim uArch: Shader 9 finished CTA #5 (91387,0), 5 CTAs running
GPGPU-Sim uArch: core:  9, cta: 5 initialized @(91388,0)
GPGPU-Sim uArch: cycles simulated: 91500  inst.: 5889536 (ipc=64.4) sim_rate=109065 (inst/sec) elapsed = 0:0:00:54 / Tue Mar 22 12:40:53 2016
GPGPU-Sim PTX: 6000000 instructions simulated : ctaid=(91,0,0) tid=(63,0,0)
GPGPU-Sim uArch: cycles simulated: 93000  inst.: 6009920 (ipc=64.6) sim_rate=109271 (inst/sec) elapsed = 0:0:00:55 / Tue Mar 22 12:40:54 2016
GPGPU-Sim PTX: 6100000 instructions simulated : ctaid=(87,0,0) tid=(255,0,0)
GPGPU-Sim PTX: 6200000 instructions simulated : ctaid=(92,0,0) tid=(95,0,0)
GPGPU-Sim uArch: cycles simulated: 94500  inst.: 6130688 (ipc=64.9) sim_rate=109476 (inst/sec) elapsed = 0:0:00:56 / Tue Mar 22 12:40:55 2016
GPGPU-Sim uArch: Shader 6 finished CTA #5 (94588,0), 5 CTAs running
GPGPU-Sim uArch: core:  6, cta: 5 initialized @(94589,0)
GPGPU-Sim uArch: Shader 4 finished CTA #5 (94601,0), 5 CTAs running
GPGPU-Sim uArch: core:  4, cta: 5 initialized @(94602,0)
GPGPU-Sim uArch: Shader 5 finished CTA #5 (94878,0), 5 CTAs running
GPGPU-Sim uArch: core:  5, cta: 5 initialized @(94879,0)
GPGPU-Sim uArch: Shader 11 finished CTA #5 (94999,0), 5 CTAs running
GPGPU-Sim uArch: core: 11, cta: 5 initialized @(95000,0)
GPGPU-Sim uArch: Shader 8 finished CTA #5 (95027,0), 5 CTAs running
GPGPU-Sim uArch: core:  8, cta: 5 initialized @(95028,0)
GPGPU-Sim uArch: Shader 10 finished CTA #5 (95165,0), 5 CTAs running
GPGPU-Sim uArch: core: 10, cta: 5 initialized @(95166,0)
GPGPU-Sim uArch: Shader 14 finished CTA #5 (95181,0), 5 CTAs running
GPGPU-Sim uArch: core: 14, cta: 5 initialized @(95182,0)
GPGPU-Sim uArch: Shader 12 finished CTA #5 (95267,0), 5 CTAs running
GPGPU-Sim uArch: core: 12, cta: 5 initialized @(95268,0)
GPGPU-Sim uArch: Shader 2 finished CTA #5 (95333,0), 5 CTAs running
GPGPU-Sim uArch: core:  2, cta: 5 initialized @(95334,0)
GPGPU-Sim uArch: Shader 3 finished CTA #5 (95345,0), 5 CTAs running
GPGPU-Sim uArch: core:  3, cta: 5 initialized @(95346,0)
GPGPU-Sim uArch: Shader 1 finished CTA #5 (95555,0), 5 CTAs running
GPGPU-Sim uArch: core:  1, cta: 5 initialized @(95556,0)
GPGPU-Sim uArch: Shader 13 finished CTA #5 (95556,0), 5 CTAs running
GPGPU-Sim uArch: core: 13, cta: 5 initialized @(95557,0)
GPGPU-Sim uArch: Shader 0 finished CTA #5 (95582,0), 5 CTAs running
GPGPU-Sim uArch: core:  0, cta: 5 initialized @(95583,0)
GPGPU-Sim PTX: 6300000 instructions simulated : ctaid=(99,0,0) tid=(63,0,0)
GPGPU-Sim uArch: cycles simulated: 97000  inst.: 6290144 (ipc=64.8) sim_rate=110353 (inst/sec) elapsed = 0:0:00:57 / Tue Mar 22 12:40:56 2016
GPGPU-Sim PTX: 6400000 instructions simulated : ctaid=(100,0,0) tid=(63,0,0)
GPGPU-Sim uArch: cycles simulated: 99000  inst.: 6397024 (ipc=64.6) sim_rate=110293 (inst/sec) elapsed = 0:0:00:58 / Tue Mar 22 12:40:57 2016
GPGPU-Sim PTX: 6500000 instructions simulated : ctaid=(103,0,0) tid=(127,0,0)
GPGPU-Sim PTX: 6600000 instructions simulated : ctaid=(92,0,0) tid=(223,0,0)
GPGPU-Sim uArch: cycles simulated: 100500  inst.: 6526112 (ipc=64.9) sim_rate=110612 (inst/sec) elapsed = 0:0:00:59 / Tue Mar 22 12:40:58 2016
GPGPU-Sim PTX: 6700000 instructions simulated : ctaid=(102,0,0) tid=(95,0,0)
GPGPU-Sim uArch: cycles simulated: 102000  inst.: 6636288 (ipc=65.1) sim_rate=110604 (inst/sec) elapsed = 0:0:01:00 / Tue Mar 22 12:40:59 2016
GPGPU-Sim uArch: Shader 7 finished CTA #0 (102004,0), 5 CTAs running
GPGPU-Sim uArch: core:  7, cta: 0 initialized @(102005,0)
GPGPU-Sim PTX: 6800000 instructions simulated : ctaid=(99,0,0) tid=(159,0,0)
GPGPU-Sim uArch: cycles simulated: 104000  inst.: 6758848 (ipc=65.0) sim_rate=110800 (inst/sec) elapsed = 0:0:01:01 / Tue Mar 22 12:41:00 2016
GPGPU-Sim PTX: 6900000 instructions simulated : ctaid=(101,0,0) tid=(191,0,0)
GPGPU-Sim uArch: Shader 9 finished CTA #0 (105556,0), 5 CTAs running
GPGPU-Sim uArch: core:  9, cta: 0 initialized @(105557,0)
GPGPU-Sim uArch: cycles simulated: 106000  inst.: 6893056 (ipc=65.0) sim_rate=111178 (inst/sec) elapsed = 0:0:01:02 / Tue Mar 22 12:41:01 2016
GPGPU-Sim PTX: 7000000 instructions simulated : ctaid=(96,0,0) tid=(223,0,0)
GPGPU-Sim PTX: 7100000 instructions simulated : ctaid=(98,0,0) tid=(255,0,0)
GPGPU-Sim uArch: cycles simulated: 108000  inst.: 7030848 (ipc=65.1) sim_rate=111600 (inst/sec) elapsed = 0:0:01:03 / Tue Mar 22 12:41:02 2016
GPGPU-Sim PTX: 7200000 instructions simulated : ctaid=(105,0,0) tid=(159,0,0)
GPGPU-Sim uArch: Shader 2 finished CTA #0 (109561,0), 5 CTAs running
GPGPU-Sim uArch: core:  2, cta: 0 initialized @(109562,0)
GPGPU-Sim uArch: Shader 1 finished CTA #0 (109567,0), 5 CTAs running
GPGPU-Sim uArch: core:  1, cta: 0 initialized @(109568,0)
GPGPU-Sim uArch: Shader 4 finished CTA #0 (109574,0), 5 CTAs running
GPGPU-Sim uArch: core:  4, cta: 0 initialized @(109575,0)
GPGPU-Sim uArch: Shader 10 finished CTA #0 (109654,0), 5 CTAs running
GPGPU-Sim uArch: core: 10, cta: 0 initialized @(109655,0)
GPGPU-Sim uArch: Shader 11 finished CTA #0 (109997,0), 5 CTAs running
GPGPU-Sim uArch: core: 11, cta: 0 initialized @(109998,0)
GPGPU-Sim uArch: cycles simulated: 110000  inst.: 7149728 (ipc=65.0) sim_rate=111714 (inst/sec) elapsed = 0:0:01:04 / Tue Mar 22 12:41:03 2016
GPGPU-Sim uArch: Shader 14 finished CTA #0 (110162,0), 5 CTAs running
GPGPU-Sim uArch: core: 14, cta: 0 initialized @(110163,0)
GPGPU-Sim uArch: Shader 8 finished CTA #0 (110166,0), 5 CTAs running
GPGPU-Sim uArch: core:  8, cta: 0 initialized @(110167,0)
GPGPU-Sim uArch: Shader 3 finished CTA #0 (110262,0), 5 CTAs running
GPGPU-Sim uArch: core:  3, cta: 0 initialized @(110263,0)
GPGPU-Sim uArch: Shader 5 finished CTA #0 (110367,0), 5 CTAs running
GPGPU-Sim uArch: core:  5, cta: 0 initialized @(110368,0)
GPGPU-Sim uArch: Shader 6 finished CTA #0 (110369,0), 5 CTAs running
GPGPU-Sim uArch: core:  6, cta: 0 initialized @(110370,0)
GPGPU-Sim uArch: Shader 13 finished CTA #0 (110427,0), 5 CTAs running
GPGPU-Sim uArch: core: 13, cta: 0 initialized @(110428,0)
GPGPU-Sim uArch: Shader 12 finished CTA #0 (110435,0), 5 CTAs running
GPGPU-Sim uArch: core: 12, cta: 0 initialized @(110436,0)
GPGPU-Sim uArch: Shader 0 finished CTA #0 (110443,0), 5 CTAs running
GPGPU-Sim uArch: core:  0, cta: 0 initialized @(110444,0)
GPGPU-Sim PTX: 7300000 instructions simulated : ctaid=(111,0,0) tid=(63,0,0)
GPGPU-Sim uArch: cycles simulated: 112000  inst.: 7305280 (ipc=65.2) sim_rate=112388 (inst/sec) elapsed = 0:0:01:05 / Tue Mar 22 12:41:04 2016
GPGPU-Sim PTX: 7400000 instructions simulated : ctaid=(114,0,0) tid=(31,0,0)
GPGPU-Sim uArch: cycles simulated: 114000  inst.: 7411648 (ipc=65.0) sim_rate=112297 (inst/sec) elapsed = 0:0:01:06 / Tue Mar 22 12:41:05 2016
GPGPU-Sim PTX: 7500000 instructions simulated : ctaid=(118,0,0) tid=(127,0,0)
GPGPU-Sim PTX: 7600000 instructions simulated : ctaid=(109,0,0) tid=(127,0,0)
GPGPU-Sim uArch: cycles simulated: 116000  inst.: 7585216 (ipc=65.4) sim_rate=113212 (inst/sec) elapsed = 0:0:01:07 / Tue Mar 22 12:41:06 2016
GPGPU-Sim uArch: Shader 7 finished CTA #1 (116080,0), 5 CTAs running
GPGPU-Sim uArch: core:  7, cta: 1 initialized @(116081,0)
GPGPU-Sim PTX: 7700000 instructions simulated : ctaid=(109,0,0) tid=(127,0,0)
GPGPU-Sim uArch: cycles simulated: 118000  inst.: 7676832 (ipc=65.1) sim_rate=112894 (inst/sec) elapsed = 0:0:01:08 / Tue Mar 22 12:41:07 2016
GPGPU-Sim PTX: 7800000 instructions simulated : ctaid=(114,0,0) tid=(159,0,0)
GPGPU-Sim PTX: 7900000 instructions simulated : ctaid=(115,0,0) tid=(159,0,0)
GPGPU-Sim uArch: cycles simulated: 120000  inst.: 7863168 (ipc=65.5) sim_rate=113958 (inst/sec) elapsed = 0:0:01:09 / Tue Mar 22 12:41:08 2016
GPGPU-Sim uArch: Shader 9 finished CTA #1 (120904,0), 5 CTAs running
GPGPU-Sim uArch: core:  9, cta: 1 initialized @(120905,0)
GPGPU-Sim PTX: 8000000 instructions simulated : ctaid=(113,0,0) tid=(223,0,0)
GPGPU-Sim uArch: cycles simulated: 122000  inst.: 7949920 (ipc=65.2) sim_rate=113570 (inst/sec) elapsed = 0:0:01:10 / Tue Mar 22 12:41:09 2016
GPGPU-Sim PTX: 8100000 instructions simulated : ctaid=(116,0,0) tid=(223,0,0)
GPGPU-Sim PTX: 8200000 instructions simulated : ctaid=(130,0,0) tid=(63,0,0)
GPGPU-Sim uArch: cycles simulated: 124000  inst.: 8141632 (ipc=65.7) sim_rate=114670 (inst/sec) elapsed = 0:0:01:11 / Tue Mar 22 12:41:10 2016
GPGPU-Sim uArch: Shader 12 finished CTA #1 (124545,0), 5 CTAs running
GPGPU-Sim uArch: core: 12, cta: 1 initialized @(124546,0)
GPGPU-Sim uArch: Shader 1 finished CTA #1 (124607,0), 5 CTAs running
GPGPU-Sim uArch: core:  1, cta: 1 initialized @(124608,0)
GPGPU-Sim uArch: Shader 10 finished CTA #1 (124808,0), 5 CTAs running
GPGPU-Sim uArch: core: 10, cta: 1 initialized @(124809,0)
GPGPU-Sim uArch: Shader 8 finished CTA #1 (124844,0), 5 CTAs running
GPGPU-Sim uArch: core:  8, cta: 1 initialized @(124845,0)
GPGPU-Sim uArch: Shader 0 finished CTA #1 (124896,0), 5 CTAs running
GPGPU-Sim uArch: core:  0, cta: 1 initialized @(124897,0)
GPGPU-Sim uArch: Shader 6 finished CTA #1 (125016,0), 5 CTAs running
GPGPU-Sim uArch: core:  6, cta: 1 initialized @(125017,0)
GPGPU-Sim uArch: Shader 3 finished CTA #1 (125139,0), 5 CTAs running
GPGPU-Sim uArch: core:  3, cta: 1 initialized @(125140,0)
GPGPU-Sim uArch: Shader 4 finished CTA #1 (125222,0), 5 CTAs running
GPGPU-Sim uArch: core:  4, cta: 1 initialized @(125223,0)
GPGPU-Sim uArch: Shader 13 finished CTA #1 (125259,0), 5 CTAs running
GPGPU-Sim uArch: core: 13, cta: 1 initialized @(125260,0)
GPGPU-Sim uArch: Shader 11 finished CTA #1 (125345,0), 5 CTAs running
GPGPU-Sim uArch: core: 11, cta: 1 initialized @(125346,0)
GPGPU-Sim uArch: Shader 14 finished CTA #1 (125363,0), 5 CTAs running
GPGPU-Sim uArch: core: 14, cta: 1 initialized @(125364,0)
GPGPU-Sim uArch: Shader 2 finished CTA #1 (125585,0), 5 CTAs running
GPGPU-Sim uArch: core:  2, cta: 1 initialized @(125586,0)
GPGPU-Sim uArch: Shader 5 finished CTA #1 (125587,0), 5 CTAs running
GPGPU-Sim uArch: core:  5, cta: 1 initialized @(125588,0)
GPGPU-Sim PTX: 8300000 instructions simulated : ctaid=(121,0,0) tid=(95,0,0)
GPGPU-Sim uArch: cycles simulated: 126000  inst.: 8219776 (ipc=65.2) sim_rate=114163 (inst/sec) elapsed = 0:0:01:12 / Tue Mar 22 12:41:11 2016
GPGPU-Sim PTX: 8400000 instructions simulated : ctaid=(124,0,0) tid=(31,0,0)
GPGPU-Sim PTX: 8500000 instructions simulated : ctaid=(122,0,0) tid=(63,0,0)
GPGPU-Sim uArch: cycles simulated: 128000  inst.: 8404672 (ipc=65.7) sim_rate=115132 (inst/sec) elapsed = 0:0:01:13 / Tue Mar 22 12:41:12 2016
GPGPU-Sim PTX: 8600000 instructions simulated : ctaid=(126,0,0) tid=(95,0,0)
GPGPU-Sim uArch: Shader 7 finished CTA #2 (129910,0), 5 CTAs running
GPGPU-Sim uArch: core:  7, cta: 2 initialized @(129911,0)
GPGPU-Sim uArch: cycles simulated: 130000  inst.: 8512416 (ipc=65.5) sim_rate=115032 (inst/sec) elapsed = 0:0:01:14 / Tue Mar 22 12:41:13 2016
GPGPU-Sim PTX: 8700000 instructions simulated : ctaid=(135,0,0) tid=(63,0,0)
GPGPU-Sim uArch: cycles simulated: 132000  inst.: 8673696 (ipc=65.7) sim_rate=115649 (inst/sec) elapsed = 0:0:01:15 / Tue Mar 22 12:41:14 2016
GPGPU-Sim PTX: 8800000 instructions simulated : ctaid=(125,0,0) tid=(159,0,0)
GPGPU-Sim PTX: 8900000 instructions simulated : ctaid=(122,0,0) tid=(159,0,0)
GPGPU-Sim uArch: cycles simulated: 134000  inst.: 8802368 (ipc=65.7) sim_rate=115820 (inst/sec) elapsed = 0:0:01:16 / Tue Mar 22 12:41:15 2016
GPGPU-Sim PTX: 9000000 instructions simulated : ctaid=(129,0,0) tid=(255,0,0)
GPGPU-Sim uArch: Shader 9 finished CTA #2 (135627,0), 5 CTAs running
GPGPU-Sim uArch: core:  9, cta: 2 initialized @(135628,0)
GPGPU-Sim uArch: cycles simulated: 136000  inst.: 8934720 (ipc=65.7) sim_rate=116035 (inst/sec) elapsed = 0:0:01:17 / Tue Mar 22 12:41:16 2016
GPGPU-Sim PTX: 9100000 instructions simulated : ctaid=(136,0,0) tid=(31,0,0)
GPGPU-Sim PTX: 9200000 instructions simulated : ctaid=(127,0,0) tid=(255,0,0)
GPGPU-Sim uArch: cycles simulated: 138000  inst.: 9101632 (ipc=66.0) sim_rate=116687 (inst/sec) elapsed = 0:0:01:18 / Tue Mar 22 12:41:17 2016
GPGPU-Sim uArch: Shader 1 finished CTA #2 (138941,0), 5 CTAs running
GPGPU-Sim uArch: core:  1, cta: 2 initialized @(138942,0)
GPGPU-Sim uArch: Shader 10 finished CTA #2 (139115,0), 5 CTAs running
GPGPU-Sim uArch: core: 10, cta: 2 initialized @(139116,0)
GPGPU-Sim uArch: Shader 0 finished CTA #2 (139341,0), 5 CTAs running
GPGPU-Sim uArch: core:  0, cta: 2 initialized @(139342,0)
GPGPU-Sim uArch: Shader 4 finished CTA #2 (139348,0), 5 CTAs running
GPGPU-Sim uArch: core:  4, cta: 2 initialized @(139349,0)
GPGPU-Sim uArch: Shader 8 finished CTA #2 (139365,0), 5 CTAs running
GPGPU-Sim uArch: core:  8, cta: 2 initialized @(139366,0)
GPGPU-Sim uArch: Shader 12 finished CTA #2 (139456,0), 5 CTAs running
GPGPU-Sim uArch: core: 12, cta: 2 initialized @(139457,0)
GPGPU-Sim uArch: Shader 14 finished CTA #2 (139481,0), 5 CTAs running
GPGPU-Sim uArch: core: 14, cta: 2 initialized @(139482,0)
GPGPU-Sim uArch: Shader 5 finished CTA #2 (139722,0), 5 CTAs running
GPGPU-Sim uArch: core:  5, cta: 2 initialized @(139723,0)
GPGPU-Sim PTX: 9300000 instructions simulated : ctaid=(141,0,0) tid=(31,0,0)
GPGPU-Sim uArch: Shader 2 finished CTA #2 (139860,0), 5 CTAs running
GPGPU-Sim uArch: core:  2, cta: 2 initialized @(139861,0)
GPGPU-Sim uArch: Shader 11 finished CTA #2 (139866,0), 5 CTAs running
GPGPU-Sim uArch: core: 11, cta: 2 initialized @(139867,0)
GPGPU-Sim uArch: Shader 13 finished CTA #2 (139874,0), 5 CTAs running
GPGPU-Sim uArch: core: 13, cta: 2 initialized @(139875,0)
GPGPU-Sim uArch: Shader 3 finished CTA #2 (139876,0), 5 CTAs running
GPGPU-Sim uArch: core:  3, cta: 2 initialized @(139877,0)
GPGPU-Sim uArch: Shader 6 finished CTA #2 (139900,0), 5 CTAs running
GPGPU-Sim uArch: core:  6, cta: 2 initialized @(139901,0)
GPGPU-Sim uArch: cycles simulated: 140000  inst.: 9205120 (ipc=65.8) sim_rate=116520 (inst/sec) elapsed = 0:0:01:19 / Tue Mar 22 12:41:18 2016
GPGPU-Sim PTX: 9400000 instructions simulated : ctaid=(141,0,0) tid=(63,0,0)
GPGPU-Sim PTX: 9500000 instructions simulated : ctaid=(144,0,0) tid=(63,0,0)
GPGPU-Sim uArch: cycles simulated: 142000  inst.: 9395680 (ipc=66.2) sim_rate=117446 (inst/sec) elapsed = 0:0:01:20 / Tue Mar 22 12:41:19 2016
GPGPU-Sim uArch: Shader 7 finished CTA #3 (142696,0), 5 CTAs running
GPGPU-Sim uArch: core:  7, cta: 3 initialized @(142697,0)
GPGPU-Sim PTX: 9600000 instructions simulated : ctaid=(138,0,0) tid=(127,0,0)
GPGPU-Sim uArch: cycles simulated: 144000  inst.: 9497760 (ipc=66.0) sim_rate=117256 (inst/sec) elapsed = 0:0:01:21 / Tue Mar 22 12:41:20 2016
GPGPU-Sim PTX: 9700000 instructions simulated : ctaid=(139,0,0) tid=(95,0,0)
GPGPU-Sim uArch: cycles simulated: 145500  inst.: 9649824 (ipc=66.3) sim_rate=117680 (inst/sec) elapsed = 0:0:01:22 / Tue Mar 22 12:41:21 2016
GPGPU-Sim PTX: 9800000 instructions simulated : ctaid=(145,0,0) tid=(191,0,0)
GPGPU-Sim uArch: cycles simulated: 147500  inst.: 9731936 (ipc=66.0) sim_rate=117252 (inst/sec) elapsed = 0:0:01:23 / Tue Mar 22 12:41:22 2016
GPGPU-Sim PTX: 9900000 instructions simulated : ctaid=(147,0,0) tid=(191,0,0)
GPGPU-Sim PTX: 10000000 instructions simulated : ctaid=(139,0,0) tid=(159,0,0)
GPGPU-Sim uArch: cycles simulated: 149500  inst.: 9928448 (ipc=66.4) sim_rate=118195 (inst/sec) elapsed = 0:0:01:24 / Tue Mar 22 12:41:23 2016
GPGPU-Sim uArch: Shader 9 finished CTA #3 (149862,0), 5 CTAs running
GPGPU-Sim uArch: core:  9, cta: 3 initialized @(149863,0)
GPGPU-Sim PTX: 10100000 instructions simulated : ctaid=(142,0,0) tid=(255,0,0)
GPGPU-Sim uArch: cycles simulated: 151500  inst.: 10017600 (ipc=66.1) sim_rate=117854 (inst/sec) elapsed = 0:0:01:25 / Tue Mar 22 12:41:24 2016
GPGPU-Sim PTX: 10200000 instructions simulated : ctaid=(149,0,0) tid=(255,0,0)
GPGPU-Sim PTX: 10300000 instructions simulated : ctaid=(155,0,0) tid=(31,0,0)
GPGPU-Sim uArch: cycles simulated: 153500  inst.: 10192800 (ipc=66.4) sim_rate=118520 (inst/sec) elapsed = 0:0:01:26 / Tue Mar 22 12:41:25 2016
GPGPU-Sim uArch: Shader 14 finished CTA #3 (153658,0), 5 CTAs running
GPGPU-Sim uArch: core: 14, cta: 3 initialized @(153659,0)
GPGPU-Sim uArch: Shader 1 finished CTA #3 (153671,0), 5 CTAs running
GPGPU-Sim uArch: core:  1, cta: 3 initialized @(153672,0)
GPGPU-Sim uArch: Shader 0 finished CTA #3 (153824,0), 5 CTAs running
GPGPU-Sim uArch: core:  0, cta: 3 initialized @(153825,0)
GPGPU-Sim uArch: Shader 8 finished CTA #3 (153898,0), 5 CTAs running
GPGPU-Sim uArch: core:  8, cta: 3 initialized @(153899,0)
GPGPU-Sim uArch: Shader 4 finished CTA #3 (153940,0), 5 CTAs running
GPGPU-Sim uArch: core:  4, cta: 3 initialized @(153941,0)
GPGPU-Sim uArch: Shader 10 finished CTA #3 (153952,0), 5 CTAs running
GPGPU-Sim uArch: core: 10, cta: 3 initialized @(153953,0)
GPGPU-Sim uArch: Shader 5 finished CTA #3 (154157,0), 5 CTAs running
GPGPU-Sim uArch: core:  5, cta: 3 initialized @(154158,0)
GPGPU-Sim uArch: Shader 11 finished CTA #3 (154159,0), 5 CTAs running
GPGPU-Sim uArch: core: 11, cta: 3 initialized @(154160,0)
GPGPU-Sim uArch: Shader 13 finished CTA #3 (154279,0), 5 CTAs running
GPGPU-Sim uArch: core: 13, cta: 3 initialized @(154280,0)
GPGPU-Sim uArch: Shader 6 finished CTA #3 (154293,0), 5 CTAs running
GPGPU-Sim uArch: core:  6, cta: 3 initialized @(154294,0)
GPGPU-Sim uArch: Shader 3 finished CTA #3 (154299,0), 5 CTAs running
GPGPU-Sim uArch: core:  3, cta: 3 initialized @(154300,0)
GPGPU-Sim uArch: Shader 12 finished CTA #3 (154307,0), 5 CTAs running
GPGPU-Sim uArch: core: 12, cta: 3 initialized @(154308,0)
GPGPU-Sim uArch: Shader 2 finished CTA #3 (154463,0), 5 CTAs running
GPGPU-Sim uArch: core:  2, cta: 3 initialized @(154464,0)
GPGPU-Sim PTX: 10400000 instructions simulated : ctaid=(154,0,0) tid=(31,0,0)
GPGPU-Sim uArch: cycles simulated: 155500  inst.: 10309280 (ipc=66.3) sim_rate=118497 (inst/sec) elapsed = 0:0:01:27 / Tue Mar 22 12:41:26 2016
GPGPU-Sim PTX: 10500000 instructions simulated : ctaid=(159,0,0) tid=(95,0,0)
GPGPU-Sim uArch: cycles simulated: 157000  inst.: 10444128 (ipc=66.5) sim_rate=118683 (inst/sec) elapsed = 0:0:01:28 / Tue Mar 22 12:41:27 2016
GPGPU-Sim uArch: Shader 7 finished CTA #4 (157125,0), 5 CTAs running
GPGPU-Sim uArch: core:  7, cta: 4 initialized @(157126,0)
GPGPU-Sim PTX: 10600000 instructions simulated : ctaid=(162,0,0) tid=(95,0,0)
GPGPU-Sim PTX: 10700000 instructions simulated : ctaid=(156,0,0) tid=(95,0,0)
GPGPU-Sim uArch: cycles simulated: 159500  inst.: 10608352 (ipc=66.5) sim_rate=119194 (inst/sec) elapsed = 0:0:01:29 / Tue Mar 22 12:41:28 2016
GPGPU-Sim PTX: 10800000 instructions simulated : ctaid=(157,0,0) tid=(127,0,0)
GPGPU-Sim uArch: cycles simulated: 161000  inst.: 10706592 (ipc=66.5) sim_rate=118962 (inst/sec) elapsed = 0:0:01:30 / Tue Mar 22 12:41:29 2016
GPGPU-Sim PTX: 10900000 instructions simulated : ctaid=(157,0,0) tid=(191,0,0)
GPGPU-Sim uArch: cycles simulated: 163000  inst.: 10856128 (ipc=66.6) sim_rate=119298 (inst/sec) elapsed = 0:0:01:31 / Tue Mar 22 12:41:30 2016
GPGPU-Sim PTX: 11000000 instructions simulated : ctaid=(156,0,0) tid=(191,0,0)
GPGPU-Sim uArch: Shader 9 finished CTA #4 (164053,0), 5 CTAs running
GPGPU-Sim uArch: core:  9, cta: 4 initialized @(164054,0)
GPGPU-Sim uArch: cycles simulated: 165000  inst.: 10967776 (ipc=66.5) sim_rate=119214 (inst/sec) elapsed = 0:0:01:32 / Tue Mar 22 12:41:31 2016
GPGPU-Sim PTX: 11100000 instructions simulated : ctaid=(159,0,0) tid=(255,0,0)
GPGPU-Sim PTX: 11200000 instructions simulated : ctaid=(160,0,0) tid=(255,0,0)
GPGPU-Sim uArch: cycles simulated: 167000  inst.: 11154496 (ipc=66.8) sim_rate=119940 (inst/sec) elapsed = 0:0:01:33 / Tue Mar 22 12:41:32 2016
GPGPU-Sim PTX: 11300000 instructions simulated : ctaid=(179,0,0) tid=(63,0,0)
GPGPU-Sim uArch: Shader 8 finished CTA #4 (167584,0), 5 CTAs running
GPGPU-Sim uArch: core:  8, cta: 4 initialized @(167585,0)
GPGPU-Sim uArch: Shader 4 finished CTA #4 (167768,0), 5 CTAs running
GPGPU-Sim uArch: core:  4, cta: 4 initialized @(167769,0)
GPGPU-Sim uArch: Shader 1 finished CTA #4 (167907,0), 5 CTAs running
GPGPU-Sim uArch: core:  1, cta: 4 initialized @(167908,0)
GPGPU-Sim uArch: Shader 10 finished CTA #4 (167983,0), 5 CTAs running
GPGPU-Sim uArch: core: 10, cta: 4 initialized @(167984,0)
GPGPU-Sim uArch: Shader 2 finished CTA #4 (167988,0), 5 CTAs running
GPGPU-Sim uArch: core:  2, cta: 4 initialized @(167989,0)
GPGPU-Sim uArch: Shader 14 finished CTA #4 (168308,0), 5 CTAs running
GPGPU-Sim uArch: core: 14, cta: 4 initialized @(168309,0)
GPGPU-Sim uArch: Shader 12 finished CTA #4 (168324,0), 5 CTAs running
GPGPU-Sim uArch: core: 12, cta: 4 initialized @(168325,0)
GPGPU-Sim uArch: Shader 6 finished CTA #4 (168388,0), 5 CTAs running
GPGPU-Sim uArch: core:  6, cta: 4 initialized @(168389,0)
GPGPU-Sim uArch: Shader 0 finished CTA #4 (168393,0), 5 CTAs running
GPGPU-Sim uArch: core:  0, cta: 4 initialized @(168394,0)
GPGPU-Sim uArch: Shader 5 finished CTA #4 (168426,0), 5 CTAs running
GPGPU-Sim uArch: core:  5, cta: 4 initialized @(168427,0)
GPGPU-Sim uArch: Shader 3 finished CTA #4 (168456,0), 5 CTAs running
GPGPU-Sim uArch: core:  3, cta: 4 initialized @(168457,0)
GPGPU-Sim uArch: Shader 13 finished CTA #4 (168472,0), 5 CTAs running
GPGPU-Sim uArch: core: 13, cta: 4 initialized @(168473,0)
GPGPU-Sim uArch: Shader 11 finished CTA #4 (168646,0), 5 CTAs running
GPGPU-Sim uArch: core: 11, cta: 4 initialized @(168647,0)
GPGPU-Sim uArch: cycles simulated: 169000  inst.: 11257696 (ipc=66.6) sim_rate=119762 (inst/sec) elapsed = 0:0:01:34 / Tue Mar 22 12:41:33 2016
GPGPU-Sim PTX: 11400000 instructions simulated : ctaid=(179,0,0) tid=(63,0,0)
GPGPU-Sim PTX: 11500000 instructions simulated : ctaid=(176,0,0) tid=(63,0,0)
GPGPU-Sim uArch: cycles simulated: 171000  inst.: 11452608 (ipc=67.0) sim_rate=120553 (inst/sec) elapsed = 0:0:01:35 / Tue Mar 22 12:41:34 2016
GPGPU-Sim uArch: Shader 7 finished CTA #5 (171311,0), 5 CTAs running
GPGPU-Sim uArch: core:  7, cta: 5 initialized @(171312,0)
GPGPU-Sim PTX: 11600000 instructions simulated : ctaid=(171,0,0) tid=(95,0,0)
GPGPU-Sim uArch: cycles simulated: 173000  inst.: 11565152 (ipc=66.9) sim_rate=120470 (inst/sec) elapsed = 0:0:01:36 / Tue Mar 22 12:41:35 2016
GPGPU-Sim PTX: 11700000 instructions simulated : ctaid=(167,0,0) tid=(127,0,0)
GPGPU-Sim PTX: 11800000 instructions simulated : ctaid=(169,0,0) tid=(127,0,0)
GPGPU-Sim uArch: cycles simulated: 174500  inst.: 11705376 (ipc=67.1) sim_rate=120673 (inst/sec) elapsed = 0:0:01:37 / Tue Mar 22 12:41:36 2016
GPGPU-Sim PTX: 11900000 instructions simulated : ctaid=(179,0,0) tid=(191,0,0)
GPGPU-Sim uArch: cycles simulated: 176500  inst.: 11809024 (ipc=66.9) sim_rate=120500 (inst/sec) elapsed = 0:0:01:38 / Tue Mar 22 12:41:37 2016
GPGPU-Sim PTX: 12000000 instructions simulated : ctaid=(178,0,0) tid=(159,0,0)
GPGPU-Sim uArch: cycles simulated: 178000  inst.: 11954304 (ipc=67.2) sim_rate=120750 (inst/sec) elapsed = 0:0:01:39 / Tue Mar 22 12:41:38 2016
GPGPU-Sim PTX: 12100000 instructions simulated : ctaid=(180,0,0) tid=(127,0,0)
GPGPU-Sim uArch: Shader 9 finished CTA #5 (178366,0), 5 CTAs running
GPGPU-Sim uArch: core:  9, cta: 5 initialized @(178367,0)
GPGPU-Sim PTX: 12200000 instructions simulated : ctaid=(174,0,0) tid=(255,0,0)
GPGPU-Sim uArch: cycles simulated: 180000  inst.: 12069568 (ipc=67.1) sim_rate=120695 (inst/sec) elapsed = 0:0:01:40 / Tue Mar 22 12:41:39 2016
GPGPU-Sim PTX: 12300000 instructions simulated : ctaid=(178,0,0) tid=(255,0,0)
GPGPU-Sim uArch: Shader 8 finished CTA #5 (181047,0), 5 CTAs running
GPGPU-Sim uArch: core:  8, cta: 5 initialized @(181048,0)
GPGPU-Sim uArch: Shader 10 finished CTA #5 (181118,0), 5 CTAs running
GPGPU-Sim uArch: core: 10, cta: 5 initialized @(181119,0)
GPGPU-Sim uArch: cycles simulated: 181500  inst.: 12208448 (ipc=67.3) sim_rate=120875 (inst/sec) elapsed = 0:0:01:41 / Tue Mar 22 12:41:40 2016
GPGPU-Sim uArch: Shader 1 finished CTA #5 (181769,0), 5 CTAs running
GPGPU-Sim uArch: core:  1, cta: 5 initialized @(181770,0)
GPGPU-Sim uArch: Shader 2 finished CTA #5 (181924,0), 5 CTAs running
GPGPU-Sim uArch: core:  2, cta: 5 initialized @(181925,0)
GPGPU-Sim uArch: Shader 14 finished CTA #5 (182055,0), 5 CTAs running
GPGPU-Sim uArch: core: 14, cta: 5 initialized @(182056,0)
GPGPU-Sim uArch: Shader 3 finished CTA #5 (182110,0), 5 CTAs running
GPGPU-Sim uArch: core:  3, cta: 5 initialized @(182111,0)
GPGPU-Sim uArch: Shader 6 finished CTA #5 (182145,0), 5 CTAs running
GPGPU-Sim uArch: core:  6, cta: 5 initialized @(182146,0)
GPGPU-Sim uArch: Shader 11 finished CTA #5 (182312,0), 5 CTAs running
GPGPU-Sim uArch: core: 11, cta: 5 initialized @(182313,0)
GPGPU-Sim uArch: Shader 0 finished CTA #5 (182438,0), 5 CTAs running
GPGPU-Sim uArch: core:  0, cta: 5 initialized @(182439,0)
GPGPU-Sim uArch: Shader 13 finished CTA #5 (182456,0), 5 CTAs running
GPGPU-Sim uArch: core: 13, cta: 5 initialized @(182457,0)
GPGPU-Sim uArch: Shader 12 finished CTA #5 (182470,0), 5 CTAs running
GPGPU-Sim uArch: core: 12, cta: 5 initialized @(182471,0)
GPGPU-Sim uArch: Shader 4 finished CTA #5 (182480,0), 5 CTAs running
GPGPU-Sim uArch: core:  4, cta: 5 initialized @(182481,0)
GPGPU-Sim uArch: Shader 5 finished CTA #5 (182484,0), 5 CTAs running
GPGPU-Sim uArch: core:  5, cta: 5 initialized @(182485,0)
GPGPU-Sim PTX: 12400000 instructions simulated : ctaid=(181,0,0) tid=(95,0,0)
GPGPU-Sim PTX: 12500000 instructions simulated : ctaid=(187,0,0) tid=(63,0,0)
GPGPU-Sim uArch: cycles simulated: 184000  inst.: 12380160 (ipc=67.3) sim_rate=121374 (inst/sec) elapsed = 0:0:01:42 / Tue Mar 22 12:41:41 2016
GPGPU-Sim PTX: 12600000 instructions simulated : ctaid=(194,0,0) tid=(31,0,0)
GPGPU-Sim uArch: Shader 7 finished CTA #0 (185342,0), 5 CTAs running
GPGPU-Sim uArch: core:  7, cta: 0 initialized @(185343,0)
GPGPU-Sim uArch: cycles simulated: 185500  inst.: 12484192 (ipc=67.3) sim_rate=121205 (inst/sec) elapsed = 0:0:01:43 / Tue Mar 22 12:41:42 2016
GPGPU-Sim PTX: 12700000 instructions simulated : ctaid=(190,0,0) tid=(127,0,0)
GPGPU-Sim uArch: cycles simulated: 187500  inst.: 12645248 (ipc=67.4) sim_rate=121588 (inst/sec) elapsed = 0:0:01:44 / Tue Mar 22 12:41:43 2016
GPGPU-Sim PTX: 12800000 instructions simulated : ctaid=(189,0,0) tid=(95,0,0)
GPGPU-Sim uArch: cycles simulated: 189000  inst.: 12740352 (ipc=67.4) sim_rate=121336 (inst/sec) elapsed = 0:0:01:45 / Tue Mar 22 12:41:44 2016
GPGPU-Sim PTX: 12900000 instructions simulated : ctaid=(191,0,0) tid=(159,0,0)
GPGPU-Sim PTX: 13000000 instructions simulated : ctaid=(183,0,0) tid=(255,0,0)
GPGPU-Sim uArch: cycles simulated: 191000  inst.: 12909312 (ipc=67.6) sim_rate=121785 (inst/sec) elapsed = 0:0:01:46 / Tue Mar 22 12:41:45 2016
GPGPU-Sim PTX: 13100000 instructions simulated : ctaid=(195,0,0) tid=(95,0,0)
GPGPU-Sim uArch: Shader 9 finished CTA #0 (192074,0), 5 CTAs running
GPGPU-Sim uArch: core:  9, cta: 0 initialized @(192075,0)
GPGPU-Sim uArch: cycles simulated: 193000  inst.: 13026176 (ipc=67.5) sim_rate=121739 (inst/sec) elapsed = 0:0:01:47 / Tue Mar 22 12:41:46 2016
GPGPU-Sim PTX: 13200000 instructions simulated : ctaid=(184,0,0) tid=(255,0,0)
GPGPU-Sim uArch: Shader 8 finished CTA #0 (194092,0), 5 CTAs running
GPGPU-Sim uArch: core:  8, cta: 0 initialized @(194093,0)
GPGPU-Sim PTX: 13300000 instructions simulated : ctaid=(191,0,0) tid=(223,0,0)
GPGPU-Sim uArch: Shader 10 finished CTA #0 (194511,0), 5 CTAs running
GPGPU-Sim uArch: core: 10, cta: 0 initialized @(194512,0)
GPGPU-Sim uArch: cycles simulated: 195000  inst.: 13219808 (ipc=67.8) sim_rate=122405 (inst/sec) elapsed = 0:0:01:48 / Tue Mar 22 12:41:47 2016
GPGPU-Sim uArch: Shader 1 finished CTA #0 (195123,0), 5 CTAs running
GPGPU-Sim uArch: core:  1, cta: 0 initialized @(195124,0)
GPGPU-Sim uArch: Shader 2 finished CTA #0 (195301,0), 5 CTAs running
GPGPU-Sim uArch: core:  2, cta: 0 initialized @(195302,0)
GPGPU-Sim uArch: Shader 11 finished CTA #0 (195356,0), 5 CTAs running
GPGPU-Sim uArch: core: 11, cta: 0 initialized @(195357,0)
GPGPU-Sim uArch: Shader 0 finished CTA #0 (195432,0), 5 CTAs running
GPGPU-Sim uArch: core:  0, cta: 0 initialized @(195433,0)
GPGPU-Sim uArch: Shader 14 finished CTA #0 (195608,0), 5 CTAs running
GPGPU-Sim uArch: core: 14, cta: 0 initialized @(195609,0)
GPGPU-Sim PTX: 13400000 instructions simulated : ctaid=(200,0,0) tid=(63,0,0)
GPGPU-Sim uArch: Shader 12 finished CTA #0 (195702,0), 5 CTAs running
GPGPU-Sim uArch: core: 12, cta: 0 initialized @(195703,0)
GPGPU-Sim uArch: Shader 3 finished CTA #0 (195802,0), 5 CTAs running
GPGPU-Sim uArch: core:  3, cta: 0 initialized @(195803,0)
GPGPU-Sim uArch: Shader 5 finished CTA #0 (195877,0), 5 CTAs running
GPGPU-Sim uArch: core:  5, cta: 0 initialized @(195878,0)
GPGPU-Sim uArch: Shader 13 finished CTA #0 (195929,0), 5 CTAs running
GPGPU-Sim uArch: core: 13, cta: 0 initialized @(195930,0)
GPGPU-Sim uArch: Shader 6 finished CTA #0 (195960,0), 5 CTAs running
GPGPU-Sim uArch: core:  6, cta: 0 initialized @(195961,0)
GPGPU-Sim uArch: Shader 4 finished CTA #0 (196032,0), 5 CTAs running
GPGPU-Sim uArch: core:  4, cta: 0 initialized @(196033,0)
GPGPU-Sim uArch: cycles simulated: 197000  inst.: 13339392 (ipc=67.7) sim_rate=122379 (inst/sec) elapsed = 0:0:01:49 / Tue Mar 22 12:41:48 2016
GPGPU-Sim PTX: 13500000 instructions simulated : ctaid=(199,0,0) tid=(63,0,0)
GPGPU-Sim PTX: 13600000 instructions simulated : ctaid=(208,0,0) tid=(127,0,0)
GPGPU-Sim uArch: cycles simulated: 198500  inst.: 13482048 (ipc=67.9) sim_rate=122564 (inst/sec) elapsed = 0:0:01:50 / Tue Mar 22 12:41:49 2016
GPGPU-Sim uArch: Shader 7 finished CTA #1 (198951,0), 5 CTAs running
GPGPU-Sim uArch: core:  7, cta: 1 initialized @(198952,0)
GPGPU-Sim PTX: 13700000 instructions simulated : ctaid=(198,0,0) tid=(95,0,0)
[...]
traffic_breakdown_coretomem[INST_ACC_R] = 840 {8:105,}
traffic_breakdown_coretomem[TEXTURE_ACC_R] = 8704000 {8:1088000,}
traffic_breakdown_memtocore[CONST_ACC_R] = 12960 {72:180,}
traffic_breakdown_memtocore[GLOBAL_ACC_R] = 29610192 {136:217722,}
traffic_breakdown_memtocore[GLOBAL_ACC_W] = 1792000 {8:224000,}
traffic_breakdown_memtocore[INST_ACC_R] = 14280 {136:105,}
traffic_breakdown_memtocore[TEXTURE_ACC_R] = 147968000 {136:1088000,}
maxmrqlatency = 940 
maxdqlatency = 0 
maxmflatency = 1846 
averagemflatency = 222 
max_icnt2mem_latency = 957 
max_icnt2sh_latency = 9449108 
mrq_lat_table:371436 	60822 	263190 	581244 	268738 	97605 	68217 	34350 	7778 	234 	0 	0 	0 	0 	0 	0 	0 	0 	0 	0 	0 	0 	0 	0 	0 	0 	0 	0 	0 	0 	0 	0 	
dq_lat_table:0 	0 	0 	0 	0 	0 	0 	0 	0 	0 	0 	0 	0 	0 	0 	0 	0 	0 	0 	0 	0 	0 	0 	0 	0 	0 	0 	0 	0 	0 	0 	0 	
mf_lat_table:0 	0 	0 	0 	0 	0 	0 	1105964 	352310 	69933 	1695 	0 	0 	0 	0 	0 	0 	0 	0 	0 	0 	0 	0 	0 	0 	0 	0 	0 	0 	0 	0 	0 	
icnt2mem_lat_table:0 	0 	0 	1326322 	80104 	51318 	33316 	23249 	14299 	1399 	0 	0 	0 	0 	0 	0 	0 	0 	0 	0 	0 	0 	0 	0 	
icnt2sh_lat_table:0 	0 	0 	432365 	783570 	73583 	16056 	328 	0 	0 	2 	447 	943 	2025 	4240 	8870 	18056 	39123 	79954 	64150 	780 	1560 	3120 	730 	
mf_lat_pw_table:0 	0 	0 	0 	0 	0 	0 	17412 	1366 	117 	1 	0 	0 	0 	0 	0 	0 	0 	0 	0 	0 	0 	0 	0 	0 	0 	0 	0 	0 	0 	0 	0 	
maximum concurrent accesses to same row:
dram[0]:        26        24        26        22        26        24        26        30        22        26        26        22        26        28        26        26 
dram[1]:        22        32        22        28        20        29        22        32        20        29        20        28        22        30        22        32 
dram[2]:        24        26        24        24        22        26        26        26        24        26        26        24        24        24        26        26 
dram[3]:        32        20        32        20        25        20        32        22        27        21        28        20        30        22        32        20 
dram[4]:        26        24        26        26        26        22        26        26        26        22        24        22        24        26        26        26 
dram[5]:        20        32        20        28        20        26        22        28        22        28        20        29        24        29        20        32 
maximum service time to same row:
dram[0]:    126012    125816    126003    125823    126003    126010    126014    125810    125813    125824    126003    126011    126014    125823    126002    126011 
dram[1]:    126038    125994    126003    125823    126003    126010    126014    125810    125813    125823    126003    126010    126013    125823    126002    126012 
dram[2]:    126219    125809    126003    125822    126003    126010    126015    125809    125815    125822    126003    126010    126013    125823    126002    126012 
dram[3]:    126397    125965    126003    125821    126003    126010    126015    125809    125815    125822    126003    126010    126013    125822    126002    126012 
dram[4]:    125812    126146    125822    125820    126011    126009    125811    125809    125822    125822    126010    126010    125823    125822    126012    126012 
dram[5]:    125811    126324    125823    125820    126011    126009    125811    125808    125822    125820    126011    126010    125823    125822    126011    126012 
average row accesses per activate:
dram[0]:  5.560430  5.592101  5.586249  5.617520  5.572082  5.609696  5.582190  5.536600  5.519904  5.614724  5.583893  5.528239  5.628536  5.600979  5.602694  5.632000 
dram[1]:  5.504707  5.660213  5.613819  5.569419  5.500000  5.635635  5.533253  5.577087  5.503307  5.604409  5.602694  5.561835  5.550030  5.645897  5.679181  5.563526 
dram[2]:  5.536958  5.637835  5.564048  5.502115  5.575480  5.589728  5.560146  5.431454  5.570298  5.521569  5.534926  5.386698  5.666873  5.645897  5.577087  5.458992 
dram[3]:  5.596480  5.667814  5.589681  5.533880  5.563603  5.634515  5.544986  5.457365  5.592423  5.595842  5.500000  5.500000  5.611281  5.680943  5.625077  5.538275 
dram[4]:  5.582076  5.717892  5.566015  5.591649  5.630428  5.605150  5.439525  5.519904  5.578787  5.663366  5.488456  5.565217  5.570298  5.668628  5.531580  5.531580 
dram[5]:  5.559509  5.716088  5.626197  5.615788  5.536644  5.674736  5.526570  5.573690  5.516576  5.640678  5.560146  5.600979  5.580488  5.679181  5.589008  5.590715 
average row locality = 1753614/314412 = 5.577440
number of total memory accesses made:
dram[0]:         0         0         0         0         0         0         0         0         0         0         0         0         0         0         0         0 
dram[1]:         0         0         0         0         0         0         0         0         0         0         0         0         0         0         0         0 
dram[2]:         0         0         0         0         0         0         0         0         0         0         0         0         0         0         0         0 
dram[3]:         0         0         0         0         0         0         0         0         0         0         0         0         0         0         0         0 
dram[4]:         0         0         0         0         0         0         0         0         0         0         0         0         0         0         0         0 
dram[5]:         0         0         0         0         0         0         0         0         0         0         0         0         0         0         0         0 
total accesses: 0
min_bank_accesses = 0!
min_chip_accesses = 0!
number of total read accesses:
dram[0]:     15801     15798     15876     15886     15946     15946     15968     15968     15968     15968     15968     15968     15968     15968     15968     15968 
dram[1]:     15801     15798     15876     15886     15946     15946     15968     15968     15968     15968     15968     15968     15968     15968     15968     15968 
dram[2]:     15802     15796     15876     15886     15946     15948     15968     15968     15968     15968     15968     15968     15968     15968     15968     15968 
dram[3]:     15801     15796     15876     15886     15946     15948     15968     15968     15968     15968     15968     15968     15968     15968     15968     15968 
dram[4]:     15799     15796     15886     15886     15946     15948     15968     15968     15968     15968     15968     15968     15968     15968     15968     15968 
dram[5]:     15798     15796     15886     15886     15946     15948     15968     15968     15968     15968     15968     15968     15968     15968     15968     15968 
total reads: 1529614
bank skew: 15968/15796 = 1.01
chip skew: 254941/254933 = 1.00
number of total write accesses:
dram[0]:      2326      2326      2324      2326      2336      2336      2336      2336      2336      2336      2336      2336      2336      2336      2336      2336 
dram[1]:      2326      2326      2324      2326      2336      2336      2336      2336      2336      2336      2336      2336      2336      2336      2336      2336 
dram[2]:      2326      2324      2324      2326      2336      2336      2336      2336      2336      2336      2336      2336      2336      2336      2336      2336 
dram[3]:      2326      2324      2324      2326      2336      2336      2336      2336      2336      2336      2336      2336      2336      2336      2336      2336 
dram[4]:      2326      2324      2326      2326      2336      2336      2336      2336      2336      2336      2336      2336      2336      2336      2336      2336 
dram[5]:      2326      2324      2326      2326      2336      2336      2336      2336      2336      2336      2336      2336      2336      2336      2336      2336 
total reads: 224000
bank skew: 2336/2324 = 1.01
chip skew: 37334/37332 = 1.00
average mf latency per bank:
dram[0]:        194       193       193       193       194       194       195       196       195       193       195       196       197       195       196       195
dram[1]:        194       193       192       193       195       192       195       194       194       193       194       194       197       195       195       195
dram[2]:        193       193       192       192       194       193       195       194       194       194       193       194       196       196       194       195
dram[3]:        194       193       192       191       193       192       195       194       193       193       194       193       196       195       195       194
dram[4]:        194       192       193       192       194       193       195       194       194       193       194       194       196       195       196       195
dram[5]:        193       193       193       193       192       193       194       195       193       192       194       194       195       196       195       194
maximum mf latency per bank:
dram[0]:       1432      1268      1266      1278      1327      1276      1321      1154      1324      1327      1372      1224      1652      1664      1500      1404
dram[1]:       1481      1457      1181      1359      1380      1261      1210      1250      1423      1286      1473      1283      1695      1351      1423      1476
dram[2]:       1252      1599      1443      1294      1341      1413      1102      1180      1243      1379      1228      1291      1489      1688      1412      1310
dram[3]:       1306      1307      1408      1232      1180      1146      1190      1211      1317      1274      1314      1174      1369      1548      1436      1365
dram[4]:       1595      1327      1374      1242      1396      1198      1434      1195      1379      1338      1384      1252      1794      1356      1296      1304
dram[5]:       1178      1319      1200      1329      1294      1241      1181      1181      1317      1273      1293      1174      1846      1305      1294      1170

Number of Memory Banks Accessed per Memory Operation per Warp (from 0):
0	0	0	0	0	0	0	0	0	0	0	0	0	0	0	0	0	0	0	0	0	0	0	0	0	0	0	0	0	0	0	0	0	0	0	0	0	0	0	0	0	0	0	0	0	0	0	0	0	0	0	0	0	0	0	0	0	0	0	0	0	0	0	0	0	0	0	0	0	0	0	0	0	0	0	0	0	0	0	0	0	0	0	0	0	0	0	0	0	0	0	0	0	0	0	0	
Average # of Memory Banks Accessed per Memory Operation per Warp=-nan

position of mrq chosen
0	0	0	0	0	0	0	0	0	0	0	0	0	0	0	0	

average position of mrq chosen = -nan
Memory Partition 0: 
Cache L2_bank_000:
MSHR contents

Cache L2_bank_001:
MSHR contents

In Dram Latency Queue (total = 0): 
DRAM[0]: 16 bks, busW=4 BL=8 CL=12, tRRD=2 tCCD=6, tRCD=12 tRAS=28 tRP=12 tRC=40
n_cmd=12473536 n_nop=11784362 n_act=52328 n_pre=52312 n_req=292267 n_rd=509866 n_write=74668 bw_util=0.09372
n_activity=2653555 dram_eff=0.4406
bk0: 31602a 12195030i bk1: 31596a 12193147i bk2: 31752a 12189404i bk3: 31772a 12186496i bk4: 31892a 12179960i bk5: 31892a 12179356i bk6: 31936a 12176009i bk7: 31936a 12168818i bk8: 31936a 12188274i bk9: 31936a 12189390i bk10: 31936a 12185628i bk11: 31936a 12178907i bk12: 31936a 12178423i bk13: 31936a 12178220i bk14: 31936a 12176998i bk15: 31936a 12171159i 
dram_util_bins: 0 0 0 0 0 0 0 0 0 0
dram_eff_bins: 0 0 0 0 0 0 0 0 0 0
mrqq: max=16 avg=0.560827
Memory Partition 1: 
Cache L2_bank_002:
MSHR contents

Cache L2_bank_003:
MSHR contents

In Dram Latency Queue (total = 0): 
DRAM[1]: 16 bks, busW=4 BL=8 CL=12, tRRD=2 tCCD=6, tRCD=12 tRAS=28 tRP=12 tRC=40
n_cmd=12473536 n_nop=11784282 n_act=52368 n_pre=52352 n_req=292267 n_rd=509866 n_write=74668 bw_util=0.09372
n_activity=2655396 dram_eff=0.4403
bk0: 31602a 12192420i bk1: 31596a 12195182i bk2: 31752a 12191373i bk3: 31772a 12186167i bk4: 31892a 12180588i bk5: 31892a 12181205i bk6: 31936a 12175216i bk7: 31936a 12171338i bk8: 31936a 12189231i bk9: 31936a 12189848i bk10: 31936a 12185813i bk11: 31936a 12182707i bk12: 31936a 12178241i bk13: 31936a 12180624i bk14: 31936a 12176627i bk15: 31936a 12172179i 
dram_util_bins: 0 0 0 0 0 0 0 0 0 0
dram_eff_bins: 0 0 0 0 0 0 0 0 0 0
mrqq: max=16 avg=0.560011
Memory Partition 2: 
Cache L2_bank_004:
MSHR contents

Cache L2_bank_005:
MSHR contents

In Dram Latency Queue (total = 0): 
DRAM[2]: 16 bks, busW=4 BL=8 CL=12, tRRD=2 tCCD=6, tRCD=12 tRAS=28 tRP=12 tRC=40
n_cmd=12473536 n_nop=11783632 n_act=52694 n_pre=52678 n_req=292266 n_rd=509868 n_write=74664 bw_util=0.09372
n_activity=2658477 dram_eff=0.4397
bk0: 31604a 12192411i bk1: 31592a 12192322i bk2: 31752a 12188541i bk3: 31772a 12181715i bk4: 31892a 12179970i bk5: 31896a 12177938i bk6: 31936a 12173779i bk7: 31936a 12168915i bk8: 31936a 12188692i bk9: 31936a 12185098i bk10: 31936a 12184760i bk11: 31936a 12180839i bk12: 31936a 12177670i bk13: 31936a 12174458i bk14: 31936a 12176578i bk15: 31936a 12167970i 
dram_util_bins: 0 0 0 0 0 0 0 0 0 0
dram_eff_bins: 0 0 0 0 0 0 0 0 0 0
mrqq: max=16 avg=0.56178
Memory Partition 3: 
Cache L2_bank_006:
MSHR contents

Cache L2_bank_007:
MSHR contents

In Dram Latency Queue (total = 0): 
DRAM[3]: 16 bks, busW=4 BL=8 CL=12, tRRD=2 tCCD=6, tRCD=12 tRAS=28 tRP=12 tRC=40
n_cmd=12473536 n_nop=11784198 n_act=52412 n_pre=52396 n_req=292265 n_rd=509866 n_write=74664 bw_util=0.09372
n_activity=2656572 dram_eff=0.4401
bk0: 31602a 12197594i bk1: 31592a 12195134i bk2: 31752a 12189683i bk3: 31772a 12186503i bk4: 31892a 12184019i bk5: 31896a 12178179i bk6: 31936a 12174104i bk7: 31936a 12170462i bk8: 31936a 12191657i bk9: 31936a 12188132i bk10: 31936a 12185432i bk11: 31936a 12180603i bk12: 31936a 12179513i bk13: 31936a 12176088i bk14: 31936a 12176300i bk15: 31936a 12169363i 
dram_util_bins: 0 0 0 0 0 0 0 0 0 0
dram_eff_bins: 0 0 0 0 0 0 0 0 0 0
mrqq: max=16 avg=0.55842
Memory Partition 4: 
Cache L2_bank_008:
MSHR contents

Cache L2_bank_009:
MSHR contents

In Dram Latency Queue (total = 0): 
DRAM[4]: 16 bks, busW=4 BL=8 CL=12, tRRD=2 tCCD=6, tRCD=12 tRAS=28 tRP=12 tRC=40
n_cmd=12473536 n_nop=11784192 n_act=52405 n_pre=52389 n_req=292275 n_rd=509882 n_write=74668 bw_util=0.09373
n_activity=2658569 dram_eff=0.4397
bk0: 31598a 12194225i bk1: 31592a 12192239i bk2: 31772a 12185131i bk3: 31772a 12184854i bk4: 31892a 12182328i bk5: 31896a 12175460i bk6: 31936a 12171220i bk7: 31936a 12171380i bk8: 31936a 12191305i bk9: 31936a 12186930i bk10: 31936a 12180866i bk11: 31936a 12181170i bk12: 31936a 12178268i bk13: 31936a 12175442i bk14: 31936a 12173550i bk15: 31936a 12169556i 
dram_util_bins: 0 0 0 0 0 0 0 0 0 0
dram_eff_bins: 0 0 0 0 0 0 0 0 0 0
mrqq: max=16 avg=0.562979
Memory Partition 5: 
Cache L2_bank_010:
MSHR contents

Cache L2_bank_011:
MSHR contents

In Dram Latency Queue (total = 0): 
DRAM[5]: 16 bks, busW=4 BL=8 CL=12, tRRD=2 tCCD=6, tRCD=12 tRAS=28 tRP=12 tRC=40
n_cmd=12473536 n_nop=11784594 n_act=52205 n_pre=52189 n_req=292274 n_rd=509880 n_write=74668 bw_util=0.09373
n_activity=2655395 dram_eff=0.4403
bk0: 31596a 12195695i bk1: 31592a 12192218i bk2: 31772a 12190358i bk3: 31772a 12185416i bk4: 31892a 12183566i bk5: 31896a 12178241i bk6: 31936a 12172348i bk7: 31936a 12171504i bk8: 31936a 12192839i bk9: 31936a 12189405i bk10: 31936a 12184009i bk11: 31936a 12182756i bk12: 31936a 12181735i bk13: 31936a 12175329i bk14: 31936a 12171864i bk15: 31936a 12172696i 
dram_util_bins: 0 0 0 0 0 0 0 0 0 0
dram_eff_bins: 0 0 0 0 0 0 0 0 0 0
mrqq: max=16 avg=0.554212

========= L2 cache stats =========
L2_cache_bank[0]: Access = 127508, Miss = 127463, Miss_rate = 1.000, Pending_hits = 9, Reservation_fails = 19389
L2_cache_bank[1]: Access = 127474, Miss = 127470, Miss_rate = 1.000, Pending_hits = 0, Reservation_fails = 19006
L2_cache_bank[2]: Access = 127528, Miss = 127463, Miss_rate = 0.999, Pending_hits = 9, Reservation_fails = 19150
L2_cache_bank[3]: Access = 127497, Miss = 127470, Miss_rate = 1.000, Pending_hits = 0, Reservation_fails = 19986
L2_cache_bank[4]: Access = 127550, Miss = 127464, Miss_rate = 0.999, Pending_hits = 12, Reservation_fails = 20022
L2_cache_bank[5]: Access = 127476, Miss = 127470, Miss_rate = 1.000, Pending_hits = 0, Reservation_fails = 21314
L2_cache_bank[6]: Access = 127552, Miss = 127463, Miss_rate = 0.999, Pending_hits = 9, Reservation_fails = 19311
L2_cache_bank[7]: Access = 127483, Miss = 127470, Miss_rate = 1.000, Pending_hits = 0, Reservation_fails = 18718
L2_cache_bank[8]: Access = 127493, Miss = 127471, Miss_rate = 1.000, Pending_hits = 3, Reservation_fails = 20668
L2_cache_bank[9]: Access = 127471, Miss = 127470, Miss_rate = 1.000, Pending_hits = 0, Reservation_fails = 20763
L2_cache_bank[10]: Access = 127484, Miss = 127470, Miss_rate = 1.000, Pending_hits = 0, Reservation_fails = 18349
L2_cache_bank[11]: Access = 127491, Miss = 127470, Miss_rate = 1.000, Pending_hits = 0, Reservation_fails = 19817
L2_total_cache_accesses = 1530007
L2_total_cache_misses = 1529614
L2_total_cache_miss_rate = 0.9997
L2_total_cache_pending_hits = 42
L2_total_cache_reservation_fails = 236493
L2_total_cache_breakdown:
	L2_cache_stats_breakdown[GLOBAL_ACC_R][HIT] = 122
	L2_cache_stats_breakdown[GLOBAL_ACC_R][MISS] = 217600
	L2_cache_stats_breakdown[GLOBAL_ACC_R][RESERVATION_FAIL] = 115969
	L2_cache_stats_breakdown[CONST_ACC_R][HIT] = 152
	L2_cache_stats_breakdown[CONST_ACC_R][HIT_RESERVED] = 21
	L2_cache_stats_breakdown[CONST_ACC_R][MISS] = 7
	L2_cache_stats_breakdown[CONST_ACC_R][RESERVATION_FAIL] = 743
	L2_cache_stats_breakdown[TEXTURE_ACC_R][MISS] = 1088000
	L2_cache_stats_breakdown[GLOBAL_ACC_W][MISS] = 224000
	L2_cache_stats_breakdown[GLOBAL_ACC_W][RESERVATION_FAIL] = 119008
	L2_cache_stats_breakdown[INST_ACC_R][HIT] = 77
	L2_cache_stats_breakdown[INST_ACC_R][HIT_RESERVED] = 21
	L2_cache_stats_breakdown[INST_ACC_R][MISS] = 7
	L2_cache_stats_breakdown[INST_ACC_R][RESERVATION_FAIL] = 773
L2_cache_data_port_util = 0.000
L2_cache_fill_port_util = 0.054

icnt_total_pkts_mem_to_simt=6753675
icnt_total_pkts_simt_to_mem=2426007
LD_mem_lat_dist  0 0 0 0 0 0 0 0 0 0 0 0 0 0 0 0 0 0 0 0 0 0 0 0 0 0 0
ST_mem_lat_dist  0 0 0 0 0 0 0 0 0 0 0 0 0 0 0 0 0 0 0 0 0 0 0 0 0 0 0
----------------------------Interconnect-DETAILS--------------------------------
Class 0:
Packet latency average = 10.7315
	minimum = 6
	maximum = 34
Network latency average = 9.59747
	minimum = 6
	maximum = 34
Slowest packet = 870777
Flit latency average = 8.51971
	minimum = 6
	maximum = 34
Slowest flit = 2612275
Fragmentation average = 0
	minimum = 0
	maximum = 0
Injected packet rate average = 0.00931115
	minimum = 0.00832767 (at node 0)
	maximum = 0.0104825 (at node 19)
Accepted packet rate average = 0.00931115
	minimum = 0.00832767 (at node 0)
	maximum = 0.0104825 (at node 19)
Injected flit rate average = 0.027932
	minimum = 0.00852243 (at node 0)
	maximum = 0.0521536 (at node 19)
Accepted flit rate average= 0.027932
	minimum = 0.0107175 (at node 15)
	maximum = 0.0422229 (at node 1)
Injected packet length average = 2.99985
Accepted packet length average = 2.99985
Total in-flight flits = 0 (0 measured)
====== Overall Traffic Statistics ======
====== Traffic class 0 ======
Packet latency average = 18.3601 (2 samples)
	minimum = 6 (2 samples)
	maximum = 279 (2 samples)
Network latency average = 14.4098 (2 samples)
	minimum = 6 (2 samples)
	maximum = 222.5 (2 samples)
Flit latency average = 12.2265 (2 samples)
	minimum = 6 (2 samples)
	maximum = 222.5 (2 samples)
Fragmentation average = 0.0317767 (2 samples)
	minimum = 0 (2 samples)
	maximum = 153 (2 samples)
Injected packet rate average = 0.0264038 (2 samples)
	minimum = 0.0236115 (2 samples)
	maximum = 0.0297297 (2 samples)
Accepted packet rate average = 0.0264038 (2 samples)
	minimum = 0.0236115 (2 samples)
	maximum = 0.0297297 (2 samples)
Injected flit rate average = 0.0792098 (2 samples)
	minimum = 0.0625946 (2 samples)
	maximum = 0.0995892 (2 samples)
Accepted flit rate average = 0.0792098 (2 samples)
	minimum = 0.0637097 (2 samples)
	maximum = 0.0945092 (2 samples)
Injected packet size average = 2.99995 (2 samples)
Accepted packet size average = 2.99995 (2 samples)
Hops average = 1 (2 samples)
