

        *** GPGPU-Sim Simulator Version 3.2.2  [build 0] ***


GPGPU-Sim PTX: simulation mode 0 (can change with PTX_SIM_MODE_FUNC environment variable:
               1=functional simulation only, 0=detailed performance simulator)
GPGPU-Sim: Configuration options:

-network_mode                           1 # Interconnection network mode
-inter_config_file   config_fermi_islip.icnt # Interconnection network config file
-gpgpu_ptx_use_cuobjdump                    1 # Use cuobjdump to extract ptx and sass from binaries
-gpgpu_experimental_lib_support                    0 # Try to extract code from cuda libraries [Broken because of unknown cudaGetExportTable]
-gpgpu_ptx_convert_to_ptxplus                    0 # Convert SASS (native ISA) to ptxplus and run ptxplus
-gpgpu_ptx_force_max_capability                   20 # Force maximum compute capability
-gpgpu_ptx_inst_debug_to_file                    0 # Dump executed instructions' debug information to file
-gpgpu_ptx_inst_debug_file       inst_debug.txt # Executed instructions' debug output file
-gpgpu_ptx_inst_debug_thread_uid                    1 # Thread UID for executed instructions' debug output
-gpgpu_simd_model                       1 # 1 = post-dominator
-gpgpu_shader_core_pipeline              1536:32 # shader core pipeline config, i.e., {<nthread>:<warpsize>}
-gpgpu_tex_cache:l1  4:128:24,L:R:m:N:L,F:128:4,128:2 # per-shader L1 texture cache  (READ-ONLY) config  {<nsets>:<bsize>:<assoc>,<rep>:<wr>:<alloc>:<wr_alloc>,<mshr>:<N>:<merge>,<mq>:<rf>}
-gpgpu_const_cache:l1 64:64:2,L:R:f:N:L,A:2:32,4 # per-shader L1 constant memory cache  (READ-ONLY) config  {<nsets>:<bsize>:<assoc>,<rep>:<wr>:<alloc>:<wr_alloc>,<mshr>:<N>:<merge>,<mq>} 
-gpgpu_cache:il1     4:128:4,L:R:f:N:L,A:2:32,4 # shader L1 instruction cache config  {<nsets>:<bsize>:<assoc>,<rep>:<wr>:<alloc>:<wr_alloc>,<mshr>:<N>:<merge>,<mq>} 
-gpgpu_cache:dl1     32:128:4,L:L:m:N:H,A:32:8,8:2,0,1:0:1:1:0:1,1:4:8:16:32:64,/sciclone/data10/hwang07/GPU_RESEARCH/swl/swl_outputs/RESULTS/twolevel601/ # per-shader L1 data cache config  {<nsets>:<bsize>:<assoc>,<rep>:<wr>:<alloc>:<wr_alloc>,<mshr>:<N>:<merge>,<mq> | none}
-gpgpu_cache:dl1PrefL1                 none # per-shader L1 data cache config  {<nsets>:<bsize>:<assoc>,<rep>:<wr>:<alloc>:<wr_alloc>,<mshr>:<N>:<merge>,<mq> | none}
-gpgpu_cache:dl1PreShared                 none # per-shader L1 data cache config  {<nsets>:<bsize>:<assoc>,<rep>:<wr>:<alloc>:<wr_alloc>,<mshr>:<N>:<merge>,<mq> | none}
-gmem_skip_L1D                          0 # global memory access skip L1D cache (implements -Xptxas -dlcm=cg, default=no skip)
-gpgpu_perfect_mem                      0 # enable perfect memory mode (no cache miss)
-n_regfile_gating_group                    4 # group of lanes that should be read/written together)
-gpgpu_clock_gated_reg_file                    0 # enable clock gated reg file for power calculations
-gpgpu_clock_gated_lanes                    0 # enable clock gated lanes for power calculations
-gpgpu_shader_registers                32768 # Number of registers per shader core. Limits number of concurrent CTAs. (default 8192)
-gpgpu_shader_cta                       8 # Maximum number of concurrent CTAs in shader (default 8)
-gpgpu_num_cta_barriers                   16 # Maximum number of named barriers per CTA (default 16)
-gpgpu_n_clusters                      15 # number of processing clusters
-gpgpu_n_cores_per_cluster                    1 # number of simd cores per cluster
-gpgpu_n_cluster_ejection_buffer_size                    8 # number of packets in ejection buffer
-gpgpu_n_ldst_response_buffer_size                    2 # number of response packets in ld/st unit ejection buffer
-gpgpu_shmem_size                   16384 # Size of shared memory per shader core (default 16kB)
-gpgpu_shmem_size                   49152 # Size of shared memory per shader core (default 16kB)
-gpgpu_shmem_size_PrefL1                16384 # Size of shared memory per shader core (default 16kB)
-gpgpu_shmem_size_PrefShared                16384 # Size of shared memory per shader core (default 16kB)
-gpgpu_shmem_num_banks                   32 # Number of banks in the shared memory in each shader core (default 16)
-gpgpu_shmem_limited_broadcast                    0 # Limit shared memory to do one broadcast per cycle (default on)
-gpgpu_shmem_warp_parts                    1 # Number of portions a warp is divided into for shared memory bank conflict check 
-gpgpu_warpdistro_shader                   -1 # Specify which shader core to collect the warp size distribution from
-gpgpu_warp_issue_shader                    0 # Specify which shader core to collect the warp issue distribution from
-gpgpu_local_mem_map                    1 # Mapping from local memory space address to simulated GPU physical address space (default = enabled)
-gpgpu_num_reg_banks                   16 # Number of register banks (default = 8)
-gpgpu_reg_bank_use_warp_id                    0 # Use warp ID in mapping registers to banks (default = off)
-gpgpu_operand_collector_num_units_sp                    6 # number of collector units (default = 4)
-gpgpu_operand_collector_num_units_sfu                    8 # number of collector units (default = 4)
-gpgpu_operand_collector_num_units_mem                    2 # number of collector units (default = 2)
-gpgpu_operand_collector_num_units_gen                    0 # number of collector units (default = 0)
-gpgpu_operand_collector_num_in_ports_sp                    2 # number of collector unit in ports (default = 1)
-gpgpu_operand_collector_num_in_ports_sfu                    1 # number of collector unit in ports (default = 1)
-gpgpu_operand_collector_num_in_ports_mem                    1 # number of collector unit in ports (default = 1)
-gpgpu_operand_collector_num_in_ports_gen                    0 # number of collector unit in ports (default = 0)
-gpgpu_operand_collector_num_out_ports_sp                    2 # number of collector unit in ports (default = 1)
-gpgpu_operand_collector_num_out_ports_sfu                    1 # number of collector unit in ports (default = 1)
-gpgpu_operand_collector_num_out_ports_mem                    1 # number of collector unit in ports (default = 1)
-gpgpu_operand_collector_num_out_ports_gen                    0 # number of collector unit in ports (default = 0)
-gpgpu_coalesce_arch                   13 # Coalescing arch (default = 13, anything else is off for now)
-gpgpu_num_sched_per_core                    2 # Number of warp schedulers per core
-gpgpu_max_insn_issue_per_warp                    1 # Max number of instructions that can be issued per warp in one cycle by scheduler
-gpgpu_simt_core_sim_order                    1 # Select the simulation order of cores in a cluster (0=Fix, 1=Round-Robin)
-gpgpu_pipeline_widths        2,1,1,2,1,1,2 # Pipeline widths ID_OC_SP,ID_OC_SFU,ID_OC_MEM,OC_EX_SP,OC_EX_SFU,OC_EX_MEM,EX_WB
-gpgpu_num_sp_units                     2 # Number of SP units (default=1)
-gpgpu_num_sfu_units                    1 # Number of SF units (default=1)
-gpgpu_num_mem_units                    1 # Number if ldst units (default=1) WARNING: not hooked up to anything
-gpgpu_scheduler     two_level_active:6:0:1 # Scheduler configuration: < lrr | gto | two_level_active > If two_level_active:<num_active_warps>:<inner_prioritization>:<outer_prioritization>For complete list of prioritization values see shader.h enum scheduler_prioritization_typeDefault: gto
-gpgpu_dram_scheduler                    1 # 0 = fifo, 1 = FR-FCFS (defaul)
-gpgpu_dram_partition_queues              8:8:8:8 # i2$:$2d:d2$:$2i
-l2_ideal                               0 # Use a ideal L2 cache that always hit
-gpgpu_cache:dl2     64:128:8,L:B:m:W:L,A:32:4,4:0,32 # unified banked L2 data cache config  {<nsets>:<bsize>:<assoc>,<rep>:<wr>:<alloc>:<wr_alloc>,<mshr>:<N>:<merge>,<mq>}
-gpgpu_cache:dl2_texture_only                    0 # L2 cache used for texture only
-gpgpu_n_mem                            6 # number of memory modules (e.g. memory controllers) in gpu
-gpgpu_n_sub_partition_per_mchannel                    2 # number of memory subpartition in each memory module
-gpgpu_n_mem_per_ctrlr                    2 # number of memory chips per memory controller
-gpgpu_memlatency_stat                   14 # track and display latency statistics 0x2 enables MC, 0x4 enables queue logs
-gpgpu_frfcfs_dram_sched_queue_size                   16 # 0 = unlimited (default); # entries per chip
-gpgpu_dram_return_queue_size                  116 # 0 = unlimited (default); # entries per chip
-gpgpu_dram_buswidth                    4 # default = 4 bytes (8 bytes per cycle at DDR)
-gpgpu_dram_burst_length                    8 # Burst length of each DRAM request (default = 4 data bus cycle)
-dram_data_command_freq_ratio                    4 # Frequency ratio between DRAM data bus and command bus (default = 2 times, i.e. DDR)
-gpgpu_dram_timing_opt nbk=16:CCD=2:RRD=6:RCD=12:RAS=28:RP=12:RC=40: CL=12:WL=4:CDLR=5:WR=12:nbkgrp=4:CCDL=3:RTPL=2 # DRAM timing parameters = {nbk:tCCD:tRRD:tRCD:tRAS:tRP:tRC:CL:WL:tCDLR:tWR:nbkgrp:tCCDL:tRTPL}
-rop_latency                          120 # ROP queue latency (default 85)
-dram_latency                         100 # DRAM latency (default 30)
-gpgpu_mem_addr_mapping dramid@8;00000000.00000000.00000000.00000000.0000RRRR.RRRRRRRR.BBBCCCCB.CCSSSSSS # mapping memory address to dram model {dramid@<start bit>;<memory address map>}
-gpgpu_mem_addr_test                    0 # run sweep test to check address mapping for aliased address
-gpgpu_mem_address_mask                    1 # 0 = old addressing mask, 1 = new addressing mask, 2 = new add. mask + flipped bank sel and chip sel bits
-gpuwattch_xml_file  gpuwattch_gtx480.xml # GPUWattch XML file
-power_simulation_enabled                    0 # Turn on power simulator (1=On, 0=Off)
-power_per_cycle_dump                    0 # Dump detailed power output each cycle
-power_trace_enabled                    0 # produce a file for the power trace (1=On, 0=Off)
-power_trace_zlevel                     6 # Compression level of the power trace output log (0=no comp, 9=highest)
-steady_power_levels_enabled                    0 # produce a file for the steady power levels (1=On, 0=Off)
-steady_state_definition                  8:4 # allowed deviation:number of samples
-gpgpu_max_cycle                        0 # terminates gpu simulation early (0 = no limit)
-gpgpu_max_insn                         0 # terminates gpu simulation early (0 = no limit)
-gpgpu_max_cta                          0 # terminates gpu simulation early (0 = no limit)
-gpgpu_runtime_stat                   500 # display runtime statistics such as dram utilization {<freq>:<flag>}
-liveness_message_freq                    1 # Minimum number of seconds between simulation liveness messages (0 = always print)
-gpgpu_flush_l1_cache                    0 # Flush L1 cache at the end of each kernel call
-gpgpu_flush_l2_cache                    0 # Flush L2 cache at the end of each kernel call
-gpgpu_deadlock_detect                    1 # Stop the simulation at deadlock (1=on (default), 0=off)
-gpgpu_ptx_instruction_classification                    0 # if enabled will classify ptx instruction types per kernel (Max 255 kernels now)
-gpgpu_ptx_sim_mode                     0 # Select between Performance (default) or Functional simulation (1)
-gpgpu_clock_domains 700.0:700.0:700.0:924.0 # Clock Domain Frequencies in MhZ {<Core Clock>:<ICNT Clock>:<L2 Clock>:<DRAM Clock>}
-gpgpu_max_concurrent_kernel                    8 # maximum kernels that can run concurrently on GPU
-gpgpu_cflog_interval                    0 # Interval between each snapshot in control flow logger
-visualizer_enabled                     0 # Turn on visualizer output (1=On, 0=Off)
-visualizer_outputfile                 NULL # Specifies the output log file for visualizer
-visualizer_zlevel                      6 # Compression level of the visualizer output log (0=no comp, 9=highest)
-trace_enabled                          0 # Turn on traces
-trace_components                    none # comma seperated list of traces to enable. Complete list found in trace_streams.tup. Default none
-trace_sampling_core                    0 # The core which is printed using CORE_DPRINTF. Default 0
-trace_sampling_memory_partition                   -1 # The memory partition which is printed using MEMPART_DPRINTF. Default -1 (i.e. all)
-enable_ptx_file_line_stats                    1 # Turn on PTX source line statistic profiling. (1 = On)
-ptx_line_stats_filename gpgpu_inst_stats.txt # Output file for PTX source line statistics.
-save_embedded_ptx                      0 # saves ptx files embedded in binary as <n>.ptx
-keep                                   0 # keep intermediate files created by GPGPU-Sim when interfacing with external programs
-gpgpu_ptx_save_converted_ptxplus                    0 # Saved converted ptxplus to a file
-ptx_opcode_latency_int         4,13,4,5,145 # Opcode latencies for integers <ADD,MAX,MUL,MAD,DIV>Default 1,1,19,25,145
-ptx_opcode_latency_fp          4,13,4,5,39 # Opcode latencies for single precision floating points <ADD,MAX,MUL,MAD,DIV>Default 1,1,1,1,30
-ptx_opcode_latency_dp         8,19,8,8,330 # Opcode latencies for double precision floating points <ADD,MAX,MUL,MAD,DIV>Default 8,8,8,8,335
-ptx_opcode_initiation_int            1,2,2,1,8 # Opcode initiation intervals for integers <ADD,MAX,MUL,MAD,DIV>Default 1,1,4,4,32
-ptx_opcode_initiation_fp            1,2,1,1,4 # Opcode initiation intervals for single precision floating points <ADD,MAX,MUL,MAD,DIV>Default 1,1,1,1,5
-ptx_opcode_initiation_dp         8,16,8,8,130 # Opcode initiation intervals for double precision floating points <ADD,MAX,MUL,MAD,DIV>Default 8,8,8,8,130
DRAM Timing Options:
nbk                                    16 # number of banks
CCD                                     2 # column to column delay
RRD                                     6 # minimal delay between activation of rows in different banks
RCD                                    12 # row to column delay
RAS                                    28 # time needed to activate row
RP                                     12 # time needed to precharge (deactivate) row
RC                                     40 # row cycle time
CDLR                                    5 # switching from write to read (changes tWTR)
WR                                     12 # last data-in to row precharge
CL                                     12 # CAS latency
WL                                      4 # Write latency
nbkgrp                                  4 # number of bank groups
CCDL                                    3 # column to column delay between accesses to different bank groups
RTPL                                    2 # read to precharge delay between accesses to different bank groups
Total number of memory sub partition = 12
addr_dec_mask[CHIP]  = 0000000000000000 	high:64 low:0
addr_dec_mask[BK]    = 000000000000e100 	high:16 low:8
addr_dec_mask[ROW]   = 000000000fff0000 	high:28 low:16
addr_dec_mask[COL]   = 0000000000001eff 	high:13 low:0
addr_dec_mask[BURST] = 000000000000003f 	high:6 low:0
sub_partition_id_mask = 0000000000000100
GPGPU-Sim uArch: clock freqs: 700000000.000000:700000000.000000:700000000.000000:924000000.000000
GPGPU-Sim uArch: clock periods: 0.00000000142857142857:0.00000000142857142857:0.00000000142857142857:0.00000000108225108225
*** Initializing Memory Statistics ***
GPGPU-Sim uArch: interconnect node map (shaderID+MemID to icntID)
GPGPU-Sim uArch: Memory nodes ID start from index: 15
GPGPU-Sim uArch:    0   1   2   3   4
GPGPU-Sim uArch:    5   6   7   8   9
GPGPU-Sim uArch:   10  11  12  13  14
GPGPU-Sim uArch:   15  16  17  18  19
GPGPU-Sim uArch:   20  21  22  23  24
GPGPU-Sim uArch:   25  26
GPGPU-Sim uArch: interconnect node reverse map (icntID to shaderID+MemID)
GPGPU-Sim uArch: Memory nodes start from ID: 15
GPGPU-Sim uArch:    0   1   2   3   4
GPGPU-Sim uArch:    5   6   7   8   9
GPGPU-Sim uArch:   10  11  12  13  14
GPGPU-Sim uArch:   15  16  17  18  19
GPGPU-Sim uArch:   20  21  22  23  24
GPGPU-Sim uArch:   25  26
a694f6f961931330989587dbd586e872  /sciclone/data10/hwang07/adwait/applications/benchmarks/CUDA/KMN/gpgpu_ptx_sim__KMN
GPGPU-Sim uArch: performance model initialization complete.
GPGPU-Sim PTX: __cudaRegisterFatBinary, fat_cubin_handle = 1, filename=kmeans_cuda.cu
self exe links to: /sciclone/data10/hwang07/adwait/applications/benchmarks/CUDA/KMN/gpgpu_ptx_sim__KMN
Running md5sum using "md5sum /sciclone/data10/hwang07/adwait/applications/benchmarks/CUDA/KMN/gpgpu_ptx_sim__KMN "
Parsing file _cuobjdump_complete_output_ijdKTA
######### cuobjdump parser ########
## Adding new section ELF
Adding arch: sm_20
Adding identifier: kmeans_cuda.cu
## Adding new section PTX
Adding ptx filename: _cuobjdump_1.ptx
Adding arch: sm_20
Adding identifier: kmeans_cuda.cu
Done parsing!!!
GPGPU-Sim PTX: __cudaRegisterFunction _Z11kmeansPointPfiiiPiS_S_S0_ : hostFun 0x0x402a5e, fat_cubin_handle = 1
GPGPU-Sim PTX: instruction assembly for function '_Z14invert_mappingPfS_ii'...   done.
GPGPU-Sim PTX: finding reconvergence points for '_Z14invert_mappingPfS_ii'...
GPGPU-Sim PTX: Finding dominators for '_Z14invert_mappingPfS_ii'...
GPGPU-Sim PTX: Finding immediate dominators for '_Z14invert_mappingPfS_ii'...
GPGPU-Sim PTX: Finding postdominators for '_Z14invert_mappingPfS_ii'...
GPGPU-Sim PTX: Finding immediate postdominators for '_Z14invert_mappingPfS_ii'...
GPGPU-Sim PTX: pre-decoding instructions for '_Z14invert_mappingPfS_ii'...
GPGPU-Sim PTX: reconvergence points for _Z14invert_mappingPfS_ii...
GPGPU-Sim PTX:  1 (potential) branch divergence @  PC=0x038 (_1.ptx:70) @%p1 bra $Lt_0_2050;
GPGPU-Sim PTX:    immediate post dominator      @  PC=0x110 (_1.ptx:103) exit;
GPGPU-Sim PTX:  2 (potential) branch divergence @  PC=0x058 (_1.ptx:74) @%p2 bra $Lt_0_2562;
GPGPU-Sim PTX:    immediate post dominator      @  PC=0x110 (_1.ptx:103) exit;
GPGPU-Sim PTX:  3 (potential) branch divergence @  PC=0x108 (_1.ptx:99) @%p3 bra $Lt_0_3074;
GPGPU-Sim PTX:    immediate post dominator      @  PC=0x110 (_1.ptx:103) exit;
GPGPU-Sim PTX: ... end of reconvergence points for _Z14invert_mappingPfS_ii
GPGPU-Sim PTX: ... done pre-decoding instructions for '_Z14invert_mappingPfS_ii'.
GPGPU-Sim PTX: instruction assembly for function '_Z11kmeansPointPfiiiPiS_S_S0_'...   done.
GPGPU-Sim PTX: finding reconvergence points for '_Z11kmeansPointPfiiiPiS_S_S0_'...
GPGPU-Sim PTX: Finding dominators for '_Z11kmeansPointPfiiiPiS_S_S0_'...
GPGPU-Sim PTX: Finding immediate dominators for '_Z11kmeansPointPfiiiPiS_S_S0_'...
GPGPU-Sim PTX: Finding postdominators for '_Z11kmeansPointPfiiiPiS_S_S0_'...
GPGPU-Sim PTX: Finding immediate postdominators for '_Z11kmeansPointPfiiiPiS_S_S0_'...
GPGPU-Sim PTX: pre-decoding instructions for '_Z11kmeansPointPfiiiPiS_S_S0_'...
GPGPU-Sim PTX: reconvergence points for _Z11kmeansPointPfiiiPiS_S_S0_...
GPGPU-Sim PTX:  1 (potential) branch divergence @  PC=0x180 (_1.ptx:136) @!%p1 bra $Lt_1_4866;
GPGPU-Sim PTX:    immediate post dominator      @  PC=0x320 (_1.ptx:202) @!%p1 bra $Lt_1_7682;
GPGPU-Sim PTX:  2 (potential) branch divergence @  PC=0x1a0 (_1.ptx:140) @%p2 bra $Lt_1_8194;
GPGPU-Sim PTX:    immediate post dominator      @  PC=0x320 (_1.ptx:202) @!%p1 bra $Lt_1_7682;
GPGPU-Sim PTX:  3 (potential) branch divergence @  PC=0x1e8 (_1.ptx:151) @!%p3 bra $Lt_1_8450;
GPGPU-Sim PTX:    immediate post dominator      @  PC=0x2c8 (_1.ptx:185) setp.lt.f32 %p5, %f2, %f1;
GPGPU-Sim PTX:  4 (potential) branch divergence @  PC=0x2b0 (_1.ptx:180) @%p4 bra $Lt_1_6402;
GPGPU-Sim PTX:    immediate post dominator      @  PC=0x2b8 (_1.ptx:181) bra.uni $Lt_1_5890;
GPGPU-Sim PTX:  5 (potential) branch divergence @  PC=0x2b8 (_1.ptx:181) bra.uni $Lt_1_5890;
GPGPU-Sim PTX:    immediate post dominator      @  PC=0x2c8 (_1.ptx:185) setp.lt.f32 %p5, %f2, %f1;
GPGPU-Sim PTX:  6 (potential) branch divergence @  PC=0x2d0 (_1.ptx:186) @!%p5 bra $Lt_1_6914;
GPGPU-Sim PTX:    immediate post dominator      @  PC=0x2e8 (_1.ptx:192) add.s32 %r18, %r18, 1;
GPGPU-Sim PTX:  7 (potential) branch divergence @  PC=0x2f8 (_1.ptx:194) @%p6 bra $Lt_1_5634;
GPGPU-Sim PTX:    immediate post dominator      @  PC=0x300 (_1.ptx:195) bra.uni $Lt_1_4610;
GPGPU-Sim PTX:  8 (potential) branch divergence @  PC=0x300 (_1.ptx:195) bra.uni $Lt_1_4610;
GPGPU-Sim PTX:    immediate post dominator      @  PC=0x320 (_1.ptx:202) @!%p1 bra $Lt_1_7682;
GPGPU-Sim PTX:  9 (potential) branch divergence @  PC=0x310 (_1.ptx:198) bra.uni $Lt_1_4610;
GPGPU-Sim PTX:    immediate post dominator      @  PC=0x320 (_1.ptx:202) @!%p1 bra $Lt_1_7682;
GPGPU-Sim PTX: 10 (potential) branch divergence @  PC=0x320 (_1.ptx:202) @!%p1 bra $Lt_1_7682;
GPGPU-Sim PTX:    immediate post dominator      @  PC=0x350 (_1.ptx:211) exit;
GPGPU-Sim PTX: ... end of reconvergence points for _Z11kmeansPointPfiiiPiS_S_S0_
GPGPU-Sim PTX: ... done pre-decoding instructions for '_Z11kmeansPointPfiiiPiS_S_S0_'.
GPGPU-Sim PTX: allocating global region for "t_features" from 0x100 to 0x104 (global memory space)
GPGPU-Sim PTX: allocating global region for "t_features_flipped" from 0x104 to 0x108 (global memory space)
GPGPU-Sim PTX: allocating global region for "t_clusters" from 0x108 to 0x10c (global memory space)
GPGPU-Sim PTX: finished parsing EMBEDDED .ptx file _1.ptx
Adding _cuobjdump_1.ptx with cubin handle 1
GPGPU-Sim PTX: extracting embedded .ptx to temporary file "_ptx_FLhR9d"
Running: cat _ptx_FLhR9d | sed 's/.version 1.5/.version 1.4/' | sed 's/, texmode_independent//' | sed 's/\(\.extern \.const\[1\] .b8 \w\+\)\[\]/\1\[1\]/' | sed 's/const\[.\]/const\[0\]/g' > _ptx2_noF0MR
GPGPU-Sim PTX: generating ptxinfo using "$CUDA_INSTALL_PATH/bin/ptxas --gpu-name=sm_20 -v _ptx2_noF0MR --output-file  /dev/null 2> _ptx_FLhR9dinfo"
GPGPU-Sim PTX: Kernel '_Z11kmeansPointPfiiiPiS_S_S0_' : regs=15, lmem=0, smem=0, cmem=88
GPGPU-Sim PTX: Kernel '_Z14invert_mappingPfS_ii' : regs=10, lmem=0, smem=0, cmem=56
GPGPU-Sim PTX: removing ptxinfo using "rm -f _ptx_FLhR9d _ptx2_noF0MR _ptx_FLhR9dinfo"
GPGPU-Sim PTX: loading globals with explicit initializers... 
GPGPU-Sim PTX: finished loading globals (0 bytes total).
GPGPU-Sim PTX: loading constants with explicit initializers...  done.
GPGPU-Sim PTX: __cudaRegisterFunction _Z14invert_mappingPfS_ii : hostFun 0x0x4028ce, fat_cubin_handle = 1
GPGPU-Sim PTX: in __cudaRegisterTexture:
GPGPU-Sim PTX:   int dim = 1
GPGPU-Sim PTX:   int norm = 0
GPGPU-Sim PTX:   int ext = 0
GPGPU-Sim PTX:   Execution warning: Not finished implementing "void __cudaRegisterTexture(void**, const textureReference*, const void**, const char*, int, int, int)"
GPGPU-Sim PTX: in __cudaRegisterTexture:
GPGPU-Sim PTX:   int dim = 1
GPGPU-Sim PTX:   int norm = 0
GPGPU-Sim PTX:   int ext = 0
GPGPU-Sim PTX:   Execution warning: Not finished implementing "void __cudaRegisterTexture(void**, const textureReference*, const void**, const char*, int, int, int)"
GPGPU-Sim PTX: in __cudaRegisterTexture:
GPGPU-Sim PTX:   int dim = 1
GPGPU-Sim PTX:   int norm = 0
GPGPU-Sim PTX:   int ext = 0
GPGPU-Sim PTX:   Execution warning: Not finished implementing "void __cudaRegisterTexture(void**, const textureReference*, const void**, const char*, int, int, int)"

I/O completed

Number of objects: 28672
Number of features: 138

GPGPU-Sim PTX: cudaLaunch for 0x0x402a5e (mode=performance simulation) on stream 0
GPGPU-Sim PTX: pushing kernel '_Z11kmeansPointPfiiiPiS_S_S0_' to stream 0, gridDim= (11,11,1) blockDim = (256,1,1) 
kernel '_Z11kmeansPointPfiiiPiS_S_S0_' transfer to GPU hardware scheduler
GPGPU-Sim uArch: Shader 1 bind to kernel 1 '_Z11kmeansPointPfiiiPiS_S_S0_'
GPGPU-Sim uArch: CTA/core = 6, limited by: threads
GPGPU-Sim uArch: core:  1, cta: 0 initialized @(1,0)
GPGPU-Sim uArch: Shader 2 bind to kernel 1 '_Z11kmeansPointPfiiiPiS_S_S0_'
GPGPU-Sim uArch: core:  2, cta: 0 initialized @(1,0)
GPGPU-Sim uArch: Shader 3 bind to kernel 1 '_Z11kmeansPointPfiiiPiS_S_S0_'
GPGPU-Sim uArch: core:  3, cta: 0 initialized @(1,0)
GPGPU-Sim uArch: Shader 4 bind to kernel 1 '_Z11kmeansPointPfiiiPiS_S_S0_'
GPGPU-Sim uArch: core:  4, cta: 0 initialized @(1,0)
GPGPU-Sim uArch: Shader 5 bind to kernel 1 '_Z11kmeansPointPfiiiPiS_S_S0_'
GPGPU-Sim uArch: core:  5, cta: 0 initialized @(1,0)
GPGPU-Sim uArch: Shader 6 bind to kernel 1 '_Z11kmeansPointPfiiiPiS_S_S0_'
GPGPU-Sim uArch: core:  6, cta: 0 initialized @(1,0)
GPGPU-Sim uArch: Shader 7 bind to kernel 1 '_Z11kmeansPointPfiiiPiS_S_S0_'
GPGPU-Sim uArch: core:  7, cta: 0 initialized @(1,0)
GPGPU-Sim uArch: Shader 8 bind to kernel 1 '_Z11kmeansPointPfiiiPiS_S_S0_'
GPGPU-Sim uArch: core:  8, cta: 0 initialized @(1,0)
GPGPU-Sim uArch: Shader 9 bind to kernel 1 '_Z11kmeansPointPfiiiPiS_S_S0_'
GPGPU-Sim uArch: core:  9, cta: 0 initialized @(1,0)
GPGPU-Sim uArch: Shader 10 bind to kernel 1 '_Z11kmeansPointPfiiiPiS_S_S0_'
GPGPU-Sim uArch: core: 10, cta: 0 initialized @(1,0)
GPGPU-Sim uArch: Shader 11 bind to kernel 1 '_Z11kmeansPointPfiiiPiS_S_S0_'
GPGPU-Sim uArch: core: 11, cta: 0 initialized @(1,0)
GPGPU-Sim uArch: Shader 12 bind to kernel 1 '_Z11kmeansPointPfiiiPiS_S_S0_'
GPGPU-Sim uArch: core: 12, cta: 0 initialized @(1,0)
GPGPU-Sim uArch: Shader 13 bind to kernel 1 '_Z11kmeansPointPfiiiPiS_S_S0_'
GPGPU-Sim uArch: core: 13, cta: 0 initialized @(1,0)
GPGPU-Sim uArch: Shader 14 bind to kernel 1 '_Z11kmeansPointPfiiiPiS_S_S0_'
GPGPU-Sim uArch: core: 14, cta: 0 initialized @(1,0)
GPGPU-Sim uArch: Shader 0 bind to kernel 1 '_Z11kmeansPointPfiiiPiS_S_S0_'
GPGPU-Sim uArch: core:  0, cta: 0 initialized @(1,0)
GPGPU-Sim uArch: core:  1, cta: 1 initialized @(2,0)
GPGPU-Sim uArch: core:  2, cta: 1 initialized @(2,0)
GPGPU-Sim uArch: core:  3, cta: 1 initialized @(2,0)
GPGPU-Sim uArch: core:  4, cta: 1 initialized @(2,0)
GPGPU-Sim uArch: core:  5, cta: 1 initialized @(2,0)
GPGPU-Sim uArch: core:  6, cta: 1 initialized @(2,0)
GPGPU-Sim uArch: core:  7, cta: 1 initialized @(2,0)
GPGPU-Sim uArch: core:  8, cta: 1 initialized @(2,0)
GPGPU-Sim uArch: core:  9, cta: 1 initialized @(2,0)
GPGPU-Sim uArch: core: 10, cta: 1 initialized @(2,0)
GPGPU-Sim uArch: core: 11, cta: 1 initialized @(2,0)
GPGPU-Sim uArch: core: 12, cta: 1 initialized @(2,0)
GPGPU-Sim uArch: core: 13, cta: 1 initialized @(2,0)
GPGPU-Sim uArch: core: 14, cta: 1 initialized @(2,0)
GPGPU-Sim uArch: core:  0, cta: 1 initialized @(2,0)
GPGPU-Sim uArch: core:  1, cta: 2 initialized @(3,0)
GPGPU-Sim uArch: core:  2, cta: 2 initialized @(3,0)
GPGPU-Sim uArch: core:  3, cta: 2 initialized @(3,0)
GPGPU-Sim uArch: core:  4, cta: 2 initialized @(3,0)
GPGPU-Sim uArch: core:  5, cta: 2 initialized @(3,0)
GPGPU-Sim uArch: core:  6, cta: 2 initialized @(3,0)
GPGPU-Sim uArch: core:  7, cta: 2 initialized @(3,0)
GPGPU-Sim uArch: core:  8, cta: 2 initialized @(3,0)
GPGPU-Sim uArch: core:  9, cta: 2 initialized @(3,0)
GPGPU-Sim uArch: core: 10, cta: 2 initialized @(3,0)
GPGPU-Sim uArch: core: 11, cta: 2 initialized @(3,0)
GPGPU-Sim uArch: core: 12, cta: 2 initialized @(3,0)
GPGPU-Sim uArch: core: 13, cta: 2 initialized @(3,0)
GPGPU-Sim uArch: core: 14, cta: 2 initialized @(3,0)
GPGPU-Sim uArch: core:  0, cta: 2 initialized @(3,0)
GPGPU-Sim uArch: core:  1, cta: 3 initialized @(4,0)
GPGPU-Sim uArch: core:  2, cta: 3 initialized @(4,0)
GPGPU-Sim uArch: core:  3, cta: 3 initialized @(4,0)
GPGPU-Sim uArch: core:  4, cta: 3 initialized @(4,0)
GPGPU-Sim uArch: core:  5, cta: 3 initialized @(4,0)
GPGPU-Sim uArch: core:  6, cta: 3 initialized @(4,0)
GPGPU-Sim uArch: core:  7, cta: 3 initialized @(4,0)
GPGPU-Sim uArch: core:  8, cta: 3 initialized @(4,0)
GPGPU-Sim uArch: core:  9, cta: 3 initialized @(4,0)
GPGPU-Sim uArch: core: 10, cta: 3 initialized @(4,0)
GPGPU-Sim uArch: core: 11, cta: 3 initialized @(4,0)
GPGPU-Sim uArch: core: 12, cta: 3 initialized @(4,0)
GPGPU-Sim uArch: core: 13, cta: 3 initialized @(4,0)
GPGPU-Sim uArch: core: 14, cta: 3 initialized @(4,0)
GPGPU-Sim uArch: core:  0, cta: 3 initialized @(4,0)
GPGPU-Sim uArch: core:  1, cta: 4 initialized @(5,0)
GPGPU-Sim uArch: core:  2, cta: 4 initialized @(5,0)
GPGPU-Sim uArch: core:  3, cta: 4 initialized @(5,0)
GPGPU-Sim uArch: core:  4, cta: 4 initialized @(5,0)
GPGPU-Sim uArch: core:  5, cta: 4 initialized @(5,0)
GPGPU-Sim uArch: core:  6, cta: 4 initialized @(5,0)
GPGPU-Sim uArch: core:  7, cta: 4 initialized @(5,0)
GPGPU-Sim uArch: core:  8, cta: 4 initialized @(5,0)
GPGPU-Sim uArch: core:  9, cta: 4 initialized @(5,0)
GPGPU-Sim uArch: core: 10, cta: 4 initialized @(5,0)
GPGPU-Sim uArch: core: 11, cta: 4 initialized @(5,0)
GPGPU-Sim uArch: core: 12, cta: 4 initialized @(5,0)
GPGPU-Sim uArch: core: 13, cta: 4 initialized @(5,0)
GPGPU-Sim uArch: core: 14, cta: 4 initialized @(5,0)
GPGPU-Sim uArch: core:  0, cta: 4 initialized @(5,0)
GPGPU-Sim uArch: core:  1, cta: 5 initialized @(6,0)
GPGPU-Sim uArch: core:  2, cta: 5 initialized @(6,0)
GPGPU-Sim uArch: core:  3, cta: 5 initialized @(6,0)
GPGPU-Sim uArch: core:  4, cta: 5 initialized @(6,0)
GPGPU-Sim uArch: core:  5, cta: 5 initialized @(6,0)
GPGPU-Sim uArch: core:  6, cta: 5 initialized @(6,0)
GPGPU-Sim uArch: core:  7, cta: 5 initialized @(6,0)
GPGPU-Sim uArch: core:  8, cta: 5 initialized @(6,0)
GPGPU-Sim uArch: core:  9, cta: 5 initialized @(6,0)
GPGPU-Sim uArch: core: 10, cta: 5 initialized @(6,0)
GPGPU-Sim uArch: core: 11, cta: 5 initialized @(6,0)
GPGPU-Sim uArch: core: 12, cta: 5 initialized @(6,0)
GPGPU-Sim uArch: core: 13, cta: 5 initialized @(6,0)
GPGPU-Sim uArch: core: 14, cta: 5 initialized @(6,0)
GPGPU-Sim uArch: core:  0, cta: 5 initialized @(6,0)
GPGPU-Sim PTX: 100000 instructions simulated : ctaid=(8,1,0) tid=(255,0,0)
GPGPU-Sim uArch: cycles simulated: 500  inst.: 113536 (ipc=227.1) sim_rate=37845 (inst/sec) elapsed = 0:0:00:03 / Tue Mar 22 13:14:35 2016
GPGPU-Sim PTX: 200000 instructions simulated : ctaid=(9,6,0) tid=(95,0,0)
GPGPU-Sim PTX: 300000 instructions simulated : ctaid=(5,5,0) tid=(191,0,0)
GPGPU-Sim PTX: 400000 instructions simulated : ctaid=(7,5,0) tid=(95,0,0)
GPGPU-Sim uArch: cycles simulated: 1500  inst.: 438848 (ipc=292.6) sim_rate=54856 (inst/sec) elapsed = 0:0:00:08 / Tue Mar 22 13:14:40 2016
GPGPU-Sim uArch: cycles simulated: 3000  inst.: 442464 (ipc=147.5) sim_rate=49162 (inst/sec) elapsed = 0:0:00:09 / Tue Mar 22 13:14:41 2016
GPGPU-Sim uArch: cycles simulated: 5000  inst.: 461184 (ipc=92.2) sim_rate=46118 (inst/sec) elapsed = 0:0:00:10 / Tue Mar 22 13:14:42 2016
GPGPU-Sim PTX: 500000 instructions simulated : ctaid=(9,5,0) tid=(223,0,0)
GPGPU-Sim uArch: cycles simulated: 6500  inst.: 495744 (ipc=76.3) sim_rate=45067 (inst/sec) elapsed = 0:0:00:11 / Tue Mar 22 13:14:43 2016
GPGPU-Sim PTX: 600000 instructions simulated : ctaid=(6,2,0) tid=(159,0,0)
GPGPU-Sim uArch: cycles simulated: 8000  inst.: 589088 (ipc=73.6) sim_rate=49090 (inst/sec) elapsed = 0:0:00:12 / Tue Mar 22 13:14:44 2016
GPGPU-Sim PTX: 700000 instructions simulated : ctaid=(4,6,0) tid=(159,0,0)
GPGPU-Sim uArch: cycles simulated: 9500  inst.: 670528 (ipc=70.6) sim_rate=51579 (inst/sec) elapsed = 0:0:00:13 / Tue Mar 22 13:14:45 2016
GPGPU-Sim uArch: cycles simulated: 11000  inst.: 712512 (ipc=64.8) sim_rate=50893 (inst/sec) elapsed = 0:0:00:14 / Tue Mar 22 13:14:46 2016
GPGPU-Sim uArch: cycles simulated: 13000  inst.: 744320 (ipc=57.3) sim_rate=49621 (inst/sec) elapsed = 0:0:00:15 / Tue Mar 22 13:14:47 2016
GPGPU-Sim PTX: 800000 instructions simulated : ctaid=(10,0,0) tid=(223,0,0)
GPGPU-Sim uArch: cycles simulated: 14500  inst.: 771840 (ipc=53.2) sim_rate=48240 (inst/sec) elapsed = 0:0:00:16 / Tue Mar 22 13:14:48 2016
GPGPU-Sim uArch: cycles simulated: 16500  inst.: 807296 (ipc=48.9) sim_rate=47488 (inst/sec) elapsed = 0:0:00:17 / Tue Mar 22 13:14:49 2016
GPGPU-Sim uArch: cycles simulated: 18000  inst.: 830816 (ipc=46.2) sim_rate=46156 (inst/sec) elapsed = 0:0:00:18 / Tue Mar 22 13:14:50 2016
GPGPU-Sim PTX: 900000 instructions simulated : ctaid=(1,6,0) tid=(31,0,0)
GPGPU-Sim uArch: cycles simulated: 20000  inst.: 862464 (ipc=43.1) sim_rate=45392 (inst/sec) elapsed = 0:0:00:19 / Tue Mar 22 13:14:51 2016
GPGPU-Sim uArch: cycles simulated: 21500  inst.: 885344 (ipc=41.2) sim_rate=44267 (inst/sec) elapsed = 0:0:00:20 / Tue Mar 22 13:14:52 2016
GPGPU-Sim uArch: cycles simulated: 23000  inst.: 907584 (ipc=39.5) sim_rate=43218 (inst/sec) elapsed = 0:0:00:21 / Tue Mar 22 13:14:53 2016
GPGPU-Sim uArch: cycles simulated: 24500  inst.: 930816 (ipc=38.0) sim_rate=42309 (inst/sec) elapsed = 0:0:00:22 / Tue Mar 22 13:14:54 2016
GPGPU-Sim PTX: 1000000 instructions simulated : ctaid=(0,8,0) tid=(255,0,0)
GPGPU-Sim uArch: cycles simulated: 26000  inst.: 953248 (ipc=36.7) sim_rate=41445 (inst/sec) elapsed = 0:0:00:23 / Tue Mar 22 13:14:55 2016
GPGPU-Sim uArch: cycles simulated: 27500  inst.: 970272 (ipc=35.3) sim_rate=40428 (inst/sec) elapsed = 0:0:00:24 / Tue Mar 22 13:14:56 2016
GPGPU-Sim uArch: cycles simulated: 29000  inst.: 991712 (ipc=34.2) sim_rate=39668 (inst/sec) elapsed = 0:0:00:25 / Tue Mar 22 13:14:57 2016
GPGPU-Sim uArch: cycles simulated: 30500  inst.: 1008480 (ipc=33.1) sim_rate=38787 (inst/sec) elapsed = 0:0:00:26 / Tue Mar 22 13:14:58 2016
GPGPU-Sim uArch: cycles simulated: 32000  inst.: 1030016 (ipc=32.2) sim_rate=38148 (inst/sec) elapsed = 0:0:00:27 / Tue Mar 22 13:14:59 2016
GPGPU-Sim PTX: 1100000 instructions simulated : ctaid=(2,5,0) tid=(223,0,0)
GPGPU-Sim uArch: cycles simulated: 33500  inst.: 1049120 (ipc=31.3) sim_rate=37468 (inst/sec) elapsed = 0:0:00:28 / Tue Mar 22 13:15:00 2016
GPGPU-Sim uArch: cycles simulated: 35000  inst.: 1067904 (ipc=30.5) sim_rate=36824 (inst/sec) elapsed = 0:0:00:29 / Tue Mar 22 13:15:01 2016
GPGPU-Sim uArch: cycles simulated: 36500  inst.: 1086496 (ipc=29.8) sim_rate=36216 (inst/sec) elapsed = 0:0:00:30 / Tue Mar 22 13:15:02 2016
GPGPU-Sim uArch: cycles simulated: 38000  inst.: 1106240 (ipc=29.1) sim_rate=35685 (inst/sec) elapsed = 0:0:00:31 / Tue Mar 22 13:15:03 2016
GPGPU-Sim uArch: cycles simulated: 39500  inst.: 1123872 (ipc=28.5) sim_rate=35121 (inst/sec) elapsed = 0:0:00:32 / Tue Mar 22 13:15:04 2016
GPGPU-Sim uArch: cycles simulated: 41000  inst.: 1141216 (ipc=27.8) sim_rate=34582 (inst/sec) elapsed = 0:0:00:33 / Tue Mar 22 13:15:05 2016
GPGPU-Sim PTX: 1200000 instructions simulated : ctaid=(10,0,0) tid=(31,0,0)
GPGPU-Sim uArch: cycles simulated: 42500  inst.: 1161536 (ipc=27.3) sim_rate=34162 (inst/sec) elapsed = 0:0:00:34 / Tue Mar 22 13:15:06 2016
GPGPU-Sim uArch: cycles simulated: 44000  inst.: 1178208 (ipc=26.8) sim_rate=33663 (inst/sec) elapsed = 0:0:00:35 / Tue Mar 22 13:15:07 2016
GPGPU-Sim uArch: cycles simulated: 45500  inst.: 1196224 (ipc=26.3) sim_rate=33228 (inst/sec) elapsed = 0:0:00:36 / Tue Mar 22 13:15:08 2016
GPGPU-Sim uArch: cycles simulated: 47000  inst.: 1217248 (ipc=25.9) sim_rate=32898 (inst/sec) elapsed = 0:0:00:37 / Tue Mar 22 13:15:09 2016
GPGPU-Sim uArch: cycles simulated: 48500  inst.: 1237184 (ipc=25.5) sim_rate=32557 (inst/sec) elapsed = 0:0:00:38 / Tue Mar 22 13:15:10 2016
GPGPU-Sim PTX: 1300000 instructions simulated : ctaid=(10,0,0) tid=(95,0,0)
GPGPU-Sim uArch: cycles simulated: 50000  inst.: 1256064 (ipc=25.1) sim_rate=32206 (inst/sec) elapsed = 0:0:00:39 / Tue Mar 22 13:15:11 2016
GPGPU-Sim uArch: cycles simulated: 51500  inst.: 1275296 (ipc=24.8) sim_rate=31882 (inst/sec) elapsed = 0:0:00:40 / Tue Mar 22 13:15:12 2016
GPGPU-Sim uArch: cycles simulated: 53000  inst.: 1294176 (ipc=24.4) sim_rate=31565 (inst/sec) elapsed = 0:0:00:41 / Tue Mar 22 13:15:13 2016
GPGPU-Sim uArch: cycles simulated: 54500  inst.: 1313056 (ipc=24.1) sim_rate=31263 (inst/sec) elapsed = 0:0:00:42 / Tue Mar 22 13:15:14 2016
GPGPU-Sim uArch: cycles simulated: 56500  inst.: 1335808 (ipc=23.6) sim_rate=31065 (inst/sec) elapsed = 0:0:00:43 / Tue Mar 22 13:15:15 2016
GPGPU-Sim PTX: 1400000 instructions simulated : ctaid=(7,3,0) tid=(223,0,0)
GPGPU-Sim uArch: cycles simulated: 58000  inst.: 1356800 (ipc=23.4) sim_rate=30836 (inst/sec) elapsed = 0:0:00:44 / Tue Mar 22 13:15:16 2016
GPGPU-Sim uArch: cycles simulated: 59500  inst.: 1375968 (ipc=23.1) sim_rate=30577 (inst/sec) elapsed = 0:0:00:45 / Tue Mar 22 13:15:17 2016
GPGPU-Sim uArch: cycles simulated: 61000  inst.: 1397312 (ipc=22.9) sim_rate=30376 (inst/sec) elapsed = 0:0:00:46 / Tue Mar 22 13:15:18 2016
GPGPU-Sim uArch: cycles simulated: 62500  inst.: 1417216 (ipc=22.7) sim_rate=30153 (inst/sec) elapsed = 0:0:00:47 / Tue Mar 22 13:15:19 2016
GPGPU-Sim PTX: 1500000 instructions simulated : ctaid=(0,1,0) tid=(159,0,0)
GPGPU-Sim uArch: cycles simulated: 64500  inst.: 1442496 (ipc=22.4) sim_rate=30052 (inst/sec) elapsed = 0:0:00:48 / Tue Mar 22 13:15:20 2016
GPGPU-Sim uArch: cycles simulated: 66500  inst.: 1468032 (ipc=22.1) sim_rate=29959 (inst/sec) elapsed = 0:0:00:49 / Tue Mar 22 13:15:21 2016
GPGPU-Sim uArch: cycles simulated: 68000  inst.: 1489536 (ipc=21.9) sim_rate=29790 (inst/sec) elapsed = 0:0:00:50 / Tue Mar 22 13:15:22 2016
GPGPU-Sim uArch: cycles simulated: 70000  inst.: 1513728 (ipc=21.6) sim_rate=29680 (inst/sec) elapsed = 0:0:00:51 / Tue Mar 22 13:15:23 2016
GPGPU-Sim uArch: cycles simulated: 72000  inst.: 1538784 (ipc=21.4) sim_rate=29592 (inst/sec) elapsed = 0:0:00:52 / Tue Mar 22 13:15:24 2016
GPGPU-Sim PTX: 1600000 instructions simulated : ctaid=(9,5,0) tid=(95,0,0)
GPGPU-Sim uArch: cycles simulated: 73500  inst.: 1560064 (ipc=21.2) sim_rate=29435 (inst/sec) elapsed = 0:0:00:53 / Tue Mar 22 13:15:25 2016
GPGPU-Sim uArch: cycles simulated: 75500  inst.: 1584064 (ipc=21.0) sim_rate=29334 (inst/sec) elapsed = 0:0:00:54 / Tue Mar 22 13:15:26 2016
GPGPU-Sim uArch: cycles simulated: 77500  inst.: 1610912 (ipc=20.8) sim_rate=29289 (inst/sec) elapsed = 0:0:00:55 / Tue Mar 22 13:15:27 2016
GPGPU-Sim uArch: cycles simulated: 79500  inst.: 1636448 (ipc=20.6) sim_rate=29222 (inst/sec) elapsed = 0:0:00:56 / Tue Mar 22 13:15:28 2016
GPGPU-Sim PTX: 1700000 instructions simulated : ctaid=(2,4,0) tid=(223,0,0)
GPGPU-Sim uArch: cycles simulated: 81500  inst.: 1660192 (ipc=20.4) sim_rate=29126 (inst/sec) elapsed = 0:0:00:57 / Tue Mar 22 13:15:29 2016
GPGPU-Sim uArch: cycles simulated: 83500  inst.: 1685824 (ipc=20.2) sim_rate=29065 (inst/sec) elapsed = 0:0:00:58 / Tue Mar 22 13:15:30 2016
GPGPU-Sim uArch: cycles simulated: 85500  inst.: 1708960 (ipc=20.0) sim_rate=28965 (inst/sec) elapsed = 0:0:00:59 / Tue Mar 22 13:15:31 2016
GPGPU-Sim uArch: cycles simulated: 87000  inst.: 1729024 (ipc=19.9) sim_rate=28817 (inst/sec) elapsed = 0:0:01:00 / Tue Mar 22 13:15:32 2016
GPGPU-Sim PTX: 1800000 instructions simulated : ctaid=(5,1,0) tid=(223,0,0)
GPGPU-Sim uArch: cycles simulated: 89000  inst.: 1754816 (ipc=19.7) sim_rate=28767 (inst/sec) elapsed = 0:0:01:01 / Tue Mar 22 13:15:33 2016
GPGPU-Sim uArch: cycles simulated: 90500  inst.: 1773888 (ipc=19.6) sim_rate=28611 (inst/sec) elapsed = 0:0:01:02 / Tue Mar 22 13:15:34 2016
GPGPU-Sim uArch: cycles simulated: 92500  inst.: 1797536 (ipc=19.4) sim_rate=28532 (inst/sec) elapsed = 0:0:01:03 / Tue Mar 22 13:15:35 2016
GPGPU-Sim uArch: cycles simulated: 94000  inst.: 1815776 (ipc=19.3) sim_rate=28371 (inst/sec) elapsed = 0:0:01:04 / Tue Mar 22 13:15:36 2016
GPGPU-Sim PTX: 1900000 instructions simulated : ctaid=(9,7,0) tid=(223,0,0)
GPGPU-Sim uArch: cycles simulated: 96000  inst.: 1843680 (ipc=19.2) sim_rate=28364 (inst/sec) elapsed = 0:0:01:05 / Tue Mar 22 13:15:37 2016
GPGPU-Sim uArch: cycles simulated: 98000  inst.: 1868576 (ipc=19.1) sim_rate=28311 (inst/sec) elapsed = 0:0:01:06 / Tue Mar 22 13:15:38 2016
GPGPU-Sim uArch: cycles simulated: 100000  inst.: 1893792 (ipc=18.9) sim_rate=28265 (inst/sec) elapsed = 0:0:01:07 / Tue Mar 22 13:15:39 2016
GPGPU-Sim uArch: cycles simulated: 101500  inst.: 1911776 (ipc=18.8) sim_rate=28114 (inst/sec) elapsed = 0:0:01:08 / Tue Mar 22 13:15:40 2016
GPGPU-Sim uArch: cycles simulated: 103500  inst.: 1937824 (ipc=18.7) sim_rate=28084 (inst/sec) elapsed = 0:0:01:09 / Tue Mar 22 13:15:41 2016
GPGPU-Sim PTX: 2000000 instructions simulated : ctaid=(0,4,0) tid=(223,0,0)
GPGPU-Sim uArch: cycles simulated: 105500  inst.: 1962912 (ipc=18.6) sim_rate=28041 (inst/sec) elapsed = 0:0:01:10 / Tue Mar 22 13:15:42 2016
GPGPU-Sim uArch: cycles simulated: 107500  inst.: 1988576 (ipc=18.5) sim_rate=28008 (inst/sec) elapsed = 0:0:01:11 / Tue Mar 22 13:15:43 2016
GPGPU-Sim uArch: cycles simulated: 109500  inst.: 2014528 (ipc=18.4) sim_rate=27979 (inst/sec) elapsed = 0:0:01:12 / Tue Mar 22 13:15:44 2016
GPGPU-Sim uArch: cycles simulated: 111000  inst.: 2034656 (ipc=18.3) sim_rate=27872 (inst/sec) elapsed = 0:0:01:13 / Tue Mar 22 13:15:45 2016
GPGPU-Sim PTX: 2100000 instructions simulated : ctaid=(8,3,0) tid=(95,0,0)
GPGPU-Sim uArch: cycles simulated: 113000  inst.: 2059264 (ipc=18.2) sim_rate=27827 (inst/sec) elapsed = 0:0:01:14 / Tue Mar 22 13:15:46 2016
GPGPU-Sim uArch: cycles simulated: 115000  inst.: 2084736 (ipc=18.1) sim_rate=27796 (inst/sec) elapsed = 0:0:01:15 / Tue Mar 22 13:15:47 2016
GPGPU-Sim uArch: cycles simulated: 117000  inst.: 2108448 (ipc=18.0) sim_rate=27742 (inst/sec) elapsed = 0:0:01:16 / Tue Mar 22 13:15:48 2016
GPGPU-Sim uArch: cycles simulated: 119000  inst.: 2131968 (ipc=17.9) sim_rate=27687 (inst/sec) elapsed = 0:0:01:17 / Tue Mar 22 13:15:49 2016
GPGPU-Sim PTX: 2200000 instructions simulated : ctaid=(6,3,0) tid=(95,0,0)
GPGPU-Sim uArch: cycles simulated: 121000  inst.: 2156384 (ipc=17.8) sim_rate=27645 (inst/sec) elapsed = 0:0:01:18 / Tue Mar 22 13:15:50 2016
GPGPU-Sim uArch: cycles simulated: 123000  inst.: 2179488 (ipc=17.7) sim_rate=27588 (inst/sec) elapsed = 0:0:01:19 / Tue Mar 22 13:15:51 2016
GPGPU-Sim uArch: cycles simulated: 125000  inst.: 2205888 (ipc=17.6) sim_rate=27573 (inst/sec) elapsed = 0:0:01:20 / Tue Mar 22 13:15:52 2016
GPGPU-Sim uArch: cycles simulated: 126500  inst.: 2225216 (ipc=17.6) sim_rate=27471 (inst/sec) elapsed = 0:0:01:21 / Tue Mar 22 13:15:53 2016
GPGPU-Sim PTX: 2300000 instructions simulated : ctaid=(0,4,0) tid=(223,0,0)
GPGPU-Sim uArch: cycles simulated: 128500  inst.: 2250176 (ipc=17.5) sim_rate=27441 (inst/sec) elapsed = 0:0:01:22 / Tue Mar 22 13:15:54 2016
GPGPU-Sim uArch: cycles simulated: 130000  inst.: 2269056 (ipc=17.5) sim_rate=27338 (inst/sec) elapsed = 0:0:01:23 / Tue Mar 22 13:15:55 2016
GPGPU-Sim uArch: cycles simulated: 132000  inst.: 2294976 (ipc=17.4) sim_rate=27321 (inst/sec) elapsed = 0:0:01:24 / Tue Mar 22 13:15:56 2016
GPGPU-Sim uArch: cycles simulated: 133500  inst.: 2315296 (ipc=17.3) sim_rate=27238 (inst/sec) elapsed = 0:0:01:25 / Tue Mar 22 13:15:57 2016
GPGPU-Sim uArch: cycles simulated: 135000  inst.: 2333888 (ipc=17.3) sim_rate=27138 (inst/sec) elapsed = 0:0:01:26 / Tue Mar 22 13:15:58 2016
GPGPU-Sim PTX: 2400000 instructions simulated : ctaid=(10,6,0) tid=(159,0,0)
GPGPU-Sim uArch: cycles simulated: 136500  inst.: 2353344 (ipc=17.2) sim_rate=27049 (inst/sec) elapsed = 0:0:01:27 / Tue Mar 22 13:15:59 2016
GPGPU-Sim uArch: cycles simulated: 137500  inst.: 2363360 (ipc=17.2) sim_rate=26856 (inst/sec) elapsed = 0:0:01:28 / Tue Mar 22 13:16:00 2016
GPGPU-Sim uArch: cycles simulated: 139000  inst.: 2383456 (ipc=17.1) sim_rate=26780 (inst/sec) elapsed = 0:0:01:29 / Tue Mar 22 13:16:01 2016
GPGPU-Sim uArch: cycles simulated: 141000  inst.: 2410304 (ipc=17.1) sim_rate=26781 (inst/sec) elapsed = 0:0:01:30 / Tue Mar 22 13:16:02 2016
GPGPU-Sim uArch: cycles simulated: 142500  inst.: 2430336 (ipc=17.1) sim_rate=26706 (inst/sec) elapsed = 0:0:01:31 / Tue Mar 22 13:16:03 2016
GPGPU-Sim PTX: 2500000 instructions simulated : ctaid=(7,3,0) tid=(31,0,0)
GPGPU-Sim uArch: cycles simulated: 144000  inst.: 2450304 (ipc=17.0) sim_rate=26633 (inst/sec) elapsed = 0:0:01:32 / Tue Mar 22 13:16:04 2016
GPGPU-Sim uArch: cycles simulated: 145500  inst.: 2469312 (ipc=17.0) sim_rate=26551 (inst/sec) elapsed = 0:0:01:33 / Tue Mar 22 13:16:05 2016
GPGPU-Sim uArch: cycles simulated: 147500  inst.: 2496000 (ipc=16.9) sim_rate=26553 (inst/sec) elapsed = 0:0:01:34 / Tue Mar 22 13:16:06 2016
GPGPU-Sim uArch: cycles simulated: 149000  inst.: 2514720 (ipc=16.9) sim_rate=26470 (inst/sec) elapsed = 0:0:01:35 / Tue Mar 22 13:16:07 2016
GPGPU-Sim PTX: 2600000 instructions simulated : ctaid=(3,3,0) tid=(31,0,0)
GPGPU-Sim uArch: cycles simulated: 151000  inst.: 2542368 (ipc=16.8) sim_rate=26483 (inst/sec) elapsed = 0:0:01:36 / Tue Mar 22 13:16:08 2016
GPGPU-Sim uArch: cycles simulated: 152500  inst.: 2561504 (ipc=16.8) sim_rate=26407 (inst/sec) elapsed = 0:0:01:37 / Tue Mar 22 13:16:09 2016
GPGPU-Sim uArch: cycles simulated: 154500  inst.: 2587136 (ipc=16.7) sim_rate=26399 (inst/sec) elapsed = 0:0:01:38 / Tue Mar 22 13:16:10 2016
GPGPU-Sim uArch: cycles simulated: 156500  inst.: 2614720 (ipc=16.7) sim_rate=26411 (inst/sec) elapsed = 0:0:01:39 / Tue Mar 22 13:16:11 2016
GPGPU-Sim uArch: cycles simulated: 158000  inst.: 2636640 (ipc=16.7) sim_rate=26366 (inst/sec) elapsed = 0:0:01:40 / Tue Mar 22 13:16:12 2016
GPGPU-Sim PTX: 2700000 instructions simulated : ctaid=(10,2,0) tid=(95,0,0)
GPGPU-Sim uArch: cycles simulated: 160000  inst.: 2664000 (ipc=16.6) sim_rate=26376 (inst/sec) elapsed = 0:0:01:41 / Tue Mar 22 13:16:13 2016
GPGPU-Sim uArch: cycles simulated: 161500  inst.: 2683744 (ipc=16.6) sim_rate=26311 (inst/sec) elapsed = 0:0:01:42 / Tue Mar 22 13:16:14 2016
GPGPU-Sim uArch: cycles simulated: 163500  inst.: 2712096 (ipc=16.6) sim_rate=26331 (inst/sec) elapsed = 0:0:01:43 / Tue Mar 22 13:16:15 2016
GPGPU-Sim uArch: cycles simulated: 165500  inst.: 2738688 (ipc=16.5) sim_rate=26333 (inst/sec) elapsed = 0:0:01:44 / Tue Mar 22 13:16:16 2016
GPGPU-Sim PTX: 2800000 instructions simulated : ctaid=(10,3,0) tid=(223,0,0)
GPGPU-Sim uArch: cycles simulated: 167000  inst.: 2759296 (ipc=16.5) sim_rate=26279 (inst/sec) elapsed = 0:0:01:45 / Tue Mar 22 13:16:17 2016
GPGPU-Sim uArch: cycles simulated: 169000  inst.: 2787328 (ipc=16.5) sim_rate=26295 (inst/sec) elapsed = 0:0:01:46 / Tue Mar 22 13:16:18 2016
GPGPU-Sim uArch: cycles simulated: 170500  inst.: 2808288 (ipc=16.5) sim_rate=26245 (inst/sec) elapsed = 0:0:01:47 / Tue Mar 22 13:16:19 2016
GPGPU-Sim uArch: cycles simulated: 172500  inst.: 2835136 (ipc=16.4) sim_rate=26251 (inst/sec) elapsed = 0:0:01:48 / Tue Mar 22 13:16:20 2016
GPGPU-Sim PTX: 2900000 instructions simulated : ctaid=(3,6,0) tid=(31,0,0)
GPGPU-Sim uArch: cycles simulated: 174500  inst.: 2863264 (ipc=16.4) sim_rate=26268 (inst/sec) elapsed = 0:0:01:49 / Tue Mar 22 13:16:21 2016
GPGPU-Sim uArch: cycles simulated: 176000  inst.: 2884064 (ipc=16.4) sim_rate=26218 (inst/sec) elapsed = 0:0:01:50 / Tue Mar 22 13:16:22 2016
GPGPU-Sim uArch: cycles simulated: 178000  inst.: 2912544 (ipc=16.4) sim_rate=26239 (inst/sec) elapsed = 0:0:01:51 / Tue Mar 22 13:16:23 2016
GPGPU-Sim uArch: cycles simulated: 179500  inst.: 2933280 (ipc=16.3) sim_rate=26190 (inst/sec) elapsed = 0:0:01:52 / Tue Mar 22 13:16:24 2016
GPGPU-Sim PTX: 3000000 instructions simulated : ctaid=(2,7,0) tid=(159,0,0)
GPGPU-Sim uArch: cycles simulated: 181500  inst.: 2960576 (ipc=16.3) sim_rate=26199 (inst/sec) elapsed = 0:0:01:53 / Tue Mar 22 13:16:25 2016
GPGPU-Sim uArch: cycles simulated: 183000  inst.: 2981664 (ipc=16.3) sim_rate=26154 (inst/sec) elapsed = 0:0:01:54 / Tue Mar 22 13:16:26 2016
GPGPU-Sim uArch: cycles simulated: 185000  inst.: 3009632 (ipc=16.3) sim_rate=26170 (inst/sec) elapsed = 0:0:01:55 / Tue Mar 22 13:16:27 2016
GPGPU-Sim uArch: cycles simulated: 187000  inst.: 3037184 (ipc=16.2) sim_rate=26182 (inst/sec) elapsed = 0:0:01:56 / Tue Mar 22 13:16:28 2016
GPGPU-Sim PTX: 3100000 instructions simulated : ctaid=(9,1,0) tid=(159,0,0)
GPGPU-Sim uArch: cycles simulated: 188500  inst.: 3058784 (ipc=16.2) sim_rate=26143 (inst/sec) elapsed = 0:0:01:57 / Tue Mar 22 13:16:29 2016
GPGPU-Sim uArch: cycles simulated: 190500  inst.: 3084128 (ipc=16.2) sim_rate=26136 (inst/sec) elapsed = 0:0:01:58 / Tue Mar 22 13:16:30 2016
GPGPU-Sim uArch: cycles simulated: 192500  inst.: 3111136 (ipc=16.2) sim_rate=26144 (inst/sec) elapsed = 0:0:01:59 / Tue Mar 22 13:16:31 2016
GPGPU-Sim uArch: cycles simulated: 194000  inst.: 3129312 (ipc=16.1) sim_rate=26077 (inst/sec) elapsed = 0:0:02:00 / Tue Mar 22 13:16:32 2016
GPGPU-Sim PTX: 3200000 instructions simulated : ctaid=(1,3,0) tid=(159,0,0)
GPGPU-Sim uArch: cycles simulated: 196000  inst.: 3155872 (ipc=16.1) sim_rate=26081 (inst/sec) elapsed = 0:0:02:01 / Tue Mar 22 13:16:33 2016
GPGPU-Sim uArch: cycles simulated: 198000  inst.: 3182880 (ipc=16.1) sim_rate=26089 (inst/sec) elapsed = 0:0:02:02 / Tue Mar 22 13:16:34 2016
GPGPU-Sim uArch: cycles simulated: 199500  inst.: 3201824 (ipc=16.0) sim_rate=26031 (inst/sec) elapsed = 0:0:02:03 / Tue Mar 22 13:16:35 2016
GPGPU-Sim uArch: cycles simulated: 201500  inst.: 3228736 (ipc=16.0) sim_rate=26038 (inst/sec) elapsed = 0:0:02:04 / Tue Mar 22 13:16:36 2016
GPGPU-Sim PTX: 3300000 instructions simulated : ctaid=(5,0,0) tid=(95,0,0)
GPGPU-Sim uArch: cycles simulated: 203000  inst.: 3248736 (ipc=16.0) sim_rate=25989 (inst/sec) elapsed = 0:0:02:05 / Tue Mar 22 13:16:37 2016
GPGPU-Sim uArch: cycles simulated: 205000  inst.: 3274880 (ipc=16.0) sim_rate=25991 (inst/sec) elapsed = 0:0:02:06 / Tue Mar 22 13:16:38 2016
GPGPU-Sim uArch: cycles simulated: 207000  inst.: 3297888 (ipc=15.9) sim_rate=25967 (inst/sec) elapsed = 0:0:02:07 / Tue Mar 22 13:16:39 2016
GPGPU-Sim uArch: cycles simulated: 208500  inst.: 3317472 (ipc=15.9) sim_rate=25917 (inst/sec) elapsed = 0:0:02:08 / Tue Mar 22 13:16:40 2016
GPGPU-Sim PTX: 3400000 instructions simulated : ctaid=(0,7,0) tid=(95,0,0)
GPGPU-Sim uArch: cycles simulated: 210500  inst.: 3341888 (ipc=15.9) sim_rate=25906 (inst/sec) elapsed = 0:0:02:09 / Tue Mar 22 13:16:41 2016
GPGPU-Sim uArch: cycles simulated: 212500  inst.: 3366848 (ipc=15.8) sim_rate=25898 (inst/sec) elapsed = 0:0:02:10 / Tue Mar 22 13:16:42 2016
GPGPU-Sim uArch: cycles simulated: 214000  inst.: 3385824 (ipc=15.8) sim_rate=25845 (inst/sec) elapsed = 0:0:02:11 / Tue Mar 22 13:16:43 2016
GPGPU-Sim uArch: cycles simulated: 216000  inst.: 3412096 (ipc=15.8) sim_rate=25849 (inst/sec) elapsed = 0:0:02:12 / Tue Mar 22 13:16:44 2016
GPGPU-Sim uArch: cycles simulated: 217500  inst.: 3430944 (ipc=15.8) sim_rate=25796 (inst/sec) elapsed = 0:0:02:13 / Tue Mar 22 13:16:45 2016
GPGPU-Sim PTX: 3500000 instructions simulated : ctaid=(7,5,0) tid=(159,0,0)
GPGPU-Sim uArch: cycles simulated: 219500  inst.: 3457312 (ipc=15.8) sim_rate=25800 (inst/sec) elapsed = 0:0:02:14 / Tue Mar 22 13:16:46 2016
GPGPU-Sim uArch: cycles simulated: 221500  inst.: 3481504 (ipc=15.7) sim_rate=25788 (inst/sec) elapsed = 0:0:02:15 / Tue Mar 22 13:16:47 2016
GPGPU-Sim uArch: cycles simulated: 223500  inst.: 3508096 (ipc=15.7) sim_rate=25794 (inst/sec) elapsed = 0:0:02:16 / Tue Mar 22 13:16:48 2016
GPGPU-Sim uArch: cycles simulated: 225500  inst.: 3528224 (ipc=15.6) sim_rate=25753 (inst/sec) elapsed = 0:0:02:17 / Tue Mar 22 13:16:49 2016
GPGPU-Sim PTX: 3600000 instructions simulated : ctaid=(7,3,0) tid=(95,0,0)
GPGPU-Sim uArch: cycles simulated: 227500  inst.: 3554752 (ipc=15.6) sim_rate=25759 (inst/sec) elapsed = 0:0:02:18 / Tue Mar 22 13:16:50 2016
GPGPU-Sim uArch: cycles simulated: 229500  inst.: 3579872 (ipc=15.6) sim_rate=25754 (inst/sec) elapsed = 0:0:02:19 / Tue Mar 22 13:16:51 2016
GPGPU-Sim uArch: cycles simulated: 231500  inst.: 3603392 (ipc=15.6) sim_rate=25738 (inst/sec) elapsed = 0:0:02:20 / Tue Mar 22 13:16:52 2016
GPGPU-Sim uArch: cycles simulated: 233500  inst.: 3629856 (ipc=15.5) sim_rate=25743 (inst/sec) elapsed = 0:0:02:21 / Tue Mar 22 13:16:53 2016
GPGPU-Sim PTX: 3700000 instructions simulated : ctaid=(7,5,0) tid=(159,0,0)
GPGPU-Sim uArch: cycles simulated: 235500  inst.: 3654816 (ipc=15.5) sim_rate=25738 (inst/sec) elapsed = 0:0:02:22 / Tue Mar 22 13:16:54 2016
GPGPU-Sim uArch: cycles simulated: 237500  inst.: 3679200 (ipc=15.5) sim_rate=25728 (inst/sec) elapsed = 0:0:02:23 / Tue Mar 22 13:16:55 2016
GPGPU-Sim uArch: cycles simulated: 239500  inst.: 3707040 (ipc=15.5) sim_rate=25743 (inst/sec) elapsed = 0:0:02:24 / Tue Mar 22 13:16:56 2016
GPGPU-Sim uArch: cycles simulated: 241000  inst.: 3725856 (ipc=15.5) sim_rate=25695 (inst/sec) elapsed = 0:0:02:25 / Tue Mar 22 13:16:57 2016
GPGPU-Sim PTX: 3800000 instructions simulated : ctaid=(0,4,0) tid=(223,0,0)
GPGPU-Sim uArch: cycles simulated: 242500  inst.: 3743936 (ipc=15.4) sim_rate=25643 (inst/sec) elapsed = 0:0:02:26 / Tue Mar 22 13:16:58 2016
GPGPU-Sim uArch: cycles simulated: 244000  inst.: 3762912 (ipc=15.4) sim_rate=25598 (inst/sec) elapsed = 0:0:02:27 / Tue Mar 22 13:16:59 2016
GPGPU-Sim uArch: cycles simulated: 245500  inst.: 3783456 (ipc=15.4) sim_rate=25563 (inst/sec) elapsed = 0:0:02:28 / Tue Mar 22 13:17:00 2016
GPGPU-Sim uArch: cycles simulated: 247500  inst.: 3811456 (ipc=15.4) sim_rate=25580 (inst/sec) elapsed = 0:0:02:29 / Tue Mar 22 13:17:01 2016
GPGPU-Sim uArch: cycles simulated: 249000  inst.: 3828800 (ipc=15.4) sim_rate=25525 (inst/sec) elapsed = 0:0:02:30 / Tue Mar 22 13:17:02 2016
GPGPU-Sim PTX: 3900000 instructions simulated : ctaid=(1,7,0) tid=(31,0,0)
GPGPU-Sim uArch: cycles simulated: 250500  inst.: 3851776 (ipc=15.4) sim_rate=25508 (inst/sec) elapsed = 0:0:02:31 / Tue Mar 22 13:17:03 2016
GPGPU-Sim uArch: cycles simulated: 252000  inst.: 3872768 (ipc=15.4) sim_rate=25478 (inst/sec) elapsed = 0:0:02:32 / Tue Mar 22 13:17:04 2016
GPGPU-Sim uArch: cycles simulated: 254000  inst.: 3899744 (ipc=15.4) sim_rate=25488 (inst/sec) elapsed = 0:0:02:33 / Tue Mar 22 13:17:05 2016
GPGPU-Sim uArch: cycles simulated: 255500  inst.: 3919296 (ipc=15.3) sim_rate=25449 (inst/sec) elapsed = 0:0:02:34 / Tue Mar 22 13:17:06 2016
GPGPU-Sim uArch: cycles simulated: 257000  inst.: 3939488 (ipc=15.3) sim_rate=25416 (inst/sec) elapsed = 0:0:02:35 / Tue Mar 22 13:17:07 2016
GPGPU-Sim PTX: 4000000 instructions simulated : ctaid=(7,1,0) tid=(223,0,0)
GPGPU-Sim uArch: cycles simulated: 258500  inst.: 3957472 (ipc=15.3) sim_rate=25368 (inst/sec) elapsed = 0:0:02:36 / Tue Mar 22 13:17:08 2016
GPGPU-Sim uArch: cycles simulated: 260000  inst.: 3979872 (ipc=15.3) sim_rate=25349 (inst/sec) elapsed = 0:0:02:37 / Tue Mar 22 13:17:09 2016
GPGPU-Sim uArch: cycles simulated: 261500  inst.: 3999136 (ipc=15.3) sim_rate=25310 (inst/sec) elapsed = 0:0:02:38 / Tue Mar 22 13:17:10 2016
GPGPU-Sim uArch: cycles simulated: 263000  inst.: 4020608 (ipc=15.3) sim_rate=25286 (inst/sec) elapsed = 0:0:02:39 / Tue Mar 22 13:17:11 2016
GPGPU-Sim uArch: cycles simulated: 264500  inst.: 4039104 (ipc=15.3) sim_rate=25244 (inst/sec) elapsed = 0:0:02:40 / Tue Mar 22 13:17:12 2016
GPGPU-Sim PTX: 4100000 instructions simulated : ctaid=(3,5,0) tid=(159,0,0)
GPGPU-Sim uArch: cycles simulated: 266000  inst.: 4059424 (ipc=15.3) sim_rate=25213 (inst/sec) elapsed = 0:0:02:41 / Tue Mar 22 13:17:13 2016
GPGPU-Sim uArch: cycles simulated: 268000  inst.: 4088672 (ipc=15.3) sim_rate=25238 (inst/sec) elapsed = 0:0:02:42 / Tue Mar 22 13:17:14 2016
GPGPU-Sim uArch: cycles simulated: 269500  inst.: 4107488 (ipc=15.2) sim_rate=25199 (inst/sec) elapsed = 0:0:02:43 / Tue Mar 22 13:17:15 2016
GPGPU-Sim uArch: cycles simulated: 271000  inst.: 4127200 (ipc=15.2) sim_rate=25165 (inst/sec) elapsed = 0:0:02:44 / Tue Mar 22 13:17:16 2016
GPGPU-Sim PTX: 4200000 instructions simulated : ctaid=(1,2,0) tid=(95,0,0)
GPGPU-Sim uArch: cycles simulated: 272500  inst.: 4148704 (ipc=15.2) sim_rate=25143 (inst/sec) elapsed = 0:0:02:45 / Tue Mar 22 13:17:17 2016
GPGPU-Sim uArch: cycles simulated: 274500  inst.: 4177792 (ipc=15.2) sim_rate=25167 (inst/sec) elapsed = 0:0:02:46 / Tue Mar 22 13:17:18 2016
GPGPU-Sim uArch: cycles simulated: 276000  inst.: 4198016 (ipc=15.2) sim_rate=25137 (inst/sec) elapsed = 0:0:02:47 / Tue Mar 22 13:17:19 2016
GPGPU-Sim uArch: cycles simulated: 277500  inst.: 4216832 (ipc=15.2) sim_rate=25100 (inst/sec) elapsed = 0:0:02:48 / Tue Mar 22 13:17:20 2016
GPGPU-Sim PTX: 4300000 instructions simulated : ctaid=(8,5,0) tid=(223,0,0)
GPGPU-Sim uArch: cycles simulated: 279500  inst.: 4245792 (ipc=15.2) sim_rate=25123 (inst/sec) elapsed = 0:0:02:49 / Tue Mar 22 13:17:21 2016
GPGPU-Sim uArch: cycles simulated: 281000  inst.: 4264800 (ipc=15.2) sim_rate=25087 (inst/sec) elapsed = 0:0:02:50 / Tue Mar 22 13:17:22 2016
GPGPU-Sim uArch: cycles simulated: 282500  inst.: 4283520 (ipc=15.2) sim_rate=25049 (inst/sec) elapsed = 0:0:02:51 / Tue Mar 22 13:17:23 2016
GPGPU-Sim uArch: cycles simulated: 284000  inst.: 4301664 (ipc=15.1) sim_rate=25009 (inst/sec) elapsed = 0:0:02:52 / Tue Mar 22 13:17:24 2016
GPGPU-Sim uArch: cycles simulated: 285000  inst.: 4314880 (ipc=15.1) sim_rate=24941 (inst/sec) elapsed = 0:0:02:53 / Tue Mar 22 13:17:25 2016
GPGPU-Sim uArch: cycles simulated: 286500  inst.: 4337472 (ipc=15.1) sim_rate=24928 (inst/sec) elapsed = 0:0:02:54 / Tue Mar 22 13:17:26 2016
GPGPU-Sim PTX: 4400000 instructions simulated : ctaid=(10,2,0) tid=(95,0,0)
GPGPU-Sim uArch: cycles simulated: 288000  inst.: 4358240 (ipc=15.1) sim_rate=24904 (inst/sec) elapsed = 0:0:02:55 / Tue Mar 22 13:17:27 2016
GPGPU-Sim uArch: cycles simulated: 289500  inst.: 4377792 (ipc=15.1) sim_rate=24873 (inst/sec) elapsed = 0:0:02:56 / Tue Mar 22 13:17:28 2016
GPGPU-Sim uArch: cycles simulated: 291000  inst.: 4398784 (ipc=15.1) sim_rate=24851 (inst/sec) elapsed = 0:0:02:57 / Tue Mar 22 13:17:29 2016
GPGPU-Sim uArch: cycles simulated: 292500  inst.: 4419744 (ipc=15.1) sim_rate=24830 (inst/sec) elapsed = 0:0:02:58 / Tue Mar 22 13:17:30 2016
GPGPU-Sim PTX: 4500000 instructions simulated : ctaid=(9,6,0) tid=(223,0,0)
GPGPU-Sim uArch: cycles simulated: 294500  inst.: 4447264 (ipc=15.1) sim_rate=24845 (inst/sec) elapsed = 0:0:02:59 / Tue Mar 22 13:17:31 2016
GPGPU-Sim uArch: cycles simulated: 296000  inst.: 4468000 (ipc=15.1) sim_rate=24822 (inst/sec) elapsed = 0:0:03:00 / Tue Mar 22 13:17:32 2016
GPGPU-Sim uArch: cycles simulated: 297500  inst.: 4488288 (ipc=15.1) sim_rate=24797 (inst/sec) elapsed = 0:0:03:01 / Tue Mar 22 13:17:33 2016
GPGPU-Sim uArch: cycles simulated: 299000  inst.: 4509152 (ipc=15.1) sim_rate=24775 (inst/sec) elapsed = 0:0:03:02 / Tue Mar 22 13:17:34 2016
GPGPU-Sim uArch: cycles simulated: 301000  inst.: 4536992 (ipc=15.1) sim_rate=24792 (inst/sec) elapsed = 0:0:03:03 / Tue Mar 22 13:17:35 2016
GPGPU-Sim PTX: 4600000 instructions simulated : ctaid=(7,6,0) tid=(159,0,0)
GPGPU-Sim uArch: cycles simulated: 303000  inst.: 4564384 (ipc=15.1) sim_rate=24806 (inst/sec) elapsed = 0:0:03:04 / Tue Mar 22 13:17:36 2016
GPGPU-Sim uArch: cycles simulated: 305000  inst.: 4591200 (ipc=15.1) sim_rate=24817 (inst/sec) elapsed = 0:0:03:05 / Tue Mar 22 13:17:37 2016
GPGPU-Sim uArch: cycles simulated: 306500  inst.: 4611328 (ipc=15.0) sim_rate=24792 (inst/sec) elapsed = 0:0:03:06 / Tue Mar 22 13:17:38 2016
GPGPU-Sim uArch: cycles simulated: 308500  inst.: 4637632 (ipc=15.0) sim_rate=24800 (inst/sec) elapsed = 0:0:03:07 / Tue Mar 22 13:17:39 2016
GPGPU-Sim PTX: 4700000 instructions simulated : ctaid=(8,2,0) tid=(95,0,0)
GPGPU-Sim uArch: cycles simulated: 310000  inst.: 4658816 (ipc=15.0) sim_rate=24780 (inst/sec) elapsed = 0:0:03:08 / Tue Mar 22 13:17:40 2016
GPGPU-Sim uArch: cycles simulated: 312000  inst.: 4685376 (ipc=15.0) sim_rate=24790 (inst/sec) elapsed = 0:0:03:09 / Tue Mar 22 13:17:41 2016
GPGPU-Sim uArch: cycles simulated: 314000  inst.: 4713568 (ipc=15.0) sim_rate=24808 (inst/sec) elapsed = 0:0:03:10 / Tue Mar 22 13:17:42 2016
GPGPU-Sim uArch: cycles simulated: 316000  inst.: 4739968 (ipc=15.0) sim_rate=24816 (inst/sec) elapsed = 0:0:03:11 / Tue Mar 22 13:17:43 2016
GPGPU-Sim PTX: 4800000 instructions simulated : ctaid=(8,1,0) tid=(31,0,0)
GPGPU-Sim uArch: cycles simulated: 318000  inst.: 4767808 (ipc=15.0) sim_rate=24832 (inst/sec) elapsed = 0:0:03:12 / Tue Mar 22 13:17:44 2016
GPGPU-Sim uArch: cycles simulated: 319500  inst.: 4787392 (ipc=15.0) sim_rate=24805 (inst/sec) elapsed = 0:0:03:13 / Tue Mar 22 13:17:45 2016
GPGPU-Sim uArch: cycles simulated: 321500  inst.: 4815840 (ipc=15.0) sim_rate=24823 (inst/sec) elapsed = 0:0:03:14 / Tue Mar 22 13:17:46 2016
GPGPU-Sim uArch: cycles simulated: 323000  inst.: 4836960 (ipc=15.0) sim_rate=24804 (inst/sec) elapsed = 0:0:03:15 / Tue Mar 22 13:17:47 2016
GPGPU-Sim PTX: 4900000 instructions simulated : ctaid=(8,3,0) tid=(95,0,0)
GPGPU-Sim uArch: cycles simulated: 325000  inst.: 4864384 (ipc=15.0) sim_rate=24818 (inst/sec) elapsed = 0:0:03:16 / Tue Mar 22 13:17:48 2016
GPGPU-Sim uArch: cycles simulated: 326500  inst.: 4886016 (ipc=15.0) sim_rate=24802 (inst/sec) elapsed = 0:0:03:17 / Tue Mar 22 13:17:49 2016
GPGPU-Sim uArch: cycles simulated: 328500  inst.: 4913760 (ipc=15.0) sim_rate=24816 (inst/sec) elapsed = 0:0:03:18 / Tue Mar 22 13:17:50 2016
GPGPU-Sim uArch: cycles simulated: 330000  inst.: 4935104 (ipc=15.0) sim_rate=24799 (inst/sec) elapsed = 0:0:03:19 / Tue Mar 22 13:17:51 2016
GPGPU-Sim PTX: 5000000 instructions simulated : ctaid=(1,5,0) tid=(223,0,0)
GPGPU-Sim uArch: cycles simulated: 331500  inst.: 4956672 (ipc=15.0) sim_rate=24783 (inst/sec) elapsed = 0:0:03:20 / Tue Mar 22 13:17:52 2016
GPGPU-Sim uArch: cycles simulated: 333000  inst.: 4977376 (ipc=14.9) sim_rate=24763 (inst/sec) elapsed = 0:0:03:21 / Tue Mar 22 13:17:53 2016
GPGPU-Sim uArch: cycles simulated: 335000  inst.: 5005216 (ipc=14.9) sim_rate=24778 (inst/sec) elapsed = 0:0:03:22 / Tue Mar 22 13:17:54 2016
GPGPU-Sim uArch: cycles simulated: 337000  inst.: 5034368 (ipc=14.9) sim_rate=24799 (inst/sec) elapsed = 0:0:03:23 / Tue Mar 22 13:17:55 2016
GPGPU-Sim PTX: 5100000 instructions simulated : ctaid=(2,4,0) tid=(95,0,0)
GPGPU-Sim uArch: cycles simulated: 339000  inst.: 5062560 (ipc=14.9) sim_rate=24816 (inst/sec) elapsed = 0:0:03:24 / Tue Mar 22 13:17:56 2016
GPGPU-Sim uArch: cycles simulated: 341000  inst.: 5090688 (ipc=14.9) sim_rate=24832 (inst/sec) elapsed = 0:0:03:25 / Tue Mar 22 13:17:57 2016
GPGPU-Sim uArch: cycles simulated: 342500  inst.: 5109792 (ipc=14.9) sim_rate=24804 (inst/sec) elapsed = 0:0:03:26 / Tue Mar 22 13:17:58 2016
GPGPU-Sim uArch: cycles simulated: 344500  inst.: 5136672 (ipc=14.9) sim_rate=24814 (inst/sec) elapsed = 0:0:03:27 / Tue Mar 22 13:17:59 2016
GPGPU-Sim PTX: 5200000 instructions simulated : ctaid=(5,6,0) tid=(31,0,0)
GPGPU-Sim uArch: cycles simulated: 346000  inst.: 5156448 (ipc=14.9) sim_rate=24790 (inst/sec) elapsed = 0:0:03:28 / Tue Mar 22 13:18:00 2016
GPGPU-Sim uArch: cycles simulated: 347500  inst.: 5177056 (ipc=14.9) sim_rate=24770 (inst/sec) elapsed = 0:0:03:29 / Tue Mar 22 13:18:01 2016
GPGPU-Sim uArch: cycles simulated: 349000  inst.: 5198112 (ipc=14.9) sim_rate=24752 (inst/sec) elapsed = 0:0:03:30 / Tue Mar 22 13:18:02 2016
GPGPU-Sim uArch: cycles simulated: 350500  inst.: 5218432 (ipc=14.9) sim_rate=24731 (inst/sec) elapsed = 0:0:03:31 / Tue Mar 22 13:18:03 2016
GPGPU-Sim uArch: cycles simulated: 352000  inst.: 5241280 (ipc=14.9) sim_rate=24723 (inst/sec) elapsed = 0:0:03:32 / Tue Mar 22 13:18:04 2016
GPGPU-Sim PTX: 5300000 instructions simulated : ctaid=(8,1,0) tid=(159,0,0)
GPGPU-Sim uArch: cycles simulated: 353500  inst.: 5263616 (ipc=14.9) sim_rate=24711 (inst/sec) elapsed = 0:0:03:33 / Tue Mar 22 13:18:05 2016
GPGPU-Sim uArch: cycles simulated: 355000  inst.: 5286432 (ipc=14.9) sim_rate=24702 (inst/sec) elapsed = 0:0:03:34 / Tue Mar 22 13:18:06 2016
GPGPU-Sim uArch: cycles simulated: 356500  inst.: 5307168 (ipc=14.9) sim_rate=24684 (inst/sec) elapsed = 0:0:03:35 / Tue Mar 22 13:18:07 2016
GPGPU-Sim uArch: cycles simulated: 358000  inst.: 5330752 (ipc=14.9) sim_rate=24679 (inst/sec) elapsed = 0:0:03:36 / Tue Mar 22 13:18:08 2016
GPGPU-Sim PTX: 5400000 instructions simulated : ctaid=(4,4,0) tid=(31,0,0)
GPGPU-Sim uArch: cycles simulated: 359500  inst.: 5352704 (ipc=14.9) sim_rate=24666 (inst/sec) elapsed = 0:0:03:37 / Tue Mar 22 13:18:09 2016
GPGPU-Sim uArch: cycles simulated: 361500  inst.: 5380736 (ipc=14.9) sim_rate=24682 (inst/sec) elapsed = 0:0:03:38 / Tue Mar 22 13:18:10 2016
GPGPU-Sim uArch: cycles simulated: 363000  inst.: 5402944 (ipc=14.9) sim_rate=24670 (inst/sec) elapsed = 0:0:03:39 / Tue Mar 22 13:18:11 2016
GPGPU-Sim uArch: cycles simulated: 365000  inst.: 5433248 (ipc=14.9) sim_rate=24696 (inst/sec) elapsed = 0:0:03:40 / Tue Mar 22 13:18:12 2016
GPGPU-Sim PTX: 5500000 instructions simulated : ctaid=(6,2,0) tid=(95,0,0)
GPGPU-Sim uArch: cycles simulated: 366500  inst.: 5453600 (ipc=14.9) sim_rate=24676 (inst/sec) elapsed = 0:0:03:41 / Tue Mar 22 13:18:13 2016
GPGPU-Sim uArch: cycles simulated: 368500  inst.: 5482048 (ipc=14.9) sim_rate=24693 (inst/sec) elapsed = 0:0:03:42 / Tue Mar 22 13:18:14 2016
GPGPU-Sim uArch: cycles simulated: 370000  inst.: 5505632 (ipc=14.9) sim_rate=24688 (inst/sec) elapsed = 0:0:03:43 / Tue Mar 22 13:18:15 2016
GPGPU-Sim uArch: cycles simulated: 372000  inst.: 5532832 (ipc=14.9) sim_rate=24700 (inst/sec) elapsed = 0:0:03:44 / Tue Mar 22 13:18:16 2016
GPGPU-Sim PTX: 5600000 instructions simulated : ctaid=(10,4,0) tid=(159,0,0)
GPGPU-Sim uArch: cycles simulated: 374000  inst.: 5563008 (ipc=14.9) sim_rate=24724 (inst/sec) elapsed = 0:0:03:45 / Tue Mar 22 13:18:17 2016
GPGPU-Sim uArch: cycles simulated: 375500  inst.: 5583520 (ipc=14.9) sim_rate=24705 (inst/sec) elapsed = 0:0:03:46 / Tue Mar 22 13:18:18 2016
GPGPU-Sim uArch: cycles simulated: 377500  inst.: 5613728 (ipc=14.9) sim_rate=24730 (inst/sec) elapsed = 0:0:03:47 / Tue Mar 22 13:18:19 2016
GPGPU-Sim PTX: 5700000 instructions simulated : ctaid=(9,5,0) tid=(95,0,0)
GPGPU-Sim uArch: cycles simulated: 380000  inst.: 5649376 (ipc=14.9) sim_rate=24777 (inst/sec) elapsed = 0:0:03:48 / Tue Mar 22 13:18:20 2016
GPGPU-Sim uArch: cycles simulated: 382000  inst.: 5678848 (ipc=14.9) sim_rate=24798 (inst/sec) elapsed = 0:0:03:49 / Tue Mar 22 13:18:21 2016
GPGPU-Sim uArch: cycles simulated: 384000  inst.: 5707808 (ipc=14.9) sim_rate=24816 (inst/sec) elapsed = 0:0:03:50 / Tue Mar 22 13:18:22 2016
GPGPU-Sim uArch: cycles simulated: 385500  inst.: 5728672 (ipc=14.9) sim_rate=24799 (inst/sec) elapsed = 0:0:03:51 / Tue Mar 22 13:18:23 2016
GPGPU-Sim PTX: 5800000 instructions simulated : ctaid=(0,2,0) tid=(159,0,0)
GPGPU-Sim uArch: cycles simulated: 387500  inst.: 5758688 (ipc=14.9) sim_rate=24821 (inst/sec) elapsed = 0:0:03:52 / Tue Mar 22 13:18:24 2016
GPGPU-Sim uArch: cycles simulated: 389500  inst.: 5786400 (ipc=14.9) sim_rate=24834 (inst/sec) elapsed = 0:0:03:53 / Tue Mar 22 13:18:25 2016
GPGPU-Sim uArch: cycles simulated: 391000  inst.: 5808192 (ipc=14.9) sim_rate=24821 (inst/sec) elapsed = 0:0:03:54 / Tue Mar 22 13:18:26 2016
GPGPU-Sim uArch: cycles simulated: 392500  inst.: 5827968 (ipc=14.8) sim_rate=24799 (inst/sec) elapsed = 0:0:03:55 / Tue Mar 22 13:18:27 2016
GPGPU-Sim PTX: 5900000 instructions simulated : ctaid=(7,4,0) tid=(223,0,0)
GPGPU-Sim uArch: cycles simulated: 394500  inst.: 5856704 (ipc=14.8) sim_rate=24816 (inst/sec) elapsed = 0:0:03:56 / Tue Mar 22 13:18:28 2016
GPGPU-Sim uArch: cycles simulated: 396000  inst.: 5878848 (ipc=14.8) sim_rate=24805 (inst/sec) elapsed = 0:0:03:57 / Tue Mar 22 13:18:29 2016
GPGPU-Sim uArch: cycles simulated: 397500  inst.: 5899264 (ipc=14.8) sim_rate=24786 (inst/sec) elapsed = 0:0:03:58 / Tue Mar 22 13:18:30 2016
GPGPU-Sim uArch: cycles simulated: 399000  inst.: 5921888 (ipc=14.8) sim_rate=24777 (inst/sec) elapsed = 0:0:03:59 / Tue Mar 22 13:18:31 2016
GPGPU-Sim PTX: 6000000 instructions simulated : ctaid=(1,4,0) tid=(159,0,0)
GPGPU-Sim uArch: cycles simulated: 400500  inst.: 5943456 (ipc=14.8) sim_rate=24764 (inst/sec) elapsed = 0:0:04:00 / Tue Mar 22 13:18:32 2016
GPGPU-Sim uArch: cycles simulated: 402000  inst.: 5963776 (ipc=14.8) sim_rate=24745 (inst/sec) elapsed = 0:0:04:01 / Tue Mar 22 13:18:33 2016
GPGPU-Sim uArch: cycles simulated: 403500  inst.: 5984608 (ipc=14.8) sim_rate=24729 (inst/sec) elapsed = 0:0:04:02 / Tue Mar 22 13:18:34 2016
GPGPU-Sim uArch: cycles simulated: 405000  inst.: 6007712 (ipc=14.8) sim_rate=24723 (inst/sec) elapsed = 0:0:04:03 / Tue Mar 22 13:18:35 2016
GPGPU-Sim uArch: cycles simulated: 406500  inst.: 6029792 (ipc=14.8) sim_rate=24712 (inst/sec) elapsed = 0:0:04:04 / Tue Mar 22 13:18:36 2016
GPGPU-Sim PTX: 6100000 instructions simulated : ctaid=(10,5,0) tid=(31,0,0)
GPGPU-Sim uArch: cycles simulated: 408000  inst.: 6052160 (ipc=14.8) sim_rate=24702 (inst/sec) elapsed = 0:0:04:05 / Tue Mar 22 13:18:37 2016
GPGPU-Sim uArch: cycles simulated: 410000  inst.: 6080480 (ipc=14.8) sim_rate=24717 (inst/sec) elapsed = 0:0:04:06 / Tue Mar 22 13:18:38 2016
GPGPU-Sim uArch: cycles simulated: 412000  inst.: 6110528 (ipc=14.8) sim_rate=24738 (inst/sec) elapsed = 0:0:04:07 / Tue Mar 22 13:18:39 2016
GPGPU-Sim uArch: cycles simulated: 413500  inst.: 6133440 (ipc=14.8) sim_rate=24731 (inst/sec) elapsed = 0:0:04:08 / Tue Mar 22 13:18:40 2016
GPGPU-Sim PTX: 6200000 instructions simulated : ctaid=(0,1,0) tid=(223,0,0)
GPGPU-Sim uArch: cycles simulated: 415500  inst.: 6164192 (ipc=14.8) sim_rate=24755 (inst/sec) elapsed = 0:0:04:09 / Tue Mar 22 13:18:41 2016
GPGPU-Sim uArch: cycles simulated: 417500  inst.: 6193664 (ipc=14.8) sim_rate=24774 (inst/sec) elapsed = 0:0:04:10 / Tue Mar 22 13:18:42 2016
GPGPU-Sim uArch: cycles simulated: 419000  inst.: 6215008 (ipc=14.8) sim_rate=24760 (inst/sec) elapsed = 0:0:04:11 / Tue Mar 22 13:18:43 2016
GPGPU-Sim PTX: 6300000 instructions simulated : ctaid=(8,7,0) tid=(95,0,0)
GPGPU-Sim uArch: cycles simulated: 421000  inst.: 6242592 (ipc=14.8) sim_rate=24772 (inst/sec) elapsed = 0:0:04:12 / Tue Mar 22 13:18:44 2016
GPGPU-Sim uArch: cycles simulated: 422500  inst.: 6264256 (ipc=14.8) sim_rate=24759 (inst/sec) elapsed = 0:0:04:13 / Tue Mar 22 13:18:45 2016
GPGPU-Sim uArch: cycles simulated: 424000  inst.: 6286912 (ipc=14.8) sim_rate=24751 (inst/sec) elapsed = 0:0:04:14 / Tue Mar 22 13:18:46 2016
GPGPU-Sim uArch: cycles simulated: 426000  inst.: 6314240 (ipc=14.8) sim_rate=24761 (inst/sec) elapsed = 0:0:04:15 / Tue Mar 22 13:18:47 2016
GPGPU-Sim uArch: cycles simulated: 427500  inst.: 6337024 (ipc=14.8) sim_rate=24754 (inst/sec) elapsed = 0:0:04:16 / Tue Mar 22 13:18:48 2016
GPGPU-Sim PTX: 6400000 instructions simulated : ctaid=(10,7,0) tid=(95,0,0)
GPGPU-Sim uArch: cycles simulated: 429500  inst.: 6365984 (ipc=14.8) sim_rate=24770 (inst/sec) elapsed = 0:0:04:17 / Tue Mar 22 13:18:49 2016
GPGPU-Sim uArch: cycles simulated: 431500  inst.: 6394208 (ipc=14.8) sim_rate=24783 (inst/sec) elapsed = 0:0:04:18 / Tue Mar 22 13:18:50 2016
GPGPU-Sim uArch: cycles simulated: 433500  inst.: 6422752 (ipc=14.8) sim_rate=24798 (inst/sec) elapsed = 0:0:04:19 / Tue Mar 22 13:18:51 2016
GPGPU-Sim PTX: 6500000 instructions simulated : ctaid=(5,5,0) tid=(31,0,0)
GPGPU-Sim uArch: cycles simulated: 435500  inst.: 6451904 (ipc=14.8) sim_rate=24815 (inst/sec) elapsed = 0:0:04:20 / Tue Mar 22 13:18:52 2016
GPGPU-Sim uArch: cycles simulated: 437000  inst.: 6473472 (ipc=14.8) sim_rate=24802 (inst/sec) elapsed = 0:0:04:21 / Tue Mar 22 13:18:53 2016
GPGPU-Sim uArch: cycles simulated: 439000  inst.: 6501856 (ipc=14.8) sim_rate=24816 (inst/sec) elapsed = 0:0:04:22 / Tue Mar 22 13:18:54 2016
GPGPU-Sim uArch: cycles simulated: 441000  inst.: 6531968 (ipc=14.8) sim_rate=24836 (inst/sec) elapsed = 0:0:04:23 / Tue Mar 22 13:18:55 2016
GPGPU-Sim PTX: 6600000 instructions simulated : ctaid=(10,6,0) tid=(223,0,0)
GPGPU-Sim uArch: cycles simulated: 443000  inst.: 6561184 (ipc=14.8) sim_rate=24852 (inst/sec) elapsed = 0:0:04:24 / Tue Mar 22 13:18:56 2016
GPGPU-Sim uArch: cycles simulated: 444500  inst.: 6582720 (ipc=14.8) sim_rate=24840 (inst/sec) elapsed = 0:0:04:25 / Tue Mar 22 13:18:57 2016
GPGPU-Sim uArch: cycles simulated: 446500  inst.: 6609984 (ipc=14.8) sim_rate=24849 (inst/sec) elapsed = 0:0:04:26 / Tue Mar 22 13:18:58 2016
GPGPU-Sim uArch: cycles simulated: 448500  inst.: 6638432 (ipc=14.8) sim_rate=24863 (inst/sec) elapsed = 0:0:04:27 / Tue Mar 22 13:18:59 2016
GPGPU-Sim PTX: 6700000 instructions simulated : ctaid=(2,4,0) tid=(95,0,0)
GPGPU-Sim uArch: cycles simulated: 450500  inst.: 6665856 (ipc=14.8) sim_rate=24872 (inst/sec) elapsed = 0:0:04:28 / Tue Mar 22 13:19:00 2016
GPGPU-Sim uArch: cycles simulated: 452500  inst.: 6693856 (ipc=14.8) sim_rate=24884 (inst/sec) elapsed = 0:0:04:29 / Tue Mar 22 13:19:01 2016
GPGPU-Sim uArch: cycles simulated: 454000  inst.: 6715328 (ipc=14.8) sim_rate=24871 (inst/sec) elapsed = 0:0:04:30 / Tue Mar 22 13:19:02 2016
GPGPU-Sim PTX: 6800000 instructions simulated : ctaid=(6,1,0) tid=(159,0,0)
GPGPU-Sim uArch: cycles simulated: 456000  inst.: 6743136 (ipc=14.8) sim_rate=24882 (inst/sec) elapsed = 0:0:04:31 / Tue Mar 22 13:19:03 2016
GPGPU-Sim uArch: cycles simulated: 458000  inst.: 6769952 (ipc=14.8) sim_rate=24889 (inst/sec) elapsed = 0:0:04:32 / Tue Mar 22 13:19:04 2016
GPGPU-Sim uArch: cycles simulated: 460000  inst.: 6798144 (ipc=14.8) sim_rate=24901 (inst/sec) elapsed = 0:0:04:33 / Tue Mar 22 13:19:05 2016
GPGPU-Sim uArch: cycles simulated: 462000  inst.: 6822464 (ipc=14.8) sim_rate=24899 (inst/sec) elapsed = 0:0:04:34 / Tue Mar 22 13:19:06 2016
GPGPU-Sim PTX: 6900000 instructions simulated : ctaid=(7,2,0) tid=(31,0,0)
GPGPU-Sim uArch: cycles simulated: 463500  inst.: 6845280 (ipc=14.8) sim_rate=24891 (inst/sec) elapsed = 0:0:04:35 / Tue Mar 22 13:19:07 2016
GPGPU-Sim uArch: cycles simulated: 465500  inst.: 6874016 (ipc=14.8) sim_rate=24905 (inst/sec) elapsed = 0:0:04:36 / Tue Mar 22 13:19:08 2016
GPGPU-Sim uArch: cycles simulated: 467500  inst.: 6901088 (ipc=14.8) sim_rate=24913 (inst/sec) elapsed = 0:0:04:37 / Tue Mar 22 13:19:09 2016
GPGPU-Sim uArch: cycles simulated: 469500  inst.: 6929216 (ipc=14.8) sim_rate=24925 (inst/sec) elapsed = 0:0:04:38 / Tue Mar 22 13:19:10 2016
GPGPU-Sim PTX: 7000000 instructions simulated : ctaid=(5,1,0) tid=(95,0,0)
GPGPU-Sim uArch: cycles simulated: 471500  inst.: 6953984 (ipc=14.7) sim_rate=24924 (inst/sec) elapsed = 0:0:04:39 / Tue Mar 22 13:19:11 2016
GPGPU-Sim uArch: cycles simulated: 473000  inst.: 6975552 (ipc=14.7) sim_rate=24912 (inst/sec) elapsed = 0:0:04:40 / Tue Mar 22 13:19:12 2016
GPGPU-Sim uArch: cycles simulated: 475000  inst.: 7004064 (ipc=14.7) sim_rate=24925 (inst/sec) elapsed = 0:0:04:41 / Tue Mar 22 13:19:13 2016
GPGPU-Sim uArch: cycles simulated: 477000  inst.: 7032576 (ipc=14.7) sim_rate=24938 (inst/sec) elapsed = 0:0:04:42 / Tue Mar 22 13:19:14 2016
GPGPU-Sim PTX: 7100000 instructions simulated : ctaid=(1,2,0) tid=(95,0,0)
GPGPU-Sim uArch: cycles simulated: 479000  inst.: 7058560 (ipc=14.7) sim_rate=24941 (inst/sec) elapsed = 0:0:04:43 / Tue Mar 22 13:19:15 2016
GPGPU-Sim uArch: cycles simulated: 481000  inst.: 7085344 (ipc=14.7) sim_rate=24948 (inst/sec) elapsed = 0:0:04:44 / Tue Mar 22 13:19:16 2016
GPGPU-Sim uArch: cycles simulated: 482500  inst.: 7107136 (ipc=14.7) sim_rate=24937 (inst/sec) elapsed = 0:0:04:45 / Tue Mar 22 13:19:17 2016
GPGPU-Sim uArch: cycles simulated: 484500  inst.: 7134816 (ipc=14.7) sim_rate=24946 (inst/sec) elapsed = 0:0:04:46 / Tue Mar 22 13:19:18 2016
GPGPU-Sim PTX: 7200000 instructions simulated : ctaid=(0,5,0) tid=(223,0,0)
GPGPU-Sim uArch: cycles simulated: 486500  inst.: 7161536 (ipc=14.7) sim_rate=24953 (inst/sec) elapsed = 0:0:04:47 / Tue Mar 22 13:19:19 2016
GPGPU-Sim uArch: cycles simulated: 488500  inst.: 7189696 (ipc=14.7) sim_rate=24964 (inst/sec) elapsed = 0:0:04:48 / Tue Mar 22 13:19:20 2016
GPGPU-Sim uArch: cycles simulated: 490500  inst.: 7215776 (ipc=14.7) sim_rate=24968 (inst/sec) elapsed = 0:0:04:49 / Tue Mar 22 13:19:21 2016
GPGPU-Sim PTX: 7300000 instructions simulated : ctaid=(4,4,0) tid=(95,0,0)
GPGPU-Sim uArch: cycles simulated: 492500  inst.: 7245344 (ipc=14.7) sim_rate=24983 (inst/sec) elapsed = 0:0:04:50 / Tue Mar 22 13:19:22 2016
GPGPU-Sim uArch: cycles simulated: 494000  inst.: 7264992 (ipc=14.7) sim_rate=24965 (inst/sec) elapsed = 0:0:04:51 / Tue Mar 22 13:19:23 2016
GPGPU-Sim uArch: cycles simulated: 496000  inst.: 7293024 (ipc=14.7) sim_rate=24976 (inst/sec) elapsed = 0:0:04:52 / Tue Mar 22 13:19:24 2016
GPGPU-Sim uArch: cycles simulated: 498000  inst.: 7320288 (ipc=14.7) sim_rate=24983 (inst/sec) elapsed = 0:0:04:53 / Tue Mar 22 13:19:25 2016
GPGPU-Sim PTX: 7400000 instructions simulated : ctaid=(0,4,0) tid=(31,0,0)
GPGPU-Sim uArch: cycles simulated: 500000  inst.: 7347968 (ipc=14.7) sim_rate=24993 (inst/sec) elapsed = 0:0:04:54 / Tue Mar 22 13:19:26 2016
GPGPU-Sim uArch: cycles simulated: 502000  inst.: 7374208 (ipc=14.7) sim_rate=24997 (inst/sec) elapsed = 0:0:04:55 / Tue Mar 22 13:19:27 2016
GPGPU-Sim uArch: cycles simulated: 503500  inst.: 7395584 (ipc=14.7) sim_rate=24985 (inst/sec) elapsed = 0:0:04:56 / Tue Mar 22 13:19:28 2016
GPGPU-Sim uArch: cycles simulated: 505500  inst.: 7423072 (ipc=14.7) sim_rate=24993 (inst/sec) elapsed = 0:0:04:57 / Tue Mar 22 13:19:29 2016
GPGPU-Sim PTX: 7500000 instructions simulated : ctaid=(8,0,0) tid=(159,0,0)
GPGPU-Sim uArch: cycles simulated: 507500  inst.: 7447232 (ipc=14.7) sim_rate=24990 (inst/sec) elapsed = 0:0:04:58 / Tue Mar 22 13:19:30 2016
GPGPU-Sim uArch: cycles simulated: 509500  inst.: 7474720 (ipc=14.7) sim_rate=24999 (inst/sec) elapsed = 0:0:04:59 / Tue Mar 22 13:19:31 2016
GPGPU-Sim uArch: cycles simulated: 511500  inst.: 7503520 (ipc=14.7) sim_rate=25011 (inst/sec) elapsed = 0:0:05:00 / Tue Mar 22 13:19:32 2016
GPGPU-Sim uArch: cycles simulated: 513000  inst.: 7523744 (ipc=14.7) sim_rate=24995 (inst/sec) elapsed = 0:0:05:01 / Tue Mar 22 13:19:33 2016
GPGPU-Sim PTX: 7600000 instructions simulated : ctaid=(4,2,0) tid=(95,0,0)
GPGPU-Sim uArch: cycles simulated: 515000  inst.: 7551392 (ipc=14.7) sim_rate=25004 (inst/sec) elapsed = 0:0:05:02 / Tue Mar 22 13:19:34 2016
GPGPU-Sim uArch: cycles simulated: 517000  inst.: 7579392 (ipc=14.7) sim_rate=25014 (inst/sec) elapsed = 0:0:05:03 / Tue Mar 22 13:19:35 2016
GPGPU-Sim uArch: cycles simulated: 519000  inst.: 7607584 (ipc=14.7) sim_rate=25024 (inst/sec) elapsed = 0:0:05:04 / Tue Mar 22 13:19:36 2016
GPGPU-Sim uArch: cycles simulated: 521000  inst.: 7633632 (ipc=14.7) sim_rate=25028 (inst/sec) elapsed = 0:0:05:05 / Tue Mar 22 13:19:37 2016
GPGPU-Sim PTX: 7700000 instructions simulated : ctaid=(3,0,0) tid=(223,0,0)
GPGPU-Sim uArch: cycles simulated: 523000  inst.: 7659040 (ipc=14.6) sim_rate=25029 (inst/sec) elapsed = 0:0:05:06 / Tue Mar 22 13:19:38 2016
GPGPU-Sim uArch: cycles simulated: 525000  inst.: 7684672 (ipc=14.6) sim_rate=25031 (inst/sec) elapsed = 0:0:05:07 / Tue Mar 22 13:19:39 2016
GPGPU-Sim uArch: cycles simulated: 526500  inst.: 7705344 (ipc=14.6) sim_rate=25017 (inst/sec) elapsed = 0:0:05:08 / Tue Mar 22 13:19:40 2016
GPGPU-Sim uArch: cycles simulated: 528500  inst.: 7731968 (ipc=14.6) sim_rate=25022 (inst/sec) elapsed = 0:0:05:09 / Tue Mar 22 13:19:41 2016
GPGPU-Sim PTX: 7800000 instructions simulated : ctaid=(3,4,0) tid=(31,0,0)
GPGPU-Sim uArch: cycles simulated: 530500  inst.: 7757184 (ipc=14.6) sim_rate=25023 (inst/sec) elapsed = 0:0:05:10 / Tue Mar 22 13:19:42 2016
GPGPU-Sim uArch: cycles simulated: 532500  inst.: 7784288 (ipc=14.6) sim_rate=25029 (inst/sec) elapsed = 0:0:05:11 / Tue Mar 22 13:19:43 2016
GPGPU-Sim uArch: cycles simulated: 534500  inst.: 7810688 (ipc=14.6) sim_rate=25034 (inst/sec) elapsed = 0:0:05:12 / Tue Mar 22 13:19:44 2016
GPGPU-Sim uArch: cycles simulated: 536500  inst.: 7836480 (ipc=14.6) sim_rate=25036 (inst/sec) elapsed = 0:0:05:13 / Tue Mar 22 13:19:45 2016
GPGPU-Sim PTX: 7900000 instructions simulated : ctaid=(0,2,0) tid=(159,0,0)
GPGPU-Sim uArch: cycles simulated: 538000  inst.: 7855584 (ipc=14.6) sim_rate=25017 (inst/sec) elapsed = 0:0:05:14 / Tue Mar 22 13:19:46 2016
GPGPU-Sim uArch: cycles simulated: 540000  inst.: 7882144 (ipc=14.6) sim_rate=25022 (inst/sec) elapsed = 0:0:05:15 / Tue Mar 22 13:19:47 2016
GPGPU-Sim uArch: cycles simulated: 542000  inst.: 7907808 (ipc=14.6) sim_rate=25024 (inst/sec) elapsed = 0:0:05:16 / Tue Mar 22 13:19:48 2016
GPGPU-Sim uArch: cycles simulated: 544000  inst.: 7931680 (ipc=14.6) sim_rate=25021 (inst/sec) elapsed = 0:0:05:17 / Tue Mar 22 13:19:49 2016
GPGPU-Sim PTX: 8000000 instructions simulated : ctaid=(0,8,0) tid=(223,0,0)
GPGPU-Sim uArch: cycles simulated: 546000  inst.: 7959680 (ipc=14.6) sim_rate=25030 (inst/sec) elapsed = 0:0:05:18 / Tue Mar 22 13:19:50 2016
[...]
traffic_breakdown_memtocore[GLOBAL_ACC_W] = 14336 {8:1792,}
traffic_breakdown_memtocore[INST_ACC_R] = 10200 {136:75,}
maxmrqlatency = 569 
maxdqlatency = 0 
maxmflatency = 1453 
averagemflatency = 399 
max_icnt2mem_latency = 880 
max_icnt2sh_latency = 36874626 
mrq_lat_table:14738091 	558266 	734018 	1489953 	3153735 	3598616 	2944963 	793419 	18598 	8 	0 	0 	0 	0 	0 	0 	0 	0 	0 	0 	0 	0 	0 	0 	0 	0 	0 	0 	0 	0 	0 	0 	
dq_lat_table:0 	0 	0 	0 	0 	0 	0 	0 	0 	0 	0 	0 	0 	0 	0 	0 	0 	0 	0 	0 	0 	0 	0 	0 	0 	0 	0 	0 	0 	0 	0 	0 	
mf_lat_table:0 	0 	0 	0 	0 	0 	0 	6858364 	23446230 	8968587 	49177 	0 	0 	0 	0 	0 	0 	0 	0 	0 	0 	0 	0 	0 	0 	0 	0 	0 	0 	0 	0 	0 	
icnt2mem_lat_table:0 	0 	0 	23121266 	1673505 	2885305 	4745725 	5036281 	1811697 	48654 	0 	0 	0 	0 	0 	0 	0 	0 	0 	0 	0 	0 	0 	0 	
icnt2sh_lat_table:0 	0 	0 	4024939 	22441672 	12148662 	699283 	6010 	0 	0 	0 	0 	0 	0 	0 	0 	0 	0 	0 	0 	0 	0 	360 	464 	
mf_lat_pw_table:753 	215 	0 	0 	0 	0 	0 	7240 	64194 	2312 	0 	0 	0 	0 	0 	0 	0 	0 	0 	0 	0 	0 	0 	0 	0 	0 	0 	0 	0 	0 	0 	0 	
maximum concurrent accesses to same row:
dram[0]:         6         6         6         7         6         6         6         6         7         6         6         6         6         6         6         6 
dram[1]:         6         7         6         7         7         6         7         6         6         6         6         6         6         6         8         6 
dram[2]:         6         6         6         6         6         7         7         6         6         6         6         6         6         6         6         6 
dram[3]:         6         6         6         6         6         6         6         6         7         7         6         7         6         6         7         6 
dram[4]:         6         6         6         6         6         7         7         6         6         6         7         6         7         7         6         6 
dram[5]:         7         6         7         6         6         6         6         6         6         7         6         6         6         6         6         6 
maximum service time to same row:
dram[0]:    854613    859795     42563    117869     31889     39509     40704     61531     66100     58289     61912     35749     22464     29928     35202     38058 
dram[1]:    860372    843078     31016    285863     36654     40927     25278     33541     74488     66534     60606     32211     49248     28788     29593     25116 
dram[2]:    889515    885706     40456    439416     35170     34818     37597     71376     66275     56552     62641     52765     31644     26328     28445     49453 
dram[3]:    848257    875711     34123    568372     35689     34254     62852     33629     78394     24095     48407     31099     25806     46698     31468     26593 
dram[4]:    893211    896741     39078     39072     35912     34010     43734     73423     67325     56862     59910     53021     41300     23547     29659     28410 
dram[5]:    854522    856790     70878     32819     38688     30786     30452     32413     71759     27325     38285     30606     26741     22032     29181     29718 
average row accesses per activate:
dram[0]:  1.270006  1.273712  1.271004  1.276148  1.276009  1.286490  1.284420  1.297256  1.263485  1.270754  1.274268  1.276171  1.284762  1.288715  1.289434  1.298627 
dram[1]:  1.268499  1.274888  1.268323  1.274552  1.274134  1.286449  1.282693  1.294224  1.260666  1.270877  1.270035  1.276512  1.279904  1.286522  1.285740  1.296164 
dram[2]:  1.263445  1.268570  1.264929  1.267584  1.272417  1.279716  1.276050  1.284127  1.260218  1.262177  1.266455  1.266379  1.275383  1.276521  1.279724  1.288996 
dram[3]:  1.266776  1.273363  1.268966  1.275867  1.276791  1.285428  1.282153  1.292204  1.264011  1.267057  1.270633  1.271903  1.278841  1.283009  1.285044  1.295422 
dram[4]:  1.267548  1.273548  1.269359  1.273346  1.277073  1.283709  1.282428  1.289520  1.263402  1.265913  1.270776  1.271271  1.281178  1.282745  1.285158  1.296200 
dram[5]:  1.267076  1.270003  1.267653  1.271309  1.272743  1.275906  1.281328  1.286281  1.262502  1.261414  1.267161  1.270654  1.274231  1.280923  1.281609  1.291337 
average row locality = 28029667/21960883 = 1.276345
number of total memory accesses made:
dram[0]:         0         0         0         0         0         0         0         0         0         0         0         0         0         0         0         0 
dram[1]:         0         0         0         0         0         0         0         0         0         0         0         0         0         0         0         0 
dram[2]:         0         0         0         0         0         0         0         0         0         0         0         0         0         0         0         0 
dram[3]:         0         0         0         0         0         0         0         0         0         0         0         0         0         0         0         0 
dram[4]:         0         0         0         0         0         0         0         0         0         0         0         0         0         0         0         0 
dram[5]:         0         0         0         0         0         0         0         0         0         0         0         0         0         0         0         0 
total accesses: 0
min_bank_accesses = 0!
min_chip_accesses = 0!
number of total read accesses:
dram[0]:    289623    288684    288898    288837    292007    291296    297428    296929    297164    297181    292605    292945    288833    287964    288688    289409 
dram[1]:    290071    289161    288886    289243    292415    291822    297441    297586    297125    297394    292813    293359    288661    288386    288856    289875 
dram[2]:    288901    289345    289560    288928    291311    292282    297284    297269    297283    297485    292964    292674    288265    288554    289622    289853 
dram[3]:    288790    288750    289465    289146    291254    292197    297294    297318    296906    296547    292863    292815    287668    287923    289355    290222 
dram[4]:    289060    289281    289862    289182    291589    292683    297431    297536    297386    297573    293065    292836    288450    288704    289919    290010 
dram[5]:    288932    289705    289286    288722    291565    292430    297272    297522    297318    297044    293448    292723    287941    288614    289622    289486 
total reads: 28027875
bank skew: 297586/287668 = 1.03
chip skew: 4674567/4668491 = 1.00
number of total write accesses:
dram[0]:        64        64         0         0         0         0         0         0         0         0         0         0        20        20        64        64 
dram[1]:        64        64         0         0         0         0         0         0         0         0         0         0        20        20        64        64 
dram[2]:        64        64         0         0         0         0         0         0         0         0         0         0        20        24        64        64 
dram[3]:        64        64         0         0         0         0         0         0         0         0         0         0        20        24        64        64 
dram[4]:        64        64         0         0         0         0         0         0         0         0         0         0        20        24        64        64 
dram[5]:        64        64         0         0         0         0         0         0         0         0         0         0        20        24        64        64 
total reads: 1792
min_bank_accesses = 0!
chip skew: 300/296 = 1.01
average mf latency per bank:
dram[0]:        563       570       582       592       572       581       577       587       562       569       564       570       573       581       574       581
dram[1]:        548       549       569       572       556       557       562       563       547       547       549       548       558       559       558       560
dram[2]:        547       544       569       574       554       554       555       556       544       544       545       546       552       553       556       557
dram[3]:        566       568       588       599       572       576       572       577       562       566       563       568       570       575       574       578
dram[4]:        546       551       570       577       554       559       556       562       545       548       546       551       552       559       556       562
dram[5]:        544       540       564       543       553       549       555       554       543       537       543       541       553       550       552       550
maximum mf latency per bank:
dram[0]:       1248      1266      1286      1237      1312      1286      1361      1358      1371      1214      1217      1334      1309      1271      1272      1351
dram[1]:       1308      1189      1310      1357      1307      1351      1261      1348      1255      1259      1257      1284      1321      1290      1238      1263
dram[2]:       1220      1212      1284      1238      1292      1326      1426      1287      1316      1274      1236      1274      1256      1320      1285      1410
dram[3]:       1269      1346      1252      1297      1282      1333      1256      1347      1375      1273      1295      1429      1269      1300      1418      1347
dram[4]:       1351      1453      1222      1268      1333      1324      1318      1372      1243      1265      1341      1334      1241      1350      1309      1342
dram[5]:       1231      1220      1236      1372      1298      1276      1281      1424      1193      1296      1216      1281      1199      1324      1327      1422

Number of Memory Banks Accessed per Memory Operation per Warp (from 0):
0	0	0	0	0	0	0	0	0	0	0	0	0	0	0	0	0	0	0	0	0	0	0	0	0	0	0	0	0	0	0	0	0	0	0	0	0	0	0	0	0	0	0	0	0	0	0	0	0	0	0	0	0	0	0	0	0	0	0	0	0	0	0	0	0	0	0	0	0	0	0	0	0	0	0	0	0	0	0	0	0	0	0	0	0	0	0	0	0	0	0	0	0	0	0	0	
Average # of Memory Banks Accessed per Memory Operation per Warp=-nan

position of mrq chosen
0	0	0	0	0	0	0	0	0	0	0	0	0	0	0	0	

average position of mrq chosen = -nan
Memory Partition 0: 
Cache L2_bank_000:
MSHR contents

Cache L2_bank_001:
MSHR contents

In Dram Latency Queue (total = 0): 
DRAM[0]: 16 bks, busW=4 BL=8 CL=12, tRRD=2 tCCD=6, tRCD=12 tRAS=28 tRP=12 tRC=40
n_cmd=48674506 n_nop=32041886 n_act=3647531 n_pre=3647515 n_req=4668787 n_rd=9336982 n_write=592 bw_util=0.3837
n_activity=36409043 dram_eff=0.5129
bk0: 579246a 38070119i bk1: 577368a 38005660i bk2: 577796a 37830533i bk3: 577674a 37749291i bk4: 584014a 37439179i bk5: 582592a 37340360i bk6: 594856a 36843192i bk7: 593858a 36621945i bk8: 594328a 37729508i bk9: 594362a 37663966i bk10: 585210a 37683557i bk11: 585890a 37558722i bk12: 577666a 37566552i bk13: 575928a 37444673i bk14: 577376a 37179762i bk15: 578818a 36919222i 
dram_util_bins: 0 0 0 0 0 0 0 0 0 0
dram_eff_bins: 0 0 0 0 0 0 0 0 0 0
mrqq: max=16 avg=2.95132
Memory Partition 1: 
Cache L2_bank_002:
MSHR contents

Cache L2_bank_003:
MSHR contents

In Dram Latency Queue (total = 0): 
DRAM[1]: 16 bks, busW=4 BL=8 CL=12, tRRD=2 tCCD=6, tRCD=12 tRAS=28 tRP=12 tRC=40
n_cmd=48674506 n_nop=32014446 n_act=3656648 n_pre=3656632 n_req=4673390 n_rd=9346188 n_write=592 bw_util=0.3841
n_activity=36437117 dram_eff=0.513
bk0: 580142a 37988318i bk1: 578322a 37951807i bk2: 577772a 37764360i bk3: 578486a 37683489i bk4: 584830a 37365221i bk5: 583644a 37266027i bk6: 594882a 36788416i bk7: 595172a 36537273i bk8: 594250a 37663038i bk9: 594788a 37611637i bk10: 585626a 37591971i bk11: 586718a 37511427i bk12: 577322a 37510504i bk13: 576772a 37368676i bk14: 577712a 37121363i bk15: 579750a 36856409i 
dram_util_bins: 0 0 0 0 0 0 0 0 0 0
dram_eff_bins: 0 0 0 0 0 0 0 0 0 0
mrqq: max=16 avg=2.92153
Memory Partition 2: 
Cache L2_bank_004:
MSHR contents
MSHR: tag=0x81e48680, atomic=0 1 entries : 0x7f63aad9b1a0 :  mf: uid=501272847, sid00:w05, part=2, addr=0x81e48680, load , size=128, unknown  status = IN_PARTITION_DRAM (36874624), 

Cache L2_bank_005:
MSHR contents

In Dram Latency Queue (total = 0): 
DRAM[2]: 16 bks, busW=4 BL=8 CL=12, tRRD=2 tCCD=6, tRCD=12 tRAS=28 tRP=12 tRC=40
n_cmd=48674506 n_nop=31984922 n_act=3672920 n_pre=3672904 n_req=4671880 n_rd=9343160 n_write=600 bw_util=0.3839
n_activity=36554074 dram_eff=0.5112
bk0: 577802a 38015212i bk1: 578690a 37939105i bk2: 579120a 37747146i bk3: 577856a 37676621i bk4: 582622a 37412796i bk5: 584564a 37239453i bk6: 594568a 36786999i bk7: 594538a 36541376i bk8: 594566a 37653913i bk9: 594970a 37556573i bk10: 585928a 37585469i bk11: 585348a 37481667i bk12: 576530a 37508784i bk13: 577108a 37331247i bk14: 579244a 37089571i bk15: 579706a 36853796i 
dram_util_bins: 0 0 0 0 0 0 0 0 0 0
dram_eff_bins: 0 0 0 0 0 0 0 0 0 0
mrqq: max=16 avg=2.89344
Memory Partition 3: 
Cache L2_bank_006:
MSHR contents

Cache L2_bank_007:
MSHR contents

In Dram Latency Queue (total = 0): 
DRAM[3]: 16 bks, busW=4 BL=8 CL=12, tRRD=2 tCCD=6, tRCD=12 tRAS=28 tRP=12 tRC=40
n_cmd=48674506 n_nop=32026302 n_act=3655297 n_pre=3655281 n_req=4668813 n_rd=9337026 n_write=600 bw_util=0.3837
n_activity=36592169 dram_eff=0.5104
bk0: 577580a 38064199i bk1: 577500a 38013623i bk2: 578930a 37803646i bk3: 578292a 37749245i bk4: 582508a 37458526i bk5: 584394a 37280731i bk6: 594588a 36846960i bk7: 594636a 36600988i bk8: 593812a 37729915i bk9: 593094a 37649549i bk10: 585726a 37654170i bk11: 585630a 37549212i bk12: 575336a 37581142i bk13: 575846a 37416334i bk14: 578710a 37134810i bk15: 580444a 36896978i 
dram_util_bins: 0 0 0 0 0 0 0 0 0 0
dram_eff_bins: 0 0 0 0 0 0 0 0 0 0
mrqq: max=16 avg=2.9171
Memory Partition 4: 
Cache L2_bank_008:
MSHR contents

Cache L2_bank_009:
MSHR contents

In Dram Latency Queue (total = 0): 
DRAM[4]: 16 bks, busW=4 BL=8 CL=12, tRRD=2 tCCD=6, tRCD=12 tRAS=28 tRP=12 tRC=40
n_cmd=48674506 n_nop=32003130 n_act=3660829 n_pre=3660813 n_req=4674867 n_rd=9349134 n_write=600 bw_util=0.3842
n_activity=36530076 dram_eff=0.5119
bk0: 578120a 38023458i bk1: 578562a 37965024i bk2: 579724a 37746831i bk3: 578364a 37684014i bk4: 583178a 37412607i bk5: 585366a 37217540i bk6: 594862a 36794041i bk7: 595072a 36539959i bk8: 594772a 37660890i bk9: 595146a 37573769i bk10: 586130a 37592586i bk11: 585672a 37499362i bk12: 576900a 37521458i bk13: 577408a 37340657i bk14: 579838a 37073645i bk15: 580020a 36852292i 
dram_util_bins: 0 0 0 0 0 0 0 0 0 0
dram_eff_bins: 0 0 0 0 0 0 0 0 0 0
mrqq: max=16 avg=2.91945
Memory Partition 5: 
Cache L2_bank_010:
MSHR contents

Cache L2_bank_011:
MSHR contents

In Dram Latency Queue (total = 0): 
DRAM[5]: 16 bks, busW=4 BL=8 CL=12, tRRD=2 tCCD=6, tRCD=12 tRAS=28 tRP=12 tRC=40
n_cmd=48674506 n_nop=31995344 n_act=3667659 n_pre=3667643 n_req=4671930 n_rd=9343260 n_write=600 bw_util=0.3839
n_activity=36454716 dram_eff=0.5126
bk0: 577864a 38018294i bk1: 579410a 37932766i bk2: 578572a 37773367i bk3: 577444a 37700259i bk4: 583130a 37414835i bk5: 584860a 37230249i bk6: 594544a 36813697i bk7: 595044a 36542104i bk8: 594636a 37671032i bk9: 594088a 37576437i bk10: 586896a 37566838i bk11: 585446a 37511000i bk12: 575882a 37501942i bk13: 577228a 37368351i bk14: 579244a 37076635i bk15: 578972a 36875498i 
dram_util_bins: 0 0 0 0 0 0 0 0 0 0
dram_eff_bins: 0 0 0 0 0 0 0 0 0 0
mrqq: max=16 avg=2.89535

========= L2 cache stats =========
L2_cache_bank[0]: Access = 3273250, Miss = 2335246, Miss_rate = 0.713, Pending_hits = 11, Reservation_fails = 1669382
L2_cache_bank[1]: Access = 3280456, Miss = 2333245, Miss_rate = 0.711, Pending_hits = 7, Reservation_fails = 1849111
L2_cache_bank[2]: Access = 3273679, Miss = 2336268, Miss_rate = 0.714, Pending_hits = 8, Reservation_fails = 1338518
L2_cache_bank[3]: Access = 3281424, Miss = 2336826, Miss_rate = 0.712, Pending_hits = 4, Reservation_fails = 1468398
L2_cache_bank[4]: Access = 3276223, Miss = 2335190, Miss_rate = 0.713, Pending_hits = 4, Reservation_fails = 1358679
L2_cache_bank[5]: Access = 3283206, Miss = 2336390, Miss_rate = 0.712, Pending_hits = 6, Reservation_fails = 1397510
L2_cache_bank[6]: Access = 3277312, Miss = 2333595, Miss_rate = 0.712, Pending_hits = 9, Reservation_fails = 1653365
L2_cache_bank[7]: Access = 3283966, Miss = 2334918, Miss_rate = 0.711, Pending_hits = 6, Reservation_fails = 1733543
L2_cache_bank[8]: Access = 3276974, Miss = 2336762, Miss_rate = 0.713, Pending_hits = 5, Reservation_fails = 1351890
L2_cache_bank[9]: Access = 3278902, Miss = 2337805, Miss_rate = 0.713, Pending_hits = 1, Reservation_fails = 1389781
L2_cache_bank[10]: Access = 3278824, Miss = 2335384, Miss_rate = 0.712, Pending_hits = 5, Reservation_fails = 1362439
L2_cache_bank[11]: Access = 3258217, Miss = 2336246, Miss_rate = 0.717, Pending_hits = 0, Reservation_fails = 1442636
L2_total_cache_accesses = 39322433
L2_total_cache_misses = 28027875
L2_total_cache_miss_rate = 0.7128
L2_total_cache_pending_hits = 66
L2_total_cache_reservation_fails = 18015252
L2_total_cache_breakdown:
	L2_cache_stats_breakdown[GLOBAL_ACC_R][HIT] = 11294427
	L2_cache_stats_breakdown[GLOBAL_ACC_R][HIT_RESERVED] = 54
	L2_cache_stats_breakdown[GLOBAL_ACC_R][MISS] = 28026070
	L2_cache_stats_breakdown[GLOBAL_ACC_R][RESERVATION_FAIL] = 18014493
	L2_cache_stats_breakdown[CONST_ACC_R][HIT] = 11
	L2_cache_stats_breakdown[CONST_ACC_R][HIT_RESERVED] = 3
	L2_cache_stats_breakdown[CONST_ACC_R][MISS] = 1
	L2_cache_stats_breakdown[CONST_ACC_R][RESERVATION_FAIL] = 104
	L2_cache_stats_breakdown[GLOBAL_ACC_W][MISS] = 1792
	L2_cache_stats_breakdown[GLOBAL_ACC_W][RESERVATION_FAIL] = 344
	L2_cache_stats_breakdown[INST_ACC_R][HIT] = 54
	L2_cache_stats_breakdown[INST_ACC_R][HIT_RESERVED] = 9
	L2_cache_stats_breakdown[INST_ACC_R][MISS] = 12
	L2_cache_stats_breakdown[INST_ACC_R][RESERVATION_FAIL] = 311
L2_cache_data_port_util = 0.102
L2_cache_fill_port_util = 0.253

icnt_total_pkts_mem_to_simt=196604967
icnt_total_pkts_simt_to_mem=39329601
LD_mem_lat_dist  0 0 0 0 0 0 0 0 0 0 0 0 0 0 0 0 0 0 0 0 0 0 0 0 0 0 0
ST_mem_lat_dist  0 0 0 0 0 0 0 0 0 0 0 0 0 0 0 0 0 0 0 0 0 0 0 0 0 0 0
----------------------------Interconnect-DETAILS--------------------------------
Class 0:
Packet latency average = 33.1887
	minimum = 6
	maximum = 702
Network latency average = 25.6429
	minimum = 6
	maximum = 702
Slowest packet = 55075266
Flit latency average = 17.725
	minimum = 6
	maximum = 702
Slowest flit = 165224872
Fragmentation average = 3.69901e-05
	minimum = 0
	maximum = 346
Injected packet rate average = 0.079002
	minimum = 0.057703 (at node 1)
	maximum = 0.089098 (at node 22)
Accepted packet rate average = 0.079002
	minimum = 0.057703 (at node 1)
	maximum = 0.089098 (at node 22)
Injected flit rate average = 0.237006
	minimum = 0.0577134 (at node 1)
	maximum = 0.445474 (at node 22)
Accepted flit rate average= 0.237006
	minimum = 0.0884015 (at node 26)
	maximum = 0.433198 (at node 0)
Injected packet length average = 3
Accepted packet length average = 3
Total in-flight flits = 0 (0 measured)
====== Overall Traffic Statistics ======
====== Traffic class 0 ======
Packet latency average = 33.211 (2 samples)
	minimum = 6 (2 samples)
	maximum = 694 (2 samples)
Network latency average = 25.6636 (2 samples)
	minimum = 6 (2 samples)
	maximum = 668 (2 samples)
Flit latency average = 17.7349 (2 samples)
	minimum = 6 (2 samples)
	maximum = 668 (2 samples)
Fragmentation average = 5.22396e-05 (2 samples)
	minimum = 0 (2 samples)
	maximum = 367.5 (2 samples)
Injected packet rate average = 0.0789912 (2 samples)
	minimum = 0.0577127 (2 samples)
	maximum = 0.0890576 (2 samples)
Accepted packet rate average = 0.0789912 (2 samples)
	minimum = 0.0577127 (2 samples)
	maximum = 0.0890576 (2 samples)
Injected flit rate average = 0.236974 (2 samples)
	minimum = 0.0577232 (2 samples)
	maximum = 0.445272 (2 samples)
Accepted flit rate average = 0.236974 (2 samples)
	minimum = 0.0883758 (2 samples)
	maximum = 0.433093 (2 samples)
Injected packet size average = 3 (2 samples)
Accepted packet size average = 3 (2 samples)
Hops average = 1 (2 samples)
