

        *** GPGPU-Sim Simulator Version 3.2.2  [build 0] ***


GPGPU-Sim PTX: simulation mode 0 (can change with PTX_SIM_MODE_FUNC environment variable:
               1=functional simulation only, 0=detailed performance simulator)
GPGPU-Sim: Configuration options:

-network_mode                           1 # Interconnection network mode
-inter_config_file   config_fermi_islip.icnt # Interconnection network config file
-gpgpu_ptx_use_cuobjdump                    1 # Use cuobjdump to extract ptx and sass from binaries
-gpgpu_experimental_lib_support                    0 # Try to extract code from cuda libraries [Broken because of unknown cudaGetExportTable]
-gpgpu_ptx_convert_to_ptxplus                    0 # Convert SASS (native ISA) to ptxplus and run ptxplus
-gpgpu_ptx_force_max_capability                   20 # Force maximum compute capability
-gpgpu_ptx_inst_debug_to_file                    0 # Dump executed instructions' debug information to file
-gpgpu_ptx_inst_debug_file       inst_debug.txt # Executed instructions' debug output file
-gpgpu_ptx_inst_debug_thread_uid                    1 # Thread UID for executed instructions' debug output
-gpgpu_simd_model                       1 # 1 = post-dominator
-gpgpu_shader_core_pipeline              1536:32 # shader core pipeline config, i.e., {<nthread>:<warpsize>}
-gpgpu_tex_cache:l1  4:128:24,L:R:m:N:L,F:128:4,128:2 # per-shader L1 texture cache  (READ-ONLY) config  {<nsets>:<bsize>:<assoc>,<rep>:<wr>:<alloc>:<wr_alloc>,<mshr>:<N>:<merge>,<mq>:<rf>}
-gpgpu_const_cache:l1 64:64:2,L:R:f:N:L,A:2:32,4 # per-shader L1 constant memory cache  (READ-ONLY) config  {<nsets>:<bsize>:<assoc>,<rep>:<wr>:<alloc>:<wr_alloc>,<mshr>:<N>:<merge>,<mq>} 
-gpgpu_cache:il1     4:128:4,L:R:f:N:L,A:2:32,4 # shader L1 instruction cache config  {<nsets>:<bsize>:<assoc>,<rep>:<wr>:<alloc>:<wr_alloc>,<mshr>:<N>:<merge>,<mq>} 
-gpgpu_cache:dl1     32:128:4,L:L:m:N:H,A:32:8,8:2,0,1:0:1:1:0:1,1:4:8:16:32:64,/sciclone/data10/hwang07/GPU_RESEARCH/swl/swl_outputs/RESULTS/lrr/ # per-shader L1 data cache config  {<nsets>:<bsize>:<assoc>,<rep>:<wr>:<alloc>:<wr_alloc>,<mshr>:<N>:<merge>,<mq> | none}
-gpgpu_cache:dl1PrefL1                 none # per-shader L1 data cache config  {<nsets>:<bsize>:<assoc>,<rep>:<wr>:<alloc>:<wr_alloc>,<mshr>:<N>:<merge>,<mq> | none}
-gpgpu_cache:dl1PreShared                 none # per-shader L1 data cache config  {<nsets>:<bsize>:<assoc>,<rep>:<wr>:<alloc>:<wr_alloc>,<mshr>:<N>:<merge>,<mq> | none}
-gmem_skip_L1D                          0 # global memory access skip L1D cache (implements -Xptxas -dlcm=cg, default=no skip)
-gpgpu_perfect_mem                      0 # enable perfect memory mode (no cache miss)
-n_regfile_gating_group                    4 # group of lanes that should be read/written together)
-gpgpu_clock_gated_reg_file                    0 # enable clock gated reg file for power calculations
-gpgpu_clock_gated_lanes                    0 # enable clock gated lanes for power calculations
-gpgpu_shader_registers                32768 # Number of registers per shader core. Limits number of concurrent CTAs. (default 8192)
-gpgpu_shader_cta                       8 # Maximum number of concurrent CTAs in shader (default 8)
-gpgpu_num_cta_barriers                   16 # Maximum number of named barriers per CTA (default 16)
-gpgpu_n_clusters                      15 # number of processing clusters
-gpgpu_n_cores_per_cluster                    1 # number of simd cores per cluster
-gpgpu_n_cluster_ejection_buffer_size                    8 # number of packets in ejection buffer
-gpgpu_n_ldst_response_buffer_size                    2 # number of response packets in ld/st unit ejection buffer
-gpgpu_shmem_size                   16384 # Size of shared memory per shader core (default 16kB)
-gpgpu_shmem_size                   49152 # Size of shared memory per shader core (default 16kB)
-gpgpu_shmem_size_PrefL1                16384 # Size of shared memory per shader core (default 16kB)
-gpgpu_shmem_size_PrefShared                16384 # Size of shared memory per shader core (default 16kB)
-gpgpu_shmem_num_banks                   32 # Number of banks in the shared memory in each shader core (default 16)
-gpgpu_shmem_limited_broadcast                    0 # Limit shared memory to do one broadcast per cycle (default on)
-gpgpu_shmem_warp_parts                    1 # Number of portions a warp is divided into for shared memory bank conflict check 
-gpgpu_warpdistro_shader                   -1 # Specify which shader core to collect the warp size distribution from
-gpgpu_warp_issue_shader                    0 # Specify which shader core to collect the warp issue distribution from
-gpgpu_local_mem_map                    1 # Mapping from local memory space address to simulated GPU physical address space (default = enabled)
-gpgpu_num_reg_banks                   16 # Number of register banks (default = 8)
-gpgpu_reg_bank_use_warp_id                    0 # Use warp ID in mapping registers to banks (default = off)
-gpgpu_operand_collector_num_units_sp                    6 # number of collector units (default = 4)
-gpgpu_operand_collector_num_units_sfu                    8 # number of collector units (default = 4)
-gpgpu_operand_collector_num_units_mem                    2 # number of collector units (default = 2)
-gpgpu_operand_collector_num_units_gen                    0 # number of collector units (default = 0)
-gpgpu_operand_collector_num_in_ports_sp                    2 # number of collector unit in ports (default = 1)
-gpgpu_operand_collector_num_in_ports_sfu                    1 # number of collector unit in ports (default = 1)
-gpgpu_operand_collector_num_in_ports_mem                    1 # number of collector unit in ports (default = 1)
-gpgpu_operand_collector_num_in_ports_gen                    0 # number of collector unit in ports (default = 0)
-gpgpu_operand_collector_num_out_ports_sp                    2 # number of collector unit in ports (default = 1)
-gpgpu_operand_collector_num_out_ports_sfu                    1 # number of collector unit in ports (default = 1)
-gpgpu_operand_collector_num_out_ports_mem                    1 # number of collector unit in ports (default = 1)
-gpgpu_operand_collector_num_out_ports_gen                    0 # number of collector unit in ports (default = 0)
-gpgpu_coalesce_arch                   13 # Coalescing arch (default = 13, anything else is off for now)
-gpgpu_num_sched_per_core                    2 # Number of warp schedulers per core
-gpgpu_max_insn_issue_per_warp                    1 # Max number of instructions that can be issued per warp in one cycle by scheduler
-gpgpu_simt_core_sim_order                    1 # Select the simulation order of cores in a cluster (0=Fix, 1=Round-Robin)
-gpgpu_pipeline_widths        2,1,1,2,1,1,2 # Pipeline widths ID_OC_SP,ID_OC_SFU,ID_OC_MEM,OC_EX_SP,OC_EX_SFU,OC_EX_MEM,EX_WB
-gpgpu_num_sp_units                     2 # Number of SP units (default=1)
-gpgpu_num_sfu_units                    1 # Number of SF units (default=1)
-gpgpu_num_mem_units                    1 # Number if ldst units (default=1) WARNING: not hooked up to anything
-gpgpu_scheduler                      lrr # Scheduler configuration: < lrr | gto | two_level_active > If two_level_active:<num_active_warps>:<inner_prioritization>:<outer_prioritization>For complete list of prioritization values see shader.h enum scheduler_prioritization_typeDefault: gto
-gpgpu_dram_scheduler                    1 # 0 = fifo, 1 = FR-FCFS (defaul)
-gpgpu_dram_partition_queues              8:8:8:8 # i2$:$2d:d2$:$2i
-l2_ideal                               0 # Use a ideal L2 cache that always hit
-gpgpu_cache:dl2     64:128:8,L:B:m:W:L,A:32:4,4:0,32 # unified banked L2 data cache config  {<nsets>:<bsize>:<assoc>,<rep>:<wr>:<alloc>:<wr_alloc>,<mshr>:<N>:<merge>,<mq>}
-gpgpu_cache:dl2_texture_only                    0 # L2 cache used for texture only
-gpgpu_n_mem                            6 # number of memory modules (e.g. memory controllers) in gpu
-gpgpu_n_sub_partition_per_mchannel                    2 # number of memory subpartition in each memory module
-gpgpu_n_mem_per_ctrlr                    2 # number of memory chips per memory controller
-gpgpu_memlatency_stat                   14 # track and display latency statistics 0x2 enables MC, 0x4 enables queue logs
-gpgpu_frfcfs_dram_sched_queue_size                   16 # 0 = unlimited (default); # entries per chip
-gpgpu_dram_return_queue_size                  116 # 0 = unlimited (default); # entries per chip
-gpgpu_dram_buswidth                    4 # default = 4 bytes (8 bytes per cycle at DDR)
-gpgpu_dram_burst_length                    8 # Burst length of each DRAM request (default = 4 data bus cycle)
-dram_data_command_freq_ratio                    4 # Frequency ratio between DRAM data bus and command bus (default = 2 times, i.e. DDR)
-gpgpu_dram_timing_opt nbk=16:CCD=2:RRD=6:RCD=12:RAS=28:RP=12:RC=40: CL=12:WL=4:CDLR=5:WR=12:nbkgrp=4:CCDL=3:RTPL=2 # DRAM timing parameters = {nbk:tCCD:tRRD:tRCD:tRAS:tRP:tRC:CL:WL:tCDLR:tWR:nbkgrp:tCCDL:tRTPL}
-rop_latency                          120 # ROP queue latency (default 85)
-dram_latency                         100 # DRAM latency (default 30)
-gpgpu_mem_addr_mapping dramid@8;00000000.00000000.00000000.00000000.0000RRRR.RRRRRRRR.BBBCCCCB.CCSSSSSS # mapping memory address to dram model {dramid@<start bit>;<memory address map>}
-gpgpu_mem_addr_test                    0 # run sweep test to check address mapping for aliased address
-gpgpu_mem_address_mask                    1 # 0 = old addressing mask, 1 = new addressing mask, 2 = new add. mask + flipped bank sel and chip sel bits
-gpuwattch_xml_file  gpuwattch_gtx480.xml # GPUWattch XML file
-power_simulation_enabled                    0 # Turn on power simulator (1=On, 0=Off)
-power_per_cycle_dump                    0 # Dump detailed power output each cycle
-power_trace_enabled                    0 # produce a file for the power trace (1=On, 0=Off)
-power_trace_zlevel                     6 # Compression level of the power trace output log (0=no comp, 9=highest)
-steady_power_levels_enabled                    0 # produce a file for the steady power levels (1=On, 0=Off)
-steady_state_definition                  8:4 # allowed deviation:number of samples
-gpgpu_max_cycle                        0 # terminates gpu simulation early (0 = no limit)
-gpgpu_max_insn                         0 # terminates gpu simulation early (0 = no limit)
-gpgpu_max_cta                          0 # terminates gpu simulation early (0 = no limit)
-gpgpu_runtime_stat                   500 # display runtime statistics such as dram utilization {<freq>:<flag>}
-liveness_message_freq                    1 # Minimum number of seconds between simulation liveness messages (0 = always print)
-gpgpu_flush_l1_cache                    0 # Flush L1 cache at the end of each kernel call
-gpgpu_flush_l2_cache                    0 # Flush L2 cache at the end of each kernel call
-gpgpu_deadlock_detect                    1 # Stop the simulation at deadlock (1=on (default), 0=off)
-gpgpu_ptx_instruction_classification                    0 # if enabled will classify ptx instruction types per kernel (Max 255 kernels now)
-gpgpu_ptx_sim_mode                     0 # Select between Performance (default) or Functional simulation (1)
-gpgpu_clock_domains 700.0:700.0:700.0:924.0 # Clock Domain Frequencies in MhZ {<Core Clock>:<ICNT Clock>:<L2 Clock>:<DRAM Clock>}
-gpgpu_max_concurrent_kernel                    8 # maximum kernels that can run concurrently on GPU
-gpgpu_cflog_interval                    0 # Interval between each snapshot in control flow logger
-visualizer_enabled                     0 # Turn on visualizer output (1=On, 0=Off)
-visualizer_outputfile                 NULL # Specifies the output log file for visualizer
-visualizer_zlevel                      6 # Compression level of the visualizer output log (0=no comp, 9=highest)
-trace_enabled                          0 # Turn on traces
-trace_components                    none # comma seperated list of traces to enable. Complete list found in trace_streams.tup. Default none
-trace_sampling_core                    0 # The core which is printed using CORE_DPRINTF. Default 0
-trace_sampling_memory_partition                   -1 # The memory partition which is printed using MEMPART_DPRINTF. Default -1 (i.e. all)
-enable_ptx_file_line_stats                    1 # Turn on PTX source line statistic profiling. (1 = On)
-ptx_line_stats_filename gpgpu_inst_stats.txt # Output file for PTX source line statistics.
-save_embedded_ptx                      0 # saves ptx files embedded in binary as <n>.ptx
-keep                                   0 # keep intermediate files created by GPGPU-Sim when interfacing with external programs
-gpgpu_ptx_save_converted_ptxplus                    0 # Saved converted ptxplus to a file
-ptx_opcode_latency_int         4,13,4,5,145 # Opcode latencies for integers <ADD,MAX,MUL,MAD,DIV>Default 1,1,19,25,145
-ptx_opcode_latency_fp          4,13,4,5,39 # Opcode latencies for single precision floating points <ADD,MAX,MUL,MAD,DIV>Default 1,1,1,1,30
-ptx_opcode_latency_dp         8,19,8,8,330 # Opcode latencies for double precision floating points <ADD,MAX,MUL,MAD,DIV>Default 8,8,8,8,335
-ptx_opcode_initiation_int            1,2,2,1,8 # Opcode initiation intervals for integers <ADD,MAX,MUL,MAD,DIV>Default 1,1,4,4,32
-ptx_opcode_initiation_fp            1,2,1,1,4 # Opcode initiation intervals for single precision floating points <ADD,MAX,MUL,MAD,DIV>Default 1,1,1,1,5
-ptx_opcode_initiation_dp         8,16,8,8,130 # Opcode initiation intervals for double precision floating points <ADD,MAX,MUL,MAD,DIV>Default 8,8,8,8,130
DRAM Timing Options:
nbk                                    16 # number of banks
CCD                                     2 # column to column delay
RRD                                     6 # minimal delay between activation of rows in different banks
RCD                                    12 # row to column delay
RAS                                    28 # time needed to activate row
RP                                     12 # time needed to precharge (deactivate) row
RC                                     40 # row cycle time
CDLR                                    5 # switching from write to read (changes tWTR)
WR                                     12 # last data-in to row precharge
CL                                     12 # CAS latency
WL                                      4 # Write latency
nbkgrp                                  4 # number of bank groups
CCDL                                    3 # column to column delay between accesses to different bank groups
RTPL                                    2 # read to precharge delay between accesses to different bank groups
Total number of memory sub partition = 12
addr_dec_mask[CHIP]  = 0000000000000000 	high:64 low:0
addr_dec_mask[BK]    = 000000000000e100 	high:16 low:8
addr_dec_mask[ROW]   = 000000000fff0000 	high:28 low:16
addr_dec_mask[COL]   = 0000000000001eff 	high:13 low:0
addr_dec_mask[BURST] = 000000000000003f 	high:6 low:0
sub_partition_id_mask = 0000000000000100
GPGPU-Sim uArch: clock freqs: 700000000.000000:700000000.000000:700000000.000000:924000000.000000
GPGPU-Sim uArch: clock periods: 0.00000000142857142857:0.00000000142857142857:0.00000000142857142857:0.00000000108225108225
*** Initializing Memory Statistics ***
GPGPU-Sim uArch: interconnect node map (shaderID+MemID to icntID)
GPGPU-Sim uArch: Memory nodes ID start from index: 15
GPGPU-Sim uArch:    0   1   2   3   4
GPGPU-Sim uArch:    5   6   7   8   9
GPGPU-Sim uArch:   10  11  12  13  14
GPGPU-Sim uArch:   15  16  17  18  19
GPGPU-Sim uArch:   20  21  22  23  24
GPGPU-Sim uArch:   25  26
GPGPU-Sim uArch: interconnect node reverse map (icntID to shaderID+MemID)
GPGPU-Sim uArch: Memory nodes start from ID: 15
GPGPU-Sim uArch:    0   1   2   3   4
GPGPU-Sim uArch:    5   6   7   8   9
GPGPU-Sim uArch:   10  11  12  13  14
GPGPU-Sim uArch:   15  16  17  18  19
GPGPU-Sim uArch:   20  21  22  23  24
GPGPU-Sim uArch:   25  26
96cf2a65eb896a14ecc5af85c6ba92b9  /sciclone/data10/hwang07/adwait/applications/benchmarks/rodinia/cuda/bfs/gpgpu_ptx_sim__bfs
GPGPU-Sim uArch: performance model initialization complete.
GPGPU-Sim PTX: __cudaRegisterFatBinary, fat_cubin_handle = 1, filename=bfs.cu
self exe links to: /sciclone/data10/hwang07/adwait/applications/benchmarks/rodinia/cuda/bfs/gpgpu_ptx_sim__bfs
Running md5sum using "md5sum /sciclone/data10/hwang07/adwait/applications/benchmarks/rodinia/cuda/bfs/gpgpu_ptx_sim__bfs "
Parsing file _cuobjdump_complete_output_G4GHUd
######### cuobjdump parser ########
## Adding new section ELF
Adding arch: sm_20
Adding identifier: bfs.cu
## Adding new section PTX
Adding ptx filename: _cuobjdump_1.ptx
Adding arch: sm_20
Adding identifier: bfs.cu
Done parsing!!!
GPGPU-Sim PTX: __cudaRegisterFunction _Z7Kernel2PbS_S_S_i : hostFun 0x0x401773, fat_cubin_handle = 1
GPGPU-Sim PTX: instruction assembly for function '_Z6KernelP4NodePiPbS2_S2_S1_i'...   done.
GPGPU-Sim PTX: finding reconvergence points for '_Z6KernelP4NodePiPbS2_S2_S1_i'...
GPGPU-Sim PTX: Finding dominators for '_Z6KernelP4NodePiPbS2_S2_S1_i'...
GPGPU-Sim PTX: Finding immediate dominators for '_Z6KernelP4NodePiPbS2_S2_S1_i'...
GPGPU-Sim PTX: Finding postdominators for '_Z6KernelP4NodePiPbS2_S2_S1_i'...
GPGPU-Sim PTX: Finding immediate postdominators for '_Z6KernelP4NodePiPbS2_S2_S1_i'...
GPGPU-Sim PTX: pre-decoding instructions for '_Z6KernelP4NodePiPbS2_S2_S1_i'...
GPGPU-Sim PTX: reconvergence points for _Z6KernelP4NodePiPbS2_S2_S1_i...
GPGPU-Sim PTX:  1 (potential) branch divergence @  PC=0x030 (_1.ptx:73) @%p1 bra $Lt_0_5122;
GPGPU-Sim PTX:    immediate post dominator      @  PC=0x1c0 (_1.ptx:135) exit;
GPGPU-Sim PTX:  2 (potential) branch divergence @  PC=0x068 (_1.ptx:80) @%p2 bra $Lt_0_5122;
GPGPU-Sim PTX:    immediate post dominator      @  PC=0x1c0 (_1.ptx:135) exit;
GPGPU-Sim PTX:  3 (potential) branch divergence @  PC=0x0c0 (_1.ptx:93) @%p3 bra $Lt_0_5122;
GPGPU-Sim PTX:    immediate post dominator      @  PC=0x1c0 (_1.ptx:135) exit;
GPGPU-Sim PTX:  4 (potential) branch divergence @  PC=0x120 (_1.ptx:108) @%p4 bra $Lt_0_4354;
GPGPU-Sim PTX:    immediate post dominator      @  PC=0x1a0 (_1.ptx:128) add.s32 %r10, %r10, 1;
GPGPU-Sim PTX:  5 (potential) branch divergence @  PC=0x1b8 (_1.ptx:131) @%p5 bra $Lt_0_4098;
GPGPU-Sim PTX:    immediate post dominator      @  PC=0x1c0 (_1.ptx:135) exit;
GPGPU-Sim PTX: ... end of reconvergence points for _Z6KernelP4NodePiPbS2_S2_S1_i
GPGPU-Sim PTX: ... done pre-decoding instructions for '_Z6KernelP4NodePiPbS2_S2_S1_i'.
GPGPU-Sim PTX: instruction assembly for function '_Z7Kernel2PbS_S_S_i'...   done.
GPGPU-Sim PTX: finding reconvergence points for '_Z7Kernel2PbS_S_S_i'...
GPGPU-Sim PTX: Finding dominators for '_Z7Kernel2PbS_S_S_i'...
GPGPU-Sim PTX: Finding immediate dominators for '_Z7Kernel2PbS_S_S_i'...
GPGPU-Sim PTX: Finding postdominators for '_Z7Kernel2PbS_S_S_i'...
GPGPU-Sim PTX: Finding immediate postdominators for '_Z7Kernel2PbS_S_S_i'...
GPGPU-Sim PTX: pre-decoding instructions for '_Z7Kernel2PbS_S_S_i'...
GPGPU-Sim PTX: reconvergence points for _Z7Kernel2PbS_S_S_i...
GPGPU-Sim PTX:  1 (potential) branch divergence @  PC=0x1f8 (_1.ptx:157) @%p1 bra $Lt_1_1794;
GPGPU-Sim PTX:    immediate post dominator      @  PC=0x2a0 (_1.ptx:185) exit;
GPGPU-Sim PTX:  2 (potential) branch divergence @  PC=0x230 (_1.ptx:164) @%p2 bra $Lt_1_1794;
GPGPU-Sim PTX:    immediate post dominator      @  PC=0x2a0 (_1.ptx:185) exit;
GPGPU-Sim PTX: ... end of reconvergence points for _Z7Kernel2PbS_S_S_i
GPGPU-Sim PTX: ... done pre-decoding instructions for '_Z7Kernel2PbS_S_S_i'.
GPGPU-Sim PTX: finished parsing EMBEDDED .ptx file _1.ptx
Adding _cuobjdump_1.ptx with cubin handle 1
GPGPU-Sim PTX: extracting embedded .ptx to temporary file "_ptx_5W6K80"
Running: cat _ptx_5W6K80 | sed 's/.version 1.5/.version 1.4/' | sed 's/, texmode_independent//' | sed 's/\(\.extern \.const\[1\] .b8 \w\+\)\[\]/\1\[1\]/' | sed 's/const\[.\]/const\[0\]/g' > _ptx2_EXOBYO
GPGPU-Sim PTX: generating ptxinfo using "$CUDA_INSTALL_PATH/bin/ptxas --gpu-name=sm_20 -v _ptx2_EXOBYO --output-file  /dev/null 2> _ptx_5W6K80info"
GPGPU-Sim PTX: Kernel '_Z7Kernel2PbS_S_S_i' : regs=12, lmem=0, smem=0, cmem=68
GPGPU-Sim PTX: Kernel '_Z6KernelP4NodePiPbS2_S2_S1_i' : regs=15, lmem=0, smem=0, cmem=84
GPGPU-Sim PTX: removing ptxinfo using "rm -f _ptx_5W6K80 _ptx2_EXOBYO _ptx_5W6K80info"
GPGPU-Sim PTX: loading globals with explicit initializers... 
GPGPU-Sim PTX: finished loading globals (0 bytes total).
GPGPU-Sim PTX: loading constants with explicit initializers...  done.
GPGPU-Sim PTX: __cudaRegisterFunction _Z6KernelP4NodePiPbS2_S2_S1_i : hostFun 0x0x401637, fat_cubin_handle = 1
Reading File
Read File
Copied Everything to GPU memory
Start traversing the tree

GPGPU-Sim PTX: cudaLaunch for 0x0x401637 (mode=performance simulation) on stream 0
GPGPU-Sim PTX: pushing kernel '_Z6KernelP4NodePiPbS2_S2_S1_i' to stream 0, gridDim= (1954,1,1) blockDim = (512,1,1) 
kernel '_Z6KernelP4NodePiPbS2_S2_S1_i' transfer to GPU hardware scheduler
GPGPU-Sim uArch: Shader 1 bind to kernel 1 '_Z6KernelP4NodePiPbS2_S2_S1_i'
GPGPU-Sim uArch: CTA/core = 3, limited by: threads
GPGPU-Sim uArch: core:  1, cta: 0 initialized @(1,0)
GPGPU-Sim uArch: Shader 2 bind to kernel 1 '_Z6KernelP4NodePiPbS2_S2_S1_i'
GPGPU-Sim uArch: core:  2, cta: 0 initialized @(1,0)
GPGPU-Sim uArch: Shader 3 bind to kernel 1 '_Z6KernelP4NodePiPbS2_S2_S1_i'
GPGPU-Sim uArch: core:  3, cta: 0 initialized @(1,0)
GPGPU-Sim uArch: Shader 4 bind to kernel 1 '_Z6KernelP4NodePiPbS2_S2_S1_i'
GPGPU-Sim uArch: core:  4, cta: 0 initialized @(1,0)
GPGPU-Sim uArch: Shader 5 bind to kernel 1 '_Z6KernelP4NodePiPbS2_S2_S1_i'
GPGPU-Sim uArch: core:  5, cta: 0 initialized @(1,0)
GPGPU-Sim uArch: Shader 6 bind to kernel 1 '_Z6KernelP4NodePiPbS2_S2_S1_i'
GPGPU-Sim uArch: core:  6, cta: 0 initialized @(1,0)
GPGPU-Sim uArch: Shader 7 bind to kernel 1 '_Z6KernelP4NodePiPbS2_S2_S1_i'
GPGPU-Sim uArch: core:  7, cta: 0 initialized @(1,0)
GPGPU-Sim uArch: Shader 8 bind to kernel 1 '_Z6KernelP4NodePiPbS2_S2_S1_i'
GPGPU-Sim uArch: core:  8, cta: 0 initialized @(1,0)
GPGPU-Sim uArch: Shader 9 bind to kernel 1 '_Z6KernelP4NodePiPbS2_S2_S1_i'
GPGPU-Sim uArch: core:  9, cta: 0 initialized @(1,0)
GPGPU-Sim uArch: Shader 10 bind to kernel 1 '_Z6KernelP4NodePiPbS2_S2_S1_i'
GPGPU-Sim uArch: core: 10, cta: 0 initialized @(1,0)
GPGPU-Sim uArch: Shader 11 bind to kernel 1 '_Z6KernelP4NodePiPbS2_S2_S1_i'
GPGPU-Sim uArch: core: 11, cta: 0 initialized @(1,0)
GPGPU-Sim uArch: Shader 12 bind to kernel 1 '_Z6KernelP4NodePiPbS2_S2_S1_i'
GPGPU-Sim uArch: core: 12, cta: 0 initialized @(1,0)
GPGPU-Sim uArch: Shader 13 bind to kernel 1 '_Z6KernelP4NodePiPbS2_S2_S1_i'
GPGPU-Sim uArch: core: 13, cta: 0 initialized @(1,0)
GPGPU-Sim uArch: Shader 14 bind to kernel 1 '_Z6KernelP4NodePiPbS2_S2_S1_i'
GPGPU-Sim uArch: core: 14, cta: 0 initialized @(1,0)
GPGPU-Sim uArch: Shader 0 bind to kernel 1 '_Z6KernelP4NodePiPbS2_S2_S1_i'
GPGPU-Sim uArch: core:  0, cta: 0 initialized @(1,0)
GPGPU-Sim uArch: core:  1, cta: 1 initialized @(2,0)
GPGPU-Sim uArch: core:  2, cta: 1 initialized @(2,0)
GPGPU-Sim uArch: core:  3, cta: 1 initialized @(2,0)
GPGPU-Sim uArch: core:  4, cta: 1 initialized @(2,0)
GPGPU-Sim uArch: core:  5, cta: 1 initialized @(2,0)
GPGPU-Sim uArch: core:  6, cta: 1 initialized @(2,0)
GPGPU-Sim uArch: core:  7, cta: 1 initialized @(2,0)
GPGPU-Sim uArch: core:  8, cta: 1 initialized @(2,0)
GPGPU-Sim uArch: core:  9, cta: 1 initialized @(2,0)
GPGPU-Sim uArch: core: 10, cta: 1 initialized @(2,0)
GPGPU-Sim uArch: core: 11, cta: 1 initialized @(2,0)
GPGPU-Sim uArch: core: 12, cta: 1 initialized @(2,0)
GPGPU-Sim uArch: core: 13, cta: 1 initialized @(2,0)
GPGPU-Sim uArch: core: 14, cta: 1 initialized @(2,0)
GPGPU-Sim uArch: core:  0, cta: 1 initialized @(2,0)
GPGPU-Sim uArch: core:  1, cta: 2 initialized @(3,0)
GPGPU-Sim uArch: core:  2, cta: 2 initialized @(3,0)
GPGPU-Sim uArch: core:  3, cta: 2 initialized @(3,0)
GPGPU-Sim uArch: core:  4, cta: 2 initialized @(3,0)
GPGPU-Sim uArch: core:  5, cta: 2 initialized @(3,0)
GPGPU-Sim uArch: core:  6, cta: 2 initialized @(3,0)
GPGPU-Sim uArch: core:  7, cta: 2 initialized @(3,0)
GPGPU-Sim uArch: core:  8, cta: 2 initialized @(3,0)
GPGPU-Sim uArch: core:  9, cta: 2 initialized @(3,0)
GPGPU-Sim uArch: core: 10, cta: 2 initialized @(3,0)
GPGPU-Sim uArch: core: 11, cta: 2 initialized @(3,0)
GPGPU-Sim uArch: core: 12, cta: 2 initialized @(3,0)
GPGPU-Sim uArch: core: 13, cta: 2 initialized @(3,0)
GPGPU-Sim uArch: core: 14, cta: 2 initialized @(3,0)
GPGPU-Sim uArch: core:  0, cta: 2 initialized @(3,0)
GPGPU-Sim PTX: 100000 instructions simulated : ctaid=(28,0,0) tid=(127,0,0)
GPGPU-Sim uArch: cycles simulated: 500  inst.: 92032 (ipc=184.1) sim_rate=15338 (inst/sec) elapsed = 0:0:00:06 / Tue Mar 22 07:38:42 2016
GPGPU-Sim PTX: 200000 instructions simulated : ctaid=(6,0,0) tid=(479,0,0)
GPGPU-Sim uArch: cycles simulated: 1000  inst.: 230400 (ipc=230.4) sim_rate=32914 (inst/sec) elapsed = 0:0:00:07 / Tue Mar 22 07:38:43 2016
GPGPU-Sim PTX: 300000 instructions simulated : ctaid=(19,0,0) tid=(445,0,0)
GPGPU-Sim uArch: Shader 4 finished CTA #0 (1325,0), 2 CTAs running
GPGPU-Sim uArch: core:  4, cta: 0 initialized @(1326,0)
GPGPU-Sim uArch: Shader 0 finished CTA #0 (1333,0), 2 CTAs running
GPGPU-Sim uArch: core:  0, cta: 0 initialized @(1334,0)
GPGPU-Sim uArch: Shader 3 finished CTA #2 (1342,0), 2 CTAs running
GPGPU-Sim uArch: core:  3, cta: 2 initialized @(1343,0)
GPGPU-Sim uArch: Shader 5 finished CTA #0 (1344,0), 2 CTAs running
GPGPU-Sim uArch: core:  5, cta: 0 initialized @(1345,0)
GPGPU-Sim uArch: Shader 4 finished CTA #1 (1346,0), 2 CTAs running
GPGPU-Sim uArch: Shader 4 finished CTA #2 (1346,0), 1 CTAs running
GPGPU-Sim uArch: core:  4, cta: 1 initialized @(1347,0)
GPGPU-Sim uArch: core:  4, cta: 2 initialized @(1348,0)
GPGPU-Sim uArch: Shader 0 finished CTA #1 (1352,0), 2 CTAs running
GPGPU-Sim uArch: Shader 0 finished CTA #2 (1352,0), 1 CTAs running
GPGPU-Sim uArch: core:  0, cta: 1 initialized @(1353,0)
GPGPU-Sim uArch: core:  0, cta: 2 initialized @(1354,0)
GPGPU-Sim uArch: Shader 1 finished CTA #2 (1354,0), 2 CTAs running
GPGPU-Sim uArch: core:  1, cta: 2 initialized @(1355,0)
GPGPU-Sim uArch: Shader 6 finished CTA #0 (1357,0), 2 CTAs running
GPGPU-Sim uArch: Shader 7 finished CTA #0 (1357,0), 2 CTAs running
GPGPU-Sim uArch: core:  6, cta: 0 initialized @(1358,0)
GPGPU-Sim uArch: core:  7, cta: 0 initialized @(1358,0)
GPGPU-Sim uArch: Shader 3 finished CTA #0 (1359,0), 2 CTAs running
GPGPU-Sim uArch: Shader 3 finished CTA #1 (1359,0), 1 CTAs running
GPGPU-Sim uArch: core:  3, cta: 0 initialized @(1360,0)
GPGPU-Sim uArch: core:  3, cta: 1 initialized @(1361,0)
GPGPU-Sim uArch: Shader 9 finished CTA #0 (1363,0), 2 CTAs running
GPGPU-Sim uArch: Shader 9 finished CTA #1 (1363,0), 1 CTAs running
GPGPU-Sim uArch: core:  9, cta: 0 initialized @(1364,0)
GPGPU-Sim uArch: core:  9, cta: 1 initialized @(1365,0)
GPGPU-Sim uArch: Shader 5 finished CTA #1 (1370,0), 2 CTAs running
GPGPU-Sim uArch: Shader 5 finished CTA #2 (1370,0), 1 CTAs running
GPGPU-Sim uArch: core:  5, cta: 1 initialized @(1371,0)
GPGPU-Sim uArch: core:  5, cta: 2 initialized @(1372,0)
GPGPU-Sim uArch: Shader 1 finished CTA #1 (1372,0), 2 CTAs running
GPGPU-Sim uArch: core:  1, cta: 1 initialized @(1373,0)
GPGPU-Sim uArch: Shader 6 finished CTA #1 (1376,0), 2 CTAs running
GPGPU-Sim uArch: Shader 6 finished CTA #2 (1376,0), 1 CTAs running
GPGPU-Sim uArch: core:  6, cta: 1 initialized @(1377,0)
GPGPU-Sim uArch: core:  6, cta: 2 initialized @(1378,0)
GPGPU-Sim uArch: Shader 2 finished CTA #0 (1378,0), 2 CTAs running
GPGPU-Sim uArch: Shader 2 finished CTA #1 (1378,0), 1 CTAs running
GPGPU-Sim uArch: core:  2, cta: 0 initialized @(1379,0)
GPGPU-Sim uArch: core:  2, cta: 1 initialized @(1380,0)
GPGPU-Sim uArch: Shader 12 finished CTA #0 (1381,0), 2 CTAs running
GPGPU-Sim uArch: core: 12, cta: 0 initialized @(1382,0)
GPGPU-Sim uArch: Shader 7 finished CTA #1 (1382,0), 2 CTAs running
GPGPU-Sim uArch: Shader 7 finished CTA #2 (1382,0), 1 CTAs running
GPGPU-Sim uArch: core:  7, cta: 1 initialized @(1383,0)
GPGPU-Sim uArch: core:  7, cta: 2 initialized @(1384,0)
GPGPU-Sim uArch: Shader 8 finished CTA #2 (1387,0), 2 CTAs running
GPGPU-Sim uArch: core:  8, cta: 2 initialized @(1388,0)
GPGPU-Sim uArch: Shader 10 finished CTA #0 (1398,0), 2 CTAs running
GPGPU-Sim uArch: core: 10, cta: 0 initialized @(1399,0)
GPGPU-Sim uArch: Shader 11 finished CTA #0 (1399,0), 2 CTAs running
GPGPU-Sim uArch: core: 11, cta: 0 initialized @(1400,0)
GPGPU-Sim uArch: Shader 13 finished CTA #0 (1401,0), 2 CTAs running
GPGPU-Sim uArch: core: 13, cta: 0 initialized @(1402,0)
GPGPU-Sim uArch: Shader 8 finished CTA #0 (1404,0), 2 CTAs running
GPGPU-Sim uArch: Shader 8 finished CTA #1 (1404,0), 1 CTAs running
GPGPU-Sim uArch: Shader 9 finished CTA #2 (1404,0), 2 CTAs running
GPGPU-Sim uArch: core:  8, cta: 0 initialized @(1405,0)
GPGPU-Sim uArch: core:  9, cta: 2 initialized @(1405,0)
GPGPU-Sim uArch: core:  8, cta: 1 initialized @(1406,0)
GPGPU-Sim uArch: Shader 12 finished CTA #1 (1406,0), 2 CTAs running
GPGPU-Sim uArch: Shader 12 finished CTA #2 (1406,0), 1 CTAs running
GPGPU-Sim uArch: core: 12, cta: 1 initialized @(1407,0)
GPGPU-Sim uArch: core: 12, cta: 2 initialized @(1408,0)
GPGPU-Sim uArch: Shader 13 finished CTA #2 (1408,0), 2 CTAs running
GPGPU-Sim uArch: core: 13, cta: 2 initialized @(1409,0)
GPGPU-Sim uArch: Shader 2 finished CTA #2 (1411,0), 2 CTAs running
GPGPU-Sim uArch: core:  2, cta: 2 initialized @(1412,0)
GPGPU-Sim uArch: Shader 14 finished CTA #0 (1414,0), 2 CTAs running
GPGPU-Sim uArch: Shader 14 finished CTA #1 (1414,0), 1 CTAs running
GPGPU-Sim uArch: core: 14, cta: 0 initialized @(1415,0)
GPGPU-Sim uArch: Shader 10 finished CTA #1 (1415,0), 2 CTAs running
GPGPU-Sim uArch: Shader 10 finished CTA #2 (1415,0), 1 CTAs running
GPGPU-Sim uArch: core: 10, cta: 1 initialized @(1416,0)
GPGPU-Sim uArch: core: 14, cta: 1 initialized @(1416,0)
GPGPU-Sim uArch: core: 10, cta: 2 initialized @(1417,0)
GPGPU-Sim uArch: Shader 11 finished CTA #1 (1418,0), 2 CTAs running
GPGPU-Sim uArch: Shader 11 finished CTA #2 (1418,0), 1 CTAs running
GPGPU-Sim uArch: core: 11, cta: 1 initialized @(1419,0)
GPGPU-Sim uArch: core: 11, cta: 2 initialized @(1420,0)
GPGPU-Sim uArch: Shader 13 finished CTA #1 (1424,0), 2 CTAs running
GPGPU-Sim uArch: core: 13, cta: 1 initialized @(1425,0)
GPGPU-Sim PTX: 400000 instructions simulated : ctaid=(55,0,0) tid=(345,0,0)
GPGPU-Sim uArch: Shader 14 finished CTA #2 (1447,0), 2 CTAs running
GPGPU-Sim uArch: core: 14, cta: 2 initialized @(1448,0)
GPGPU-Sim uArch: cycles simulated: 1500  inst.: 418404 (ipc=278.9) sim_rate=52300 (inst/sec) elapsed = 0:0:00:08 / Tue Mar 22 07:38:44 2016
GPGPU-Sim PTX: 500000 instructions simulated : ctaid=(85,0,0) tid=(121,0,0)
GPGPU-Sim PTX: 600000 instructions simulated : ctaid=(74,0,0) tid=(47,0,0)
GPGPU-Sim uArch: Shader 1 finished CTA #2 (1817,0), 2 CTAs running
GPGPU-Sim uArch: core:  1, cta: 2 initialized @(1818,0)
GPGPU-Sim uArch: Shader 4 finished CTA #0 (1851,0), 2 CTAs running
GPGPU-Sim uArch: core:  4, cta: 0 initialized @(1852,0)
GPGPU-Sim uArch: Shader 0 finished CTA #0 (1857,0), 2 CTAs running
GPGPU-Sim uArch: core:  0, cta: 0 initialized @(1858,0)
GPGPU-Sim uArch: Shader 3 finished CTA #2 (1867,0), 2 CTAs running
GPGPU-Sim uArch: core:  3, cta: 2 initialized @(1868,0)
GPGPU-Sim uArch: Shader 5 finished CTA #0 (1878,0), 2 CTAs running
GPGPU-Sim uArch: core:  5, cta: 0 initialized @(1879,0)
GPGPU-Sim uArch: Shader 6 finished CTA #0 (1888,0), 2 CTAs running
GPGPU-Sim uArch: core:  6, cta: 0 initialized @(1889,0)
GPGPU-Sim uArch: Shader 7 finished CTA #0 (1892,0), 2 CTAs running
GPGPU-Sim uArch: core:  7, cta: 0 initialized @(1893,0)
GPGPU-Sim uArch: Shader 8 finished CTA #2 (1910,0), 2 CTAs running
GPGPU-Sim uArch: core:  8, cta: 2 initialized @(1911,0)
GPGPU-Sim uArch: Shader 1 finished CTA #1 (1914,0), 2 CTAs running
GPGPU-Sim uArch: core:  1, cta: 1 initialized @(1915,0)
GPGPU-Sim uArch: Shader 2 finished CTA #0 (1920,0), 2 CTAs running
GPGPU-Sim uArch: core:  2, cta: 0 initialized @(1921,0)
GPGPU-Sim uArch: Shader 9 finished CTA #0 (1928,0), 2 CTAs running
GPGPU-Sim uArch: core:  9, cta: 0 initialized @(1929,0)
GPGPU-Sim uArch: Shader 11 finished CTA #0 (1929,0), 2 CTAs running
GPGPU-Sim uArch: core: 11, cta: 0 initialized @(1930,0)
GPGPU-Sim uArch: Shader 10 finished CTA #0 (1935,0), 2 CTAs running
GPGPU-Sim uArch: core: 10, cta: 0 initialized @(1936,0)
GPGPU-Sim uArch: Shader 12 finished CTA #0 (1955,0), 2 CTAs running
GPGPU-Sim uArch: core: 12, cta: 0 initialized @(1956,0)
GPGPU-Sim PTX: 700000 instructions simulated : ctaid=(97,0,0) tid=(78,0,0)
GPGPU-Sim uArch: Shader 9 finished CTA #1 (1976,0), 2 CTAs running
GPGPU-Sim uArch: core:  9, cta: 1 initialized @(1977,0)
GPGPU-Sim uArch: Shader 2 finished CTA #1 (1985,0), 2 CTAs running
GPGPU-Sim uArch: core:  2, cta: 1 initialized @(1986,0)
GPGPU-Sim uArch: Shader 5 finished CTA #1 (1988,0), 2 CTAs running
GPGPU-Sim uArch: core:  5, cta: 1 initialized @(1989,0)
GPGPU-Sim uArch: cycles simulated: 2000  inst.: 666382 (ipc=333.2) sim_rate=74042 (inst/sec) elapsed = 0:0:00:09 / Tue Mar 22 07:38:45 2016
GPGPU-Sim uArch: Shader 0 finished CTA #2 (2002,0), 2 CTAs running
GPGPU-Sim uArch: Shader 4 finished CTA #1 (2002,0), 2 CTAs running
GPGPU-Sim uArch: core:  0, cta: 2 initialized @(2003,0)
GPGPU-Sim uArch: core:  4, cta: 1 initialized @(2003,0)
GPGPU-Sim uArch: Shader 13 finished CTA #0 (2005,0), 2 CTAs running
GPGPU-Sim uArch: core: 13, cta: 0 initialized @(2006,0)
GPGPU-Sim uArch: Shader 0 finished CTA #1 (2018,0), 2 CTAs running
GPGPU-Sim uArch: core:  0, cta: 1 initialized @(2019,0)
GPGPU-Sim uArch: Shader 3 finished CTA #0 (2025,0), 2 CTAs running
GPGPU-Sim uArch: Shader 3 finished CTA #1 (2025,0), 1 CTAs running
GPGPU-Sim uArch: core:  3, cta: 0 initialized @(2026,0)
GPGPU-Sim uArch: core:  3, cta: 1 initialized @(2027,0)
GPGPU-Sim uArch: Shader 5 finished CTA #2 (2034,0), 2 CTAs running
GPGPU-Sim uArch: Shader 14 finished CTA #0 (2034,0), 2 CTAs running
GPGPU-Sim uArch: Shader 14 finished CTA #1 (2034,0), 1 CTAs running
GPGPU-Sim uArch: core:  5, cta: 2 initialized @(2035,0)
GPGPU-Sim uArch: core: 14, cta: 0 initialized @(2035,0)
GPGPU-Sim uArch: core: 14, cta: 1 initialized @(2036,0)
GPGPU-Sim uArch: Shader 4 finished CTA #2 (2036,0), 2 CTAs running
GPGPU-Sim uArch: core:  4, cta: 2 initialized @(2037,0)
GPGPU-Sim uArch: Shader 6 finished CTA #1 (2045,0), 2 CTAs running
GPGPU-Sim uArch: Shader 6 finished CTA #2 (2045,0), 1 CTAs running
GPGPU-Sim uArch: Shader 12 finished CTA #1 (2045,0), 2 CTAs running
GPGPU-Sim uArch: Shader 12 finished CTA #2 (2045,0), 1 CTAs running
GPGPU-Sim uArch: core:  6, cta: 1 initialized @(2046,0)
GPGPU-Sim uArch: core: 12, cta: 1 initialized @(2046,0)
GPGPU-Sim uArch: core:  6, cta: 2 initialized @(2047,0)
GPGPU-Sim uArch: core: 12, cta: 2 initialized @(2047,0)
GPGPU-Sim uArch: Shader 13 finished CTA #2 (2053,0), 2 CTAs running
GPGPU-Sim uArch: core: 13, cta: 2 initialized @(2054,0)
GPGPU-Sim uArch: Shader 8 finished CTA #1 (2061,0), 2 CTAs running
GPGPU-Sim uArch: Shader 10 finished CTA #1 (2061,0), 2 CTAs running
GPGPU-Sim uArch: core:  8, cta: 1 initialized @(2062,0)
GPGPU-Sim uArch: core: 10, cta: 1 initialized @(2062,0)
GPGPU-Sim uArch: Shader 7 finished CTA #1 (2064,0), 2 CTAs running
GPGPU-Sim uArch: Shader 7 finished CTA #2 (2064,0), 1 CTAs running
GPGPU-Sim uArch: core:  7, cta: 1 initialized @(2065,0)
GPGPU-Sim uArch: core:  7, cta: 2 initialized @(2066,0)
GPGPU-Sim uArch: Shader 14 finished CTA #2 (2067,0), 2 CTAs running
GPGPU-Sim uArch: core: 14, cta: 2 initialized @(2068,0)
GPGPU-Sim uArch: Shader 13 finished CTA #1 (2069,0), 2 CTAs running
GPGPU-Sim uArch: core: 13, cta: 1 initialized @(2070,0)
GPGPU-Sim uArch: Shader 8 finished CTA #0 (2077,0), 2 CTAs running
GPGPU-Sim uArch: core:  8, cta: 0 initialized @(2078,0)
GPGPU-Sim uArch: Shader 11 finished CTA #1 (2086,0), 2 CTAs running
GPGPU-Sim uArch: Shader 11 finished CTA #2 (2086,0), 1 CTAs running
GPGPU-Sim uArch: core: 11, cta: 1 initialized @(2087,0)
GPGPU-Sim uArch: core: 11, cta: 2 initialized @(2088,0)
GPGPU-Sim uArch: Shader 10 finished CTA #2 (2100,0), 2 CTAs running
GPGPU-Sim uArch: core: 10, cta: 2 initialized @(2101,0)
GPGPU-Sim PTX: 800000 instructions simulated : ctaid=(124,0,0) tid=(429,0,0)
GPGPU-Sim uArch: Shader 9 finished CTA #2 (2120,0), 2 CTAs running
GPGPU-Sim uArch: core:  9, cta: 2 initialized @(2121,0)
GPGPU-Sim uArch: Shader 2 finished CTA #2 (2140,0), 2 CTAs running
GPGPU-Sim uArch: core:  2, cta: 2 initialized @(2141,0)
GPGPU-Sim PTX: 900000 instructions simulated : ctaid=(112,0,0) tid=(45,0,0)
GPGPU-Sim uArch: Shader 1 finished CTA #2 (2261,0), 2 CTAs running
GPGPU-Sim uArch: core:  1, cta: 2 initialized @(2262,0)
GPGPU-Sim uArch: Shader 4 finished CTA #0 (2301,0), 2 CTAs running
GPGPU-Sim uArch: core:  4, cta: 0 initialized @(2302,0)
GPGPU-Sim uArch: Shader 0 finished CTA #0 (2317,0), 2 CTAs running
GPGPU-Sim uArch: core:  0, cta: 0 initialized @(2318,0)
GPGPU-Sim uArch: Shader 3 finished CTA #2 (2324,0), 2 CTAs running
GPGPU-Sim uArch: core:  3, cta: 2 initialized @(2325,0)
GPGPU-Sim uArch: Shader 7 finished CTA #0 (2337,0), 2 CTAs running
GPGPU-Sim uArch: core:  7, cta: 0 initialized @(2338,0)
GPGPU-Sim uArch: Shader 5 finished CTA #0 (2349,0), 2 CTAs running
GPGPU-Sim uArch: Shader 6 finished CTA #0 (2349,0), 2 CTAs running
GPGPU-Sim uArch: core:  5, cta: 0 initialized @(2350,0)
GPGPU-Sim uArch: core:  6, cta: 0 initialized @(2350,0)
GPGPU-Sim uArch: Shader 8 finished CTA #2 (2363,0), 2 CTAs running
GPGPU-Sim uArch: core:  8, cta: 2 initialized @(2364,0)
GPGPU-Sim uArch: Shader 2 finished CTA #0 (2381,0), 2 CTAs running
GPGPU-Sim uArch: core:  2, cta: 0 initialized @(2382,0)
GPGPU-Sim uArch: Shader 10 finished CTA #0 (2384,0), 2 CTAs running
GPGPU-Sim uArch: core: 10, cta: 0 initialized @(2385,0)
GPGPU-Sim uArch: Shader 11 finished CTA #0 (2388,0), 2 CTAs running
GPGPU-Sim uArch: core: 11, cta: 0 initialized @(2389,0)
GPGPU-Sim PTX: 1000000 instructions simulated : ctaid=(97,0,0) tid=(426,0,0)
GPGPU-Sim uArch: Shader 1 finished CTA #1 (2403,0), 2 CTAs running
GPGPU-Sim uArch: core:  1, cta: 1 initialized @(2404,0)
GPGPU-Sim uArch: Shader 9 finished CTA #0 (2422,0), 2 CTAs running
GPGPU-Sim uArch: core:  9, cta: 0 initialized @(2423,0)
GPGPU-Sim uArch: Shader 12 finished CTA #0 (2459,0), 2 CTAs running
GPGPU-Sim uArch: core: 12, cta: 0 initialized @(2460,0)
GPGPU-Sim uArch: Shader 4 finished CTA #1 (2484,0), 2 CTAs running
GPGPU-Sim uArch: core:  4, cta: 1 initialized @(2485,0)
GPGPU-Sim uArch: cycles simulated: 2500  inst.: 966866 (ipc=386.7) sim_rate=96686 (inst/sec) elapsed = 0:0:00:10 / Tue Mar 22 07:38:46 2016
GPGPU-Sim uArch: Shader 5 finished CTA #1 (2514,0), 2 CTAs running
GPGPU-Sim uArch: core:  5, cta: 1 initialized @(2515,0)
GPGPU-Sim uArch: Shader 2 finished CTA #1 (2527,0), 2 CTAs running
GPGPU-Sim uArch: core:  2, cta: 1 initialized @(2528,0)
GPGPU-Sim uArch: Shader 0 finished CTA #2 (2529,0), 2 CTAs running
GPGPU-Sim uArch: core:  0, cta: 2 initialized @(2530,0)
GPGPU-Sim uArch: Shader 3 finished CTA #0 (2534,0), 2 CTAs running
GPGPU-Sim uArch: core:  3, cta: 0 initialized @(2535,0)
GPGPU-Sim uArch: Shader 9 finished CTA #1 (2548,0), 2 CTAs running
GPGPU-Sim uArch: core:  9, cta: 1 initialized @(2549,0)
GPGPU-Sim uArch: Shader 13 finished CTA #0 (2551,0), 2 CTAs running
GPGPU-Sim uArch: core: 13, cta: 0 initialized @(2552,0)
GPGPU-Sim uArch: Shader 0 finished CTA #1 (2553,0), 2 CTAs running
GPGPU-Sim uArch: core:  0, cta: 1 initialized @(2554,0)
GPGPU-Sim uArch: Shader 3 finished CTA #1 (2558,0), 2 CTAs running
GPGPU-Sim uArch: core:  3, cta: 1 initialized @(2559,0)
GPGPU-Sim uArch: Shader 7 finished CTA #1 (2559,0), 2 CTAs running
GPGPU-Sim uArch: core:  7, cta: 1 initialized @(2560,0)
GPGPU-Sim PTX: 1100000 instructions simulated : ctaid=(146,0,0) tid=(105,0,0)
GPGPU-Sim uArch: Shader 10 finished CTA #1 (2569,0), 2 CTAs running
GPGPU-Sim uArch: core: 10, cta: 1 initialized @(2570,0)
GPGPU-Sim uArch: Shader 6 finished CTA #1 (2573,0), 2 CTAs running
GPGPU-Sim uArch: core:  6, cta: 1 initialized @(2574,0)
GPGPU-Sim uArch: Shader 14 finished CTA #0 (2587,0), 2 CTAs running
GPGPU-Sim uArch: core: 14, cta: 0 initialized @(2588,0)
GPGPU-Sim uArch: Shader 8 finished CTA #1 (2588,0), 2 CTAs running
GPGPU-Sim uArch: core:  8, cta: 1 initialized @(2589,0)
GPGPU-Sim uArch: Shader 6 finished CTA #2 (2590,0), 2 CTAs running
GPGPU-Sim uArch: core:  6, cta: 2 initialized @(2591,0)
GPGPU-Sim uArch: Shader 4 finished CTA #2 (2605,0), 2 CTAs running
GPGPU-Sim uArch: core:  4, cta: 2 initialized @(2606,0)
GPGPU-Sim uArch: Shader 14 finished CTA #1 (2609,0), 2 CTAs running
GPGPU-Sim uArch: core: 14, cta: 1 initialized @(2610,0)
GPGPU-Sim uArch: Shader 8 finished CTA #0 (2612,0), 2 CTAs running
GPGPU-Sim uArch: core:  8, cta: 0 initialized @(2613,0)
GPGPU-Sim uArch: Shader 11 finished CTA #1 (2621,0), 2 CTAs running
GPGPU-Sim uArch: core: 11, cta: 1 initialized @(2622,0)
GPGPU-Sim uArch: Shader 12 finished CTA #1 (2636,0), 2 CTAs running
GPGPU-Sim uArch: core: 12, cta: 1 initialized @(2637,0)
GPGPU-Sim uArch: Shader 11 finished CTA #2 (2638,0), 2 CTAs running
GPGPU-Sim uArch: core: 11, cta: 2 initialized @(2639,0)
GPGPU-Sim uArch: Shader 5 finished CTA #2 (2641,0), 2 CTAs running
GPGPU-Sim uArch: core:  5, cta: 2 initialized @(2642,0)
GPGPU-Sim uArch: Shader 2 finished CTA #2 (2643,0), 2 CTAs running
GPGPU-Sim uArch: core:  2, cta: 2 initialized @(2644,0)
GPGPU-Sim uArch: Shader 7 finished CTA #2 (2651,0), 2 CTAs running
GPGPU-Sim uArch: core:  7, cta: 2 initialized @(2652,0)
GPGPU-Sim uArch: Shader 12 finished CTA #2 (2653,0), 2 CTAs running
GPGPU-Sim uArch: core: 12, cta: 2 initialized @(2654,0)
GPGPU-Sim uArch: Shader 10 finished CTA #2 (2666,0), 2 CTAs running
GPGPU-Sim uArch: core: 10, cta: 2 initialized @(2667,0)
GPGPU-Sim uArch: Shader 9 finished CTA #2 (2672,0), 2 CTAs running
GPGPU-Sim uArch: core:  9, cta: 2 initialized @(2673,0)
GPGPU-Sim uArch: Shader 1 finished CTA #2 (2680,0), 2 CTAs running
GPGPU-Sim uArch: core:  1, cta: 2 initialized @(2681,0)
GPGPU-Sim PTX: 1200000 instructions simulated : ctaid=(166,0,0) tid=(356,0,0)
GPGPU-Sim uArch: Shader 13 finished CTA #1 (2709,0), 2 CTAs running
GPGPU-Sim uArch: Shader 13 finished CTA #2 (2709,0), 1 CTAs running
GPGPU-Sim uArch: core: 13, cta: 1 initialized @(2710,0)
GPGPU-Sim uArch: core: 13, cta: 2 initialized @(2711,0)
GPGPU-Sim uArch: Shader 4 finished CTA #0 (2740,0), 2 CTAs running
GPGPU-Sim uArch: core:  4, cta: 0 initialized @(2741,0)
GPGPU-Sim uArch: Shader 14 finished CTA #2 (2758,0), 2 CTAs running
GPGPU-Sim uArch: core: 14, cta: 2 initialized @(2759,0)
GPGPU-Sim uArch: Shader 0 finished CTA #0 (2789,0), 2 CTAs running
GPGPU-Sim uArch: core:  0, cta: 0 initialized @(2790,0)
GPGPU-Sim uArch: Shader 5 finished CTA #0 (2792,0), 2 CTAs running
GPGPU-Sim uArch: core:  5, cta: 0 initialized @(2793,0)
GPGPU-Sim uArch: Shader 3 finished CTA #2 (2798,0), 2 CTAs running
GPGPU-Sim uArch: core:  3, cta: 2 initialized @(2799,0)
GPGPU-Sim uArch: Shader 7 finished CTA #0 (2816,0), 2 CTAs running
GPGPU-Sim uArch: core:  7, cta: 0 initialized @(2817,0)
GPGPU-Sim PTX: 1300000 instructions simulated : ctaid=(170,0,0) tid=(36,0,0)
GPGPU-Sim uArch: Shader 2 finished CTA #0 (2823,0), 2 CTAs running
GPGPU-Sim uArch: core:  2, cta: 0 initialized @(2824,0)
GPGPU-Sim uArch: Shader 10 finished CTA #0 (2826,0), 2 CTAs running
GPGPU-Sim uArch: core: 10, cta: 0 initialized @(2827,0)
GPGPU-Sim uArch: Shader 6 finished CTA #0 (2831,0), 2 CTAs running
GPGPU-Sim uArch: core:  6, cta: 0 initialized @(2832,0)
GPGPU-Sim uArch: Shader 1 finished CTA #1 (2833,0), 2 CTAs running
GPGPU-Sim uArch: Shader 8 finished CTA #2 (2833,0), 2 CTAs running
GPGPU-Sim uArch: core:  8, cta: 2 initialized @(2834,0)
GPGPU-Sim uArch: core:  1, cta: 1 initialized @(2834,0)
GPGPU-Sim uArch: Shader 9 finished CTA #0 (2865,0), 2 CTAs running
GPGPU-Sim uArch: core:  9, cta: 0 initialized @(2866,0)
GPGPU-Sim uArch: Shader 11 finished CTA #0 (2871,0), 2 CTAs running
GPGPU-Sim uArch: core: 11, cta: 0 initialized @(2872,0)
GPGPU-Sim uArch: Shader 12 finished CTA #0 (2900,0), 2 CTAs running
GPGPU-Sim uArch: core: 12, cta: 0 initialized @(2901,0)
GPGPU-Sim uArch: Shader 4 finished CTA #1 (2924,0), 2 CTAs running
GPGPU-Sim uArch: core:  4, cta: 1 initialized @(2925,0)
GPGPU-Sim PTX: 1400000 instructions simulated : ctaid=(152,0,0) tid=(25,0,0)
GPGPU-Sim uArch: Shader 5 finished CTA #1 (2962,0), 2 CTAs running
GPGPU-Sim uArch: core:  5, cta: 1 initialized @(2963,0)
GPGPU-Sim uArch: Shader 2 finished CTA #1 (2976,0), 2 CTAs running
GPGPU-Sim uArch: core:  2, cta: 1 initialized @(2977,0)
GPGPU-Sim uArch: cycles simulated: 3000  inst.: 1300169 (ipc=433.4) sim_rate=118197 (inst/sec) elapsed = 0:0:00:11 / Tue Mar 22 07:38:47 2016
GPGPU-Sim uArch: Shader 0 finished CTA #2 (3005,0), 2 CTAs running
GPGPU-Sim uArch: core:  0, cta: 2 initialized @(3006,0)
GPGPU-Sim uArch: Shader 7 finished CTA #1 (3011,0), 2 CTAs running
GPGPU-Sim uArch: core:  7, cta: 1 initialized @(3012,0)
GPGPU-Sim uArch: Shader 10 finished CTA #1 (3016,0), 2 CTAs running
GPGPU-Sim uArch: core: 10, cta: 1 initialized @(3017,0)
GPGPU-Sim uArch: Shader 9 finished CTA #1 (3018,0), 2 CTAs running
GPGPU-Sim uArch: Shader 13 finished CTA #0 (3018,0), 2 CTAs running
GPGPU-Sim uArch: core: 13, cta: 0 initialized @(3019,0)
GPGPU-Sim uArch: core:  9, cta: 1 initialized @(3019,0)
GPGPU-Sim uArch: Shader 3 finished CTA #0 (3019,0), 2 CTAs running
GPGPU-Sim uArch: core:  3, cta: 0 initialized @(3020,0)
GPGPU-Sim uArch: Shader 6 finished CTA #1 (3039,0), 2 CTAs running
GPGPU-Sim uArch: core:  6, cta: 1 initialized @(3040,0)
GPGPU-Sim uArch: Shader 8 finished CTA #1 (3060,0), 2 CTAs running
GPGPU-Sim uArch: core:  8, cta: 1 initialized @(3061,0)
GPGPU-Sim uArch: Shader 4 finished CTA #2 (3077,0), 2 CTAs running
GPGPU-Sim uArch: core:  4, cta: 2 initialized @(3078,0)
GPGPU-Sim uArch: Shader 0 finished CTA #1 (3086,0), 2 CTAs running
GPGPU-Sim uArch: core:  0, cta: 1 initialized @(3087,0)
GPGPU-Sim uArch: Shader 3 finished CTA #1 (3091,0), 2 CTAs running
GPGPU-Sim uArch: Shader 12 finished CTA #1 (3091,0), 2 CTAs running
GPGPU-Sim uArch: core:  3, cta: 1 initialized @(3092,0)
GPGPU-Sim uArch: core: 12, cta: 1 initialized @(3092,0)
GPGPU-Sim uArch: Shader 11 finished CTA #1 (3092,0), 2 CTAs running
GPGPU-Sim uArch: core: 11, cta: 1 initialized @(3093,0)
GPGPU-Sim uArch: Shader 1 finished CTA #2 (3097,0), 2 CTAs running
GPGPU-Sim uArch: core:  1, cta: 2 initialized @(3098,0)
GPGPU-Sim uArch: Shader 5 finished CTA #2 (3109,0), 2 CTAs running
GPGPU-Sim uArch: core:  5, cta: 2 initialized @(3110,0)
GPGPU-Sim uArch: Shader 2 finished CTA #2 (3123,0), 2 CTAs running
GPGPU-Sim uArch: core:  2, cta: 2 initialized @(3124,0)
GPGPU-Sim PTX: 1500000 instructions simulated : ctaid=(195,0,0) tid=(336,0,0)
GPGPU-Sim uArch: Shader 14 finished CTA #0 (3131,0), 2 CTAs running
GPGPU-Sim uArch: core: 14, cta: 0 initialized @(3132,0)
GPGPU-Sim uArch: Shader 6 finished CTA #2 (3151,0), 2 CTAs running
GPGPU-Sim uArch: core:  6, cta: 2 initialized @(3152,0)
GPGPU-Sim uArch: Shader 14 finished CTA #1 (3155,0), 2 CTAs running
GPGPU-Sim uArch: core: 14, cta: 1 initialized @(3156,0)
GPGPU-Sim uArch: Shader 9 finished CTA #2 (3158,0), 2 CTAs running
GPGPU-Sim uArch: core:  9, cta: 2 initialized @(3159,0)
GPGPU-Sim uArch: Shader 7 finished CTA #2 (3162,0), 2 CTAs running
GPGPU-Sim uArch: core:  7, cta: 2 initialized @(3163,0)
GPGPU-Sim uArch: Shader 10 finished CTA #2 (3169,0), 2 CTAs running
GPGPU-Sim uArch: core: 10, cta: 2 initialized @(3170,0)
GPGPU-Sim uArch: Shader 8 finished CTA #0 (3181,0), 2 CTAs running
GPGPU-Sim uArch: core:  8, cta: 0 initialized @(3182,0)
GPGPU-Sim uArch: Shader 12 finished CTA #2 (3188,0), 2 CTAs running
GPGPU-Sim uArch: core: 12, cta: 2 initialized @(3189,0)
GPGPU-Sim uArch: Shader 11 finished CTA #2 (3189,0), 2 CTAs running
GPGPU-Sim uArch: core: 11, cta: 2 initialized @(3190,0)
GPGPU-Sim uArch: Shader 4 finished CTA #0 (3217,0), 2 CTAs running
GPGPU-Sim uArch: core:  4, cta: 0 initialized @(3218,0)
GPGPU-Sim uArch: Shader 13 finished CTA #1 (3228,0), 2 CTAs running
GPGPU-Sim uArch: core: 13, cta: 1 initialized @(3229,0)
GPGPU-Sim uArch: Shader 1 finished CTA #1 (3248,0), 2 CTAs running
GPGPU-Sim uArch: Shader 5 finished CTA #0 (3248,0), 2 CTAs running
GPGPU-Sim uArch: core:  1, cta: 1 initialized @(3249,0)
GPGPU-Sim uArch: core:  5, cta: 0 initialized @(3249,0)
GPGPU-Sim uArch: Shader 13 finished CTA #2 (3250,0), 2 CTAs running
GPGPU-Sim uArch: core: 13, cta: 2 initialized @(3251,0)
GPGPU-Sim PTX: 1600000 instructions simulated : ctaid=(203,0,0) tid=(400,0,0)
GPGPU-Sim uArch: Shader 0 finished CTA #0 (3254,0), 2 CTAs running
GPGPU-Sim uArch: core:  0, cta: 0 initialized @(3255,0)
GPGPU-Sim uArch: Shader 2 finished CTA #0 (3271,0), 2 CTAs running
GPGPU-Sim uArch: core:  2, cta: 0 initialized @(3272,0)
GPGPU-Sim uArch: Shader 6 finished CTA #0 (3280,0), 2 CTAs running
GPGPU-Sim uArch: core:  6, cta: 0 initialized @(3281,0)
GPGPU-Sim uArch: Shader 3 finished CTA #2 (3283,0), 2 CTAs running
GPGPU-Sim uArch: core:  3, cta: 2 initialized @(3284,0)
GPGPU-Sim uArch: Shader 7 finished CTA #0 (3292,0), 2 CTAs running
GPGPU-Sim uArch: core:  7, cta: 0 initialized @(3293,0)
GPGPU-Sim uArch: Shader 10 finished CTA #0 (3298,0), 2 CTAs running
GPGPU-Sim uArch: core: 10, cta: 0 initialized @(3299,0)
GPGPU-Sim uArch: Shader 8 finished CTA #2 (3301,0), 2 CTAs running
GPGPU-Sim uArch: core:  8, cta: 2 initialized @(3302,0)
GPGPU-Sim uArch: Shader 9 finished CTA #0 (3310,0), 2 CTAs running
GPGPU-Sim uArch: core:  9, cta: 0 initialized @(3311,0)
GPGPU-Sim uArch: Shader 12 finished CTA #0 (3348,0), 2 CTAs running
GPGPU-Sim uArch: core: 12, cta: 0 initialized @(3349,0)
GPGPU-Sim uArch: Shader 11 finished CTA #0 (3349,0), 2 CTAs running
GPGPU-Sim uArch: core: 11, cta: 0 initialized @(3350,0)
GPGPU-Sim uArch: Shader 4 finished CTA #1 (3367,0), 2 CTAs running
GPGPU-Sim uArch: core:  4, cta: 1 initialized @(3368,0)
GPGPU-Sim uArch: Shader 14 finished CTA #2 (3371,0), 2 CTAs running
GPGPU-Sim uArch: core: 14, cta: 2 initialized @(3372,0)
GPGPU-Sim PTX: 1700000 instructions simulated : ctaid=(224,0,0) tid=(458,0,0)
GPGPU-Sim uArch: Shader 5 finished CTA #1 (3405,0), 2 CTAs running
GPGPU-Sim uArch: core:  5, cta: 1 initialized @(3406,0)
GPGPU-Sim uArch: Shader 2 finished CTA #1 (3423,0), 2 CTAs running
GPGPU-Sim uArch: core:  2, cta: 1 initialized @(3424,0)
GPGPU-Sim uArch: Shader 7 finished CTA #1 (3451,0), 2 CTAs running
GPGPU-Sim uArch: core:  7, cta: 1 initialized @(3452,0)
GPGPU-Sim uArch: Shader 10 finished CTA #1 (3458,0), 2 CTAs running
GPGPU-Sim uArch: core: 10, cta: 1 initialized @(3459,0)
GPGPU-Sim uArch: Shader 9 finished CTA #1 (3462,0), 2 CTAs running
GPGPU-Sim uArch: core:  9, cta: 1 initialized @(3463,0)
GPGPU-Sim uArch: Shader 0 finished CTA #2 (3472,0), 2 CTAs running
GPGPU-Sim uArch: core:  0, cta: 2 initialized @(3473,0)
GPGPU-Sim uArch: Shader 3 finished CTA #0 (3473,0), 2 CTAs running
GPGPU-Sim uArch: core:  3, cta: 0 initialized @(3474,0)
GPGPU-Sim uArch: Shader 6 finished CTA #1 (3479,0), 2 CTAs running
GPGPU-Sim uArch: core:  6, cta: 1 initialized @(3480,0)
GPGPU-Sim uArch: Shader 13 finished CTA #0 (3490,0), 2 CTAs running
GPGPU-Sim uArch: core: 13, cta: 0 initialized @(3491,0)
GPGPU-Sim uArch: Shader 1 finished CTA #2 (3495,0), 2 CTAs running
GPGPU-Sim uArch: core:  1, cta: 2 initialized @(3496,0)
GPGPU-Sim uArch: cycles simulated: 3500  inst.: 1640560 (ipc=468.7) sim_rate=136713 (inst/sec) elapsed = 0:0:00:12 / Tue Mar 22 07:38:48 2016
GPGPU-Sim uArch: Shader 8 finished CTA #1 (3500,0), 2 CTAs running
GPGPU-Sim uArch: core:  8, cta: 1 initialized @(3501,0)
GPGPU-Sim PTX: 1800000 instructions simulated : ctaid=(244,0,0) tid=(232,0,0)
GPGPU-Sim uArch: Shader 4 finished CTA #2 (3523,0), 2 CTAs running
GPGPU-Sim uArch: core:  4, cta: 2 initialized @(3524,0)
GPGPU-Sim uArch: Shader 12 finished CTA #1 (3536,0), 2 CTAs running
GPGPU-Sim uArch: core: 12, cta: 1 initialized @(3537,0)
GPGPU-Sim uArch: Shader 11 finished CTA #1 (3542,0), 2 CTAs running
GPGPU-Sim uArch: core: 11, cta: 1 initialized @(3543,0)
GPGPU-Sim uArch: Shader 5 finished CTA #2 (3559,0), 2 CTAs running
GPGPU-Sim uArch: core:  5, cta: 2 initialized @(3560,0)
GPGPU-Sim uArch: Shader 2 finished CTA #2 (3570,0), 2 CTAs running
GPGPU-Sim uArch: core:  2, cta: 2 initialized @(3571,0)
GPGPU-Sim uArch: Shader 7 finished CTA #2 (3606,0), 2 CTAs running
GPGPU-Sim uArch: core:  7, cta: 2 initialized @(3607,0)
GPGPU-Sim uArch: Shader 10 finished CTA #2 (3610,0), 2 CTAs running
GPGPU-Sim uArch: core: 10, cta: 2 initialized @(3611,0)
GPGPU-Sim uArch: Shader 0 finished CTA #1 (3615,0), 2 CTAs running
GPGPU-Sim uArch: core:  0, cta: 1 initialized @(3616,0)
GPGPU-Sim uArch: Shader 9 finished CTA #2 (3616,0), 2 CTAs running
GPGPU-Sim uArch: core:  9, cta: 2 initialized @(3617,0)
GPGPU-Sim uArch: Shader 3 finished CTA #1 (3621,0), 2 CTAs running
GPGPU-Sim uArch: core:  3, cta: 1 initialized @(3622,0)
GPGPU-Sim uArch: Shader 14 finished CTA #0 (3624,0), 2 CTAs running
GPGPU-Sim uArch: core: 14, cta: 0 initialized @(3625,0)
GPGPU-Sim uArch: Shader 6 finished CTA #2 (3635,0), 2 CTAs running
GPGPU-Sim uArch: core:  6, cta: 2 initialized @(3636,0)
GPGPU-Sim uArch: Shader 8 finished CTA #0 (3658,0), 2 CTAs running
GPGPU-Sim uArch: core:  8, cta: 0 initialized @(3659,0)
GPGPU-Sim PTX: 1900000 instructions simulated : ctaid=(258,0,0) tid=(440,0,0)
GPGPU-Sim uArch: Shader 1 finished CTA #1 (3664,0), 2 CTAs running
GPGPU-Sim uArch: core:  1, cta: 1 initialized @(3665,0)
GPGPU-Sim uArch: Shader 4 finished CTA #0 (3677,0), 2 CTAs running
GPGPU-Sim uArch: core:  4, cta: 0 initialized @(3678,0)
GPGPU-Sim uArch: Shader 12 finished CTA #2 (3690,0), 2 CTAs running
GPGPU-Sim uArch: core: 12, cta: 2 initialized @(3691,0)
GPGPU-Sim uArch: Shader 11 finished CTA #2 (3696,0), 2 CTAs running
GPGPU-Sim uArch: core: 11, cta: 2 initialized @(3697,0)
GPGPU-Sim uArch: Shader 5 finished CTA #0 (3712,0), 2 CTAs running
GPGPU-Sim uArch: core:  5, cta: 0 initialized @(3713,0)
GPGPU-Sim uArch: Shader 13 finished CTA #1 (3716,0), 2 CTAs running
GPGPU-Sim uArch: core: 13, cta: 1 initialized @(3717,0)
GPGPU-Sim uArch: Shader 2 finished CTA #0 (3717,0), 2 CTAs running
GPGPU-Sim uArch: core:  2, cta: 0 initialized @(3718,0)
GPGPU-Sim uArch: Shader 14 finished CTA #1 (3721,0), 2 CTAs running
GPGPU-Sim uArch: core: 14, cta: 1 initialized @(3722,0)
GPGPU-Sim uArch: Shader 3 finished CTA #2 (3738,0), 2 CTAs running
GPGPU-Sim uArch: core:  3, cta: 2 initialized @(3739,0)
GPGPU-Sim uArch: Shader 0 finished CTA #0 (3752,0), 2 CTAs running
GPGPU-Sim uArch: core:  0, cta: 0 initialized @(3753,0)
GPGPU-Sim uArch: Shader 7 finished CTA #0 (3759,0), 2 CTAs running
GPGPU-Sim uArch: core:  7, cta: 0 initialized @(3760,0)
GPGPU-Sim uArch: Shader 9 finished CTA #0 (3761,0), 2 CTAs running
GPGPU-Sim uArch: Shader 10 finished CTA #0 (3761,0), 2 CTAs running
GPGPU-Sim uArch: core:  9, cta: 0 initialized @(3762,0)
GPGPU-Sim uArch: core: 10, cta: 0 initialized @(3762,0)
GPGPU-Sim uArch: Shader 6 finished CTA #0 (3774,0), 2 CTAs running
GPGPU-Sim uArch: core:  6, cta: 0 initialized @(3775,0)
GPGPU-Sim uArch: Shader 8 finished CTA #2 (3790,0), 2 CTAs running
GPGPU-Sim uArch: core:  8, cta: 2 initialized @(3791,0)
GPGPU-Sim PTX: 2000000 instructions simulated : ctaid=(272,0,0) tid=(310,0,0)
GPGPU-Sim uArch: Shader 13 finished CTA #2 (3809,0), 2 CTAs running
GPGPU-Sim uArch: core: 13, cta: 2 initialized @(3810,0)
GPGPU-Sim uArch: Shader 4 finished CTA #1 (3815,0), 2 CTAs running
GPGPU-Sim uArch: core:  4, cta: 1 initialized @(3816,0)
GPGPU-Sim uArch: Shader 12 finished CTA #0 (3822,0), 2 CTAs running
GPGPU-Sim uArch: core: 12, cta: 0 initialized @(3823,0)
GPGPU-Sim uArch: Shader 11 finished CTA #0 (3828,0), 2 CTAs running
GPGPU-Sim uArch: core: 11, cta: 0 initialized @(3829,0)
GPGPU-Sim uArch: Shader 5 finished CTA #1 (3852,0), 2 CTAs running
GPGPU-Sim uArch: core:  5, cta: 1 initialized @(3853,0)
GPGPU-Sim uArch: Shader 2 finished CTA #1 (3864,0), 2 CTAs running
GPGPU-Sim uArch: Shader 14 finished CTA #2 (3864,0), 2 CTAs running
GPGPU-Sim uArch: core: 14, cta: 2 initialized @(3865,0)
GPGPU-Sim uArch: core:  2, cta: 1 initialized @(3865,0)
GPGPU-Sim uArch: Shader 7 finished CTA #1 (3896,0), 2 CTAs running
GPGPU-Sim uArch: core:  7, cta: 1 initialized @(3897,0)
GPGPU-Sim uArch: Shader 10 finished CTA #1 (3900,0), 2 CTAs running
GPGPU-Sim uArch: core: 10, cta: 1 initialized @(3901,0)
GPGPU-Sim uArch: Shader 1 finished CTA #2 (3901,0), 2 CTAs running
GPGPU-Sim uArch: core:  1, cta: 2 initialized @(3902,0)
GPGPU-Sim uArch: Shader 9 finished CTA #1 (3904,0), 2 CTAs running
GPGPU-Sim uArch: core:  9, cta: 1 initialized @(3905,0)
GPGPU-Sim uArch: Shader 6 finished CTA #1 (3914,0), 2 CTAs running
GPGPU-Sim uArch: core:  6, cta: 1 initialized @(3915,0)
GPGPU-Sim uArch: Shader 0 finished CTA #2 (3918,0), 2 CTAs running
GPGPU-Sim uArch: core:  0, cta: 2 initialized @(3919,0)
GPGPU-Sim uArch: Shader 3 finished CTA #0 (3921,0), 2 CTAs running
GPGPU-Sim uArch: core:  3, cta: 0 initialized @(3922,0)
GPGPU-Sim PTX: 2100000 instructions simulated : ctaid=(251,0,0) tid=(86,0,0)
GPGPU-Sim uArch: Shader 8 finished CTA #1 (3943,0), 2 CTAs running
GPGPU-Sim uArch: core:  8, cta: 1 initialized @(3944,0)
GPGPU-Sim uArch: Shader 13 finished CTA #0 (3973,0), 2 CTAs running
GPGPU-Sim uArch: core: 13, cta: 0 initialized @(3974,0)
GPGPU-Sim uArch: Shader 4 finished CTA #2 (3974,0), 2 CTAs running
GPGPU-Sim uArch: core:  4, cta: 2 initialized @(3975,0)
GPGPU-Sim uArch: Shader 12 finished CTA #1 (3977,0), 2 CTAs running
GPGPU-Sim uArch: core: 12, cta: 1 initialized @(3978,0)
GPGPU-Sim uArch: Shader 11 finished CTA #1 (3985,0), 2 CTAs running
GPGPU-Sim uArch: core: 11, cta: 1 initialized @(3986,0)
GPGPU-Sim uArch: cycles simulated: 4000  inst.: 1990727 (ipc=497.7) sim_rate=153132 (inst/sec) elapsed = 0:0:00:13 / Tue Mar 22 07:38:49 2016
GPGPU-Sim uArch: Shader 5 finished CTA #2 (4004,0), 2 CTAs running
GPGPU-Sim uArch: core:  5, cta: 2 initialized @(4005,0)
GPGPU-Sim uArch: Shader 2 finished CTA #2 (4010,0), 2 CTAs running
GPGPU-Sim uArch: core:  2, cta: 2 initialized @(4011,0)
GPGPU-Sim uArch: Shader 10 finished CTA #2 (4052,0), 2 CTAs running
GPGPU-Sim uArch: core: 10, cta: 2 initialized @(4053,0)
GPGPU-Sim uArch: Shader 7 finished CTA #2 (4055,0), 2 CTAs running
GPGPU-Sim uArch: core:  7, cta: 2 initialized @(4056,0)
GPGPU-Sim PTX: 2200000 instructions simulated : ctaid=(286,0,0) tid=(491,0,0)
GPGPU-Sim uArch: Shader 9 finished CTA #2 (4061,0), 2 CTAs running
GPGPU-Sim uArch: core:  9, cta: 2 initialized @(4062,0)
GPGPU-Sim uArch: Shader 1 finished CTA #1 (4070,0), 2 CTAs running
GPGPU-Sim uArch: core:  1, cta: 1 initialized @(4071,0)
GPGPU-Sim uArch: Shader 0 finished CTA #1 (4072,0), 2 CTAs running
GPGPU-Sim uArch: core:  0, cta: 1 initialized @(4073,0)
GPGPU-Sim uArch: Shader 14 finished CTA #0 (4074,0), 2 CTAs running
GPGPU-Sim uArch: core: 14, cta: 0 initialized @(4075,0)
GPGPU-Sim uArch: Shader 3 finished CTA #1 (4075,0), 2 CTAs running
GPGPU-Sim uArch: core:  3, cta: 1 initialized @(4076,0)
GPGPU-Sim uArch: Shader 6 finished CTA #2 (4083,0), 2 CTAs running
GPGPU-Sim uArch: core:  6, cta: 2 initialized @(4084,0)
GPGPU-Sim uArch: Shader 8 finished CTA #0 (4103,0), 2 CTAs running
GPGPU-Sim uArch: core:  8, cta: 0 initialized @(4104,0)
GPGPU-Sim uArch: Shader 4 finished CTA #0 (4123,0), 2 CTAs running
GPGPU-Sim uArch: core:  4, cta: 0 initialized @(4124,0)
GPGPU-Sim uArch: Shader 12 finished CTA #2 (4136,0), 2 CTAs running
GPGPU-Sim uArch: core: 12, cta: 2 initialized @(4137,0)
GPGPU-Sim uArch: Shader 11 finished CTA #2 (4147,0), 2 CTAs running
GPGPU-Sim uArch: core: 11, cta: 2 initialized @(4148,0)
GPGPU-Sim uArch: Shader 5 finished CTA #0 (4157,0), 2 CTAs running
GPGPU-Sim uArch: core:  5, cta: 0 initialized @(4158,0)
GPGPU-Sim uArch: Shader 13 finished CTA #1 (4158,0), 2 CTAs running
GPGPU-Sim uArch: core: 13, cta: 1 initialized @(4159,0)
GPGPU-Sim uArch: Shader 2 finished CTA #0 (4161,0), 2 CTAs running
GPGPU-Sim uArch: core:  2, cta: 0 initialized @(4162,0)
GPGPU-Sim PTX: 2300000 instructions simulated : ctaid=(308,0,0) tid=(129,0,0)
GPGPU-Sim uArch: Shader 7 finished CTA #0 (4208,0), 2 CTAs running
GPGPU-Sim uArch: Shader 10 finished CTA #0 (4208,0), 2 CTAs running
GPGPU-Sim uArch: core:  7, cta: 0 initialized @(4209,0)
GPGPU-Sim uArch: core: 10, cta: 0 initialized @(4209,0)
GPGPU-Sim uArch: Shader 0 finished CTA #0 (4212,0), 2 CTAs running
GPGPU-Sim uArch: core:  0, cta: 0 initialized @(4213,0)
GPGPU-Sim uArch: Shader 9 finished CTA #0 (4215,0), 2 CTAs running
GPGPU-Sim uArch: core:  9, cta: 0 initialized @(4216,0)
GPGPU-Sim uArch: Shader 3 finished CTA #2 (4216,0), 2 CTAs running
GPGPU-Sim uArch: core:  3, cta: 2 initialized @(4217,0)
GPGPU-Sim uArch: Shader 14 finished CTA #1 (4226,0), 2 CTAs running
GPGPU-Sim uArch: core: 14, cta: 1 initialized @(4227,0)
GPGPU-Sim uArch: Shader 6 finished CTA #0 (4235,0), 2 CTAs running
GPGPU-Sim uArch: core:  6, cta: 0 initialized @(4236,0)
GPGPU-Sim uArch: Shader 8 finished CTA #2 (4250,0), 2 CTAs running
GPGPU-Sim uArch: core:  8, cta: 2 initialized @(4251,0)
GPGPU-Sim uArch: Shader 4 finished CTA #1 (4277,0), 2 CTAs running
GPGPU-Sim uArch: core:  4, cta: 1 initialized @(4278,0)
GPGPU-Sim uArch: Shader 12 finished CTA #0 (4289,0), 2 CTAs running
GPGPU-Sim uArch: core: 12, cta: 0 initialized @(4290,0)
GPGPU-Sim uArch: Shader 11 finished CTA #0 (4295,0), 2 CTAs running
GPGPU-Sim uArch: core: 11, cta: 0 initialized @(4296,0)
GPGPU-Sim uArch: Shader 1 finished CTA #2 (4303,0), 2 CTAs running
GPGPU-Sim uArch: core:  1, cta: 2 initialized @(4304,0)
GPGPU-Sim uArch: Shader 5 finished CTA #1 (4306,0), 2 CTAs running
GPGPU-Sim uArch: core:  5, cta: 1 initialized @(4307,0)
GPGPU-Sim uArch: Shader 2 finished CTA #1 (4307,0), 2 CTAs running
GPGPU-Sim uArch: core:  2, cta: 1 initialized @(4308,0)
GPGPU-Sim uArch: Shader 13 finished CTA #2 (4309,0), 2 CTAs running
GPGPU-Sim uArch: core: 13, cta: 2 initialized @(4310,0)
GPGPU-Sim PTX: 2400000 instructions simulated : ctaid=(324,0,0) tid=(321,0,0)
GPGPU-Sim uArch: Shader 1 finished CTA #0 (4345,0), 2 CTAs running
GPGPU-Sim uArch: core:  1, cta: 0 initialized @(4346,0)
GPGPU-Sim uArch: Shader 7 finished CTA #1 (4354,0), 2 CTAs running
GPGPU-Sim uArch: core:  7, cta: 1 initialized @(4355,0)
GPGPU-Sim uArch: Shader 10 finished CTA #1 (4356,0), 2 CTAs running
GPGPU-Sim uArch: Shader 14 finished CTA #2 (4356,0), 2 CTAs running
GPGPU-Sim uArch: core: 10, cta: 1 initialized @(4357,0)
GPGPU-Sim uArch: core: 14, cta: 2 initialized @(4357,0)
GPGPU-Sim uArch: Shader 0 finished CTA #2 (4357,0), 2 CTAs running
GPGPU-Sim uArch: core:  0, cta: 2 initialized @(4358,0)
GPGPU-Sim uArch: Shader 9 finished CTA #1 (4364,0), 2 CTAs running
GPGPU-Sim uArch: core:  9, cta: 1 initialized @(4365,0)
GPGPU-Sim uArch: Shader 3 finished CTA #0 (4367,0), 2 CTAs running
GPGPU-Sim uArch: core:  3, cta: 0 initialized @(4368,0)
GPGPU-Sim uArch: Shader 6 finished CTA #1 (4373,0), 2 CTAs running
GPGPU-Sim uArch: core:  6, cta: 1 initialized @(4374,0)
GPGPU-Sim uArch: Shader 8 finished CTA #1 (4390,0), 2 CTAs running
GPGPU-Sim uArch: core:  8, cta: 1 initialized @(4391,0)
GPGPU-Sim uArch: Shader 4 finished CTA #2 (4418,0), 2 CTAs running
GPGPU-Sim uArch: core:  4, cta: 2 initialized @(4419,0)
GPGPU-Sim uArch: Shader 12 finished CTA #1 (4431,0), 2 CTAs running
GPGPU-Sim uArch: core: 12, cta: 1 initialized @(4432,0)
GPGPU-Sim uArch: Shader 11 finished CTA #1 (4436,0), 2 CTAs running
GPGPU-Sim uArch: core: 11, cta: 1 initialized @(4437,0)
GPGPU-Sim uArch: Shader 2 finished CTA #2 (4450,0), 2 CTAs running
GPGPU-Sim uArch: Shader 5 finished CTA #2 (4450,0), 2 CTAs running
GPGPU-Sim uArch: Shader 13 finished CTA #0 (4450,0), 2 CTAs running
GPGPU-Sim uArch: core: 13, cta: 0 initialized @(4451,0)
GPGPU-Sim uArch: core:  2, cta: 2 initialized @(4451,0)
GPGPU-Sim uArch: core:  5, cta: 2 initialized @(4451,0)
GPGPU-Sim PTX: 2500000 instructions simulated : ctaid=(324,0,0) tid=(481,0,0)
GPGPU-Sim uArch: Shader 10 finished CTA #2 (4496,0), 2 CTAs running
GPGPU-Sim uArch: core: 10, cta: 2 initialized @(4497,0)
GPGPU-Sim uArch: Shader 9 finished CTA #2 (4498,0), 2 CTAs running
GPGPU-Sim uArch: core:  9, cta: 2 initialized @(4499,0)
GPGPU-Sim uArch: cycles simulated: 4500  inst.: 2347928 (ipc=521.8) sim_rate=167709 (inst/sec) elapsed = 0:0:00:14 / Tue Mar 22 07:38:50 2016
GPGPU-Sim uArch: Shader 7 finished CTA #2 (4501,0), 2 CTAs running
GPGPU-Sim uArch: core:  7, cta: 2 initialized @(4502,0)
GPGPU-Sim uArch: Shader 0 finished CTA #1 (4516,0), 2 CTAs running
GPGPU-Sim uArch: core:  0, cta: 1 initialized @(4517,0)
GPGPU-Sim uArch: Shader 14 finished CTA #0 (4519,0), 2 CTAs running
GPGPU-Sim uArch: core: 14, cta: 0 initialized @(4520,0)
GPGPU-Sim uArch: Shader 3 finished CTA #1 (4520,0), 2 CTAs running
GPGPU-Sim uArch: core:  3, cta: 1 initialized @(4521,0)
GPGPU-Sim uArch: Shader 6 finished CTA #2 (4523,0), 2 CTAs running
GPGPU-Sim uArch: core:  6, cta: 2 initialized @(4524,0)
GPGPU-Sim uArch: Shader 8 finished CTA #0 (4543,0), 2 CTAs running
GPGPU-Sim uArch: core:  8, cta: 0 initialized @(4544,0)
GPGPU-Sim uArch: Shader 1 finished CTA #1 (4560,0), 2 CTAs running
GPGPU-Sim uArch: core:  1, cta: 1 initialized @(4561,0)
GPGPU-Sim uArch: Shader 4 finished CTA #0 (4576,0), 2 CTAs running
GPGPU-Sim uArch: core:  4, cta: 0 initialized @(4577,0)
GPGPU-Sim PTX: 2600000 instructions simulated : ctaid=(309,0,0) tid=(353,0,0)
GPGPU-Sim uArch: Shader 12 finished CTA #2 (4583,0), 2 CTAs running
GPGPU-Sim uArch: core: 12, cta: 2 initialized @(4584,0)
GPGPU-Sim uArch: Shader 11 finished CTA #2 (4592,0), 2 CTAs running
GPGPU-Sim uArch: core: 11, cta: 2 initialized @(4593,0)
GPGPU-Sim uArch: Shader 13 finished CTA #1 (4597,0), 2 CTAs running
GPGPU-Sim uArch: core: 13, cta: 1 initialized @(4598,0)
GPGPU-Sim uArch: Shader 5 finished CTA #0 (4601,0), 2 CTAs running
GPGPU-Sim uArch: core:  5, cta: 0 initialized @(4602,0)
GPGPU-Sim uArch: Shader 2 finished CTA #0 (4603,0), 2 CTAs running
GPGPU-Sim uArch: core:  2, cta: 0 initialized @(4604,0)
GPGPU-Sim uArch: Shader 10 finished CTA #0 (4647,0), 2 CTAs running
GPGPU-Sim uArch: core: 10, cta: 0 initialized @(4648,0)
GPGPU-Sim uArch: Shader 7 finished CTA #0 (4648,0), 2 CTAs running
GPGPU-Sim uArch: core:  7, cta: 0 initialized @(4649,0)
GPGPU-Sim uArch: Shader 9 finished CTA #0 (4662,0), 2 CTAs running
GPGPU-Sim uArch: core:  9, cta: 0 initialized @(4663,0)
GPGPU-Sim uArch: Shader 0 finished CTA #0 (4669,0), 2 CTAs running
GPGPU-Sim uArch: core:  0, cta: 0 initialized @(4670,0)
GPGPU-Sim uArch: Shader 3 finished CTA #2 (4672,0), 2 CTAs running
GPGPU-Sim uArch: core:  3, cta: 2 initialized @(4673,0)
GPGPU-Sim uArch: Shader 14 finished CTA #1 (4673,0), 2 CTAs running
GPGPU-Sim uArch: core: 14, cta: 1 initialized @(4674,0)
GPGPU-Sim uArch: Shader 6 finished CTA #0 (4682,0), 2 CTAs running
GPGPU-Sim uArch: core:  6, cta: 0 initialized @(4683,0)
GPGPU-Sim uArch: Shader 8 finished CTA #2 (4694,0), 2 CTAs running
GPGPU-Sim uArch: core:  8, cta: 2 initialized @(4695,0)
GPGPU-Sim PTX: 2700000 instructions simulated : ctaid=(362,0,0) tid=(65,0,0)
GPGPU-Sim uArch: Shader 4 finished CTA #1 (4727,0), 2 CTAs running
GPGPU-Sim uArch: core:  4, cta: 1 initialized @(4728,0)
GPGPU-Sim uArch: Shader 12 finished CTA #0 (4735,0), 2 CTAs running
GPGPU-Sim uArch: core: 12, cta: 0 initialized @(4736,0)
GPGPU-Sim uArch: Shader 11 finished CTA #0 (4744,0), 2 CTAs running
GPGPU-Sim uArch: core: 11, cta: 0 initialized @(4745,0)
GPGPU-Sim uArch: Shader 5 finished CTA #1 (4748,0), 2 CTAs running
GPGPU-Sim uArch: core:  5, cta: 1 initialized @(4749,0)
GPGPU-Sim uArch: Shader 2 finished CTA #1 (4750,0), 2 CTAs running
GPGPU-Sim uArch: core:  2, cta: 1 initialized @(4751,0)
GPGPU-Sim uArch: Shader 13 finished CTA #2 (4758,0), 2 CTAs running
GPGPU-Sim uArch: core: 13, cta: 2 initialized @(4759,0)
GPGPU-Sim uArch: Shader 1 finished CTA #2 (4767,0), 2 CTAs running
GPGPU-Sim uArch: core:  1, cta: 2 initialized @(4768,0)
GPGPU-Sim uArch: Shader 10 finished CTA #1 (4799,0), 2 CTAs running
GPGPU-Sim uArch: core: 10, cta: 1 initialized @(4800,0)
GPGPU-Sim uArch: Shader 7 finished CTA #1 (4800,0), 2 CTAs running
GPGPU-Sim uArch: core:  7, cta: 1 initialized @(4801,0)
GPGPU-Sim uArch: Shader 0 finished CTA #2 (4804,0), 2 CTAs running
GPGPU-Sim uArch: core:  0, cta: 2 initialized @(4805,0)
GPGPU-Sim uArch: Shader 3 finished CTA #0 (4806,0), 2 CTAs running
GPGPU-Sim uArch: core:  3, cta: 0 initialized @(4807,0)
GPGPU-Sim uArch: Shader 9 finished CTA #1 (4809,0), 2 CTAs running
GPGPU-Sim uArch: core:  9, cta: 1 initialized @(4810,0)
GPGPU-Sim uArch: Shader 14 finished CTA #2 (4821,0), 2 CTAs running
GPGPU-Sim uArch: core: 14, cta: 2 initialized @(4822,0)
GPGPU-Sim uArch: Shader 6 finished CTA #1 (4829,0), 2 CTAs running
GPGPU-Sim uArch: core:  6, cta: 1 initialized @(4830,0)
GPGPU-Sim uArch: Shader 8 finished CTA #1 (4842,0), 2 CTAs running
GPGPU-Sim uArch: core:  8, cta: 1 initialized @(4843,0)
GPGPU-Sim PTX: 2800000 instructions simulated : ctaid=(337,0,0) tid=(225,0,0)
GPGPU-Sim uArch: Shader 4 finished CTA #2 (4876,0), 2 CTAs running
GPGPU-Sim uArch: core:  4, cta: 2 initialized @(4877,0)
GPGPU-Sim uArch: Shader 12 finished CTA #1 (4886,0), 2 CTAs running
GPGPU-Sim uArch: core: 12, cta: 1 initialized @(4887,0)
GPGPU-Sim uArch: Shader 1 finished CTA #0 (4891,0), 2 CTAs running
GPGPU-Sim uArch: core:  1, cta: 0 initialized @(4892,0)
GPGPU-Sim uArch: Shader 11 finished CTA #1 (4892,0), 2 CTAs running
GPGPU-Sim uArch: core: 11, cta: 1 initialized @(4893,0)
GPGPU-Sim uArch: Shader 5 finished CTA #2 (4895,0), 2 CTAs running
GPGPU-Sim uArch: core:  5, cta: 2 initialized @(4896,0)
GPGPU-Sim uArch: Shader 2 finished CTA #2 (4898,0), 2 CTAs running
GPGPU-Sim uArch: core:  2, cta: 2 initialized @(4899,0)
GPGPU-Sim uArch: Shader 13 finished CTA #0 (4905,0), 2 CTAs running
GPGPU-Sim uArch: core: 13, cta: 0 initialized @(4906,0)
GPGPU-Sim uArch: Shader 7 finished CTA #2 (4946,0), 2 CTAs running
GPGPU-Sim uArch: core:  7, cta: 2 initialized @(4947,0)
GPGPU-Sim uArch: Shader 10 finished CTA #2 (4948,0), 2 CTAs running
GPGPU-Sim uArch: core: 10, cta: 2 initialized @(4949,0)
GPGPU-Sim uArch: Shader 9 finished CTA #2 (4957,0), 2 CTAs running
GPGPU-Sim uArch: core:  9, cta: 2 initialized @(4958,0)
GPGPU-Sim uArch: Shader 0 finished CTA #1 (4959,0), 2 CTAs running
GPGPU-Sim uArch: Shader 14 finished CTA #0 (4959,0), 2 CTAs running
GPGPU-Sim uArch: core: 14, cta: 0 initialized @(4960,0)
GPGPU-Sim uArch: core:  0, cta: 1 initialized @(4960,0)
GPGPU-Sim uArch: Shader 3 finished CTA #1 (4962,0), 2 CTAs running
GPGPU-Sim uArch: core:  3, cta: 1 initialized @(4963,0)
GPGPU-Sim uArch: Shader 6 finished CTA #2 (4972,0), 2 CTAs running
GPGPU-Sim uArch: core:  6, cta: 2 initialized @(4973,0)
GPGPU-Sim PTX: 2900000 instructions simulated : ctaid=(380,0,0) tid=(321,0,0)
GPGPU-Sim uArch: Shader 8 finished CTA #0 (4985,0), 2 CTAs running
GPGPU-Sim uArch: core:  8, cta: 0 initialized @(4986,0)
GPGPU-Sim uArch: cycles simulated: 5000  inst.: 2704600 (ipc=540.9) sim_rate=180306 (inst/sec) elapsed = 0:0:00:15 / Tue Mar 22 07:38:51 2016
GPGPU-Sim uArch: Shader 1 finished CTA #1 (5009,0), 2 CTAs running
GPGPU-Sim uArch: core:  1, cta: 1 initialized @(5010,0)
GPGPU-Sim uArch: Shader 4 finished CTA #0 (5024,0), 2 CTAs running
GPGPU-Sim uArch: core:  4, cta: 0 initialized @(5025,0)
GPGPU-Sim uArch: Shader 12 finished CTA #2 (5027,0), 2 CTAs running
GPGPU-Sim uArch: core: 12, cta: 2 initialized @(5028,0)
GPGPU-Sim uArch: Shader 11 finished CTA #2 (5031,0), 2 CTAs running
GPGPU-Sim uArch: core: 11, cta: 2 initialized @(5032,0)
GPGPU-Sim uArch: Shader 5 finished CTA #0 (5040,0), 2 CTAs running
GPGPU-Sim uArch: core:  5, cta: 0 initialized @(5041,0)
GPGPU-Sim uArch: Shader 2 finished CTA #0 (5043,0), 2 CTAs running
GPGPU-Sim uArch: core:  2, cta: 0 initialized @(5044,0)
GPGPU-Sim uArch: Shader 13 finished CTA #1 (5053,0), 2 CTAs running
GPGPU-Sim uArch: core: 13, cta: 1 initialized @(5054,0)
GPGPU-Sim uArch: Shader 10 finished CTA #0 (5091,0), 2 CTAs running
GPGPU-Sim uArch: core: 10, cta: 0 initialized @(5092,0)
GPGPU-Sim uArch: Shader 7 finished CTA #0 (5097,0), 2 CTAs running
GPGPU-Sim uArch: core:  7, cta: 0 initialized @(5098,0)
GPGPU-Sim PTX: 3000000 instructions simulated : ctaid=(395,0,0) tid=(97,0,0)
GPGPU-Sim uArch: Shader 9 finished CTA #0 (5102,0), 2 CTAs running
GPGPU-Sim uArch: core:  9, cta: 0 initialized @(5103,0)
GPGPU-Sim uArch: Shader 0 finished CTA #0 (5112,0), 2 CTAs running
GPGPU-Sim uArch: core:  0, cta: 0 initialized @(5113,0)
GPGPU-Sim uArch: Shader 14 finished CTA #1 (5113,0), 2 CTAs running
GPGPU-Sim uArch: core: 14, cta: 1 initialized @(5114,0)
GPGPU-Sim uArch: Shader 3 finished CTA #2 (5115,0), 2 CTAs running
GPGPU-Sim uArch: core:  3, cta: 2 initialized @(5116,0)
GPGPU-Sim uArch: Shader 6 finished CTA #0 (5123,0), 2 CTAs running
GPGPU-Sim uArch: core:  6, cta: 0 initialized @(5124,0)
GPGPU-Sim uArch: Shader 8 finished CTA #2 (5138,0), 2 CTAs running
GPGPU-Sim uArch: core:  8, cta: 2 initialized @(5139,0)
GPGPU-Sim uArch: Shader 4 finished CTA #1 (5171,0), 2 CTAs running
GPGPU-Sim uArch: core:  4, cta: 1 initialized @(5172,0)
GPGPU-Sim uArch: Shader 12 finished CTA #0 (5181,0), 2 CTAs running
GPGPU-Sim uArch: core: 12, cta: 0 initialized @(5182,0)
GPGPU-Sim uArch: Shader 11 finished CTA #0 (5184,0), 2 CTAs running
GPGPU-Sim uArch: core: 11, cta: 0 initialized @(5185,0)
GPGPU-Sim uArch: Shader 2 finished CTA #1 (5191,0), 2 CTAs running
GPGPU-Sim uArch: core:  2, cta: 1 initialized @(5192,0)
GPGPU-Sim uArch: Shader 5 finished CTA #1 (5193,0), 2 CTAs running
GPGPU-Sim uArch: core:  5, cta: 1 initialized @(5194,0)
GPGPU-Sim uArch: Shader 13 finished CTA #2 (5200,0), 2 CTAs running
GPGPU-Sim uArch: core: 13, cta: 2 initialized @(5201,0)
GPGPU-Sim uArch: Shader 1 finished CTA #2 (5208,0), 2 CTAs running
GPGPU-Sim uArch: core:  1, cta: 2 initialized @(5209,0)
GPGPU-Sim PTX: 3100000 instructions simulated : ctaid=(413,0,0) tid=(257,0,0)
GPGPU-Sim uArch: Shader 10 finished CTA #1 (5242,0), 2 CTAs running
GPGPU-Sim uArch: core: 10, cta: 1 initialized @(5243,0)
GPGPU-Sim uArch: Shader 7 finished CTA #1 (5246,0), 2 CTAs running
GPGPU-Sim uArch: core:  7, cta: 1 initialized @(5247,0)
GPGPU-Sim uArch: Shader 9 finished CTA #1 (5254,0), 2 CTAs running
GPGPU-Sim uArch: core:  9, cta: 1 initialized @(5255,0)
GPGPU-Sim uArch: Shader 0 finished CTA #2 (5260,0), 2 CTAs running
GPGPU-Sim uArch: core:  0, cta: 2 initialized @(5261,0)
GPGPU-Sim uArch: Shader 14 finished CTA #2 (5266,0), 2 CTAs running
GPGPU-Sim uArch: core: 14, cta: 2 initialized @(5267,0)
GPGPU-Sim uArch: Shader 3 finished CTA #0 (5267,0), 2 CTAs running
GPGPU-Sim uArch: core:  3, cta: 0 initialized @(5268,0)
GPGPU-Sim uArch: Shader 6 finished CTA #1 (5276,0), 2 CTAs running
GPGPU-Sim uArch: core:  6, cta: 1 initialized @(5277,0)
GPGPU-Sim uArch: Shader 8 finished CTA #1 (5291,0), 2 CTAs running
GPGPU-Sim uArch: core:  8, cta: 1 initialized @(5292,0)
GPGPU-Sim uArch: Shader 4 finished CTA #2 (5323,0), 2 CTAs running
GPGPU-Sim uArch: core:  4, cta: 2 initialized @(5324,0)
GPGPU-Sim uArch: Shader 12 finished CTA #1 (5330,0), 2 CTAs running
GPGPU-Sim uArch: core: 12, cta: 1 initialized @(5331,0)
GPGPU-Sim uArch: Shader 11 finished CTA #1 (5337,0), 2 CTAs running
GPGPU-Sim uArch: core: 11, cta: 1 initialized @(5338,0)
GPGPU-Sim uArch: Shader 5 finished CTA #2 (5340,0), 2 CTAs running
GPGPU-Sim uArch: core:  5, cta: 2 initialized @(5341,0)
GPGPU-Sim uArch: Shader 2 finished CTA #2 (5343,0), 2 CTAs running
GPGPU-Sim uArch: core:  2, cta: 2 initialized @(5344,0)
GPGPU-Sim uArch: Shader 13 finished CTA #0 (5352,0), 2 CTAs running
GPGPU-Sim uArch: core: 13, cta: 0 initialized @(5353,0)
GPGPU-Sim PTX: 3200000 instructions simulated : ctaid=(427,0,0) tid=(65,0,0)
GPGPU-Sim uArch: Shader 1 finished CTA #0 (5364,0), 2 CTAs running
GPGPU-Sim uArch: core:  1, cta: 0 initialized @(5365,0)
GPGPU-Sim uArch: Shader 7 finished CTA #2 (5392,0), 2 CTAs running
GPGPU-Sim uArch: core:  7, cta: 2 initialized @(5393,0)
GPGPU-Sim uArch: Shader 10 finished CTA #2 (5395,0), 2 CTAs running
GPGPU-Sim uArch: core: 10, cta: 2 initialized @(5396,0)
GPGPU-Sim uArch: Shader 9 finished CTA #2 (5402,0), 2 CTAs running
GPGPU-Sim uArch: core:  9, cta: 2 initialized @(5403,0)
GPGPU-Sim uArch: Shader 0 finished CTA #1 (5408,0), 2 CTAs running
GPGPU-Sim uArch: core:  0, cta: 1 initialized @(5409,0)
GPGPU-Sim uArch: Shader 14 finished CTA #0 (5413,0), 2 CTAs running
GPGPU-Sim uArch: core: 14, cta: 0 initialized @(5414,0)
GPGPU-Sim uArch: Shader 3 finished CTA #1 (5416,0), 2 CTAs running
GPGPU-Sim uArch: core:  3, cta: 1 initialized @(5417,0)
GPGPU-Sim uArch: Shader 6 finished CTA #2 (5424,0), 2 CTAs running
GPGPU-Sim uArch: core:  6, cta: 2 initialized @(5425,0)
GPGPU-Sim uArch: Shader 8 finished CTA #0 (5439,0), 2 CTAs running
GPGPU-Sim uArch: core:  8, cta: 0 initialized @(5440,0)
GPGPU-Sim uArch: Shader 4 finished CTA #0 (5471,0), 2 CTAs running
GPGPU-Sim uArch: core:  4, cta: 0 initialized @(5472,0)
GPGPU-Sim uArch: Shader 12 finished CTA #2 (5482,0), 2 CTAs running
GPGPU-Sim uArch: core: 12, cta: 2 initialized @(5483,0)
GPGPU-Sim uArch: Shader 5 finished CTA #0 (5487,0), 2 CTAs running
GPGPU-Sim uArch: core:  5, cta: 0 initialized @(5488,0)
GPGPU-Sim uArch: Shader 11 finished CTA #2 (5489,0), 2 CTAs running
GPGPU-Sim uArch: core: 11, cta: 2 initialized @(5490,0)
GPGPU-Sim PTX: 3300000 instructions simulated : ctaid=(435,0,0) tid=(97,0,0)
GPGPU-Sim uArch: Shader 2 finished CTA #0 (5492,0), 2 CTAs running
GPGPU-Sim uArch: core:  2, cta: 0 initialized @(5493,0)
GPGPU-Sim uArch: Shader 1 finished CTA #1 (5496,0), 2 CTAs running
GPGPU-Sim uArch: core:  1, cta: 1 initialized @(5497,0)
GPGPU-Sim uArch: cycles simulated: 5500  inst.: 3065720 (ipc=557.4) sim_rate=180336 (inst/sec) elapsed = 0:0:00:17 / Tue Mar 22 07:38:53 2016
GPGPU-Sim uArch: Shader 13 finished CTA #1 (5501,0), 2 CTAs running
GPGPU-Sim uArch: core: 13, cta: 1 initialized @(5502,0)
GPGPU-Sim uArch: Shader 7 finished CTA #0 (5537,0), 2 CTAs running
GPGPU-Sim uArch: core:  7, cta: 0 initialized @(5538,0)
GPGPU-Sim uArch: Shader 9 finished CTA #0 (5543,0), 2 CTAs running
GPGPU-Sim uArch: core:  9, cta: 0 initialized @(5544,0)
GPGPU-Sim uArch: Shader 10 finished CTA #0 (5547,0), 2 CTAs running
GPGPU-Sim uArch: core: 10, cta: 0 initialized @(5548,0)
GPGPU-Sim uArch: Shader 0 finished CTA #0 (5561,0), 2 CTAs running
GPGPU-Sim uArch: Shader 14 finished CTA #1 (5561,0), 2 CTAs running
GPGPU-Sim uArch: core: 14, cta: 1 initialized @(5562,0)
GPGPU-Sim uArch: core:  0, cta: 0 initialized @(5562,0)
GPGPU-Sim uArch: Shader 3 finished CTA #2 (5563,0), 2 CTAs running
GPGPU-Sim uArch: core:  3, cta: 2 initialized @(5564,0)
GPGPU-Sim uArch: Shader 6 finished CTA #0 (5567,0), 2 CTAs running
GPGPU-Sim uArch: core:  6, cta: 0 initialized @(5568,0)
GPGPU-Sim uArch: Shader 8 finished CTA #2 (5582,0), 2 CTAs running
GPGPU-Sim uArch: core:  8, cta: 2 initialized @(5583,0)
GPGPU-Sim uArch: Shader 4 finished CTA #1 (5611,0), 2 CTAs running
GPGPU-Sim uArch: core:  4, cta: 1 initialized @(5612,0)
GPGPU-Sim PTX: 3400000 instructions simulated : ctaid=(453,0,0) tid=(97,0,0)
GPGPU-Sim uArch: Shader 12 finished CTA #0 (5622,0), 2 CTAs running
GPGPU-Sim uArch: core: 12, cta: 0 initialized @(5623,0)
GPGPU-Sim uArch: Shader 11 finished CTA #0 (5625,0), 2 CTAs running
GPGPU-Sim uArch: core: 11, cta: 0 initialized @(5626,0)
GPGPU-Sim uArch: Shader 5 finished CTA #1 (5637,0), 2 CTAs running
GPGPU-Sim uArch: core:  5, cta: 1 initialized @(5638,0)
[...]
gpgpu_stall_shd_mem[g_mem_ld][mshr_rc] = 0
gpgpu_stall_shd_mem[g_mem_ld][icnt_rc] = 0
gpgpu_stall_shd_mem[g_mem_ld][wb_icnt_rc] = 0
gpgpu_stall_shd_mem[g_mem_ld][wb_rsrv_fail] = 0
gpgpu_stall_shd_mem[g_mem_st][mshr_rc] = 0
gpgpu_stall_shd_mem[g_mem_st][icnt_rc] = 0
gpgpu_stall_shd_mem[g_mem_st][wb_icnt_rc] = 0
gpgpu_stall_shd_mem[g_mem_st][wb_rsrv_fail] = 0
gpgpu_stall_shd_mem[l_mem_ld][mshr_rc] = 0
gpgpu_stall_shd_mem[l_mem_ld][icnt_rc] = 0
gpgpu_stall_shd_mem[l_mem_ld][wb_icnt_rc] = 0
gpgpu_stall_shd_mem[l_mem_ld][wb_rsrv_fail] = 0
gpgpu_stall_shd_mem[l_mem_st][mshr_rc] = 0
gpgpu_stall_shd_mem[l_mem_st][icnt_rc] = 0
gpgpu_stall_shd_mem[l_mem_ld][wb_icnt_rc] = 0
gpgpu_stall_shd_mem[l_mem_ld][wb_rsrv_fail] = 0
gpu_reg_bank_conflict_stalls = 0
Warp Occupancy Distribution:
Stall:41231	W0_Idle:30534	W0_Scoreboard:232728	W1:133	W2:0	W3:0	W4:0	W5:0	W6:0	W7:0	W8:0	W9:0	W10:0	W11:0	W12:0	W13:0	W14:0	W15:0	W16:0	W17:0	W18:0	W19:0	W20:0	W21:0	W22:0	W23:0	W24:0	W25:0	W26:0	W27:0	W28:0	W29:0	W30:0	W31:0	W32:937724
traffic_breakdown_coretomem[CONST_ACC_R] = 120 {8:15,}
traffic_breakdown_coretomem[GLOBAL_ACC_R] = 125064 {8:15633,}
traffic_breakdown_coretomem[GLOBAL_ACC_W] = 760 {40:19,}
traffic_breakdown_coretomem[INST_ACC_R] = 496 {8:62,}
traffic_breakdown_memtocore[CONST_ACC_R] = 1080 {72:15,}
traffic_breakdown_memtocore[GLOBAL_ACC_R] = 2126088 {136:15633,}
traffic_breakdown_memtocore[GLOBAL_ACC_W] = 152 {8:19,}
traffic_breakdown_memtocore[INST_ACC_R] = 8432 {136:62,}
maxmrqlatency = 112 
maxdqlatency = 0 
maxmflatency = 383 
averagemflatency = 264 
max_icnt2mem_latency = 36 
max_icnt2sh_latency = 39431 
mrq_lat_table:12103 	2091 	457 	404 	488 	96 	27 	0 	0 	0 	0 	0 	0 	0 	0 	0 	0 	0 	0 	0 	0 	0 	0 	0 	0 	0 	0 	0 	0 	0 	0 	0 	
dq_lat_table:0 	0 	0 	0 	0 	0 	0 	0 	0 	0 	0 	0 	0 	0 	0 	0 	0 	0 	0 	0 	0 	0 	0 	0 	0 	0 	0 	0 	0 	0 	0 	0 	
mf_lat_table:0 	0 	0 	0 	0 	0 	0 	17 	15650 	0 	0 	0 	0 	0 	0 	0 	0 	0 	0 	0 	0 	0 	0 	0 	0 	0 	0 	0 	0 	0 	0 	0 	
icnt2mem_lat_table:0 	0 	0 	15697 	26 	6 	0 	0 	0 	0 	0 	0 	0 	0 	0 	0 	0 	0 	0 	0 	0 	0 	0 	0 	
icnt2sh_lat_table:0 	0 	0 	13002 	2479 	167 	0 	0 	0 	0 	1 	4 	2 	0 	8 	4 	0 	0 	0 	0 	0 	0 	0 	0 	
mf_lat_pw_table:0 	0 	0 	0 	0 	0 	0 	1 	80 	0 	0 	0 	0 	0 	0 	0 	0 	0 	0 	0 	0 	0 	0 	0 	0 	0 	0 	0 	0 	0 	0 	0 	
maximum concurrent accesses to same row:
dram[0]:        32        32        32        32        32        32        32        32        32        32        32        32        32        32        32        32 
dram[1]:        32        32        32        32        32        32        32        32        32        32        32        32        32        32        32        32 
dram[2]:        32        32        32        32        32        32        32        32        32        32        32        32        32        32        32        32 
dram[3]:        32        32        32        32        32        32        32        32        32        32        32        32        32        32        32        32 
dram[4]:        32        32        32        32        32        32        32        32        32        32        32        32        32        32        32        32 
dram[5]:        32        32        32        32        32        32        32        32        32        32        32        32        32        32        32        32 
maximum service time to same row:
dram[0]:      7639      7682      7672      7657      7638      7659      7719      7667      7692      7713      7669      7639      8322      7663      7810      7815 
dram[1]:      7637      7673      7665      7661      7667      7667      7686      7674      7631      7691      7665      7662      8334      8409      7828      7806 
dram[2]:      7685      7662      7667      7675      7671      7647      7661      7662      7718      7688      7653      7671      8318      8394      7778      7835 
dram[3]:      7687      7663      7670      7663      7663      7646      7688      7661      7688      7727      7646      7653      8337      8428      7790      7841 
dram[4]:      7669      7680      7638      7645      7659      7648      7689      7674      7698      7724      7657      7665      8346      8369      7812      7820 
dram[5]:      7626      7675      7640      7651      7653      7993      7669      7669      7707      7653      7669      7642      8354      8412      7813      7825 
average row accesses per activate:
dram[0]: 20.375000 23.142857 32.000000 32.000000 32.000000 32.000000 32.000000 32.000000 32.000000 32.000000 28.000000 28.333334 29.000000 21.875000 32.000000 32.000000 
dram[1]: 27.000000 32.000000 32.000000 32.000000 23.142857 32.000000 32.000000 32.000000 23.285715 32.000000 28.000000 28.333334 29.000000 28.666666 32.000000 32.000000 
dram[2]: 27.000000 32.000000 32.000000 32.000000 32.000000 26.833334 32.000000 32.000000 27.000000 32.000000 28.000000 28.333334 29.000000 28.666666 32.000000 32.000000 
dram[3]: 32.000000 32.000000 32.000000 32.000000 32.000000 32.000000 32.000000 32.000000 32.000000 32.000000 28.000000 28.333334 29.000000 28.666666 27.000000 32.000000 
dram[4]: 32.000000 32.000000 32.000000 32.000000 32.000000 31.799999 32.000000 27.000000 32.000000 32.000000 19.222221 24.428572 29.000000 28.666666 32.000000 32.000000 
dram[5]: 20.375000 32.000000 32.000000 27.000000 32.000000 20.375000 32.000000 32.000000 27.000000 27.000000 28.333334 28.333334 28.833334 28.666666 32.000000 32.000000 
average row locality = 15666/534 = 29.337078
number of total memory accesses made:
dram[0]:         0         0         0         0         0         0         0         0         0         0         0         0         0         0         0         0 
dram[1]:         0         0         0         0         0         0         0         0         0         0         0         0         0         0         0         0 
dram[2]:         0         0         0         0         0         0         0         0         0         0         0         0         0         0         0         0 
dram[3]:         0         0         0         0         0         0         0         0         0         0         0         0         0         0         0         0 
dram[4]:         0         0         0         0         0         0         0         0         0         0         0         0         0         0         0         0 
dram[5]:         0         0         0         0         0         0         0         0         0         0         0         0         0         0         0         0 
total accesses: 0
min_bank_accesses = 0!
min_chip_accesses = 0!
number of total read accesses:
dram[0]:       163       161       160       160       160       160       160       160       160       160       168       170       174       174       160       160 
dram[1]:       162       160       160       160       161       160       160       160       162       160       168       170       174       172       160       160 
dram[2]:       162       160       160       160       160       161       160       160       161       160       168       170       174       172       160       160 
dram[3]:       160       160       160       160       160       160       160       160       160       160       168       170       174       172       161       160 
dram[4]:       160       160       160       160       160       159       160       161       160       160       171       171       174       172       160       160 
dram[5]:       162       160       160       161       160       161       160       160       161       161       170       170       173       172       160       160 
total reads: 15651
bank skew: 174/159 = 1.09
chip skew: 2611/2605 = 1.00
number of total write accesses:
dram[0]:         0         1         0         0         0         0         0         0         0         0         0         0         0         1         0         0 
dram[1]:         0         0         0         0         1         0         0         0         1         0         0         0         0         0         0         0 
dram[2]:         0         0         0         0         0         0         0         0         1         0         0         0         0         0         0         0 
dram[3]:         0         0         0         0         0         0         0         0         0         0         0         0         0         0         1         0 
dram[4]:         0         0         0         0         0         0         0         1         0         0         2         0         0         0         0         0 
dram[5]:         1         0         0         1         0         2         0         0         1         1         0         0         0         0         0         0 
total reads: 15
min_bank_accesses = 0!
chip skew: 6/1 = 6.00
average mf latency per bank:
dram[0]:        281       262       262       263       267       269       263       263       262       263       263       265       265       266       263       262
dram[1]:        259       263       262       263       267       268       263       263       260       263       262       265       264       267       263       263
dram[2]:        258       262       261       263       268       267       263       263       262       263       262       265       265       268       262       263
dram[3]:        262       263       262       263       265       269       262       263       261       262       263       265       266       267       261       264
dram[4]:        261       263       262       263       267       269       262       263       261       262       261       264       264       267       262       262
dram[5]:        260       263       261       261       266       270       261       264       259       261       263       266       265       267       263       263
maximum mf latency per bank:
dram[0]:        281       295       281       291       331       343       291       290       281       287       290       308       339       378       307       289
dram[1]:        282       284       285       285       334       368       294       290       285       286       298       344       325       347       309       298
dram[2]:        282       281       285       286       354       330       292       288       283       289       284       311       338       359       299       300
dram[3]:        289       291       283       283       337       363       280       289       281       281       310       326       360       376       297       297
dram[4]:        287       290       285       287       333       339       284       285       281       282       309       308       346       375       291       298
dram[5]:        281       286       286       288       304       371       281       295       281       290       296       338       361       383       293       296

Number of Memory Banks Accessed per Memory Operation per Warp (from 0):
0	0	0	0	0	0	0	0	0	0	0	0	0	0	0	0	0	0	0	0	0	0	0	0	0	0	0	0	0	0	0	0	0	0	0	0	0	0	0	0	0	0	0	0	0	0	0	0	0	0	0	0	0	0	0	0	0	0	0	0	0	0	0	0	0	0	0	0	0	0	0	0	0	0	0	0	0	0	0	0	0	0	0	0	0	0	0	0	0	0	0	0	0	0	0	0	
Average # of Memory Banks Accessed per Memory Operation per Warp=-nan

position of mrq chosen
0	0	0	0	0	0	0	0	0	0	0	0	0	0	0	0	

average position of mrq chosen = -nan
Memory Partition 0: 
Cache L2_bank_000:
MSHR contents

Cache L2_bank_001:
MSHR contents

In Dram Latency Queue (total = 0): 
DRAM[0]: 16 bks, busW=4 BL=8 CL=12, tRRD=2 tCCD=6, tRCD=12 tRAS=28 tRP=12 tRC=40
n_cmd=54821 n_nop=49433 n_act=91 n_pre=75 n_req=2612 n_rd=5220 n_write=2 bw_util=0.1905
n_activity=27060 dram_eff=0.386
bk0: 326a 53845i bk1: 322a 53729i bk2: 320a 53932i bk3: 320a 53759i bk4: 320a 53928i bk5: 320a 53677i bk6: 320a 53939i bk7: 320a 53729i bk8: 320a 53937i bk9: 320a 53779i bk10: 336a 53863i bk11: 340a 53664i bk12: 348a 53725i bk13: 348a 53409i bk14: 320a 53909i bk15: 320a 53768i 
dram_util_bins: 0 0 0 0 0 0 0 0 0 0
dram_eff_bins: 0 0 0 0 0 0 0 0 0 0
mrqq: max=15 avg=0.107623
Memory Partition 1: 
Cache L2_bank_002:
MSHR contents

Cache L2_bank_003:
MSHR contents

In Dram Latency Queue (total = 0): 
DRAM[1]: 16 bks, busW=4 BL=8 CL=12, tRRD=2 tCCD=6, tRCD=12 tRAS=28 tRP=12 tRC=40
n_cmd=54821 n_nop=49438 n_act=89 n_pre=73 n_req=2611 n_rd=5218 n_write=3 bw_util=0.1905
n_activity=26553 dram_eff=0.3933
bk0: 324a 53904i bk1: 320a 53761i bk2: 320a 53934i bk3: 320a 53731i bk4: 322a 53833i bk5: 320a 53610i bk6: 320a 53925i bk7: 320a 53697i bk8: 324a 53900i bk9: 320a 53802i bk10: 336a 53866i bk11: 340a 53671i bk12: 348a 53734i bk13: 344a 53491i bk14: 320a 53938i bk15: 320a 53741i 
dram_util_bins: 0 0 0 0 0 0 0 0 0 0
dram_eff_bins: 0 0 0 0 0 0 0 0 0 0
mrqq: max=12 avg=0.0966236
Memory Partition 2: 
Cache L2_bank_004:
MSHR contents

Cache L2_bank_005:
MSHR contents

In Dram Latency Queue (total = 0): 
DRAM[2]: 16 bks, busW=4 BL=8 CL=12, tRRD=2 tCCD=6, tRCD=12 tRAS=28 tRP=12 tRC=40
n_cmd=54821 n_nop=49446 n_act=87 n_pre=71 n_req=2609 n_rd=5216 n_write=1 bw_util=0.1903
n_activity=26610 dram_eff=0.3921
bk0: 324a 53930i bk1: 320a 53780i bk2: 320a 53935i bk3: 320a 53771i bk4: 320a 53895i bk5: 322a 53570i bk6: 320a 53925i bk7: 320a 53749i bk8: 322a 53912i bk9: 320a 53813i bk10: 336a 53858i bk11: 340a 53598i bk12: 348a 53731i bk13: 344a 53398i bk14: 320a 53923i bk15: 320a 53670i 
dram_util_bins: 0 0 0 0 0 0 0 0 0 0
dram_eff_bins: 0 0 0 0 0 0 0 0 0 0
mrqq: max=10 avg=0.0933401
Memory Partition 3: 
Cache L2_bank_006:
MSHR contents

Cache L2_bank_007:
MSHR contents

In Dram Latency Queue (total = 0): 
DRAM[3]: 16 bks, busW=4 BL=8 CL=12, tRRD=2 tCCD=6, tRCD=12 tRAS=28 tRP=12 tRC=40
n_cmd=54821 n_nop=49456 n_act=85 n_pre=69 n_req=2606 n_rd=5210 n_write=1 bw_util=0.1901
n_activity=26762 dram_eff=0.3894
bk0: 320a 53905i bk1: 320a 53779i bk2: 320a 53929i bk3: 320a 53747i bk4: 320a 53923i bk5: 320a 53659i bk6: 320a 53931i bk7: 320a 53757i bk8: 320a 53964i bk9: 320a 53861i bk10: 336a 53870i bk11: 340a 53636i bk12: 348a 53720i bk13: 344a 53436i bk14: 322a 53862i bk15: 320a 53656i 
dram_util_bins: 0 0 0 0 0 0 0 0 0 0
dram_eff_bins: 0 0 0 0 0 0 0 0 0 0
mrqq: max=10 avg=0.0950913
Memory Partition 4: 
Cache L2_bank_008:
MSHR contents

Cache L2_bank_009:
MSHR contents

In Dram Latency Queue (total = 0): 
DRAM[4]: 16 bks, busW=4 BL=8 CL=12, tRRD=2 tCCD=6, tRCD=12 tRAS=28 tRP=12 tRC=40
n_cmd=54821 n_nop=49439 n_act=89 n_pre=73 n_req=2611 n_rd=5216 n_write=4 bw_util=0.1904
n_activity=27095 dram_eff=0.3853
bk0: 320a 53935i bk1: 320a 53761i bk2: 320a 53935i bk3: 320a 53778i bk4: 320a 53922i bk5: 318a 53634i bk6: 320a 53935i bk7: 322a 53680i bk8: 320a 53955i bk9: 320a 53828i bk10: 342a 53743i bk11: 342a 53602i bk12: 348a 53699i bk13: 344a 53494i bk14: 320a 53902i bk15: 320a 53759i 
dram_util_bins: 0 0 0 0 0 0 0 0 0 0
dram_eff_bins: 0 0 0 0 0 0 0 0 0 0
mrqq: max=10 avg=0.102953
Memory Partition 5: 
Cache L2_bank_010:
MSHR contents

Cache L2_bank_011:
MSHR contents

In Dram Latency Queue (total = 0): 
DRAM[5]: 16 bks, busW=4 BL=8 CL=12, tRRD=2 tCCD=6, tRCD=12 tRAS=28 tRP=12 tRC=40
n_cmd=54821 n_nop=49422 n_act=93 n_pre=77 n_req=2617 n_rd=5222 n_write=7 bw_util=0.1908
n_activity=27469 dram_eff=0.3807
bk0: 324a 53842i bk1: 320a 53778i bk2: 320a 53953i bk3: 322a 53760i bk4: 320a 53909i bk5: 322a 53542i bk6: 320a 53923i bk7: 320a 53738i bk8: 322a 53909i bk9: 322a 53771i bk10: 340a 53846i bk11: 340a 53625i bk12: 346a 53705i bk13: 344a 53559i bk14: 320a 53936i bk15: 320a 53778i 
dram_util_bins: 0 0 0 0 0 0 0 0 0 0
dram_eff_bins: 0 0 0 0 0 0 0 0 0 0
mrqq: max=11 avg=0.110377

========= L2 cache stats =========
L2_cache_bank[0]: Access = 1333, Miss = 1305, Miss_rate = 0.979, Pending_hits = 6, Reservation_fails = 219
L2_cache_bank[1]: Access = 1306, Miss = 1305, Miss_rate = 0.999, Pending_hits = 0, Reservation_fails = 0
L2_cache_bank[2]: Access = 1323, Miss = 1307, Miss_rate = 0.988, Pending_hits = 3, Reservation_fails = 101
L2_cache_bank[3]: Access = 1302, Miss = 1302, Miss_rate = 1.000, Pending_hits = 0, Reservation_fails = 0
L2_cache_bank[4]: Access = 1335, Miss = 1305, Miss_rate = 0.978, Pending_hits = 6, Reservation_fails = 192
L2_cache_bank[5]: Access = 1303, Miss = 1303, Miss_rate = 1.000, Pending_hits = 0, Reservation_fails = 0
L2_cache_bank[6]: Access = 1303, Miss = 1303, Miss_rate = 1.000, Pending_hits = 0, Reservation_fails = 0
L2_cache_bank[7]: Access = 1302, Miss = 1302, Miss_rate = 1.000, Pending_hits = 0, Reservation_fails = 0
L2_cache_bank[8]: Access = 1306, Miss = 1305, Miss_rate = 0.999, Pending_hits = 0, Reservation_fails = 0
L2_cache_bank[9]: Access = 1304, Miss = 1303, Miss_rate = 0.999, Pending_hits = 0, Reservation_fails = 0
L2_cache_bank[10]: Access = 1306, Miss = 1306, Miss_rate = 1.000, Pending_hits = 0, Reservation_fails = 0
L2_cache_bank[11]: Access = 1306, Miss = 1305, Miss_rate = 0.999, Pending_hits = 0, Reservation_fails = 0
L2_total_cache_accesses = 15729
L2_total_cache_misses = 15651
L2_total_cache_miss_rate = 0.9950
L2_total_cache_pending_hits = 15
L2_total_cache_reservation_fails = 512
L2_total_cache_breakdown:
	L2_cache_stats_breakdown[GLOBAL_ACC_R][HIT] = 1
	L2_cache_stats_breakdown[GLOBAL_ACC_R][MISS] = 15632
	L2_cache_stats_breakdown[CONST_ACC_R][HIT] = 11
	L2_cache_stats_breakdown[CONST_ACC_R][HIT_RESERVED] = 3
	L2_cache_stats_breakdown[CONST_ACC_R][MISS] = 1
	L2_cache_stats_breakdown[CONST_ACC_R][RESERVATION_FAIL] = 103
	L2_cache_stats_breakdown[GLOBAL_ACC_W][HIT] = 7
	L2_cache_stats_breakdown[GLOBAL_ACC_W][MISS] = 12
	L2_cache_stats_breakdown[INST_ACC_R][HIT] = 44
	L2_cache_stats_breakdown[INST_ACC_R][HIT_RESERVED] = 12
	L2_cache_stats_breakdown[INST_ACC_R][MISS] = 6
	L2_cache_stats_breakdown[INST_ACC_R][RESERVATION_FAIL] = 409
L2_cache_data_port_util = 0.000
L2_cache_fill_port_util = 0.126

icnt_total_pkts_mem_to_simt=78539
icnt_total_pkts_simt_to_mem=15748
LD_mem_lat_dist  0 0 0 0 0 0 0 0 0 0 0 0 0 0 0 0 0 0 0 0 0 0 0 0 0 0 0
ST_mem_lat_dist  0 0 0 0 0 0 0 0 0 0 0 0 0 0 0 0 0 0 0 0 0 0 0 0 0 0 0
----------------------------Interconnect-DETAILS--------------------------------
Class 0:
Packet latency average = 9.04628
	minimum = 6
	maximum = 56
Network latency average = 8.83787
	minimum = 6
	maximum = 45
Slowest packet = 15980
Flit latency average = 7.28288
	minimum = 6
	maximum = 41
Slowest flit = 47884
Fragmentation average = 0
	minimum = 0
	maximum = 0
Injected packet rate average = 0.0282124
	minimum = 0.0251164 (at node 6)
	maximum = 0.0332137 (at node 19)
Accepted packet rate average = 0.0282124
	minimum = 0.0251164 (at node 6)
	maximum = 0.0332137 (at node 19)
Injected flit rate average = 0.0845725
	minimum = 0.0251164 (at node 6)
	maximum = 0.165487 (at node 19)
Accepted flit rate average= 0.0845725
	minimum = 0.0315167 (at node 18)
	maximum = 0.127715 (at node 1)
Injected packet length average = 2.99771
Accepted packet length average = 2.99771
Total in-flight flits = 0 (0 measured)
====== Overall Traffic Statistics ======
====== Traffic class 0 ======
Packet latency average = 9.01304 (2 samples)
	minimum = 6 (2 samples)
	maximum = 53 (2 samples)
Network latency average = 8.8128 (2 samples)
	minimum = 6 (2 samples)
	maximum = 42.5 (2 samples)
Flit latency average = 7.24487 (2 samples)
	minimum = 6 (2 samples)
	maximum = 38.5 (2 samples)
Fragmentation average = 0 (2 samples)
	minimum = 0 (2 samples)
	maximum = 0 (2 samples)
Injected packet rate average = 0.0280544 (2 samples)
	minimum = 0.0249697 (2 samples)
	maximum = 0.0328925 (2 samples)
Accepted packet rate average = 0.0280544 (2 samples)
	minimum = 0.0249697 (2 samples)
	maximum = 0.0328925 (2 samples)
Injected flit rate average = 0.0840857 (2 samples)
	minimum = 0.0249697 (2 samples)
	maximum = 0.163454 (2 samples)
Accepted flit rate average = 0.0840857 (2 samples)
	minimum = 0.0313026 (2 samples)
	maximum = 0.126824 (2 samples)
Injected packet size average = 2.99724 (2 samples)
Accepted packet size average = 2.99724 (2 samples)
Hops average = 1 (2 samples)
