

        *** GPGPU-Sim Simulator Version 3.2.2  [build 0] ***


GPGPU-Sim PTX: simulation mode 0 (can change with PTX_SIM_MODE_FUNC environment variable:
               1=functional simulation only, 0=detailed performance simulator)
GPGPU-Sim: Configuration options:

-network_mode                           1 # Interconnection network mode
-inter_config_file   config_fermi_islip.icnt # Interconnection network config file
-gpgpu_ptx_use_cuobjdump                    1 # Use cuobjdump to extract ptx and sass from binaries
-gpgpu_experimental_lib_support                    0 # Try to extract code from cuda libraries [Broken because of unknown cudaGetExportTable]
-gpgpu_ptx_convert_to_ptxplus                    0 # Convert SASS (native ISA) to ptxplus and run ptxplus
-gpgpu_ptx_force_max_capability                   20 # Force maximum compute capability
-gpgpu_ptx_inst_debug_to_file                    0 # Dump executed instructions' debug information to file
-gpgpu_ptx_inst_debug_file       inst_debug.txt # Executed instructions' debug output file
-gpgpu_ptx_inst_debug_thread_uid                    1 # Thread UID for executed instructions' debug output
-gpgpu_simd_model                       1 # 1 = post-dominator
-gpgpu_shader_core_pipeline              1536:32 # shader core pipeline config, i.e., {<nthread>:<warpsize>}
-gpgpu_tex_cache:l1  4:128:24,L:R:m:N:L,F:128:4,128:2 # per-shader L1 texture cache  (READ-ONLY) config  {<nsets>:<bsize>:<assoc>,<rep>:<wr>:<alloc>:<wr_alloc>,<mshr>:<N>:<merge>,<mq>:<rf>}
-gpgpu_const_cache:l1 64:64:2,L:R:f:N:L,A:2:32,4 # per-shader L1 constant memory cache  (READ-ONLY) config  {<nsets>:<bsize>:<assoc>,<rep>:<wr>:<alloc>:<wr_alloc>,<mshr>:<N>:<merge>,<mq>} 
-gpgpu_cache:il1     4:128:4,L:R:f:N:L,A:2:32,4 # shader L1 instruction cache config  {<nsets>:<bsize>:<assoc>,<rep>:<wr>:<alloc>:<wr_alloc>,<mshr>:<N>:<merge>,<mq>} 
-gpgpu_cache:dl1     32:128:4,L:L:m:N:H,A:32:8,8:2,0,1:0:1:1:0:1,1:4:8:16:32:64,/sciclone/data10/hwang07/GPU_RESEARCH/swl/swl_outputs/RESULTS/swl4/ # per-shader L1 data cache config  {<nsets>:<bsize>:<assoc>,<rep>:<wr>:<alloc>:<wr_alloc>,<mshr>:<N>:<merge>,<mq> | none}
-gpgpu_cache:dl1PrefL1                 none # per-shader L1 data cache config  {<nsets>:<bsize>:<assoc>,<rep>:<wr>:<alloc>:<wr_alloc>,<mshr>:<N>:<merge>,<mq> | none}
-gpgpu_cache:dl1PreShared                 none # per-shader L1 data cache config  {<nsets>:<bsize>:<assoc>,<rep>:<wr>:<alloc>:<wr_alloc>,<mshr>:<N>:<merge>,<mq> | none}
-gmem_skip_L1D                          0 # global memory access skip L1D cache (implements -Xptxas -dlcm=cg, default=no skip)
-gpgpu_perfect_mem                      0 # enable perfect memory mode (no cache miss)
-n_regfile_gating_group                    4 # group of lanes that should be read/written together)
-gpgpu_clock_gated_reg_file                    0 # enable clock gated reg file for power calculations
-gpgpu_clock_gated_lanes                    0 # enable clock gated lanes for power calculations
-gpgpu_shader_registers                32768 # Number of registers per shader core. Limits number of concurrent CTAs. (default 8192)
-gpgpu_shader_cta                       8 # Maximum number of concurrent CTAs in shader (default 8)
-gpgpu_num_cta_barriers                   16 # Maximum number of named barriers per CTA (default 16)
-gpgpu_n_clusters                      15 # number of processing clusters
-gpgpu_n_cores_per_cluster                    1 # number of simd cores per cluster
-gpgpu_n_cluster_ejection_buffer_size                    8 # number of packets in ejection buffer
-gpgpu_n_ldst_response_buffer_size                    2 # number of response packets in ld/st unit ejection buffer
-gpgpu_shmem_size                   16384 # Size of shared memory per shader core (default 16kB)
-gpgpu_shmem_size                   49152 # Size of shared memory per shader core (default 16kB)
-gpgpu_shmem_size_PrefL1                16384 # Size of shared memory per shader core (default 16kB)
-gpgpu_shmem_size_PrefShared                16384 # Size of shared memory per shader core (default 16kB)
-gpgpu_shmem_num_banks                   32 # Number of banks in the shared memory in each shader core (default 16)
-gpgpu_shmem_limited_broadcast                    0 # Limit shared memory to do one broadcast per cycle (default on)
-gpgpu_shmem_warp_parts                    1 # Number of portions a warp is divided into for shared memory bank conflict check 
-gpgpu_warpdistro_shader                   -1 # Specify which shader core to collect the warp size distribution from
-gpgpu_warp_issue_shader                    0 # Specify which shader core to collect the warp issue distribution from
-gpgpu_local_mem_map                    1 # Mapping from local memory space address to simulated GPU physical address space (default = enabled)
-gpgpu_num_reg_banks                   16 # Number of register banks (default = 8)
-gpgpu_reg_bank_use_warp_id                    0 # Use warp ID in mapping registers to banks (default = off)
-gpgpu_operand_collector_num_units_sp                    6 # number of collector units (default = 4)
-gpgpu_operand_collector_num_units_sfu                    8 # number of collector units (default = 4)
-gpgpu_operand_collector_num_units_mem                    2 # number of collector units (default = 2)
-gpgpu_operand_collector_num_units_gen                    0 # number of collector units (default = 0)
-gpgpu_operand_collector_num_in_ports_sp                    2 # number of collector unit in ports (default = 1)
-gpgpu_operand_collector_num_in_ports_sfu                    1 # number of collector unit in ports (default = 1)
-gpgpu_operand_collector_num_in_ports_mem                    1 # number of collector unit in ports (default = 1)
-gpgpu_operand_collector_num_in_ports_gen                    0 # number of collector unit in ports (default = 0)
-gpgpu_operand_collector_num_out_ports_sp                    2 # number of collector unit in ports (default = 1)
-gpgpu_operand_collector_num_out_ports_sfu                    1 # number of collector unit in ports (default = 1)
-gpgpu_operand_collector_num_out_ports_mem                    1 # number of collector unit in ports (default = 1)
-gpgpu_operand_collector_num_out_ports_gen                    0 # number of collector unit in ports (default = 0)
-gpgpu_coalesce_arch                   13 # Coalescing arch (default = 13, anything else is off for now)
-gpgpu_num_sched_per_core                    2 # Number of warp schedulers per core
-gpgpu_max_insn_issue_per_warp                    1 # Max number of instructions that can be issued per warp in one cycle by scheduler
-gpgpu_simt_core_sim_order                    1 # Select the simulation order of cores in a cluster (0=Fix, 1=Round-Robin)
-gpgpu_pipeline_widths        2,1,1,2,1,1,2 # Pipeline widths ID_OC_SP,ID_OC_SFU,ID_OC_MEM,OC_EX_SP,OC_EX_SFU,OC_EX_MEM,EX_WB
-gpgpu_num_sp_units                     2 # Number of SP units (default=1)
-gpgpu_num_sfu_units                    1 # Number of SF units (default=1)
-gpgpu_num_mem_units                    1 # Number if ldst units (default=1) WARNING: not hooked up to anything
-gpgpu_scheduler        warp_limiting:2:4 # Scheduler configuration: < lrr | gto | two_level_active > If two_level_active:<num_active_warps>:<inner_prioritization>:<outer_prioritization>For complete list of prioritization values see shader.h enum scheduler_prioritization_typeDefault: gto
-gpgpu_dram_scheduler                    1 # 0 = fifo, 1 = FR-FCFS (defaul)
-gpgpu_dram_partition_queues              8:8:8:8 # i2$:$2d:d2$:$2i
-l2_ideal                               0 # Use a ideal L2 cache that always hit
-gpgpu_cache:dl2     64:128:8,L:B:m:W:L,A:32:4,4:0,32 # unified banked L2 data cache config  {<nsets>:<bsize>:<assoc>,<rep>:<wr>:<alloc>:<wr_alloc>,<mshr>:<N>:<merge>,<mq>}
-gpgpu_cache:dl2_texture_only                    0 # L2 cache used for texture only
-gpgpu_n_mem                            6 # number of memory modules (e.g. memory controllers) in gpu
-gpgpu_n_sub_partition_per_mchannel                    2 # number of memory subpartition in each memory module
-gpgpu_n_mem_per_ctrlr                    2 # number of memory chips per memory controller
-gpgpu_memlatency_stat                   14 # track and display latency statistics 0x2 enables MC, 0x4 enables queue logs
-gpgpu_frfcfs_dram_sched_queue_size                   16 # 0 = unlimited (default); # entries per chip
-gpgpu_dram_return_queue_size                  116 # 0 = unlimited (default); # entries per chip
-gpgpu_dram_buswidth                    4 # default = 4 bytes (8 bytes per cycle at DDR)
-gpgpu_dram_burst_length                    8 # Burst length of each DRAM request (default = 4 data bus cycle)
-dram_data_command_freq_ratio                    4 # Frequency ratio between DRAM data bus and command bus (default = 2 times, i.e. DDR)
-gpgpu_dram_timing_opt nbk=16:CCD=2:RRD=6:RCD=12:RAS=28:RP=12:RC=40: CL=12:WL=4:CDLR=5:WR=12:nbkgrp=4:CCDL=3:RTPL=2 # DRAM timing parameters = {nbk:tCCD:tRRD:tRCD:tRAS:tRP:tRC:CL:WL:tCDLR:tWR:nbkgrp:tCCDL:tRTPL}
-rop_latency                          120 # ROP queue latency (default 85)
-dram_latency                         100 # DRAM latency (default 30)
-gpgpu_mem_addr_mapping dramid@8;00000000.00000000.00000000.00000000.0000RRRR.RRRRRRRR.BBBCCCCB.CCSSSSSS # mapping memory address to dram model {dramid@<start bit>;<memory address map>}
-gpgpu_mem_addr_test                    0 # run sweep test to check address mapping for aliased address
-gpgpu_mem_address_mask                    1 # 0 = old addressing mask, 1 = new addressing mask, 2 = new add. mask + flipped bank sel and chip sel bits
-gpuwattch_xml_file  gpuwattch_gtx480.xml # GPUWattch XML file
-power_simulation_enabled                    0 # Turn on power simulator (1=On, 0=Off)
-power_per_cycle_dump                    0 # Dump detailed power output each cycle
-power_trace_enabled                    0 # produce a file for the power trace (1=On, 0=Off)
-power_trace_zlevel                     6 # Compression level of the power trace output log (0=no comp, 9=highest)
-steady_power_levels_enabled                    0 # produce a file for the steady power levels (1=On, 0=Off)
-steady_state_definition                  8:4 # allowed deviation:number of samples
-gpgpu_max_cycle                        0 # terminates gpu simulation early (0 = no limit)
-gpgpu_max_insn                         0 # terminates gpu simulation early (0 = no limit)
-gpgpu_max_cta                          0 # terminates gpu simulation early (0 = no limit)
-gpgpu_runtime_stat                   500 # display runtime statistics such as dram utilization {<freq>:<flag>}
-liveness_message_freq                    1 # Minimum number of seconds between simulation liveness messages (0 = always print)
-gpgpu_flush_l1_cache                    0 # Flush L1 cache at the end of each kernel call
-gpgpu_flush_l2_cache                    0 # Flush L2 cache at the end of each kernel call
-gpgpu_deadlock_detect                    1 # Stop the simulation at deadlock (1=on (default), 0=off)
-gpgpu_ptx_instruction_classification                    0 # if enabled will classify ptx instruction types per kernel (Max 255 kernels now)
-gpgpu_ptx_sim_mode                     0 # Select between Performance (default) or Functional simulation (1)
-gpgpu_clock_domains 700.0:700.0:700.0:924.0 # Clock Domain Frequencies in MhZ {<Core Clock>:<ICNT Clock>:<L2 Clock>:<DRAM Clock>}
-gpgpu_max_concurrent_kernel                    8 # maximum kernels that can run concurrently on GPU
-gpgpu_cflog_interval                    0 # Interval between each snapshot in control flow logger
-visualizer_enabled                     0 # Turn on visualizer output (1=On, 0=Off)
-visualizer_outputfile                 NULL # Specifies the output log file for visualizer
-visualizer_zlevel                      6 # Compression level of the visualizer output log (0=no comp, 9=highest)
-trace_enabled                          0 # Turn on traces
-trace_components                    none # comma seperated list of traces to enable. Complete list found in trace_streams.tup. Default none
-trace_sampling_core                    0 # The core which is printed using CORE_DPRINTF. Default 0
-trace_sampling_memory_partition                   -1 # The memory partition which is printed using MEMPART_DPRINTF. Default -1 (i.e. all)
-enable_ptx_file_line_stats                    1 # Turn on PTX source line statistic profiling. (1 = On)
-ptx_line_stats_filename gpgpu_inst_stats.txt # Output file for PTX source line statistics.
-save_embedded_ptx                      0 # saves ptx files embedded in binary as <n>.ptx
-keep                                   0 # keep intermediate files created by GPGPU-Sim when interfacing with external programs
-gpgpu_ptx_save_converted_ptxplus                    0 # Saved converted ptxplus to a file
-ptx_opcode_latency_int         4,13,4,5,145 # Opcode latencies for integers <ADD,MAX,MUL,MAD,DIV>Default 1,1,19,25,145
-ptx_opcode_latency_fp          4,13,4,5,39 # Opcode latencies for single precision floating points <ADD,MAX,MUL,MAD,DIV>Default 1,1,1,1,30
-ptx_opcode_latency_dp         8,19,8,8,330 # Opcode latencies for double precision floating points <ADD,MAX,MUL,MAD,DIV>Default 8,8,8,8,335
-ptx_opcode_initiation_int            1,2,2,1,8 # Opcode initiation intervals for integers <ADD,MAX,MUL,MAD,DIV>Default 1,1,4,4,32
-ptx_opcode_initiation_fp            1,2,1,1,4 # Opcode initiation intervals for single precision floating points <ADD,MAX,MUL,MAD,DIV>Default 1,1,1,1,5
-ptx_opcode_initiation_dp         8,16,8,8,130 # Opcode initiation intervals for double precision floating points <ADD,MAX,MUL,MAD,DIV>Default 8,8,8,8,130
DRAM Timing Options:
nbk                                    16 # number of banks
CCD                                     2 # column to column delay
RRD                                     6 # minimal delay between activation of rows in different banks
RCD                                    12 # row to column delay
RAS                                    28 # time needed to activate row
RP                                     12 # time needed to precharge (deactivate) row
RC                                     40 # row cycle time
CDLR                                    5 # switching from write to read (changes tWTR)
WR                                     12 # last data-in to row precharge
CL                                     12 # CAS latency
WL                                      4 # Write latency
nbkgrp                                  4 # number of bank groups
CCDL                                    3 # column to column delay between accesses to different bank groups
RTPL                                    2 # read to precharge delay between accesses to different bank groups
Total number of memory sub partition = 12
addr_dec_mask[CHIP]  = 0000000000000000 	high:64 low:0
addr_dec_mask[BK]    = 000000000000e100 	high:16 low:8
addr_dec_mask[ROW]   = 000000000fff0000 	high:28 low:16
addr_dec_mask[COL]   = 0000000000001eff 	high:13 low:0
addr_dec_mask[BURST] = 000000000000003f 	high:6 low:0
sub_partition_id_mask = 0000000000000100
GPGPU-Sim uArch: clock freqs: 700000000.000000:700000000.000000:700000000.000000:924000000.000000
GPGPU-Sim uArch: clock periods: 0.00000000142857142857:0.00000000142857142857:0.00000000142857142857:0.00000000108225108225
*** Initializing Memory Statistics ***
GPGPU-Sim uArch: interconnect node map (shaderID+MemID to icntID)
GPGPU-Sim uArch: Memory nodes ID start from index: 15
GPGPU-Sim uArch:    0   1   2   3   4
GPGPU-Sim uArch:    5   6   7   8   9
GPGPU-Sim uArch:   10  11  12  13  14
GPGPU-Sim uArch:   15  16  17  18  19
GPGPU-Sim uArch:   20  21  22  23  24
GPGPU-Sim uArch:   25  26
GPGPU-Sim uArch: interconnect node reverse map (icntID to shaderID+MemID)
GPGPU-Sim uArch: Memory nodes start from ID: 15
GPGPU-Sim uArch:    0   1   2   3   4
GPGPU-Sim uArch:    5   6   7   8   9
GPGPU-Sim uArch:   10  11  12  13  14
GPGPU-Sim uArch:   15  16  17  18  19
GPGPU-Sim uArch:   20  21  22  23  24
GPGPU-Sim uArch:   25  26
7fda3539671ef22924a0c4c414b8a557  /sciclone/data10/hwang07/adwait/applications/benchmarks/shoc/bin/Serial/CUDA/MD
GPGPU-Sim uArch: performance model initialization complete.
GPGPU-Sim PTX: __cudaRegisterFatBinary, fat_cubin_handle = 1, filename=MD.cu
self exe links to: /sciclone/data10/hwang07/adwait/applications/benchmarks/shoc/bin/Serial/CUDA/MD
Running md5sum using "md5sum /sciclone/data10/hwang07/adwait/applications/benchmarks/shoc/bin/Serial/CUDA/MD "
Parsing file _cuobjdump_complete_output_SbhVsu
######### cuobjdump parser ########
## Adding new section ELF
Adding arch: sm_12
Adding identifier: MD.cu
## Adding new section ELF
Adding arch: sm_20
Adding identifier: MD.cu
## Adding new section PTX
Adding ptx filename: _cuobjdump_1.ptx
Adding arch: sm_20
Adding identifier: MD.cu
## Adding new section ELF
Adding arch: sm_13
Adding identifier: MD.cu
Done parsing!!!
GPGPU-Sim PTX: __cudaRegisterFunction _Z16compute_lj_forceId7double37double4Lb1E12texReader_dpEvPT0_PKT1_iPKiT_SA_SA_i : hostFun 0x0x406e30, fat_cubin_handle = 1
GPGPU-Sim PTX: allocating global region for "posTexture" from 0x100 to 0x104 (global memory space)
GPGPU-Sim PTX: instruction assembly for function '_Z16compute_lj_forceIf6float36float4Lb1E12texReader_spEvPT0_PKT1_iPKiT_SA_SA_i'...   done.
GPGPU-Sim PTX: finding reconvergence points for '_Z16compute_lj_forceIf6float36float4Lb1E12texReader_spEvPT0_PKT1_iPKiT_SA_SA_i'...
GPGPU-Sim PTX: Finding dominators for '_Z16compute_lj_forceIf6float36float4Lb1E12texReader_spEvPT0_PKT1_iPKiT_SA_SA_i'...
GPGPU-Sim PTX: Finding immediate dominators for '_Z16compute_lj_forceIf6float36float4Lb1E12texReader_spEvPT0_PKT1_iPKiT_SA_SA_i'...
GPGPU-Sim PTX: Finding postdominators for '_Z16compute_lj_forceIf6float36float4Lb1E12texReader_spEvPT0_PKT1_iPKiT_SA_SA_i'...
GPGPU-Sim PTX: Finding immediate postdominators for '_Z16compute_lj_forceIf6float36float4Lb1E12texReader_spEvPT0_PKT1_iPKiT_SA_SA_i'...
GPGPU-Sim PTX: pre-decoding instructions for '_Z16compute_lj_forceIf6float36float4Lb1E12texReader_spEvPT0_PKT1_iPKiT_SA_SA_i'...
GPGPU-Sim PTX: reconvergence points for _Z16compute_lj_forceIf6float36float4Lb1E12texReader_spEvPT0_PKT1_iPKiT_SA_SA_i...
GPGPU-Sim PTX:  1 (potential) branch divergence @  PC=0x068 (_1.ptx:82) @%p1 bra $Lt_0_4354;
GPGPU-Sim PTX:    immediate post dominator      @  PC=0x218 (_1.ptx:146) ld.param.u64 %rd10, [__cudaparm__Z16compute_lj_forceIf6float36float4Lb1E12texReader_spEvPT0_PKT1_iPKiT_SA_SA_i_force3];
GPGPU-Sim PTX:  2 (potential) branch divergence @  PC=0x170 (_1.ptx:118) @!%p2 bra $Lt_0_3586;
GPGPU-Sim PTX:    immediate post dominator      @  PC=0x1d8 (_1.ptx:135) add.s32 %r10, %r10, 1;
GPGPU-Sim PTX:  3 (potential) branch divergence @  PC=0x1f0 (_1.ptx:138) @%p3 bra $Lt_0_3330;
GPGPU-Sim PTX:    immediate post dominator      @  PC=0x1f8 (_1.ptx:139) bra.uni $Lt_0_2818;
GPGPU-Sim PTX:  4 (potential) branch divergence @  PC=0x1f8 (_1.ptx:139) bra.uni $Lt_0_2818;
GPGPU-Sim PTX:    immediate post dominator      @  PC=0x218 (_1.ptx:146) ld.param.u64 %rd10, [__cudaparm__Z16compute_lj_forceIf6float36float4Lb1E12texReader_spEvPT0_PKT1_iPKiT_SA_SA_i_force3];
GPGPU-Sim PTX: ... end of reconvergence points for _Z16compute_lj_forceIf6float36float4Lb1E12texReader_spEvPT0_PKT1_iPKiT_SA_SA_i
GPGPU-Sim PTX: ... done pre-decoding instructions for '_Z16compute_lj_forceIf6float36float4Lb1E12texReader_spEvPT0_PKT1_iPKiT_SA_SA_i'.
GPGPU-Sim PTX: allocating global region for "posTexture_dp" from 0x104 to 0x108 (global memory space)
GPGPU-Sim PTX: instruction assembly for function '_Z16compute_lj_forceId7double37double4Lb1E12texReader_dpEvPT0_PKT1_iPKiT_SA_SA_i'...   done.
GPGPU-Sim PTX: finding reconvergence points for '_Z16compute_lj_forceId7double37double4Lb1E12texReader_dpEvPT0_PKT1_iPKiT_SA_SA_i'...
GPGPU-Sim PTX: Finding dominators for '_Z16compute_lj_forceId7double37double4Lb1E12texReader_dpEvPT0_PKT1_iPKiT_SA_SA_i'...
GPGPU-Sim PTX: Finding immediate dominators for '_Z16compute_lj_forceId7double37double4Lb1E12texReader_dpEvPT0_PKT1_iPKiT_SA_SA_i'...
GPGPU-Sim PTX: Finding postdominators for '_Z16compute_lj_forceId7double37double4Lb1E12texReader_dpEvPT0_PKT1_iPKiT_SA_SA_i'...
GPGPU-Sim PTX: Finding immediate postdominators for '_Z16compute_lj_forceId7double37double4Lb1E12texReader_dpEvPT0_PKT1_iPKiT_SA_SA_i'...
GPGPU-Sim PTX: pre-decoding instructions for '_Z16compute_lj_forceId7double37double4Lb1E12texReader_dpEvPT0_PKT1_iPKiT_SA_SA_i'...
GPGPU-Sim PTX: reconvergence points for _Z16compute_lj_forceId7double37double4Lb1E12texReader_dpEvPT0_PKT1_iPKiT_SA_SA_i...
GPGPU-Sim PTX:  1 (potential) branch divergence @  PC=0x2c0 (_1.ptx:189) @%p1 bra $Lt_1_4354;
GPGPU-Sim PTX:    immediate post dominator      @  PC=0x4f0 (_1.ptx:270) ld.param.u64 %rd10, [__cudaparm__Z16compute_lj_forceId7double37double4Lb1E12texReader_dpEvPT0_PKT1_iPKiT_SA_SA_i_force3];
GPGPU-Sim PTX:  2 (potential) branch divergence @  PC=0x448 (_1.ptx:242) @!%p2 bra $Lt_1_3586;
GPGPU-Sim PTX:    immediate post dominator      @  PC=0x4b0 (_1.ptx:259) add.s32 %r10, %r10, 1;
GPGPU-Sim PTX:  3 (potential) branch divergence @  PC=0x4c8 (_1.ptx:262) @%p3 bra $Lt_1_3330;
GPGPU-Sim PTX:    immediate post dominator      @  PC=0x4d0 (_1.ptx:263) bra.uni $Lt_1_2818;
GPGPU-Sim PTX:  4 (potential) branch divergence @  PC=0x4d0 (_1.ptx:263) bra.uni $Lt_1_2818;
GPGPU-Sim PTX:    immediate post dominator      @  PC=0x4f0 (_1.ptx:270) ld.param.u64 %rd10, [__cudaparm__Z16compute_lj_forceId7double37double4Lb1E12texReader_dpEvPT0_PKT1_iPKiT_SA_SA_i_force3];
GPGPU-Sim PTX: ... end of reconvergence points for _Z16compute_lj_forceId7double37double4Lb1E12texReader_dpEvPT0_PKT1_iPKiT_SA_SA_i
GPGPU-Sim PTX: ... done pre-decoding instructions for '_Z16compute_lj_forceId7double37double4Lb1E12texReader_dpEvPT0_PKT1_iPKiT_SA_SA_i'.
GPGPU-Sim PTX: finished parsing EMBEDDED .ptx file _1.ptx
Adding _cuobjdump_1.ptx with cubin handle 1
GPGPU-Sim PTX: extracting embedded .ptx to temporary file "_ptx_8wKUUL"
Running: cat _ptx_8wKUUL | sed 's/.version 1.5/.version 1.4/' | sed 's/, texmode_independent//' | sed 's/\(\.extern \.const\[1\] .b8 \w\+\)\[\]/\1\[1\]/' | sed 's/const\[.\]/const\[0\]/g' > _ptx2_UAVI76
GPGPU-Sim PTX: generating ptxinfo using "$CUDA_INSTALL_PATH/bin/ptxas --gpu-name=sm_20 -v _ptx2_UAVI76 --output-file  /dev/null 2> _ptx_8wKUULinfo"
GPGPU-Sim PTX: Kernel '_Z16compute_lj_forceId7double37double4Lb1E12texReader_dpEvPT0_PKT1_iPKiT_SA_SA_i' : regs=37, lmem=0, smem=0, cmem=108
GPGPU-Sim PTX: Kernel '_Z16compute_lj_forceIf6float36float4Lb1E12texReader_spEvPT0_PKT1_iPKiT_SA_SA_i' : regs=26, lmem=0, smem=0, cmem=84
GPGPU-Sim PTX: removing ptxinfo using "rm -f _ptx_8wKUUL _ptx2_UAVI76 _ptx_8wKUULinfo"
GPGPU-Sim PTX: loading globals with explicit initializers... 
GPGPU-Sim PTX: finished loading globals (0 bytes total).
GPGPU-Sim PTX: loading constants with explicit initializers...  done.
GPGPU-Sim PTX: __cudaRegisterFunction _Z16compute_lj_forceIf6float36float4Lb1E12texReader_spEvPT0_PKT1_iPKiT_SA_SA_i : hostFun 0x0x406e20, fat_cubin_handle = 1
GPGPU-Sim PTX: in __cudaRegisterTexture:
GPGPU-Sim PTX:   int dim = 1
GPGPU-Sim PTX:   int norm = 0
GPGPU-Sim PTX:   int ext = 0
GPGPU-Sim PTX:   Execution warning: Not finished implementing "void __cudaRegisterTexture(void**, const textureReference*, const void**, const char*, int, int, int)"
GPGPU-Sim PTX: in __cudaRegisterTexture:
GPGPU-Sim PTX:   int dim = 1
GPGPU-Sim PTX:   int norm = 0
GPGPU-Sim PTX:   int ext = 0
GPGPU-Sim PTX:   Execution warning: Not finished implementing "void __cudaRegisterTexture(void**, const textureReference*, const void**, const char*, int, int, int)"
Chose device: name='GPGPU-Sim_vGPGPU-Sim Simulator Version 3.2.2 ' index=0
Running single precision test
Initializing test problem (this can take several minutes for large problems)
GPGPU-Sim PTX: in cudaBindTexture: sizeof(struct textureReference) = 104
GPGPU-Sim PTX:   size = 196608
GPGPU-Sim PTX:   texref = 0x61ee60, array = 0x1fd4960
GPGPU-Sim PTX:   devPtr32 = 80024000
GPGPU-Sim PTX:   Name corresponding to textureReference: posTexture
GPGPU-Sim PTX:   ChannelFormatDesc: x=32, y=32, z=32, w=32
GPGPU-Sim PTX:   Texture Normalized? = 0
GPGPU-Sim PTX:   texel size = 16
GPGPU-Sim PTX:   texture cache linesize = 128
GPGPU-Sim PTX:   Tx = 4; Ty = 2, Tx_numbits = 2, Ty_numbits = 1
GPGPU-Sim PTX:   Texel size = 16 bytes; texel_size_numbits = 4
GPGPU-Sim PTX:   Binding texture to array starting at devPtr32 = 0x80024000
GPGPU-Sim PTX:   Texel size = 16 bytes
GPGPU-Sim PTX: devPtr = 0xffffffff80024000
GPGPU-Sim PTX: in cudaBindTexture: sizeof(struct textureReference) = 104
GPGPU-Sim PTX:   size = 393216
GPGPU-Sim PTX:   texref = 0x61eee0, array = 0x1fda560
GPGPU-Sim PTX:   devPtr32 = 80024000
GPGPU-Sim PTX:   Name corresponding to textureReference: posTexture_dp
GPGPU-Sim PTX:   ChannelFormatDesc: x=32, y=32, z=32, w=32
GPGPU-Sim PTX:   Texture Normalized? = 0
GPGPU-Sim PTX:   texel size = 16
GPGPU-Sim PTX:   texture cache linesize = 128
GPGPU-Sim PTX:   Tx = 4; Ty = 2, Tx_numbits = 2, Ty_numbits = 1
GPGPU-Sim PTX:   Texel size = 16 bytes; texel_size_numbits = 4
GPGPU-Sim PTX:   Binding texture to array starting at devPtr32 = 0x80024000
GPGPU-Sim PTX:   Texel size = 16 bytes
GPGPU-Sim PTX: devPtr = 0xffffffff80024000
  10% done
  20% done
  30% done
  40% done
  50% done
  60% done
  70% done
  80% done
  90% done
  100% done
Finished.
1570334 of 1572864 pairs within cutoff distance = 99.8391 %
event update
event update
GPGPU-Sim API: cudaEventSynchronize ** waiting for event
GPGPU-Sim API: cudaEventSynchronize ** event detected

GPGPU-Sim PTX: cudaLaunch for 0x0x406e20 (mode=performance simulation) on stream 0
GPGPU-Sim PTX: pushing kernel '_Z16compute_lj_forceIf6float36float4Lb1E12texReader_spEvPT0_PKT1_iPKiT_SA_SA_i' to stream 0, gridDim= (48,1,1) blockDim = (256,1,1) 
kernel '_Z16compute_lj_forceIf6float36float4Lb1E12texReader_spEvPT0_PKT1_iPKiT_SA_SA_i' transfer to GPU hardware scheduler
GPGPU-Sim uArch: Shader 1 bind to kernel 1 '_Z16compute_lj_forceIf6float36float4Lb1E12texReader_spEvPT0_PKT1_iPKiT_SA_SA_i'
GPGPU-Sim uArch: CTA/core = 4, limited by: regs
GPGPU-Sim uArch: core:  1, cta: 0 initialized @(1,0)
GPGPU-Sim uArch: Shader 2 bind to kernel 1 '_Z16compute_lj_forceIf6float36float4Lb1E12texReader_spEvPT0_PKT1_iPKiT_SA_SA_i'
GPGPU-Sim uArch: core:  2, cta: 0 initialized @(1,0)
GPGPU-Sim uArch: Shader 3 bind to kernel 1 '_Z16compute_lj_forceIf6float36float4Lb1E12texReader_spEvPT0_PKT1_iPKiT_SA_SA_i'
GPGPU-Sim uArch: core:  3, cta: 0 initialized @(1,0)
GPGPU-Sim uArch: Shader 4 bind to kernel 1 '_Z16compute_lj_forceIf6float36float4Lb1E12texReader_spEvPT0_PKT1_iPKiT_SA_SA_i'
GPGPU-Sim uArch: core:  4, cta: 0 initialized @(1,0)
GPGPU-Sim uArch: Shader 5 bind to kernel 1 '_Z16compute_lj_forceIf6float36float4Lb1E12texReader_spEvPT0_PKT1_iPKiT_SA_SA_i'
GPGPU-Sim uArch: core:  5, cta: 0 initialized @(1,0)
GPGPU-Sim uArch: Shader 6 bind to kernel 1 '_Z16compute_lj_forceIf6float36float4Lb1E12texReader_spEvPT0_PKT1_iPKiT_SA_SA_i'
GPGPU-Sim uArch: core:  6, cta: 0 initialized @(1,0)
GPGPU-Sim uArch: Shader 7 bind to kernel 1 '_Z16compute_lj_forceIf6float36float4Lb1E12texReader_spEvPT0_PKT1_iPKiT_SA_SA_i'
GPGPU-Sim uArch: core:  7, cta: 0 initialized @(1,0)
GPGPU-Sim uArch: Shader 8 bind to kernel 1 '_Z16compute_lj_forceIf6float36float4Lb1E12texReader_spEvPT0_PKT1_iPKiT_SA_SA_i'
GPGPU-Sim uArch: core:  8, cta: 0 initialized @(1,0)
GPGPU-Sim uArch: Shader 9 bind to kernel 1 '_Z16compute_lj_forceIf6float36float4Lb1E12texReader_spEvPT0_PKT1_iPKiT_SA_SA_i'
GPGPU-Sim uArch: core:  9, cta: 0 initialized @(1,0)
GPGPU-Sim uArch: Shader 10 bind to kernel 1 '_Z16compute_lj_forceIf6float36float4Lb1E12texReader_spEvPT0_PKT1_iPKiT_SA_SA_i'
GPGPU-Sim uArch: core: 10, cta: 0 initialized @(1,0)
GPGPU-Sim uArch: Shader 11 bind to kernel 1 '_Z16compute_lj_forceIf6float36float4Lb1E12texReader_spEvPT0_PKT1_iPKiT_SA_SA_i'
GPGPU-Sim uArch: core: 11, cta: 0 initialized @(1,0)
GPGPU-Sim uArch: Shader 12 bind to kernel 1 '_Z16compute_lj_forceIf6float36float4Lb1E12texReader_spEvPT0_PKT1_iPKiT_SA_SA_i'
GPGPU-Sim uArch: core: 12, cta: 0 initialized @(1,0)
GPGPU-Sim uArch: Shader 13 bind to kernel 1 '_Z16compute_lj_forceIf6float36float4Lb1E12texReader_spEvPT0_PKT1_iPKiT_SA_SA_i'
GPGPU-Sim uArch: core: 13, cta: 0 initialized @(1,0)
GPGPU-Sim uArch: Shader 14 bind to kernel 1 '_Z16compute_lj_forceIf6float36float4Lb1E12texReader_spEvPT0_PKT1_iPKiT_SA_SA_i'
GPGPU-Sim uArch: core: 14, cta: 0 initialized @(1,0)
GPGPU-Sim uArch: Shader 0 bind to kernel 1 '_Z16compute_lj_forceIf6float36float4Lb1E12texReader_spEvPT0_PKT1_iPKiT_SA_SA_i'
GPGPU-Sim uArch: core:  0, cta: 0 initialized @(1,0)
GPGPU-Sim uArch: core:  1, cta: 1 initialized @(2,0)
GPGPU-Sim uArch: core:  2, cta: 1 initialized @(2,0)
GPGPU-Sim uArch: core:  3, cta: 1 initialized @(2,0)
GPGPU-Sim uArch: core:  4, cta: 1 initialized @(2,0)
GPGPU-Sim uArch: core:  5, cta: 1 initialized @(2,0)
GPGPU-Sim uArch: core:  6, cta: 1 initialized @(2,0)
GPGPU-Sim uArch: core:  7, cta: 1 initialized @(2,0)
GPGPU-Sim uArch: core:  8, cta: 1 initialized @(2,0)
GPGPU-Sim uArch: core:  9, cta: 1 initialized @(2,0)
GPGPU-Sim uArch: core: 10, cta: 1 initialized @(2,0)
GPGPU-Sim uArch: core: 11, cta: 1 initialized @(2,0)
GPGPU-Sim uArch: core: 12, cta: 1 initialized @(2,0)
GPGPU-Sim uArch: core: 13, cta: 1 initialized @(2,0)
GPGPU-Sim uArch: core: 14, cta: 1 initialized @(2,0)
GPGPU-Sim uArch: core:  0, cta: 1 initialized @(2,0)
GPGPU-Sim uArch: core:  1, cta: 2 initialized @(3,0)
GPGPU-Sim uArch: core:  2, cta: 2 initialized @(3,0)
GPGPU-Sim uArch: core:  3, cta: 2 initialized @(3,0)
GPGPU-Sim uArch: core:  4, cta: 2 initialized @(3,0)
GPGPU-Sim uArch: core:  5, cta: 2 initialized @(3,0)
GPGPU-Sim uArch: core:  6, cta: 2 initialized @(3,0)
GPGPU-Sim uArch: core:  7, cta: 2 initialized @(3,0)
GPGPU-Sim uArch: core:  8, cta: 2 initialized @(3,0)
GPGPU-Sim uArch: core:  9, cta: 2 initialized @(3,0)
GPGPU-Sim uArch: core: 10, cta: 2 initialized @(3,0)
GPGPU-Sim uArch: core: 11, cta: 2 initialized @(3,0)
GPGPU-Sim uArch: core: 12, cta: 2 initialized @(3,0)
GPGPU-Sim uArch: core: 13, cta: 2 initialized @(3,0)
GPGPU-Sim uArch: core: 14, cta: 2 initialized @(3,0)
GPGPU-Sim uArch: core:  0, cta: 2 initialized @(3,0)
GPGPU-Sim uArch: core:  1, cta: 3 initialized @(4,0)
GPGPU-Sim uArch: core:  2, cta: 3 initialized @(4,0)
GPGPU-Sim uArch: core:  3, cta: 3 initialized @(4,0)
GPGPU-Sim uArch: cycles simulated: 500  inst.: 26880 (ipc=53.8) sim_rate=1581 (inst/sec) elapsed = 0:0:00:17 / Tue Mar 22 12:46:33 2016
GPGPU-Sim uArch: cycles simulated: 1000  inst.: 54112 (ipc=54.1) sim_rate=2459 (inst/sec) elapsed = 0:0:00:22 / Tue Mar 22 12:46:38 2016
GPGPU-Sim PTX: 100000 instructions simulated : ctaid=(4,0,0) tid=(159,0,0)
GPGPU-Sim uArch: cycles simulated: 2500  inst.: 135392 (ipc=54.2) sim_rate=5886 (inst/sec) elapsed = 0:0:00:23 / Tue Mar 22 12:46:39 2016
GPGPU-Sim PTX: 200000 instructions simulated : ctaid=(7,0,0) tid=(95,0,0)
GPGPU-Sim uArch: cycles simulated: 5000  inst.: 203328 (ipc=40.7) sim_rate=8472 (inst/sec) elapsed = 0:0:00:24 / Tue Mar 22 12:46:40 2016
GPGPU-Sim uArch: cycles simulated: 7000  inst.: 284320 (ipc=40.6) sim_rate=11372 (inst/sec) elapsed = 0:0:00:25 / Tue Mar 22 12:46:41 2016
GPGPU-Sim PTX: 300000 instructions simulated : ctaid=(8,0,0) tid=(127,0,0)
GPGPU-Sim uArch: cycles simulated: 9000  inst.: 382208 (ipc=42.5) sim_rate=14700 (inst/sec) elapsed = 0:0:00:26 / Tue Mar 22 12:46:42 2016
GPGPU-Sim PTX: 400000 instructions simulated : ctaid=(3,0,0) tid=(223,0,0)
GPGPU-Sim uArch: cycles simulated: 10500  inst.: 435456 (ipc=41.5) sim_rate=16128 (inst/sec) elapsed = 0:0:00:27 / Tue Mar 22 12:46:43 2016
GPGPU-Sim PTX: 500000 instructions simulated : ctaid=(0,0,0) tid=(31,0,0)
GPGPU-Sim uArch: cycles simulated: 12000  inst.: 495072 (ipc=41.3) sim_rate=17681 (inst/sec) elapsed = 0:0:00:28 / Tue Mar 22 12:46:44 2016
GPGPU-Sim uArch: cycles simulated: 13500  inst.: 564768 (ipc=41.8) sim_rate=19474 (inst/sec) elapsed = 0:0:00:29 / Tue Mar 22 12:46:45 2016
GPGPU-Sim PTX: 600000 instructions simulated : ctaid=(6,0,0) tid=(159,0,0)
GPGPU-Sim uArch: cycles simulated: 15000  inst.: 631648 (ipc=42.1) sim_rate=21054 (inst/sec) elapsed = 0:0:00:30 / Tue Mar 22 12:46:46 2016
GPGPU-Sim PTX: 700000 instructions simulated : ctaid=(13,0,0) tid=(127,0,0)
GPGPU-Sim uArch: cycles simulated: 16500  inst.: 691808 (ipc=41.9) sim_rate=22316 (inst/sec) elapsed = 0:0:00:31 / Tue Mar 22 12:46:47 2016
GPGPU-Sim PTX: 800000 instructions simulated : ctaid=(4,0,0) tid=(63,0,0)
GPGPU-Sim uArch: cycles simulated: 18500  inst.: 781632 (ipc=42.3) sim_rate=24426 (inst/sec) elapsed = 0:0:00:32 / Tue Mar 22 12:46:48 2016
GPGPU-Sim uArch: cycles simulated: 20500  inst.: 864320 (ipc=42.2) sim_rate=26191 (inst/sec) elapsed = 0:0:00:33 / Tue Mar 22 12:46:49 2016
GPGPU-Sim PTX: 900000 instructions simulated : ctaid=(3,0,0) tid=(31,0,0)
GPGPU-Sim uArch: cycles simulated: 22500  inst.: 954304 (ipc=42.4) sim_rate=28067 (inst/sec) elapsed = 0:0:00:34 / Tue Mar 22 12:46:50 2016
GPGPU-Sim PTX: 1000000 instructions simulated : ctaid=(6,0,0) tid=(63,0,0)
GPGPU-Sim uArch: cycles simulated: 24500  inst.: 1029536 (ipc=42.0) sim_rate=29415 (inst/sec) elapsed = 0:0:00:35 / Tue Mar 22 12:46:51 2016
GPGPU-Sim PTX: 1100000 instructions simulated : ctaid=(2,0,0) tid=(127,0,0)
GPGPU-Sim uArch: cycles simulated: 26500  inst.: 1117952 (ipc=42.2) sim_rate=31054 (inst/sec) elapsed = 0:0:00:36 / Tue Mar 22 12:46:52 2016
GPGPU-Sim PTX: 1200000 instructions simulated : ctaid=(1,0,0) tid=(255,0,0)
GPGPU-Sim uArch: cycles simulated: 28000  inst.: 1179424 (ipc=42.1) sim_rate=31876 (inst/sec) elapsed = 0:0:00:37 / Tue Mar 22 12:46:53 2016
GPGPU-Sim PTX: 1300000 instructions simulated : ctaid=(9,0,0) tid=(31,0,0)
GPGPU-Sim uArch: cycles simulated: 30000  inst.: 1263072 (ipc=42.1) sim_rate=33238 (inst/sec) elapsed = 0:0:00:38 / Tue Mar 22 12:46:54 2016
GPGPU-Sim uArch: cycles simulated: 32000  inst.: 1353344 (ipc=42.3) sim_rate=34701 (inst/sec) elapsed = 0:0:00:39 / Tue Mar 22 12:46:55 2016
GPGPU-Sim PTX: 1400000 instructions simulated : ctaid=(9,0,0) tid=(159,0,0)
GPGPU-Sim uArch: cycles simulated: 34000  inst.: 1436768 (ipc=42.3) sim_rate=35919 (inst/sec) elapsed = 0:0:00:40 / Tue Mar 22 12:46:56 2016
GPGPU-Sim PTX: 1500000 instructions simulated : ctaid=(2,0,0) tid=(223,0,0)
GPGPU-Sim uArch: cycles simulated: 36000  inst.: 1528704 (ipc=42.5) sim_rate=37285 (inst/sec) elapsed = 0:0:00:41 / Tue Mar 22 12:46:57 2016
GPGPU-Sim PTX: 1600000 instructions simulated : ctaid=(11,0,0) tid=(95,0,0)
GPGPU-Sim uArch: cycles simulated: 37500  inst.: 1592864 (ipc=42.5) sim_rate=37925 (inst/sec) elapsed = 0:0:00:42 / Tue Mar 22 12:46:58 2016
GPGPU-Sim PTX: 1700000 instructions simulated : ctaid=(6,0,0) tid=(31,0,0)
GPGPU-Sim uArch: cycles simulated: 39500  inst.: 1682368 (ipc=42.6) sim_rate=39124 (inst/sec) elapsed = 0:0:00:43 / Tue Mar 22 12:46:59 2016
GPGPU-Sim PTX: 1800000 instructions simulated : ctaid=(13,0,0) tid=(223,0,0)
GPGPU-Sim uArch: cycles simulated: 41500  inst.: 1764576 (ipc=42.5) sim_rate=40104 (inst/sec) elapsed = 0:0:00:44 / Tue Mar 22 12:47:00 2016
GPGPU-Sim PTX: 1900000 instructions simulated : ctaid=(12,0,0) tid=(31,0,0)
GPGPU-Sim uArch: cycles simulated: 43500  inst.: 1851328 (ipc=42.6) sim_rate=41140 (inst/sec) elapsed = 0:0:00:45 / Tue Mar 22 12:47:01 2016
GPGPU-Sim uArch: cycles simulated: 45500  inst.: 1925568 (ipc=42.3) sim_rate=41860 (inst/sec) elapsed = 0:0:00:46 / Tue Mar 22 12:47:02 2016
GPGPU-Sim PTX: 2000000 instructions simulated : ctaid=(8,0,0) tid=(127,0,0)
GPGPU-Sim uArch: cycles simulated: 47000  inst.: 1997248 (ipc=42.5) sim_rate=42494 (inst/sec) elapsed = 0:0:00:47 / Tue Mar 22 12:47:03 2016
GPGPU-Sim PTX: 2100000 instructions simulated : ctaid=(8,0,0) tid=(255,0,0)
GPGPU-Sim uArch: cycles simulated: 49000  inst.: 2074944 (ipc=42.3) sim_rate=43228 (inst/sec) elapsed = 0:0:00:48 / Tue Mar 22 12:47:04 2016
GPGPU-Sim PTX: 2200000 instructions simulated : ctaid=(5,0,0) tid=(31,0,0)
GPGPU-Sim uArch: cycles simulated: 51000  inst.: 2154752 (ipc=42.3) sim_rate=43974 (inst/sec) elapsed = 0:0:00:49 / Tue Mar 22 12:47:05 2016
GPGPU-Sim PTX: 2300000 instructions simulated : ctaid=(2,0,0) tid=(63,0,0)
GPGPU-Sim uArch: cycles simulated: 53000  inst.: 2252032 (ipc=42.5) sim_rate=45040 (inst/sec) elapsed = 0:0:00:50 / Tue Mar 22 12:47:06 2016
GPGPU-Sim uArch: cycles simulated: 54500  inst.: 2306528 (ipc=42.3) sim_rate=45226 (inst/sec) elapsed = 0:0:00:51 / Tue Mar 22 12:47:07 2016
GPGPU-Sim PTX: 2400000 instructions simulated : ctaid=(9,0,0) tid=(255,0,0)
GPGPU-Sim uArch: cycles simulated: 56500  inst.: 2393664 (ipc=42.4) sim_rate=46032 (inst/sec) elapsed = 0:0:00:52 / Tue Mar 22 12:47:08 2016
GPGPU-Sim PTX: 2500000 instructions simulated : ctaid=(6,0,0) tid=(159,0,0)
GPGPU-Sim uArch: cycles simulated: 58500  inst.: 2479584 (ipc=42.4) sim_rate=46784 (inst/sec) elapsed = 0:0:00:53 / Tue Mar 22 12:47:09 2016
GPGPU-Sim PTX: 2600000 instructions simulated : ctaid=(0,0,0) tid=(159,0,0)
GPGPU-Sim uArch: cycles simulated: 60500  inst.: 2566656 (ipc=42.4) sim_rate=47530 (inst/sec) elapsed = 0:0:00:54 / Tue Mar 22 12:47:10 2016
GPGPU-Sim PTX: 2700000 instructions simulated : ctaid=(14,0,0) tid=(63,0,0)
GPGPU-Sim uArch: cycles simulated: 62500  inst.: 2651712 (ipc=42.4) sim_rate=48212 (inst/sec) elapsed = 0:0:00:55 / Tue Mar 22 12:47:11 2016
GPGPU-Sim uArch: cycles simulated: 64000  inst.: 2713120 (ipc=42.4) sim_rate=48448 (inst/sec) elapsed = 0:0:00:56 / Tue Mar 22 12:47:12 2016
GPGPU-Sim PTX: 2800000 instructions simulated : ctaid=(13,0,0) tid=(255,0,0)
GPGPU-Sim uArch: cycles simulated: 65000  inst.: 2756256 (ipc=42.4) sim_rate=48355 (inst/sec) elapsed = 0:0:00:57 / Tue Mar 22 12:47:13 2016
GPGPU-Sim PTX: 2900000 instructions simulated : ctaid=(9,0,0) tid=(31,0,0)
GPGPU-Sim uArch: cycles simulated: 66500  inst.: 2815840 (ipc=42.3) sim_rate=48548 (inst/sec) elapsed = 0:0:00:58 / Tue Mar 22 12:47:14 2016
GPGPU-Sim uArch: cycles simulated: 68000  inst.: 2880160 (ipc=42.4) sim_rate=48816 (inst/sec) elapsed = 0:0:00:59 / Tue Mar 22 12:47:15 2016
GPGPU-Sim PTX: 3000000 instructions simulated : ctaid=(13,0,0) tid=(191,0,0)
GPGPU-Sim uArch: cycles simulated: 69000  inst.: 2927072 (ipc=42.4) sim_rate=48784 (inst/sec) elapsed = 0:0:01:00 / Tue Mar 22 12:47:16 2016
GPGPU-Sim uArch: cycles simulated: 70500  inst.: 2985856 (ipc=42.4) sim_rate=48948 (inst/sec) elapsed = 0:0:01:01 / Tue Mar 22 12:47:17 2016
GPGPU-Sim PTX: 3100000 instructions simulated : ctaid=(1,0,0) tid=(191,0,0)
GPGPU-Sim uArch: cycles simulated: 71500  inst.: 3027616 (ipc=42.3) sim_rate=48832 (inst/sec) elapsed = 0:0:01:02 / Tue Mar 22 12:47:18 2016
GPGPU-Sim uArch: cycles simulated: 73000  inst.: 3083648 (ipc=42.2) sim_rate=48946 (inst/sec) elapsed = 0:0:01:03 / Tue Mar 22 12:47:19 2016
GPGPU-Sim PTX: 3200000 instructions simulated : ctaid=(14,0,0) tid=(63,0,0)
GPGPU-Sim uArch: cycles simulated: 74000  inst.: 3120096 (ipc=42.2) sim_rate=48751 (inst/sec) elapsed = 0:0:01:04 / Tue Mar 22 12:47:20 2016
GPGPU-Sim PTX: 3300000 instructions simulated : ctaid=(4,0,0) tid=(255,0,0)
GPGPU-Sim uArch: cycles simulated: 76000  inst.: 3206048 (ipc=42.2) sim_rate=49323 (inst/sec) elapsed = 0:0:01:05 / Tue Mar 22 12:47:21 2016
GPGPU-Sim uArch: cycles simulated: 77500  inst.: 3272224 (ipc=42.2) sim_rate=49579 (inst/sec) elapsed = 0:0:01:06 / Tue Mar 22 12:47:22 2016
GPGPU-Sim PTX: 3400000 instructions simulated : ctaid=(4,0,0) tid=(255,0,0)
GPGPU-Sim uArch: cycles simulated: 79500  inst.: 3358112 (ipc=42.2) sim_rate=50121 (inst/sec) elapsed = 0:0:01:07 / Tue Mar 22 12:47:23 2016
GPGPU-Sim PTX: 3500000 instructions simulated : ctaid=(11,0,0) tid=(223,0,0)
GPGPU-Sim uArch: cycles simulated: 81500  inst.: 3452512 (ipc=42.4) sim_rate=50772 (inst/sec) elapsed = 0:0:01:08 / Tue Mar 22 12:47:24 2016
GPGPU-Sim PTX: 3600000 instructions simulated : ctaid=(7,0,0) tid=(223,0,0)
GPGPU-Sim uArch: cycles simulated: 83000  inst.: 3510240 (ipc=42.3) sim_rate=50873 (inst/sec) elapsed = 0:0:01:09 / Tue Mar 22 12:47:25 2016
GPGPU-Sim PTX: 3700000 instructions simulated : ctaid=(10,0,0) tid=(63,0,0)
GPGPU-Sim uArch: cycles simulated: 85000  inst.: 3594112 (ipc=42.3) sim_rate=51344 (inst/sec) elapsed = 0:0:01:10 / Tue Mar 22 12:47:26 2016
GPGPU-Sim uArch: cycles simulated: 86500  inst.: 3650784 (ipc=42.2) sim_rate=51419 (inst/sec) elapsed = 0:0:01:11 / Tue Mar 22 12:47:27 2016
GPGPU-Sim PTX: 3800000 instructions simulated : ctaid=(6,0,0) tid=(95,0,0)
GPGPU-Sim uArch: cycles simulated: 88500  inst.: 3745856 (ipc=42.3) sim_rate=52025 (inst/sec) elapsed = 0:0:01:12 / Tue Mar 22 12:47:28 2016
GPGPU-Sim PTX: 3900000 instructions simulated : ctaid=(13,0,0) tid=(127,0,0)
GPGPU-Sim uArch: cycles simulated: 90000  inst.: 3808992 (ipc=42.3) sim_rate=52177 (inst/sec) elapsed = 0:0:01:13 / Tue Mar 22 12:47:29 2016
GPGPU-Sim PTX: 4000000 instructions simulated : ctaid=(14,0,0) tid=(255,0,0)
GPGPU-Sim uArch: cycles simulated: 92000  inst.: 3901728 (ipc=42.4) sim_rate=52726 (inst/sec) elapsed = 0:0:01:14 / Tue Mar 22 12:47:30 2016
GPGPU-Sim uArch: cycles simulated: 93500  inst.: 3956576 (ipc=42.3) sim_rate=52754 (inst/sec) elapsed = 0:0:01:15 / Tue Mar 22 12:47:31 2016
GPGPU-Sim PTX: 4100000 instructions simulated : ctaid=(7,0,0) tid=(31,0,0)
GPGPU-Sim uArch: cycles simulated: 95500  inst.: 4045568 (ipc=42.4) sim_rate=53231 (inst/sec) elapsed = 0:0:01:16 / Tue Mar 22 12:47:32 2016
GPGPU-Sim PTX: 4200000 instructions simulated : ctaid=(6,0,0) tid=(31,0,0)
GPGPU-Sim uArch: cycles simulated: 97000  inst.: 4104224 (ipc=42.3) sim_rate=53301 (inst/sec) elapsed = 0:0:01:17 / Tue Mar 22 12:47:33 2016
GPGPU-Sim PTX: 4300000 instructions simulated : ctaid=(7,0,0) tid=(95,0,0)
GPGPU-Sim uArch: cycles simulated: 99000  inst.: 4188608 (ipc=42.3) sim_rate=53700 (inst/sec) elapsed = 0:0:01:18 / Tue Mar 22 12:47:34 2016
GPGPU-Sim uArch: cycles simulated: 100500  inst.: 4255520 (ipc=42.3) sim_rate=53867 (inst/sec) elapsed = 0:0:01:19 / Tue Mar 22 12:47:35 2016
GPGPU-Sim PTX: 4400000 instructions simulated : ctaid=(11,0,0) tid=(255,0,0)
GPGPU-Sim uArch: cycles simulated: 102500  inst.: 4344032 (ipc=42.4) sim_rate=54300 (inst/sec) elapsed = 0:0:01:20 / Tue Mar 22 12:47:36 2016
GPGPU-Sim PTX: 4500000 instructions simulated : ctaid=(5,0,0) tid=(223,0,0)
GPGPU-Sim uArch: cycles simulated: 104500  inst.: 4426880 (ipc=42.4) sim_rate=54652 (inst/sec) elapsed = 0:0:01:21 / Tue Mar 22 12:47:37 2016
GPGPU-Sim PTX: 4600000 instructions simulated : ctaid=(3,0,0) tid=(127,0,0)
GPGPU-Sim uArch: cycles simulated: 106000  inst.: 4494464 (ipc=42.4) sim_rate=54810 (inst/sec) elapsed = 0:0:01:22 / Tue Mar 22 12:47:38 2016
GPGPU-Sim uArch: cycles simulated: 107500  inst.: 4558592 (ipc=42.4) sim_rate=54922 (inst/sec) elapsed = 0:0:01:23 / Tue Mar 22 12:47:39 2016
GPGPU-Sim PTX: 4700000 instructions simulated : ctaid=(3,0,0) tid=(31,0,0)
GPGPU-Sim uArch: cycles simulated: 109500  inst.: 4643360 (ipc=42.4) sim_rate=55278 (inst/sec) elapsed = 0:0:01:24 / Tue Mar 22 12:47:40 2016
GPGPU-Sim PTX: 4800000 instructions simulated : ctaid=(9,0,0) tid=(255,0,0)
GPGPU-Sim uArch: cycles simulated: 111000  inst.: 4709248 (ipc=42.4) sim_rate=55402 (inst/sec) elapsed = 0:0:01:25 / Tue Mar 22 12:47:41 2016
GPGPU-Sim PTX: 4900000 instructions simulated : ctaid=(9,0,0) tid=(63,0,0)
GPGPU-Sim uArch: cycles simulated: 113000  inst.: 4792544 (ipc=42.4) sim_rate=55727 (inst/sec) elapsed = 0:0:01:26 / Tue Mar 22 12:47:42 2016
GPGPU-Sim PTX: 5000000 instructions simulated : ctaid=(14,0,0) tid=(31,0,0)
GPGPU-Sim uArch: cycles simulated: 114500  inst.: 4857312 (ipc=42.4) sim_rate=55831 (inst/sec) elapsed = 0:0:01:27 / Tue Mar 22 12:47:43 2016
GPGPU-Sim uArch: cycles simulated: 116000  inst.: 4912896 (ipc=42.4) sim_rate=55828 (inst/sec) elapsed = 0:0:01:28 / Tue Mar 22 12:47:44 2016
GPGPU-Sim PTX: 5100000 instructions simulated : ctaid=(12,0,0) tid=(63,0,0)
GPGPU-Sim uArch: cycles simulated: 117000  inst.: 4967360 (ipc=42.5) sim_rate=55813 (inst/sec) elapsed = 0:0:01:29 / Tue Mar 22 12:47:45 2016
GPGPU-Sim uArch: cycles simulated: 118500  inst.: 5024544 (ipc=42.4) sim_rate=55828 (inst/sec) elapsed = 0:0:01:30 / Tue Mar 22 12:47:46 2016
GPGPU-Sim PTX: 5200000 instructions simulated : ctaid=(5,0,0) tid=(31,0,0)
GPGPU-Sim uArch: cycles simulated: 120000  inst.: 5096704 (ipc=42.5) sim_rate=56007 (inst/sec) elapsed = 0:0:01:31 / Tue Mar 22 12:47:47 2016
GPGPU-Sim PTX: 5300000 instructions simulated : ctaid=(11,0,0) tid=(63,0,0)
GPGPU-Sim uArch: cycles simulated: 121500  inst.: 5156288 (ipc=42.4) sim_rate=56046 (inst/sec) elapsed = 0:0:01:32 / Tue Mar 22 12:47:48 2016
GPGPU-Sim PTX: 5400000 instructions simulated : ctaid=(7,0,0) tid=(63,0,0)
GPGPU-Sim uArch: cycles simulated: 123500  inst.: 5248480 (ipc=42.5) sim_rate=56435 (inst/sec) elapsed = 0:0:01:33 / Tue Mar 22 12:47:49 2016
GPGPU-Sim uArch: cycles simulated: 124500  inst.: 5287680 (ipc=42.5) sim_rate=56251 (inst/sec) elapsed = 0:0:01:34 / Tue Mar 22 12:47:50 2016
GPGPU-Sim PTX: 5500000 instructions simulated : ctaid=(13,0,0) tid=(191,0,0)
GPGPU-Sim uArch: cycles simulated: 126000  inst.: 5357376 (ipc=42.5) sim_rate=56393 (inst/sec) elapsed = 0:0:01:35 / Tue Mar 22 12:47:51 2016
GPGPU-Sim uArch: cycles simulated: 127500  inst.: 5422112 (ipc=42.5) sim_rate=56480 (inst/sec) elapsed = 0:0:01:36 / Tue Mar 22 12:47:52 2016
GPGPU-Sim PTX: 5600000 instructions simulated : ctaid=(1,0,0) tid=(191,0,0)
GPGPU-Sim uArch: cycles simulated: 129500  inst.: 5500160 (ipc=42.5) sim_rate=56702 (inst/sec) elapsed = 0:0:01:37 / Tue Mar 22 12:47:53 2016
GPGPU-Sim PTX: 5700000 instructions simulated : ctaid=(5,0,0) tid=(31,0,0)
GPGPU-Sim uArch: cycles simulated: 131000  inst.: 5565216 (ipc=42.5) sim_rate=56787 (inst/sec) elapsed = 0:0:01:38 / Tue Mar 22 12:47:54 2016
GPGPU-Sim uArch: cycles simulated: 132000  inst.: 5610272 (ipc=42.5) sim_rate=56669 (inst/sec) elapsed = 0:0:01:39 / Tue Mar 22 12:47:55 2016
GPGPU-Sim PTX: 5800000 instructions simulated : ctaid=(2,0,0) tid=(63,0,0)
GPGPU-Sim uArch: cycles simulated: 133500  inst.: 5669888 (ipc=42.5) sim_rate=56698 (inst/sec) elapsed = 0:0:01:40 / Tue Mar 22 12:47:56 2016
GPGPU-Sim PTX: 5900000 instructions simulated : ctaid=(8,0,0) tid=(127,0,0)
GPGPU-Sim uArch: cycles simulated: 135500  inst.: 5750464 (ipc=42.4) sim_rate=56935 (inst/sec) elapsed = 0:0:01:41 / Tue Mar 22 12:47:57 2016
GPGPU-Sim uArch: cycles simulated: 137000  inst.: 5813760 (ipc=42.4) sim_rate=56997 (inst/sec) elapsed = 0:0:01:42 / Tue Mar 22 12:47:58 2016
GPGPU-Sim PTX: 6000000 instructions simulated : ctaid=(6,0,0) tid=(159,0,0)
GPGPU-Sim uArch: cycles simulated: 139000  inst.: 5900096 (ipc=42.4) sim_rate=57282 (inst/sec) elapsed = 0:0:01:43 / Tue Mar 22 12:47:59 2016
GPGPU-Sim PTX: 6100000 instructions simulated : ctaid=(0,0,0) tid=(255,0,0)
GPGPU-Sim uArch: cycles simulated: 141000  inst.: 5976576 (ipc=42.4) sim_rate=57467 (inst/sec) elapsed = 0:0:01:44 / Tue Mar 22 12:48:00 2016
GPGPU-Sim PTX: 6200000 instructions simulated : ctaid=(6,0,0) tid=(223,0,0)
GPGPU-Sim uArch: cycles simulated: 142500  inst.: 6036736 (ipc=42.4) sim_rate=57492 (inst/sec) elapsed = 0:0:01:45 / Tue Mar 22 12:48:01 2016
GPGPU-Sim uArch: cycles simulated: 144500  inst.: 6110656 (ipc=42.3) sim_rate=57647 (inst/sec) elapsed = 0:0:01:46 / Tue Mar 22 12:48:02 2016
GPGPU-Sim PTX: 6300000 instructions simulated : ctaid=(5,0,0) tid=(63,0,0)
GPGPU-Sim uArch: cycles simulated: 146000  inst.: 6182272 (ipc=42.3) sim_rate=57778 (inst/sec) elapsed = 0:0:01:47 / Tue Mar 22 12:48:03 2016
GPGPU-Sim PTX: 6400000 instructions simulated : ctaid=(11,0,0) tid=(127,0,0)
GPGPU-Sim uArch: cycles simulated: 147500  inst.: 6239296 (ipc=42.3) sim_rate=57771 (inst/sec) elapsed = 0:0:01:48 / Tue Mar 22 12:48:04 2016
GPGPU-Sim PTX: 6500000 instructions simulated : ctaid=(6,0,0) tid=(223,0,0)
GPGPU-Sim uArch: cycles simulated: 149500  inst.: 6330368 (ipc=42.3) sim_rate=58076 (inst/sec) elapsed = 0:0:01:49 / Tue Mar 22 12:48:05 2016
GPGPU-Sim uArch: cycles simulated: 151000  inst.: 6385056 (ipc=42.3) sim_rate=58045 (inst/sec) elapsed = 0:0:01:50 / Tue Mar 22 12:48:06 2016
GPGPU-Sim PTX: 6600000 instructions simulated : ctaid=(3,0,0) tid=(95,0,0)
GPGPU-Sim uArch: cycles simulated: 152500  inst.: 6457536 (ipc=42.3) sim_rate=58176 (inst/sec) elapsed = 0:0:01:51 / Tue Mar 22 12:48:07 2016
GPGPU-Sim uArch: cycles simulated: 154000  inst.: 6508704 (ipc=42.3) sim_rate=58113 (inst/sec) elapsed = 0:0:01:52 / Tue Mar 22 12:48:08 2016
GPGPU-Sim PTX: 6700000 instructions simulated : ctaid=(10,0,0) tid=(223,0,0)
GPGPU-Sim uArch: cycles simulated: 155000  inst.: 6558304 (ipc=42.3) sim_rate=58038 (inst/sec) elapsed = 0:0:01:53 / Tue Mar 22 12:48:09 2016
GPGPU-Sim PTX: 6800000 instructions simulated : ctaid=(9,0,0) tid=(159,0,0)
GPGPU-Sim uArch: cycles simulated: 157000  inst.: 6642432 (ipc=42.3) sim_rate=58266 (inst/sec) elapsed = 0:0:01:54 / Tue Mar 22 12:48:10 2016
GPGPU-Sim PTX: 6900000 instructions simulated : ctaid=(2,0,0) tid=(63,0,0)
GPGPU-Sim uArch: cycles simulated: 158500  inst.: 6709216 (ipc=42.3) sim_rate=58341 (inst/sec) elapsed = 0:0:01:55 / Tue Mar 22 12:48:11 2016
GPGPU-Sim uArch: cycles simulated: 160000  inst.: 6766432 (ipc=42.3) sim_rate=58331 (inst/sec) elapsed = 0:0:01:56 / Tue Mar 22 12:48:12 2016
GPGPU-Sim PTX: 7000000 instructions simulated : ctaid=(3,0,0) tid=(191,0,0)
GPGPU-Sim uArch: cycles simulated: 161000  inst.: 6815168 (ipc=42.3) sim_rate=58249 (inst/sec) elapsed = 0:0:01:57 / Tue Mar 22 12:48:13 2016
GPGPU-Sim uArch: cycles simulated: 162500  inst.: 6880928 (ipc=42.3) sim_rate=58312 (inst/sec) elapsed = 0:0:01:58 / Tue Mar 22 12:48:14 2016
GPGPU-Sim PTX: 7100000 instructions simulated : ctaid=(14,0,0) tid=(63,0,0)
GPGPU-Sim uArch: cycles simulated: 164000  inst.: 6946912 (ipc=42.4) sim_rate=58377 (inst/sec) elapsed = 0:0:01:59 / Tue Mar 22 12:48:15 2016
GPGPU-Sim PTX: 7200000 instructions simulated : ctaid=(3,0,0) tid=(63,0,0)
GPGPU-Sim uArch: cycles simulated: 165500  inst.: 7006752 (ipc=42.3) sim_rate=58389 (inst/sec) elapsed = 0:0:02:00 / Tue Mar 22 12:48:16 2016
GPGPU-Sim PTX: 7300000 instructions simulated : ctaid=(9,0,0) tid=(31,0,0)
GPGPU-Sim uArch: cycles simulated: 167500  inst.: 7096160 (ipc=42.4) sim_rate=58645 (inst/sec) elapsed = 0:0:02:01 / Tue Mar 22 12:48:17 2016
GPGPU-Sim uArch: cycles simulated: 169000  inst.: 7154624 (ipc=42.3) sim_rate=58644 (inst/sec) elapsed = 0:0:02:02 / Tue Mar 22 12:48:18 2016
GPGPU-Sim PTX: 7400000 instructions simulated : ctaid=(0,0,0) tid=(191,0,0)
GPGPU-Sim uArch: cycles simulated: 171000  inst.: 7235872 (ipc=42.3) sim_rate=58828 (inst/sec) elapsed = 0:0:02:03 / Tue Mar 22 12:48:19 2016
GPGPU-Sim PTX: 7500000 instructions simulated : ctaid=(0,0,0) tid=(95,0,0)
GPGPU-Sim uArch: cycles simulated: 173000  inst.: 7318784 (ipc=42.3) sim_rate=59022 (inst/sec) elapsed = 0:0:02:04 / Tue Mar 22 12:48:20 2016
GPGPU-Sim uArch: cycles simulated: 174000  inst.: 7355136 (ipc=42.3) sim_rate=58841 (inst/sec) elapsed = 0:0:02:05 / Tue Mar 22 12:48:21 2016
GPGPU-Sim PTX: 7600000 instructions simulated : ctaid=(11,0,0) tid=(223,0,0)
GPGPU-Sim uArch: cycles simulated: 176000  inst.: 7442432 (ipc=42.3) sim_rate=59066 (inst/sec) elapsed = 0:0:02:06 / Tue Mar 22 12:48:22 2016
GPGPU-Sim PTX: 7700000 instructions simulated : ctaid=(9,0,0) tid=(191,0,0)
GPGPU-Sim uArch: cycles simulated: 178000  inst.: 7535328 (ipc=42.3) sim_rate=59333 (inst/sec) elapsed = 0:0:02:07 / Tue Mar 22 12:48:23 2016
GPGPU-Sim PTX: 7800000 instructions simulated : ctaid=(14,0,0) tid=(223,0,0)
GPGPU-Sim uArch: cycles simulated: 179500  inst.: 7588352 (ipc=42.3) sim_rate=59284 (inst/sec) elapsed = 0:0:02:08 / Tue Mar 22 12:48:24 2016
GPGPU-Sim uArch: cycles simulated: 181000  inst.: 7653472 (ipc=42.3) sim_rate=59329 (inst/sec) elapsed = 0:0:02:09 / Tue Mar 22 12:48:25 2016
GPGPU-Sim PTX: 7900000 instructions simulated : ctaid=(8,0,0) tid=(127,0,0)
GPGPU-Sim uArch: cycles simulated: 182500  inst.: 7709024 (ipc=42.2) sim_rate=59300 (inst/sec) elapsed = 0:0:02:10 / Tue Mar 22 12:48:26 2016
GPGPU-Sim PTX: 8000000 instructions simulated : ctaid=(7,0,0) tid=(191,0,0)
GPGPU-Sim uArch: cycles simulated: 184000  inst.: 7778240 (ipc=42.3) sim_rate=59375 (inst/sec) elapsed = 0:0:02:11 / Tue Mar 22 12:48:27 2016
GPGPU-Sim uArch: cycles simulated: 185500  inst.: 7838240 (ipc=42.3) sim_rate=59380 (inst/sec) elapsed = 0:0:02:12 / Tue Mar 22 12:48:28 2016
GPGPU-Sim PTX: 8100000 instructions simulated : ctaid=(7,0,0) tid=(63,0,0)
GPGPU-Sim uArch: cycles simulated: 187000  inst.: 7907424 (ipc=42.3) sim_rate=59454 (inst/sec) elapsed = 0:0:02:13 / Tue Mar 22 12:48:29 2016
GPGPU-Sim PTX: 8200000 instructions simulated : ctaid=(13,0,0) tid=(223,0,0)
GPGPU-Sim uArch: cycles simulated: 188500  inst.: 7970848 (ipc=42.3) sim_rate=59483 (inst/sec) elapsed = 0:0:02:14 / Tue Mar 22 12:48:30 2016
GPGPU-Sim uArch: cycles simulated: 190000  inst.: 8037408 (ipc=42.3) sim_rate=59536 (inst/sec) elapsed = 0:0:02:15 / Tue Mar 22 12:48:31 2016
GPGPU-Sim PTX: 8300000 instructions simulated : ctaid=(13,0,0) tid=(191,0,0)
GPGPU-Sim uArch: cycles simulated: 191500  inst.: 8101120 (ipc=42.3) sim_rate=59567 (inst/sec) elapsed = 0:0:02:16 / Tue Mar 22 12:48:32 2016
GPGPU-Sim PTX: 8400000 instructions simulated : ctaid=(0,0,0) tid=(63,0,0)
GPGPU-Sim uArch: cycles simulated: 193500  inst.: 8181920 (ipc=42.3) sim_rate=59722 (inst/sec) elapsed = 0:0:02:17 / Tue Mar 22 12:48:33 2016
GPGPU-Sim uArch: cycles simulated: 195000  inst.: 8248864 (ipc=42.3) sim_rate=59774 (inst/sec) elapsed = 0:0:02:18 / Tue Mar 22 12:48:34 2016
GPGPU-Sim PTX: 8500000 instructions simulated : ctaid=(9,0,0) tid=(223,0,0)
GPGPU-Sim uArch: cycles simulated: 196000  inst.: 8290368 (ipc=42.3) sim_rate=59642 (inst/sec) elapsed = 0:0:02:19 / Tue Mar 22 12:48:35 2016
GPGPU-Sim PTX: 8600000 instructions simulated : ctaid=(7,0,0) tid=(223,0,0)
GPGPU-Sim uArch: cycles simulated: 198000  inst.: 8370272 (ipc=42.3) sim_rate=59787 (inst/sec) elapsed = 0:0:02:20 / Tue Mar 22 12:48:36 2016
GPGPU-Sim uArch: cycles simulated: 199500  inst.: 8436032 (ipc=42.3) sim_rate=59830 (inst/sec) elapsed = 0:0:02:21 / Tue Mar 22 12:48:37 2016
GPGPU-Sim PTX: 8700000 instructions simulated : ctaid=(3,0,0) tid=(223,0,0)
GPGPU-Sim uArch: cycles simulated: 200500  inst.: 8475040 (ipc=42.3) sim_rate=59683 (inst/sec) elapsed = 0:0:02:22 / Tue Mar 22 12:48:38 2016
GPGPU-Sim uArch: cycles simulated: 202000  inst.: 8535744 (ipc=42.3) sim_rate=59690 (inst/sec) elapsed = 0:0:02:23 / Tue Mar 22 12:48:39 2016
GPGPU-Sim PTX: 8800000 instructions simulated : ctaid=(2,0,0) tid=(223,0,0)
GPGPU-Sim uArch: cycles simulated: 204000  inst.: 8620736 (ipc=42.3) sim_rate=59866 (inst/sec) elapsed = 0:0:02:24 / Tue Mar 22 12:48:40 2016
GPGPU-Sim PTX: 8900000 instructions simulated : ctaid=(5,0,0) tid=(191,0,0)
GPGPU-Sim uArch: cycles simulated: 205500  inst.: 8685888 (ipc=42.3) sim_rate=59902 (inst/sec) elapsed = 0:0:02:25 / Tue Mar 22 12:48:41 2016
GPGPU-Sim uArch: cycles simulated: 206500  inst.: 8728128 (ipc=42.3) sim_rate=59781 (inst/sec) elapsed = 0:0:02:26 / Tue Mar 22 12:48:42 2016
GPGPU-Sim PTX: 9000000 instructions simulated : ctaid=(4,0,0) tid=(191,0,0)
GPGPU-Sim uArch: cycles simulated: 208000  inst.: 8788288 (ipc=42.3) sim_rate=59784 (inst/sec) elapsed = 0:0:02:27 / Tue Mar 22 12:48:43 2016
GPGPU-Sim PTX: 9100000 instructions simulated : ctaid=(11,0,0) tid=(159,0,0)
GPGPU-Sim uArch: cycles simulated: 209500  inst.: 8856704 (ipc=42.3) sim_rate=59842 (inst/sec) elapsed = 0:0:02:28 / Tue Mar 22 12:48:44 2016
GPGPU-Sim uArch: cycles simulated: 211000  inst.: 8917536 (ipc=42.3) sim_rate=59849 (inst/sec) elapsed = 0:0:02:29 / Tue Mar 22 12:48:45 2016
GPGPU-Sim PTX: 9200000 instructions simulated : ctaid=(10,0,0) tid=(255,0,0)
GPGPU-Sim uArch: cycles simulated: 212500  inst.: 8987744 (ipc=42.3) sim_rate=59918 (inst/sec) elapsed = 0:0:02:30 / Tue Mar 22 12:48:46 2016
GPGPU-Sim PTX: 9300000 instructions simulated : ctaid=(13,0,0) tid=(95,0,0)
GPGPU-Sim uArch: cycles simulated: 214000  inst.: 9049920 (ipc=42.3) sim_rate=59933 (inst/sec) elapsed = 0:0:02:31 / Tue Mar 22 12:48:47 2016
GPGPU-Sim uArch: cycles simulated: 215500  inst.: 9120160 (ipc=42.3) sim_rate=60001 (inst/sec) elapsed = 0:0:02:32 / Tue Mar 22 12:48:48 2016
GPGPU-Sim PTX: 9400000 instructions simulated : ctaid=(3,0,0) tid=(223,0,0)
GPGPU-Sim uArch: cycles simulated: 216500  inst.: 9160544 (ipc=42.3) sim_rate=59872 (inst/sec) elapsed = 0:0:02:33 / Tue Mar 22 12:48:49 2016
GPGPU-Sim uArch: cycles simulated: 218000  inst.: 9226656 (ipc=42.3) sim_rate=59913 (inst/sec) elapsed = 0:0:02:34 / Tue Mar 22 12:48:50 2016
GPGPU-Sim PTX: 9500000 instructions simulated : ctaid=(4,0,0) tid=(255,0,0)
GPGPU-Sim uArch: cycles simulated: 219500  inst.: 9287520 (ipc=42.3) sim_rate=59919 (inst/sec) elapsed = 0:0:02:35 / Tue Mar 22 12:48:51 2016
GPGPU-Sim PTX: 9600000 instructions simulated : ctaid=(9,0,0) tid=(255,0,0)
GPGPU-Sim uArch: cycles simulated: 220500  inst.: 9334368 (ipc=42.3) sim_rate=59835 (inst/sec) elapsed = 0:0:02:36 / Tue Mar 22 12:48:52 2016
GPGPU-Sim uArch: cycles simulated: 222500  inst.: 9403008 (ipc=42.3) sim_rate=59891 (inst/sec) elapsed = 0:0:02:37 / Tue Mar 22 12:48:53 2016
GPGPU-Sim PTX: 9700000 instructions simulated : ctaid=(10,0,0) tid=(159,0,0)
GPGPU-Sim uArch: cycles simulated: 224000  inst.: 9478784 (ipc=42.3) sim_rate=59992 (inst/sec) elapsed = 0:0:02:38 / Tue Mar 22 12:48:54 2016
GPGPU-Sim PTX: 9800000 instructions simulated : ctaid=(3,0,0) tid=(159,0,0)
GPGPU-Sim uArch: cycles simulated: 225500  inst.: 9537120 (ipc=42.3) sim_rate=59981 (inst/sec) elapsed = 0:0:02:39 / Tue Mar 22 12:48:55 2016
GPGPU-Sim uArch: cycles simulated: 227000  inst.: 9612544 (ipc=42.3) sim_rate=60078 (inst/sec) elapsed = 0:0:02:40 / Tue Mar 22 12:48:56 2016
GPGPU-Sim PTX: 9900000 instructions simulated : ctaid=(11,0,0) tid=(31,0,0)
GPGPU-Sim uArch: cycles simulated: 229000  inst.: 9690624 (ipc=42.3) sim_rate=60190 (inst/sec) elapsed = 0:0:02:41 / Tue Mar 22 12:48:57 2016
GPGPU-Sim PTX: 10000000 instructions simulated : ctaid=(0,0,0) tid=(191,0,0)
GPGPU-Sim uArch: cycles simulated: 230500  inst.: 9753376 (ipc=42.3) sim_rate=60206 (inst/sec) elapsed = 0:0:02:42 / Tue Mar 22 12:48:58 2016
GPGPU-Sim PTX: 10100000 instructions simulated : ctaid=(3,0,0) tid=(63,0,0)
GPGPU-Sim uArch: cycles simulated: 232500  inst.: 9835872 (ipc=42.3) sim_rate=60342 (inst/sec) elapsed = 0:0:02:43 / Tue Mar 22 12:48:59 2016
GPGPU-Sim uArch: cycles simulated: 234000  inst.: 9901920 (ipc=42.3) sim_rate=60377 (inst/sec) elapsed = 0:0:02:44 / Tue Mar 22 12:49:00 2016
GPGPU-Sim PTX: 10200000 instructions simulated : ctaid=(11,0,0) tid=(95,0,0)
GPGPU-Sim uArch: cycles simulated: 235500  inst.: 9961952 (ipc=42.3) sim_rate=60375 (inst/sec) elapsed = 0:0:02:45 / Tue Mar 22 12:49:01 2016
GPGPU-Sim PTX: 10300000 instructions simulated : ctaid=(8,0,0) tid=(255,0,0)
GPGPU-Sim uArch: cycles simulated: 237500  inst.: 10049504 (ipc=42.3) sim_rate=60539 (inst/sec) elapsed = 0:0:02:46 / Tue Mar 22 12:49:02 2016
GPGPU-Sim uArch: cycles simulated: 238500  inst.: 10086944 (ipc=42.3) sim_rate=60400 (inst/sec) elapsed = 0:0:02:47 / Tue Mar 22 12:49:03 2016
GPGPU-Sim PTX: 10400000 instructions simulated : ctaid=(0,0,0) tid=(159,0,0)
GPGPU-Sim uArch: cycles simulated: 240500  inst.: 10172416 (ipc=42.3) sim_rate=60550 (inst/sec) elapsed = 0:0:02:48 / Tue Mar 22 12:49:04 2016
GPGPU-Sim PTX: 10500000 instructions simulated : ctaid=(5,0,0) tid=(31,0,0)
GPGPU-Sim uArch: cycles simulated: 242000  inst.: 10227840 (ipc=42.3) sim_rate=60519 (inst/sec) elapsed = 0:0:02:49 / Tue Mar 22 12:49:05 2016
GPGPU-Sim PTX: 10600000 instructions simulated : ctaid=(5,0,0) tid=(203,0,0)
GPGPU-Sim uArch: cycles simulated: 243500  inst.: 10301685 (ipc=42.3) sim_rate=60598 (inst/sec) elapsed = 0:0:02:50 / Tue Mar 22 12:49:06 2016
GPGPU-Sim uArch: cycles simulated: 245000  inst.: 10363797 (ipc=42.3) sim_rate=60607 (inst/sec) elapsed = 0:0:02:51 / Tue Mar 22 12:49:07 2016
GPGPU-Sim PTX: 10700000 instructions simulated : ctaid=(13,0,0) tid=(107,0,0)
GPGPU-Sim uArch: cycles simulated: 246500  inst.: 10427346 (ipc=42.3) sim_rate=60624 (inst/sec) elapsed = 0:0:02:52 / Tue Mar 22 12:49:08 2016
GPGPU-Sim uArch: cycles simulated: 248000  inst.: 10494058 (ipc=42.3) sim_rate=60659 (inst/sec) elapsed = 0:0:02:53 / Tue Mar 22 12:49:09 2016
GPGPU-Sim PTX: 10800000 instructions simulated : ctaid=(13,0,0) tid=(247,0,0)
GPGPU-Sim uArch: cycles simulated: 249500  inst.: 10555850 (ipc=42.3) sim_rate=60665 (inst/sec) elapsed = 0:0:02:54 / Tue Mar 22 12:49:10 2016
GPGPU-Sim PTX: 10900000 instructions simulated : ctaid=(2,0,0) tid=(3,0,0)
GPGPU-Sim uArch: cycles simulated: 251000  inst.: 10608831 (ipc=42.3) sim_rate=60621 (inst/sec) elapsed = 0:0:02:55 / Tue Mar 22 12:49:11 2016
GPGPU-Sim uArch: cycles simulated: 252000  inst.: 10662303 (ipc=42.3) sim_rate=60581 (inst/sec) elapsed = 0:0:02:56 / Tue Mar 22 12:49:12 2016
GPGPU-Sim PTX: 11000000 instructions simulated : ctaid=(4,0,0) tid=(200,0,0)
GPGPU-Sim uArch: cycles simulated: 254000  inst.: 10740212 (ipc=42.3) sim_rate=60679 (inst/sec) elapsed = 0:0:02:57 / Tue Mar 22 12:49:13 2016
GPGPU-Sim PTX: 11100000 instructions simulated : ctaid=(1,0,0) tid=(84,0,0)
GPGPU-Sim uArch: cycles simulated: 255500  inst.: 10805169 (ipc=42.3) sim_rate=60703 (inst/sec) elapsed = 0:0:02:58 / Tue Mar 22 12:49:14 2016
GPGPU-Sim uArch: cycles simulated: 257000  inst.: 10879977 (ipc=42.3) sim_rate=60781 (inst/sec) elapsed = 0:0:02:59 / Tue Mar 22 12:49:15 2016
GPGPU-Sim PTX: 11200000 instructions simulated : ctaid=(0,0,0) tid=(27,0,0)
GPGPU-Sim uArch: cycles simulated: 258500  inst.: 10933830 (ipc=42.3) sim_rate=60743 (inst/sec) elapsed = 0:0:03:00 / Tue Mar 22 12:49:16 2016
GPGPU-Sim PTX: 11300000 instructions simulated : ctaid=(9,0,0) tid=(255,0,0)
GPGPU-Sim uArch: cycles simulated: 260000  inst.: 11010078 (ipc=42.3) sim_rate=60829 (inst/sec) elapsed = 0:0:03:01 / Tue Mar 22 12:49:17 2016
GPGPU-Sim uArch: cycles simulated: 261500  inst.: 11064830 (ipc=42.3) sim_rate=60795 (inst/sec) elapsed = 0:0:03:02 / Tue Mar 22 12:49:18 2016
GPGPU-Sim PTX: 11400000 instructions simulated : ctaid=(7,0,0) tid=(231,0,0)
GPGPU-Sim uArch: cycles simulated: 262500  inst.: 11117467 (ipc=42.4) sim_rate=60751 (inst/sec) elapsed = 0:0:03:03 / Tue Mar 22 12:49:19 2016
GPGPU-Sim uArch: cycles simulated: 264000  inst.: 11172019 (ipc=42.3) sim_rate=60717 (inst/sec) elapsed = 0:0:03:04 / Tue Mar 22 12:49:20 2016
GPGPU-Sim PTX: 11500000 instructions simulated : ctaid=(9,0,0) tid=(19,0,0)
GPGPU-Sim uArch: cycles simulated: 265500  inst.: 11250767 (ipc=42.4) sim_rate=60814 (inst/sec) elapsed = 0:0:03:05 / Tue Mar 22 12:49:21 2016
GPGPU-Sim PTX: 11600000 instructions simulated : ctaid=(12,0,0) tid=(223,0,0)
GPGPU-Sim uArch: cycles simulated: 267000  inst.: 11303368 (ipc=42.3) sim_rate=60770 (inst/sec) elapsed = 0:0:03:06 / Tue Mar 22 12:49:22 2016
GPGPU-Sim PTX: 11700000 instructions simulated : ctaid=(3,0,0) tid=(95,0,0)
GPGPU-Sim uArch: cycles simulated: 268500  inst.: 11373672 (ipc=42.4) sim_rate=60821 (inst/sec) elapsed = 0:0:03:07 / Tue Mar 22 12:49:23 2016
GPGPU-Sim uArch: cycles simulated: 269500  inst.: 11408317 (ipc=42.3) sim_rate=60682 (inst/sec) elapsed = 0:0:03:08 / Tue Mar 22 12:49:24 2016
GPGPU-Sim PTX: 11800000 instructions simulated : ctaid=(1,0,0) tid=(203,0,0)
GPGPU-Sim uArch: cycles simulated: 271000  inst.: 11477466 (ipc=42.4) sim_rate=60727 (inst/sec) elapsed = 0:0:03:09 / Tue Mar 22 12:49:25 2016
GPGPU-Sim uArch: cycles simulated: 272500  inst.: 11537746 (ipc=42.3) sim_rate=60724 (inst/sec) elapsed = 0:0:03:10 / Tue Mar 22 12:49:26 2016
GPGPU-Sim PTX: 11900000 instructions simulated : ctaid=(3,0,0) tid=(247,0,0)
GPGPU-Sim uArch: cycles simulated: 274000  inst.: 11611631 (ipc=42.4) sim_rate=60793 (inst/sec) elapsed = 0:0:03:11 / Tue Mar 22 12:49:27 2016
GPGPU-Sim PTX: 12000000 instructions simulated : ctaid=(3,0,0) tid=(163,0,0)
GPGPU-Sim uArch: cycles simulated: 275500  inst.: 11667527 (ipc=42.4) sim_rate=60768 (inst/sec) elapsed = 0:0:03:12 / Tue Mar 22 12:49:28 2016
GPGPU-Sim uArch: cycles simulated: 277000  inst.: 11732100 (ipc=42.4) sim_rate=60788 (inst/sec) elapsed = 0:0:03:13 / Tue Mar 22 12:49:29 2016
GPGPU-Sim PTX: 12100000 instructions simulated : ctaid=(2,0,0) tid=(216,0,0)
GPGPU-Sim uArch: cycles simulated: 278500  inst.: 11789041 (ipc=42.3) sim_rate=60768 (inst/sec) elapsed = 0:0:03:14 / Tue Mar 22 12:49:30 2016
GPGPU-Sim uArch: cycles simulated: 280000  inst.: 11854513 (ipc=42.3) sim_rate=60792 (inst/sec) elapsed = 0:0:03:15 / Tue Mar 22 12:49:31 2016
GPGPU-Sim PTX: 12200000 instructions simulated : ctaid=(10,0,0) tid=(219,0,0)
GPGPU-Sim uArch: cycles simulated: 281000  inst.: 11898459 (ipc=42.3) sim_rate=60706 (inst/sec) elapsed = 0:0:03:16 / Tue Mar 22 12:49:32 2016
GPGPU-Sim uArch: cycles simulated: 282000  inst.: 11940859 (ipc=42.3) sim_rate=60613 (inst/sec) elapsed = 0:0:03:17 / Tue Mar 22 12:49:33 2016
GPGPU-Sim PTX: 12300000 instructions simulated : ctaid=(10,0,0) tid=(179,0,0)
GPGPU-Sim uArch: cycles simulated: 284000  inst.: 12023373 (ipc=42.3) sim_rate=60724 (inst/sec) elapsed = 0:0:03:18 / Tue Mar 22 12:49:34 2016
GPGPU-Sim PTX: 12400000 instructions simulated : ctaid=(4,0,0) tid=(37,0,0)
GPGPU-Sim uArch: cycles simulated: 285500  inst.: 12087173 (ipc=42.3) sim_rate=60739 (inst/sec) elapsed = 0:0:03:19 / Tue Mar 22 12:49:35 2016
GPGPU-Sim uArch: cycles simulated: 286500  inst.: 12140674 (ipc=42.4) sim_rate=60703 (inst/sec) elapsed = 0:0:03:20 / Tue Mar 22 12:49:36 2016
GPGPU-Sim PTX: 12500000 instructions simulated : ctaid=(5,0,0) tid=(49,0,0)
GPGPU-Sim uArch: cycles simulated: 288000  inst.: 12191119 (ipc=42.3) sim_rate=60652 (inst/sec) elapsed = 0:0:03:21 / Tue Mar 22 12:49:37 2016
GPGPU-Sim PTX: 12600000 instructions simulated : ctaid=(8,0,0) tid=(213,0,0)
GPGPU-Sim uArch: cycles simulated: 289500  inst.: 12268089 (ipc=42.4) sim_rate=60733 (inst/sec) elapsed = 0:0:03:22 / Tue Mar 22 12:49:38 2016
GPGPU-Sim uArch: cycles simulated: 291000  inst.: 12316037 (ipc=42.3) sim_rate=60670 (inst/sec) elapsed = 0:0:03:23 / Tue Mar 22 12:49:39 2016
GPGPU-Sim PTX: 12700000 instructions simulated : ctaid=(1,0,0) tid=(231,0,0)
GPGPU-Sim uArch: cycles simulated: 292500  inst.: 12398381 (ipc=42.4) sim_rate=60776 (inst/sec) elapsed = 0:0:03:24 / Tue Mar 22 12:49:40 2016
GPGPU-Sim uArch: cycles simulated: 294000  inst.: 12439756 (ipc=42.3) sim_rate=60681 (inst/sec) elapsed = 0:0:03:25 / Tue Mar 22 12:49:41 2016
GPGPU-Sim PTX: 12800000 instructions simulated : ctaid=(4,0,0) tid=(110,0,0)
GPGPU-Sim uArch: cycles simulated: 295000  inst.: 12491724 (ipc=42.3) sim_rate=60639 (inst/sec) elapsed = 0:0:03:26 / Tue Mar 22 12:49:42 2016
GPGPU-Sim PTX: 12900000 instructions simulated : ctaid=(7,0,0) tid=(187,0,0)
GPGPU-Sim uArch: cycles simulated: 296500  inst.: 12557854 (ipc=42.4) sim_rate=60665 (inst/sec) elapsed = 0:0:03:27 / Tue Mar 22 12:49:43 2016
GPGPU-Sim uArch: cycles simulated: 298000  inst.: 12624891 (ipc=42.4) sim_rate=60696 (inst/sec) elapsed = 0:0:03:28 / Tue Mar 22 12:49:44 2016
GPGPU-Sim PTX: 13000000 instructions simulated : ctaid=(5,0,0) tid=(75,0,0)
GPGPU-Sim uArch: cycles simulated: 299500  inst.: 12678898 (ipc=42.3) sim_rate=60664 (inst/sec) elapsed = 0:0:03:29 / Tue Mar 22 12:49:45 2016
GPGPU-Sim PTX: 13100000 instructions simulated : ctaid=(6,0,0) tid=(227,0,0)
GPGPU-Sim uArch: cycles simulated: 301000  inst.: 12750012 (ipc=42.4) sim_rate=60714 (inst/sec) elapsed = 0:0:03:30 / Tue Mar 22 12:49:46 2016
GPGPU-Sim uArch: cycles simulated: 302500  inst.: 12805297 (ipc=42.3) sim_rate=60688 (inst/sec) elapsed = 0:0:03:31 / Tue Mar 22 12:49:47 2016
GPGPU-Sim PTX: 13200000 instructions simulated : ctaid=(2,0,0) tid=(52,0,0)
GPGPU-Sim uArch: cycles simulated: 304000  inst.: 12872328 (ipc=42.3) sim_rate=60718 (inst/sec) elapsed = 0:0:03:32 / Tue Mar 22 12:49:48 2016
GPGPU-Sim PTX: 13300000 instructions simulated : ctaid=(0,0,0) tid=(159,0,0)
GPGPU-Sim uArch: cycles simulated: 305500  inst.: 12933864 (ipc=42.3) sim_rate=60722 (inst/sec) elapsed = 0:0:03:33 / Tue Mar 22 12:49:49 2016
GPGPU-Sim uArch: cycles simulated: 307000  inst.: 13004145 (ipc=42.4) sim_rate=60767 (inst/sec) elapsed = 0:0:03:34 / Tue Mar 22 12:49:50 2016
GPGPU-Sim PTX: 13400000 instructions simulated : ctaid=(3,0,0) tid=(27,0,0)
GPGPU-Sim uArch: cycles simulated: 308500  inst.: 13065627 (ipc=42.4) sim_rate=60770 (inst/sec) elapsed = 0:0:03:35 / Tue Mar 22 12:49:51 2016
GPGPU-Sim PTX: 13500000 instructions simulated : ctaid=(10,0,0) tid=(11,0,0)
GPGPU-Sim uArch: cycles simulated: 310500  inst.: 13159333 (ipc=42.4) sim_rate=60922 (inst/sec) elapsed = 0:0:03:36 / Tue Mar 22 12:49:52 2016
GPGPU-Sim uArch: cycles simulated: 312000  inst.: 13214948 (ipc=42.4) sim_rate=60898 (inst/sec) elapsed = 0:0:03:37 / Tue Mar 22 12:49:53 2016
GPGPU-Sim PTX: 13600000 instructions simulated : ctaid=(6,0,0) tid=(79,0,0)
GPGPU-Sim uArch: cycles simulated: 313500  inst.: 13286742 (ipc=42.4) sim_rate=60948 (inst/sec) elapsed = 0:0:03:38 / Tue Mar 22 12:49:54 2016
GPGPU-Sim PTX: 13700000 instructions simulated : ctaid=(13,0,0) tid=(63,0,0)
GPGPU-Sim uArch: cycles simulated: 315000  inst.: 13341359 (ipc=42.4) sim_rate=60919 (inst/sec) elapsed = 0:0:03:39 / Tue Mar 22 12:49:55 2016
GPGPU-Sim PTX: 13800000 instructions simulated : ctaid=(14,0,0) tid=(76,0,0)
GPGPU-Sim uArch: cycles simulated: 317000  inst.: 13427806 (ipc=42.4) sim_rate=61035 (inst/sec) elapsed = 0:0:03:40 / Tue Mar 22 12:49:56 2016
GPGPU-Sim uArch: cycles simulated: 318500  inst.: 13488797 (ipc=42.4) sim_rate=61035 (inst/sec) elapsed = 0:0:03:41 / Tue Mar 22 12:49:57 2016
GPGPU-Sim PTX: 13900000 instructions simulated : ctaid=(14,0,0) tid=(175,0,0)
GPGPU-Sim uArch: cycles simulated: 320500  inst.: 13579036 (ipc=42.4) sim_rate=61166 (inst/sec) elapsed = 0:0:03:42 / Tue Mar 22 12:49:58 2016
GPGPU-Sim PTX: 14000000 instructions simulated : ctaid=(0,0,0) tid=(251,0,0)
GPGPU-Sim uArch: cycles simulated: 322500  inst.: 13665082 (ipc=42.4) sim_rate=61278 (inst/sec) elapsed = 0:0:03:43 / Tue Mar 22 12:49:59 2016
GPGPU-Sim PTX: 14100000 instructions simulated : ctaid=(9,0,0) tid=(163,0,0)
GPGPU-Sim uArch: cycles simulated: 324000  inst.: 13724964 (ipc=42.4) sim_rate=61272 (inst/sec) elapsed = 0:0:03:44 / Tue Mar 22 12:50:00 2016
GPGPU-Sim PTX: 14200000 instructions simulated : ctaid=(8,0,0) tid=(223,0,0)
GPGPU-Sim uArch: cycles simulated: 326000  inst.: 13820641 (ipc=42.4) sim_rate=61425 (inst/sec) elapsed = 0:0:03:45 / Tue Mar 22 12:50:01 2016
GPGPU-Sim uArch: cycles simulated: 327500  inst.: 13880556 (ipc=42.4) sim_rate=61418 (inst/sec) elapsed = 0:0:03:46 / Tue Mar 22 12:50:02 2016
GPGPU-Sim PTX: 14300000 instructions simulated : ctaid=(1,0,0) tid=(245,0,0)
GPGPU-Sim uArch: cycles simulated: 329500  inst.: 13965805 (ipc=42.4) sim_rate=61523 (inst/sec) elapsed = 0:0:03:47 / Tue Mar 22 12:50:03 2016
GPGPU-Sim PTX: 14400000 instructions simulated : ctaid=(12,0,0) tid=(157,0,0)
GPGPU-Sim uArch: cycles simulated: 331000  inst.: 14031206 (ipc=42.4) sim_rate=61540 (inst/sec) elapsed = 0:0:03:48 / Tue Mar 22 12:50:04 2016
GPGPU-Sim uArch: cycles simulated: 332500  inst.: 14091709 (ipc=42.4) sim_rate=61535 (inst/sec) elapsed = 0:0:03:49 / Tue Mar 22 12:50:05 2016
GPGPU-Sim PTX: 14500000 instructions simulated : ctaid=(12,0,0) tid=(163,0,0)
GPGPU-Sim uArch: cycles simulated: 334500  inst.: 14176347 (ipc=42.4) sim_rate=61636 (inst/sec) elapsed = 0:0:03:50 / Tue Mar 22 12:50:06 2016
GPGPU-Sim PTX: 14600000 instructions simulated : ctaid=(8,0,0) tid=(187,0,0)
GPGPU-Sim uArch: cycles simulated: 336000  inst.: 14230782 (ipc=42.4) sim_rate=61605 (inst/sec) elapsed = 0:0:03:51 / Tue Mar 22 12:50:07 2016
GPGPU-Sim PTX: 14700000 instructions simulated : ctaid=(0,0,0) tid=(55,0,0)
GPGPU-Sim uArch: cycles simulated: 337500  inst.: 14303095 (ipc=42.4) sim_rate=61651 (inst/sec) elapsed = 0:0:03:52 / Tue Mar 22 12:50:08 2016
GPGPU-Sim uArch: cycles simulated: 339000  inst.: 14364530 (ipc=42.4) sim_rate=61650 (inst/sec) elapsed = 0:0:03:53 / Tue Mar 22 12:50:09 2016
GPGPU-Sim PTX: 14800000 instructions simulated : ctaid=(3,0,0) tid=(217,0,0)
GPGPU-Sim uArch: cycles simulated: 341000  inst.: 14455469 (ipc=42.4) sim_rate=61775 (inst/sec) elapsed = 0:0:03:54 / Tue Mar 22 12:50:10 2016
GPGPU-Sim PTX: 14900000 instructions simulated : ctaid=(7,0,0) tid=(125,0,0)
GPGPU-Sim uArch: cycles simulated: 342500  inst.: 14516137 (ipc=42.4) sim_rate=61770 (inst/sec) elapsed = 0:0:03:55 / Tue Mar 22 12:50:11 2016
GPGPU-Sim uArch: cycles simulated: 344000  inst.: 14575049 (ipc=42.4) sim_rate=61758 (inst/sec) elapsed = 0:0:03:56 / Tue Mar 22 12:50:12 2016
GPGPU-Sim PTX: 15000000 instructions simulated : ctaid=(11,0,0) tid=(76,0,0)
GPGPU-Sim uArch: cycles simulated: 346000  inst.: 14664340 (ipc=42.4) sim_rate=61874 (inst/sec) elapsed = 0:0:03:57 / Tue Mar 22 12:50:13 2016
GPGPU-Sim PTX: 15100000 instructions simulated : ctaid=(3,0,0) tid=(201,0,0)
GPGPU-Sim uArch: cycles simulated: 347500  inst.: 14716361 (ipc=42.3) sim_rate=61833 (inst/sec) elapsed = 0:0:03:58 / Tue Mar 22 12:50:14 2016
GPGPU-Sim PTX: 15200000 instructions simulated : ctaid=(11,0,0) tid=(92,0,0)
GPGPU-Sim uArch: cycles simulated: 349000  inst.: 14787043 (ipc=42.4) sim_rate=61870 (inst/sec) elapsed = 0:0:03:59 / Tue Mar 22 12:50:15 2016
GPGPU-Sim uArch: cycles simulated: 350500  inst.: 14838747 (ipc=42.3) sim_rate=61828 (inst/sec) elapsed = 0:0:04:00 / Tue Mar 22 12:50:16 2016
GPGPU-Sim PTX: 15300000 instructions simulated : ctaid=(8,0,0) tid=(87,0,0)
GPGPU-Sim uArch: cycles simulated: 351500  inst.: 14888861 (ipc=42.4) sim_rate=61779 (inst/sec) elapsed = 0:0:04:01 / Tue Mar 22 12:50:17 2016
GPGPU-Sim uArch: cycles simulated: 353000  inst.: 14949512 (ipc=42.3) sim_rate=61774 (inst/sec) elapsed = 0:0:04:02 / Tue Mar 22 12:50:18 2016
GPGPU-Sim PTX: 15400000 instructions simulated : ctaid=(11,0,0) tid=(39,0,0)
GPGPU-Sim uArch: cycles simulated: 354000  inst.: 14987454 (ipc=42.3) sim_rate=61676 (inst/sec) elapsed = 0:0:04:03 / Tue Mar 22 12:50:19 2016
GPGPU-Sim uArch: cycles simulated: 355500  inst.: 15053846 (ipc=42.3) sim_rate=61696 (inst/sec) elapsed = 0:0:04:04 / Tue Mar 22 12:50:20 2016
GPGPU-Sim PTX: 15500000 instructions simulated : ctaid=(4,0,0) tid=(241,0,0)
GPGPU-Sim uArch: cycles simulated: 357500  inst.: 15132898 (ipc=42.3) sim_rate=61766 (inst/sec) elapsed = 0:0:04:05 / Tue Mar 22 12:50:21 2016
GPGPU-Sim PTX: 15600000 instructions simulated : ctaid=(10,0,0) tid=(61,0,0)
GPGPU-Sim uArch: cycles simulated: 359000  inst.: 15199262 (ipc=42.3) sim_rate=61785 (inst/sec) elapsed = 0:0:04:06 / Tue Mar 22 12:50:22 2016
GPGPU-Sim PTX: 15700000 instructions simulated : ctaid=(5,0,0) tid=(253,0,0)
GPGPU-Sim uArch: cycles simulated: 360500  inst.: 15264753 (ipc=42.3) sim_rate=61800 (inst/sec) elapsed = 0:0:04:07 / Tue Mar 22 12:50:23 2016
GPGPU-Sim uArch: cycles simulated: 362000  inst.: 15330237 (ipc=42.3) sim_rate=61815 (inst/sec) elapsed = 0:0:04:08 / Tue Mar 22 12:50:24 2016
GPGPU-Sim PTX: 15800000 instructions simulated : ctaid=(0,0,0) tid=(134,0,0)
GPGPU-Sim uArch: cycles simulated: 363000  inst.: 15370357 (ipc=42.3) sim_rate=61728 (inst/sec) elapsed = 0:0:04:09 / Tue Mar 22 12:50:25 2016
GPGPU-Sim uArch: cycles simulated: 365000  inst.: 15452723 (ipc=42.3) sim_rate=61810 (inst/sec) elapsed = 0:0:04:10 / Tue Mar 22 12:50:26 2016
GPGPU-Sim PTX: 15900000 instructions simulated : ctaid=(9,0,0) tid=(65,0,0)
GPGPU-Sim uArch: cycles simulated: 366500  inst.: 15517883 (ipc=42.3) sim_rate=61824 (inst/sec) elapsed = 0:0:04:11 / Tue Mar 22 12:50:27 2016
GPGPU-Sim PTX: 16000000 instructions simulated : ctaid=(6,0,0) tid=(241,0,0)
GPGPU-Sim uArch: cycles simulated: 368000  inst.: 15583013 (ipc=42.3) sim_rate=61837 (inst/sec) elapsed = 0:0:04:12 / Tue Mar 22 12:50:28 2016
GPGPU-Sim uArch: cycles simulated: 369000  inst.: 15629233 (ipc=42.4) sim_rate=61775 (inst/sec) elapsed = 0:0:04:13 / Tue Mar 22 12:50:29 2016
GPGPU-Sim PTX: 16100000 instructions simulated : ctaid=(11,0,0) tid=(204,0,0)
GPGPU-Sim uArch: cycles simulated: 371000  inst.: 15708013 (ipc=42.3) sim_rate=61842 (inst/sec) elapsed = 0:0:04:14 / Tue Mar 22 12:50:30 2016
GPGPU-Sim PTX: 16200000 instructions simulated : ctaid=(7,0,0) tid=(127,0,0)
GPGPU-Sim uArch: cycles simulated: 372500  inst.: 15775421 (ipc=42.4) sim_rate=61864 (inst/sec) elapsed = 0:0:04:15 / Tue Mar 22 12:50:31 2016
GPGPU-Sim uArch: cycles simulated: 374000  inst.: 15830051 (ipc=42.3) sim_rate=61836 (inst/sec) elapsed = 0:0:04:16 / Tue Mar 22 12:50:32 2016
GPGPU-Sim PTX: 16300000 instructions simulated : ctaid=(0,0,0) tid=(127,0,0)
GPGPU-Sim uArch: cycles simulated: 375500  inst.: 15901844 (ipc=42.3) sim_rate=61874 (inst/sec) elapsed = 0:0:04:17 / Tue Mar 22 12:50:33 2016
GPGPU-Sim PTX: 16400000 instructions simulated : ctaid=(1,0,0) tid=(253,0,0)
GPGPU-Sim uArch: cycles simulated: 377500  inst.: 15982858 (ipc=42.3) sim_rate=61949 (inst/sec) elapsed = 0:0:04:18 / Tue Mar 22 12:50:34 2016
GPGPU-Sim PTX: 16500000 instructions simulated : ctaid=(3,0,0) tid=(137,0,0)
GPGPU-Sim uArch: cycles simulated: 379000  inst.: 16054621 (ipc=42.4) sim_rate=61986 (inst/sec) elapsed = 0:0:04:19 / Tue Mar 22 12:50:35 2016
GPGPU-Sim PTX: 16600000 instructions simulated : ctaid=(11,0,0) tid=(5,0,0)
GPGPU-Sim uArch: cycles simulated: 381000  inst.: 16136831 (ipc=42.4) sim_rate=62064 (inst/sec) elapsed = 0:0:04:20 / Tue Mar 22 12:50:36 2016
GPGPU-Sim uArch: cycles simulated: 382500  inst.: 16196643 (ipc=42.3) sim_rate=62056 (inst/sec) elapsed = 0:0:04:21 / Tue Mar 22 12:50:37 2016
GPGPU-Sim PTX: 16700000 instructions simulated : ctaid=(3,0,0) tid=(165,0,0)
GPGPU-Sim uArch: cycles simulated: 384000  inst.: 16272562 (ipc=42.4) sim_rate=62109 (inst/sec) elapsed = 0:0:04:22 / Tue Mar 22 12:50:38 2016
GPGPU-Sim PTX: 16800000 instructions simulated : ctaid=(13,0,0) tid=(128,0,0)
GPGPU-Sim uArch: cycles simulated: 386000  inst.: 16345062 (ipc=42.3) sim_rate=62148 (inst/sec) elapsed = 0:0:04:23 / Tue Mar 22 12:50:39 2016
GPGPU-Sim uArch: cycles simulated: 387500  inst.: 16420920 (ipc=42.4) sim_rate=62200 (inst/sec) elapsed = 0:0:04:24 / Tue Mar 22 12:50:40 2016
GPGPU-Sim PTX: 16900000 instructions simulated : ctaid=(1,0,0) tid=(135,0,0)
GPGPU-Sim uArch: cycles simulated: 389500  inst.: 16507707 (ipc=42.4) sim_rate=62293 (inst/sec) elapsed = 0:0:04:25 / Tue Mar 22 12:50:41 2016
GPGPU-Sim PTX: 17000000 instructions simulated : ctaid=(4,0,0) tid=(44,0,0)
GPGPU-Sim uArch: cycles simulated: 391000  inst.: 16568832 (ipc=42.4) sim_rate=62288 (inst/sec) elapsed = 0:0:04:26 / Tue Mar 22 12:50:42 2016
GPGPU-Sim PTX: 17100000 instructions simulated : ctaid=(18,0,0) tid=(52,0,0)
GPGPU-Sim uArch: cycles simulated: 392500  inst.: 16632065 (ipc=42.4) sim_rate=62292 (inst/sec) elapsed = 0:0:04:27 / Tue Mar 22 12:50:43 2016
GPGPU-Sim PTX: 17200000 instructions simulated : ctaid=(14,0,0) tid=(208,0,0)
GPGPU-Sim uArch: cycles simulated: 394500  inst.: 16721190 (ipc=42.4) sim_rate=62392 (inst/sec) elapsed = 0:0:04:28 / Tue Mar 22 12:50:44 2016
GPGPU-Sim uArch: cycles simulated: 396500  inst.: 16808895 (ipc=42.4) sim_rate=62486 (inst/sec) elapsed = 0:0:04:29 / Tue Mar 22 12:50:45 2016
GPGPU-Sim PTX: 17300000 instructions simulated : ctaid=(6,0,0) tid=(143,0,0)
GPGPU-Sim uArch: cycles simulated: 398000  inst.: 16875107 (ipc=42.4) sim_rate=62500 (inst/sec) elapsed = 0:0:04:30 / Tue Mar 22 12:50:46 2016
GPGPU-Sim PTX: 17400000 instructions simulated : ctaid=(1,0,0) tid=(181,0,0)
GPGPU-Sim uArch: cycles simulated: 400000  inst.: 16960606 (ipc=42.4) sim_rate=62585 (inst/sec) elapsed = 0:0:04:31 / Tue Mar 22 12:50:47 2016
GPGPU-Sim PTX: 17500000 instructions simulated : ctaid=(24,0,0) tid=(83,0,0)
GPGPU-Sim uArch: cycles simulated: 402000  inst.: 17048703 (ipc=42.4) sim_rate=62679 (inst/sec) elapsed = 0:0:04:32 / Tue Mar 22 12:50:48 2016
GPGPU-Sim uArch: cycles simulated: 403000  inst.: 17097817 (ipc=42.4) sim_rate=62629 (inst/sec) elapsed = 0:0:04:33 / Tue Mar 22 12:50:49 2016
GPGPU-Sim PTX: 17600000 instructions simulated : ctaid=(25,0,0) tid=(28,0,0)
[...]
traffic_breakdown_coretomem[GLOBAL_ACC_W] = 940032 {136:6912,}
traffic_breakdown_coretomem[INST_ACC_R] = 600 {8:75,}
traffic_breakdown_coretomem[TEXTURE_ACC_R] = 23588304 {8:2948538,}
traffic_breakdown_memtocore[CONST_ACC_R] = 1080 {72:15,}
traffic_breakdown_memtocore[GLOBAL_ACC_R] = 13787136 {136:101376,}
traffic_breakdown_memtocore[GLOBAL_ACC_W] = 55296 {8:6912,}
traffic_breakdown_memtocore[INST_ACC_R] = 10200 {136:75,}
traffic_breakdown_memtocore[TEXTURE_ACC_R] = 401001168 {136:2948538,}
maxmrqlatency = 227 
maxdqlatency = 0 
maxmflatency = 4277 
averagemflatency = 497 
max_icnt2mem_latency = 4027 
max_icnt2sh_latency = 2929222 
mrq_lat_table:98331 	1986 	546 	1128 	4253 	1561 	285 	75 	0 	0 	0 	0 	0 	0 	0 	0 	0 	0 	0 	0 	0 	0 	0 	0 	0 	0 	0 	0 	0 	0 	0 	0 	
dq_lat_table:0 	0 	0 	0 	0 	0 	0 	0 	0 	0 	0 	0 	0 	0 	0 	0 	0 	0 	0 	0 	0 	0 	0 	0 	0 	0 	0 	0 	0 	0 	0 	0 	
mf_lat_table:0 	0 	0 	0 	4154 	16927 	57026 	278347 	1257459 	1422315 	17987 	2624 	2 	0 	0 	0 	0 	0 	0 	0 	0 	0 	0 	0 	0 	0 	0 	0 	0 	0 	0 	0 	
icnt2mem_lat_table:0 	0 	0 	66870 	76478 	119913 	213822 	726263 	1474426 	374438 	3312 	1394 	0 	0 	0 	0 	0 	0 	0 	0 	0 	0 	0 	0 	
icnt2sh_lat_table:0 	0 	0 	42819 	1523640 	1218578 	235499 	29372 	21 	0 	0 	0 	0 	0 	0 	0 	0 	0 	1080 	1080 	2376 	2376 	0 	0 	
mf_lat_pw_table:0 	0 	0 	0 	0 	1 	22 	93 	3607 	2134 	0 	0 	0 	0 	0 	0 	0 	0 	0 	0 	0 	0 	0 	0 	0 	0 	0 	0 	0 	0 	0 	0 	
maximum concurrent accesses to same row:
dram[0]:        32        32        32        32        10        10        16        14        12        15        13        10        32        32        32        32 
dram[1]:        30        32        32        32        10        18        25        27        18        24        24        29        32        32        32        32 
dram[2]:        32        32        32        30        19        16        30        23        19        25        20        24        32        32        32        32 
dram[3]:        32        32        32        30        10        13        20        10        10        13        14        12        32        32        32        32 
dram[4]:        32        32        32        30        16        20        24        16        26        18        29        27        32        32        32        32 
dram[5]:        32        32        32        30        13        18        31        30        24        19        29        16        32        32        32        32 
maximum service time to same row:
dram[0]:     27559     29850     27351     29876     28993     29196     28093     29531     29927     28844     30120     29730     28425     30003     28378     30436 
dram[1]:     26152     29204     34803     40345     27423     27419     27062     27801     27116     27270     26129     27705     26110     27852     25355     27875 
dram[2]:     26419     26705     25812     27810     24755     28967     25228     28721     26483     27558     25934     27846     26741     28523     26903     27709 
dram[3]:     28234     27423     28984     25600     27102     26153     27303     25395     28855     25901     28669     26466     27527     25546     28313     25828 
dram[4]:     25582     27029     25499     26659     25503     26325     25680     27163     25940     26931     25994     27688     26990     27420     25458     26760 
dram[5]:     25228     29611     25737     28908     25700     27316     26417     27068     26924     26912     25543     27306     24966     27827     25583     28866 
average row accesses per activate:
dram[0]:  1.862917  2.161554  1.877917  2.187891  1.820000  2.098266  1.860327  2.120135  1.895770  2.148276  1.968801  2.216015  1.865724  2.163934  1.906137  2.168033 
dram[1]:  2.000000  2.148374  2.027132  2.230277  2.058601  2.294118  2.169844  2.290146  2.165232  2.385496  2.219557  2.340509  2.038610  2.155102  2.015267  2.186335 
dram[2]:  1.831889  1.748344  1.836842  1.744574  1.879931  1.783522  2.001595  1.877246  1.982650  1.937213  1.943089  1.922824  1.814751  1.795918  1.779461  1.760000 
dram[3]:  1.857895  1.590977  1.881720  1.645669  1.914336  1.692073  2.014400  1.692308  1.979463  1.685984  1.986711  1.710756  1.882353  1.648986  1.911392  1.645412 
dram[4]:  1.717073  1.677778  1.769882  1.690938  1.738924  1.774038  1.869630  1.822254  1.881737  1.836735  1.898251  1.815385  1.754153  1.675119  1.725490  1.699357 
dram[5]:  1.722675  1.654147  1.745000  1.667732  1.722835  1.694190  1.837997  1.832845  1.858841  1.811867  1.881329  1.810976  1.702093  1.696629  1.707593  1.677778 
average row locality = 108165/57528 = 1.880215
number of total memory accesses made:
dram[0]:         0         0         0         0         0         0         0         0         0         0         0         0         0         0         0         0 
dram[1]:         0         0         0         0         0         0         0         0         0         0         0         0         0         0         0         0 
dram[2]:         0         0         0         0         0         0         0         0         0         0         0         0         0         0         0         0 
dram[3]:         0         0         0         0         0         0         0         0         0         0         0         0         0         0         0         0 
dram[4]:         0         0         0         0         0         0         0         0         0         0         0         0         0         0         0         0 
dram[5]:         0         0         0         0         0         0         0         0         0         0         0         0         0         0         0         0 
total accesses: 0
min_bank_accesses = 0!
min_chip_accesses = 0!
number of total read accesses:
dram[0]:      1060      1057      1046      1048      1044      1044      1088      1088      1088      1088      1078      1078      1056      1056      1056      1058 
dram[1]:      1058      1057      1046      1046      1044      1044      1088      1088      1088      1088      1078      1078      1056      1056      1056      1056 
dram[2]:      1057      1056      1047      1045      1044      1048      1088      1088      1088      1088      1078      1076      1058      1056      1057      1056 
dram[3]:      1059      1058      1050      1045      1044      1048      1088      1088      1088      1088      1078      1076      1056      1057      1057      1058 
dram[4]:      1056      1057      1046      1045      1044      1048      1088      1088      1088      1088      1078      1076      1056      1057      1056      1057 
dram[5]:      1056      1057      1047      1044      1044      1048      1088      1088      1088      1088      1078      1076      1057      1057      1057      1057 
total reads: 102186
bank skew: 1088/1044 = 1.04
chip skew: 17038/17027 = 1.00
number of total write accesses:
dram[0]:         0         0         0         0        48        45       164       165       167       158       121       112         0         0         0         0 
dram[1]:         0         0         0         0        45        48       164       167       170       162       125       118         0         0         0         0 
dram[2]:         0         0         0         0        52        56       167       166       169       177       117        95         0         0         0         0 
dram[3]:         0         0         0         0        51        62       171       166       165       163       118       101         0         0         0         0 
dram[4]:         0         0         0         0        55        59       174       173       169       172       116       104         0         0         0         0 
dram[5]:         0         0         0         0        50        60       160       162       163       164       111       112         0         0         0         0 
total reads: 5979
min_bank_accesses = 0!
chip skew: 1022/980 = 1.04
average mf latency per bank:
dram[0]:      27953     29068     19499     20191       759       758       751       762       730       745      8652      8958     29603     30738     28733     29414
dram[1]:      28508     28008     19523     19716       747       765       761       733       733       730      8585      8848     28979     29987     28826     29843
dram[2]:      29116     28707     19878     18092       775       734       757       719       747       732      8749     10620     30014     29798     29739     28761
dram[3]:      29087     29295     19965     18562       766       773       751       751       735       745      8536     10673     30136     30031     29738     29786
dram[4]:      28379     28685     20145     18492       764       754       722       742       754       719      8818     10243     30560     30198     29873     29185
dram[5]:      29434     27681     19744     17266       772       768       776       737       749       715      8853     10044     29962     28939     29655     28128
maximum mf latency per bank:
dram[0]:       3394      3438      3638      3416      3070      3314      3626      3237      4277      3618      2648      3550      3297      3754      3514      3127
dram[1]:       3312      3518      3396      3806      2994      3154      3662      3988      3296      3169      3412      3316      3186      3470      3114      3537
dram[2]:       3468      3132      3276      3536      3843      3287      3654      3404      3376      3350      3561      3548      3206      3040      2998      3850
dram[3]:       3424      3264      3164      3330      3252      3770      3356      3486      3200      3557      3178      3222      3160      3124      3087      3510
dram[4]:       3223      3167      3461      4113      3463      3322      3523      3438      4008      3173      3012      4082      3695      3374      3625      3386
dram[5]:       3599      3314      3589      4055      3555      3882      3404      3374      3204      3310      3288      3280      3546      2864      3467      3426

Number of Memory Banks Accessed per Memory Operation per Warp (from 0):
0	0	0	0	0	0	0	0	0	0	0	0	0	0	0	0	0	0	0	0	0	0	0	0	0	0	0	0	0	0	0	0	0	0	0	0	0	0	0	0	0	0	0	0	0	0	0	0	0	0	0	0	0	0	0	0	0	0	0	0	0	0	0	0	0	0	0	0	0	0	0	0	0	0	0	0	0	0	0	0	0	0	0	0	0	0	0	0	0	0	0	0	0	0	0	0	
Average # of Memory Banks Accessed per Memory Operation per Warp=-nan

position of mrq chosen
0	0	0	0	0	0	0	0	0	0	0	0	0	0	0	0	

average position of mrq chosen = -nan
Memory Partition 0: 
Cache L2_bank_000:
MSHR contents

Cache L2_bank_001:
MSHR contents

In Dram Latency Queue (total = 0): 
DRAM[0]: 16 bks, busW=4 BL=8 CL=12, tRRD=2 tCCD=6, tRCD=12 tRAS=28 tRP=12 tRC=40
n_cmd=3866573 n_nop=3812641 n_act=8961 n_pre=8945 n_req=18013 n_rd=34066 n_write=1960 bw_util=0.01863
n_activity=475337 dram_eff=0.1516
bk0: 2120a 3847321i bk1: 2114a 3849221i bk2: 2092a 3847708i bk3: 2096a 3849590i bk4: 2088a 3846111i bk5: 2088a 3848215i bk6: 2176a 3842845i bk7: 2176a 3844821i bk8: 2176a 3842910i bk9: 2176a 3845064i bk10: 2156a 3844533i bk11: 2156a 3846395i bk12: 2112a 3846911i bk13: 2112a 3848788i bk14: 2112a 3847458i bk15: 2116a 3849080i 
dram_util_bins: 0 0 0 0 0 0 0 0 0 0
dram_eff_bins: 0 0 0 0 0 0 0 0 0 0
mrqq: max=16 avg=0.00778312
Memory Partition 1: 
Cache L2_bank_002:
MSHR contents

Cache L2_bank_003:
MSHR contents

In Dram Latency Queue (total = 0): 
DRAM[1]: 16 bks, busW=4 BL=8 CL=12, tRRD=2 tCCD=6, tRCD=12 tRAS=28 tRP=12 tRC=40
n_cmd=3866573 n_nop=3813919 n_act=8309 n_pre=8293 n_req=18026 n_rd=34054 n_write=1998 bw_util=0.01865
n_activity=456442 dram_eff=0.158
bk0: 2116a 3848233i bk1: 2114a 3849052i bk2: 2092a 3848519i bk3: 2092a 3849497i bk4: 2088a 3847859i bk5: 2088a 3848970i bk6: 2176a 3844649i bk7: 2176a 3845532i bk8: 2176a 3844798i bk9: 2176a 3846169i bk10: 2156a 3846201i bk11: 2156a 3846910i bk12: 2112a 3848330i bk13: 2112a 3848799i bk14: 2112a 3848110i bk15: 2112a 3849072i 
dram_util_bins: 0 0 0 0 0 0 0 0 0 0
dram_eff_bins: 0 0 0 0 0 0 0 0 0 0
mrqq: max=16 avg=0.0134884
Memory Partition 2: 
Cache L2_bank_004:
MSHR contents

Cache L2_bank_005:
MSHR contents

In Dram Latency Queue (total = 0): 
DRAM[2]: 16 bks, busW=4 BL=8 CL=12, tRRD=2 tCCD=6, tRCD=12 tRAS=28 tRP=12 tRC=40
n_cmd=3866573 n_nop=3811085 n_act=9723 n_pre=9707 n_req=18029 n_rd=34060 n_write=1998 bw_util=0.01865
n_activity=490229 dram_eff=0.1471
bk0: 2114a 3847099i bk1: 2112a 3846303i bk2: 2094a 3847041i bk3: 2090a 3846672i bk4: 2088a 3846348i bk5: 2096a 3845362i bk6: 2176a 3843470i bk7: 2176a 3842312i bk8: 2176a 3843225i bk9: 2176a 3842762i bk10: 2156a 3844244i bk11: 2152a 3844477i bk12: 2116a 3846346i bk13: 2112a 3846106i bk14: 2114a 3846250i bk15: 2112a 3846115i 
dram_util_bins: 0 0 0 0 0 0 0 0 0 0
dram_eff_bins: 0 0 0 0 0 0 0 0 0 0
mrqq: max=16 avg=0.0130798
Memory Partition 3: 
Cache L2_bank_006:
MSHR contents

Cache L2_bank_007:
MSHR contents

In Dram Latency Queue (total = 0): 
DRAM[3]: 16 bks, busW=4 BL=8 CL=12, tRRD=2 tCCD=6, tRCD=12 tRAS=28 tRP=12 tRC=40
n_cmd=3866573 n_nop=3810349 n_act=10085 n_pre=10069 n_req=18035 n_rd=34076 n_write=1994 bw_util=0.01866
n_activity=504405 dram_eff=0.143
bk0: 2118a 3847165i bk1: 2116a 3844732i bk2: 2100a 3847466i bk3: 2090a 3845504i bk4: 2088a 3846891i bk5: 2096a 3844521i bk6: 2176a 3843807i bk7: 2176a 3840886i bk8: 2176a 3843744i bk9: 2176a 3840843i bk10: 2156a 3844765i bk11: 2152a 3842677i bk12: 2112a 3846936i bk13: 2114a 3844796i bk14: 2114a 3847482i bk15: 2116a 3845154i 
dram_util_bins: 0 0 0 0 0 0 0 0 0 0
dram_eff_bins: 0 0 0 0 0 0 0 0 0 0
mrqq: max=16 avg=0.00877288
Memory Partition 4: 
Cache L2_bank_008:
MSHR contents

Cache L2_bank_009:
MSHR contents

In Dram Latency Queue (total = 0): 
DRAM[4]: 16 bks, busW=4 BL=8 CL=12, tRRD=2 tCCD=6, tRCD=12 tRAS=28 tRP=12 tRC=40
n_cmd=3866573 n_nop=3810135 n_act=10177 n_pre=10161 n_req=18050 n_rd=34056 n_write=2044 bw_util=0.01867
n_activity=502091 dram_eff=0.1438
bk0: 2112a 3845898i bk1: 2114a 3845546i bk2: 2092a 3846545i bk3: 2090a 3846113i bk4: 2088a 3845113i bk5: 2096a 3845409i bk6: 2176a 3842038i bk7: 2176a 3841708i bk8: 2176a 3842352i bk9: 2176a 3841940i bk10: 2156a 3843818i bk11: 2152a 3843540i bk12: 2112a 3845862i bk13: 2114a 3845235i bk14: 2112a 3845683i bk15: 2114a 3845648i 
dram_util_bins: 0 0 0 0 0 0 0 0 0 0
dram_eff_bins: 0 0 0 0 0 0 0 0 0 0
mrqq: max=16 avg=0.0144971
Memory Partition 5: 
Cache L2_bank_010:
MSHR contents

Cache L2_bank_011:
MSHR contents

In Dram Latency Queue (total = 0): 
DRAM[5]: 16 bks, busW=4 BL=8 CL=12, tRRD=2 tCCD=6, tRCD=12 tRAS=28 tRP=12 tRC=40
n_cmd=3866573 n_nop=3810019 n_act=10273 n_pre=10257 n_req=18012 n_rd=34060 n_write=1964 bw_util=0.01863
n_activity=504529 dram_eff=0.1428
bk0: 2112a 3846070i bk1: 2114a 3845434i bk2: 2094a 3846274i bk3: 2088a 3845904i bk4: 2088a 3845100i bk5: 2096a 3844537i bk6: 2176a 3842096i bk7: 2176a 3841655i bk8: 2176a 3842291i bk9: 2176a 3841748i bk10: 2156a 3843891i bk11: 2152a 3843267i bk12: 2114a 3845528i bk13: 2114a 3845363i bk14: 2114a 3845788i bk15: 2114a 3845550i 
dram_util_bins: 0 0 0 0 0 0 0 0 0 0
dram_eff_bins: 0 0 0 0 0 0 0 0 0 0
mrqq: max=16 avg=0.0133056

========= L2 cache stats =========
L2_cache_bank[0]: Access = 253300, Miss = 8516, Miss_rate = 0.034, Pending_hits = 251, Reservation_fails = 325
L2_cache_bank[1]: Access = 256020, Miss = 8517, Miss_rate = 0.033, Pending_hits = 242, Reservation_fails = 84
L2_cache_bank[2]: Access = 254153, Miss = 8514, Miss_rate = 0.033, Pending_hits = 244, Reservation_fails = 142
L2_cache_bank[3]: Access = 254611, Miss = 8513, Miss_rate = 0.033, Pending_hits = 266, Reservation_fails = 108
L2_cache_bank[4]: Access = 255465, Miss = 8517, Miss_rate = 0.033, Pending_hits = 247, Reservation_fails = 69
L2_cache_bank[5]: Access = 254787, Miss = 8513, Miss_rate = 0.033, Pending_hits = 215, Reservation_fails = 91
L2_cache_bank[6]: Access = 255158, Miss = 8520, Miss_rate = 0.033, Pending_hits = 250, Reservation_fails = 56
L2_cache_bank[7]: Access = 256023, Miss = 8518, Miss_rate = 0.033, Pending_hits = 231, Reservation_fails = 83
L2_cache_bank[8]: Access = 254726, Miss = 8512, Miss_rate = 0.033, Pending_hits = 264, Reservation_fails = 96
L2_cache_bank[9]: Access = 255315, Miss = 8516, Miss_rate = 0.033, Pending_hits = 260, Reservation_fails = 117
L2_cache_bank[10]: Access = 254780, Miss = 8515, Miss_rate = 0.033, Pending_hits = 215, Reservation_fails = 88
L2_cache_bank[11]: Access = 252578, Miss = 8515, Miss_rate = 0.034, Pending_hits = 239, Reservation_fails = 123
L2_total_cache_accesses = 3056916
L2_total_cache_misses = 102186
L2_total_cache_miss_rate = 0.0334
L2_total_cache_pending_hits = 2924
L2_total_cache_reservation_fails = 1382
L2_total_cache_breakdown:
	L2_cache_stats_breakdown[GLOBAL_ACC_R][HIT] = 2591
	L2_cache_stats_breakdown[GLOBAL_ACC_R][MISS] = 98785
	L2_cache_stats_breakdown[GLOBAL_ACC_R][RESERVATION_FAIL] = 843
	L2_cache_stats_breakdown[CONST_ACC_R][HIT] = 11
	L2_cache_stats_breakdown[CONST_ACC_R][HIT_RESERVED] = 3
	L2_cache_stats_breakdown[CONST_ACC_R][MISS] = 1
	L2_cache_stats_breakdown[CONST_ACC_R][RESERVATION_FAIL] = 103
	L2_cache_stats_breakdown[TEXTURE_ACC_R][HIT] = 2947329
	L2_cache_stats_breakdown[TEXTURE_ACC_R][HIT_RESERVED] = 118
	L2_cache_stats_breakdown[TEXTURE_ACC_R][MISS] = 1091
	L2_cache_stats_breakdown[GLOBAL_ACC_W][HIT] = 1814
	L2_cache_stats_breakdown[GLOBAL_ACC_W][HIT_RESERVED] = 2794
	L2_cache_stats_breakdown[GLOBAL_ACC_W][MISS] = 2304
	L2_cache_stats_breakdown[GLOBAL_ACC_W][RESERVATION_FAIL] = 178
	L2_cache_stats_breakdown[INST_ACC_R][HIT] = 61
	L2_cache_stats_breakdown[INST_ACC_R][HIT_RESERVED] = 9
	L2_cache_stats_breakdown[INST_ACC_R][MISS] = 5
	L2_cache_stats_breakdown[INST_ACC_R][RESERVATION_FAIL] = 258
L2_cache_data_port_util = 0.336
L2_cache_fill_port_util = 0.012

icnt_total_pkts_mem_to_simt=15256902
icnt_total_pkts_simt_to_mem=3084564
LD_mem_lat_dist  0 0 0 0 0 0 0 0 0 0 0 0 0 0 0 0 0 0 0 0 0 0 0 0 0 0 0
ST_mem_lat_dist  0 0 0 0 0 0 0 0 0 0 0 0 0 0 0 0 0 0 0 0 0 0 0 0 0 0 0
----------------------------Interconnect-DETAILS--------------------------------
Class 0:
Packet latency average = 110.829
	minimum = 6
	maximum = 1033
Network latency average = 63.2314
	minimum = 6
	maximum = 818
Slowest packet = 3059173
Flit latency average = 32.4966
	minimum = 6
	maximum = 818
Slowest flit = 13858360
Fragmentation average = 0.0116097
	minimum = 0
	maximum = 284
Injected packet rate average = 0.0775373
	minimum = 0.0653192 (at node 13)
	maximum = 0.0877311 (at node 22)
Accepted packet rate average = 0.0775373
	minimum = 0.0653192 (at node 13)
	maximum = 0.0877311 (at node 22)
Injected flit rate average = 0.232612
	minimum = 0.065911 (at node 13)
	maximum = 0.437866 (at node 22)
Accepted flit rate average= 0.232612
	minimum = 0.08724 (at node 26)
	maximum = 0.435914 (at node 6)
Injected packet length average = 3
Accepted packet length average = 3
Total in-flight flits = 0 (0 measured)
====== Overall Traffic Statistics ======
====== Traffic class 0 ======
Packet latency average = 111.011 (2 samples)
	minimum = 6 (2 samples)
	maximum = 1125.5 (2 samples)
Network latency average = 63.3504 (2 samples)
	minimum = 6 (2 samples)
	maximum = 848 (2 samples)
Flit latency average = 32.5527 (2 samples)
	minimum = 6 (2 samples)
	maximum = 848 (2 samples)
Fragmentation average = 0.0116137 (2 samples)
	minimum = 0 (2 samples)
	maximum = 281 (2 samples)
Injected packet rate average = 0.0773039 (2 samples)
	minimum = 0.0651203 (2 samples)
	maximum = 0.0874354 (2 samples)
Accepted packet rate average = 0.0773039 (2 samples)
	minimum = 0.0651203 (2 samples)
	maximum = 0.0874354 (2 samples)
Injected flit rate average = 0.231911 (2 samples)
	minimum = 0.0657102 (2 samples)
	maximum = 0.43639 (2 samples)
Accepted flit rate average = 0.231911 (2 samples)
	minimum = 0.0870142 (2 samples)
	maximum = 0.434469 (2 samples)
Injected packet size average = 3 (2 samples)
Accepted packet size average = 3 (2 samples)
Hops average = 1 (2 samples)
