

        *** GPGPU-Sim Simulator Version 3.2.2  [build 0] ***


GPGPU-Sim PTX: simulation mode 0 (can change with PTX_SIM_MODE_FUNC environment variable:
               1=functional simulation only, 0=detailed performance simulator)
GPGPU-Sim: Configuration options:

-network_mode                           1 # Interconnection network mode
-inter_config_file   config_fermi_islip.icnt # Interconnection network config file
-gpgpu_ptx_use_cuobjdump                    1 # Use cuobjdump to extract ptx and sass from binaries
-gpgpu_experimental_lib_support                    0 # Try to extract code from cuda libraries [Broken because of unknown cudaGetExportTable]
-gpgpu_ptx_convert_to_ptxplus                    0 # Convert SASS (native ISA) to ptxplus and run ptxplus
-gpgpu_ptx_force_max_capability                   20 # Force maximum compute capability
-gpgpu_ptx_inst_debug_to_file                    0 # Dump executed instructions' debug information to file
-gpgpu_ptx_inst_debug_file       inst_debug.txt # Executed instructions' debug output file
-gpgpu_ptx_inst_debug_thread_uid                    1 # Thread UID for executed instructions' debug output
-gpgpu_simd_model                       1 # 1 = post-dominator
-gpgpu_shader_core_pipeline              1536:32 # shader core pipeline config, i.e., {<nthread>:<warpsize>}
-gpgpu_tex_cache:l1  4:128:24,L:R:m:N:L,F:128:4,128:2 # per-shader L1 texture cache  (READ-ONLY) config  {<nsets>:<bsize>:<assoc>,<rep>:<wr>:<alloc>:<wr_alloc>,<mshr>:<N>:<merge>,<mq>:<rf>}
-gpgpu_const_cache:l1 64:64:2,L:R:f:N:L,A:2:32,4 # per-shader L1 constant memory cache  (READ-ONLY) config  {<nsets>:<bsize>:<assoc>,<rep>:<wr>:<alloc>:<wr_alloc>,<mshr>:<N>:<merge>,<mq>} 
-gpgpu_cache:il1     4:128:4,L:R:f:N:L,A:2:32,4 # shader L1 instruction cache config  {<nsets>:<bsize>:<assoc>,<rep>:<wr>:<alloc>:<wr_alloc>,<mshr>:<N>:<merge>,<mq>} 
-gpgpu_cache:dl1     32:128:4,L:L:m:N:H,A:32:8,8:2,0,1:0:1:1:0:1,1:4:8:16:32:64,/sciclone/data10/hwang07/GPU_RESEARCH/swl/swl_outputs/RESULTS/twolevel601/ # per-shader L1 data cache config  {<nsets>:<bsize>:<assoc>,<rep>:<wr>:<alloc>:<wr_alloc>,<mshr>:<N>:<merge>,<mq> | none}
-gpgpu_cache:dl1PrefL1                 none # per-shader L1 data cache config  {<nsets>:<bsize>:<assoc>,<rep>:<wr>:<alloc>:<wr_alloc>,<mshr>:<N>:<merge>,<mq> | none}
-gpgpu_cache:dl1PreShared                 none # per-shader L1 data cache config  {<nsets>:<bsize>:<assoc>,<rep>:<wr>:<alloc>:<wr_alloc>,<mshr>:<N>:<merge>,<mq> | none}
-gmem_skip_L1D                          0 # global memory access skip L1D cache (implements -Xptxas -dlcm=cg, default=no skip)
-gpgpu_perfect_mem                      0 # enable perfect memory mode (no cache miss)
-n_regfile_gating_group                    4 # group of lanes that should be read/written together)
-gpgpu_clock_gated_reg_file                    0 # enable clock gated reg file for power calculations
-gpgpu_clock_gated_lanes                    0 # enable clock gated lanes for power calculations
-gpgpu_shader_registers                32768 # Number of registers per shader core. Limits number of concurrent CTAs. (default 8192)
-gpgpu_shader_cta                       8 # Maximum number of concurrent CTAs in shader (default 8)
-gpgpu_num_cta_barriers                   16 # Maximum number of named barriers per CTA (default 16)
-gpgpu_n_clusters                      15 # number of processing clusters
-gpgpu_n_cores_per_cluster                    1 # number of simd cores per cluster
-gpgpu_n_cluster_ejection_buffer_size                    8 # number of packets in ejection buffer
-gpgpu_n_ldst_response_buffer_size                    2 # number of response packets in ld/st unit ejection buffer
-gpgpu_shmem_size                   16384 # Size of shared memory per shader core (default 16kB)
-gpgpu_shmem_size                   49152 # Size of shared memory per shader core (default 16kB)
-gpgpu_shmem_size_PrefL1                16384 # Size of shared memory per shader core (default 16kB)
-gpgpu_shmem_size_PrefShared                16384 # Size of shared memory per shader core (default 16kB)
-gpgpu_shmem_num_banks                   32 # Number of banks in the shared memory in each shader core (default 16)
-gpgpu_shmem_limited_broadcast                    0 # Limit shared memory to do one broadcast per cycle (default on)
-gpgpu_shmem_warp_parts                    1 # Number of portions a warp is divided into for shared memory bank conflict check 
-gpgpu_warpdistro_shader                   -1 # Specify which shader core to collect the warp size distribution from
-gpgpu_warp_issue_shader                    0 # Specify which shader core to collect the warp issue distribution from
-gpgpu_local_mem_map                    1 # Mapping from local memory space address to simulated GPU physical address space (default = enabled)
-gpgpu_num_reg_banks                   16 # Number of register banks (default = 8)
-gpgpu_reg_bank_use_warp_id                    0 # Use warp ID in mapping registers to banks (default = off)
-gpgpu_operand_collector_num_units_sp                    6 # number of collector units (default = 4)
-gpgpu_operand_collector_num_units_sfu                    8 # number of collector units (default = 4)
-gpgpu_operand_collector_num_units_mem                    2 # number of collector units (default = 2)
-gpgpu_operand_collector_num_units_gen                    0 # number of collector units (default = 0)
-gpgpu_operand_collector_num_in_ports_sp                    2 # number of collector unit in ports (default = 1)
-gpgpu_operand_collector_num_in_ports_sfu                    1 # number of collector unit in ports (default = 1)
-gpgpu_operand_collector_num_in_ports_mem                    1 # number of collector unit in ports (default = 1)
-gpgpu_operand_collector_num_in_ports_gen                    0 # number of collector unit in ports (default = 0)
-gpgpu_operand_collector_num_out_ports_sp                    2 # number of collector unit in ports (default = 1)
-gpgpu_operand_collector_num_out_ports_sfu                    1 # number of collector unit in ports (default = 1)
-gpgpu_operand_collector_num_out_ports_mem                    1 # number of collector unit in ports (default = 1)
-gpgpu_operand_collector_num_out_ports_gen                    0 # number of collector unit in ports (default = 0)
-gpgpu_coalesce_arch                   13 # Coalescing arch (default = 13, anything else is off for now)
-gpgpu_num_sched_per_core                    2 # Number of warp schedulers per core
-gpgpu_max_insn_issue_per_warp                    1 # Max number of instructions that can be issued per warp in one cycle by scheduler
-gpgpu_simt_core_sim_order                    1 # Select the simulation order of cores in a cluster (0=Fix, 1=Round-Robin)
-gpgpu_pipeline_widths        2,1,1,2,1,1,2 # Pipeline widths ID_OC_SP,ID_OC_SFU,ID_OC_MEM,OC_EX_SP,OC_EX_SFU,OC_EX_MEM,EX_WB
-gpgpu_num_sp_units                     2 # Number of SP units (default=1)
-gpgpu_num_sfu_units                    1 # Number of SF units (default=1)
-gpgpu_num_mem_units                    1 # Number if ldst units (default=1) WARNING: not hooked up to anything
-gpgpu_scheduler     two_level_active:6:0:1 # Scheduler configuration: < lrr | gto | two_level_active > If two_level_active:<num_active_warps>:<inner_prioritization>:<outer_prioritization>For complete list of prioritization values see shader.h enum scheduler_prioritization_typeDefault: gto
-gpgpu_dram_scheduler                    1 # 0 = fifo, 1 = FR-FCFS (defaul)
-gpgpu_dram_partition_queues              8:8:8:8 # i2$:$2d:d2$:$2i
-l2_ideal                               0 # Use a ideal L2 cache that always hit
-gpgpu_cache:dl2     64:128:8,L:B:m:W:L,A:32:4,4:0,32 # unified banked L2 data cache config  {<nsets>:<bsize>:<assoc>,<rep>:<wr>:<alloc>:<wr_alloc>,<mshr>:<N>:<merge>,<mq>}
-gpgpu_cache:dl2_texture_only                    0 # L2 cache used for texture only
-gpgpu_n_mem                            6 # number of memory modules (e.g. memory controllers) in gpu
-gpgpu_n_sub_partition_per_mchannel                    2 # number of memory subpartition in each memory module
-gpgpu_n_mem_per_ctrlr                    2 # number of memory chips per memory controller
-gpgpu_memlatency_stat                   14 # track and display latency statistics 0x2 enables MC, 0x4 enables queue logs
-gpgpu_frfcfs_dram_sched_queue_size                   16 # 0 = unlimited (default); # entries per chip
-gpgpu_dram_return_queue_size                  116 # 0 = unlimited (default); # entries per chip
-gpgpu_dram_buswidth                    4 # default = 4 bytes (8 bytes per cycle at DDR)
-gpgpu_dram_burst_length                    8 # Burst length of each DRAM request (default = 4 data bus cycle)
-dram_data_command_freq_ratio                    4 # Frequency ratio between DRAM data bus and command bus (default = 2 times, i.e. DDR)
-gpgpu_dram_timing_opt nbk=16:CCD=2:RRD=6:RCD=12:RAS=28:RP=12:RC=40: CL=12:WL=4:CDLR=5:WR=12:nbkgrp=4:CCDL=3:RTPL=2 # DRAM timing parameters = {nbk:tCCD:tRRD:tRCD:tRAS:tRP:tRC:CL:WL:tCDLR:tWR:nbkgrp:tCCDL:tRTPL}
-rop_latency                          120 # ROP queue latency (default 85)
-dram_latency                         100 # DRAM latency (default 30)
-gpgpu_mem_addr_mapping dramid@8;00000000.00000000.00000000.00000000.0000RRRR.RRRRRRRR.BBBCCCCB.CCSSSSSS # mapping memory address to dram model {dramid@<start bit>;<memory address map>}
-gpgpu_mem_addr_test                    0 # run sweep test to check address mapping for aliased address
-gpgpu_mem_address_mask                    1 # 0 = old addressing mask, 1 = new addressing mask, 2 = new add. mask + flipped bank sel and chip sel bits
-gpuwattch_xml_file  gpuwattch_gtx480.xml # GPUWattch XML file
-power_simulation_enabled                    0 # Turn on power simulator (1=On, 0=Off)
-power_per_cycle_dump                    0 # Dump detailed power output each cycle
-power_trace_enabled                    0 # produce a file for the power trace (1=On, 0=Off)
-power_trace_zlevel                     6 # Compression level of the power trace output log (0=no comp, 9=highest)
-steady_power_levels_enabled                    0 # produce a file for the steady power levels (1=On, 0=Off)
-steady_state_definition                  8:4 # allowed deviation:number of samples
-gpgpu_max_cycle                        0 # terminates gpu simulation early (0 = no limit)
-gpgpu_max_insn                         0 # terminates gpu simulation early (0 = no limit)
-gpgpu_max_cta                          0 # terminates gpu simulation early (0 = no limit)
-gpgpu_runtime_stat                   500 # display runtime statistics such as dram utilization {<freq>:<flag>}
-liveness_message_freq                    1 # Minimum number of seconds between simulation liveness messages (0 = always print)
-gpgpu_flush_l1_cache                    0 # Flush L1 cache at the end of each kernel call
-gpgpu_flush_l2_cache                    0 # Flush L2 cache at the end of each kernel call
-gpgpu_deadlock_detect                    1 # Stop the simulation at deadlock (1=on (default), 0=off)
-gpgpu_ptx_instruction_classification                    0 # if enabled will classify ptx instruction types per kernel (Max 255 kernels now)
-gpgpu_ptx_sim_mode                     0 # Select between Performance (default) or Functional simulation (1)
-gpgpu_clock_domains 700.0:700.0:700.0:924.0 # Clock Domain Frequencies in MhZ {<Core Clock>:<ICNT Clock>:<L2 Clock>:<DRAM Clock>}
-gpgpu_max_concurrent_kernel                    8 # maximum kernels that can run concurrently on GPU
-gpgpu_cflog_interval                    0 # Interval between each snapshot in control flow logger
-visualizer_enabled                     0 # Turn on visualizer output (1=On, 0=Off)
-visualizer_outputfile                 NULL # Specifies the output log file for visualizer
-visualizer_zlevel                      6 # Compression level of the visualizer output log (0=no comp, 9=highest)
-trace_enabled                          0 # Turn on traces
-trace_components                    none # comma seperated list of traces to enable. Complete list found in trace_streams.tup. Default none
-trace_sampling_core                    0 # The core which is printed using CORE_DPRINTF. Default 0
-trace_sampling_memory_partition                   -1 # The memory partition which is printed using MEMPART_DPRINTF. Default -1 (i.e. all)
-enable_ptx_file_line_stats                    1 # Turn on PTX source line statistic profiling. (1 = On)
-ptx_line_stats_filename gpgpu_inst_stats.txt # Output file for PTX source line statistics.
-save_embedded_ptx                      0 # saves ptx files embedded in binary as <n>.ptx
-keep                                   0 # keep intermediate files created by GPGPU-Sim when interfacing with external programs
-gpgpu_ptx_save_converted_ptxplus                    0 # Saved converted ptxplus to a file
-ptx_opcode_latency_int         4,13,4,5,145 # Opcode latencies for integers <ADD,MAX,MUL,MAD,DIV>Default 1,1,19,25,145
-ptx_opcode_latency_fp          4,13,4,5,39 # Opcode latencies for single precision floating points <ADD,MAX,MUL,MAD,DIV>Default 1,1,1,1,30
-ptx_opcode_latency_dp         8,19,8,8,330 # Opcode latencies for double precision floating points <ADD,MAX,MUL,MAD,DIV>Default 8,8,8,8,335
-ptx_opcode_initiation_int            1,2,2,1,8 # Opcode initiation intervals for integers <ADD,MAX,MUL,MAD,DIV>Default 1,1,4,4,32
-ptx_opcode_initiation_fp            1,2,1,1,4 # Opcode initiation intervals for single precision floating points <ADD,MAX,MUL,MAD,DIV>Default 1,1,1,1,5
-ptx_opcode_initiation_dp         8,16,8,8,130 # Opcode initiation intervals for double precision floating points <ADD,MAX,MUL,MAD,DIV>Default 8,8,8,8,130
DRAM Timing Options:
nbk                                    16 # number of banks
CCD                                     2 # column to column delay
RRD                                     6 # minimal delay between activation of rows in different banks
RCD                                    12 # row to column delay
RAS                                    28 # time needed to activate row
RP                                     12 # time needed to precharge (deactivate) row
RC                                     40 # row cycle time
CDLR                                    5 # switching from write to read (changes tWTR)
WR                                     12 # last data-in to row precharge
CL                                     12 # CAS latency
WL                                      4 # Write latency
nbkgrp                                  4 # number of bank groups
CCDL                                    3 # column to column delay between accesses to different bank groups
RTPL                                    2 # read to precharge delay between accesses to different bank groups
Total number of memory sub partition = 12
addr_dec_mask[CHIP]  = 0000000000000000 	high:64 low:0
addr_dec_mask[BK]    = 000000000000e100 	high:16 low:8
addr_dec_mask[ROW]   = 000000000fff0000 	high:28 low:16
addr_dec_mask[COL]   = 0000000000001eff 	high:13 low:0
addr_dec_mask[BURST] = 000000000000003f 	high:6 low:0
sub_partition_id_mask = 0000000000000100
GPGPU-Sim uArch: clock freqs: 700000000.000000:700000000.000000:700000000.000000:924000000.000000
GPGPU-Sim uArch: clock periods: 0.00000000142857142857:0.00000000142857142857:0.00000000142857142857:0.00000000108225108225
*** Initializing Memory Statistics ***
GPGPU-Sim uArch: interconnect node map (shaderID+MemID to icntID)
GPGPU-Sim uArch: Memory nodes ID start from index: 15
GPGPU-Sim uArch:    0   1   2   3   4
GPGPU-Sim uArch:    5   6   7   8   9
GPGPU-Sim uArch:   10  11  12  13  14
GPGPU-Sim uArch:   15  16  17  18  19
GPGPU-Sim uArch:   20  21  22  23  24
GPGPU-Sim uArch:   25  26
GPGPU-Sim uArch: interconnect node reverse map (icntID to shaderID+MemID)
GPGPU-Sim uArch: Memory nodes start from ID: 15
GPGPU-Sim uArch:    0   1   2   3   4
GPGPU-Sim uArch:    5   6   7   8   9
GPGPU-Sim uArch:   10  11  12  13  14
GPGPU-Sim uArch:   15  16  17  18  19
GPGPU-Sim uArch:   20  21  22  23  24
GPGPU-Sim uArch:   25  26
a5bfea9a69faaeaeb73abbaec6868abd  /sciclone/data10/hwang07/adwait/applications/benchmarks/rodinia/cuda/streamcluster/gpgpu_ptx_sim__streamcluster
GPGPU-Sim uArch: performance model initialization complete.
GPGPU-Sim PTX: __cudaRegisterFatBinary, fat_cubin_handle = 1, filename=streamcluster_cuda.cu
self exe links to: /sciclone/data10/hwang07/adwait/applications/benchmarks/rodinia/cuda/streamcluster/gpgpu_ptx_sim__streamcluster
Running md5sum using "md5sum /sciclone/data10/hwang07/adwait/applications/benchmarks/rodinia/cuda/streamcluster/gpgpu_ptx_sim__streamcluster "
Parsing file _cuobjdump_complete_output_m0qsu0
######### cuobjdump parser ########
## Adding new section ELF
Adding arch: sm_20
Adding identifier: streamcluster_cuda.cu
## Adding new section PTX
Adding ptx filename: _cuobjdump_1.ptx
Adding arch: sm_20
Adding identifier: streamcluster_cuda.cu
Done parsing!!!
GPGPU-Sim PTX: __cudaRegisterFunction _Z12pgain_kerneliilP5PointiPfS1_PiPb : hostFun 0x0x404fe3, fat_cubin_handle = 1
GPGPU-Sim PTX: allocating shared region for "coord_s" from 0x0 to 0x0 (shared memory space)
GPGPU-Sim PTX: instruction assembly for function '_Z12pgain_kerneliilP5PointiPfS1_PiPb'...   done.
GPGPU-Sim PTX: finding reconvergence points for '_Z12pgain_kerneliilP5PointiPfS1_PiPb'...
GPGPU-Sim PTX: Finding dominators for '_Z12pgain_kerneliilP5PointiPfS1_PiPb'...
GPGPU-Sim PTX: Finding immediate dominators for '_Z12pgain_kerneliilP5PointiPfS1_PiPb'...
GPGPU-Sim PTX: Finding postdominators for '_Z12pgain_kerneliilP5PointiPfS1_PiPb'...
GPGPU-Sim PTX: Finding immediate postdominators for '_Z12pgain_kerneliilP5PointiPfS1_PiPb'...
GPGPU-Sim PTX: pre-decoding instructions for '_Z12pgain_kerneliilP5PointiPfS1_PiPb'...
GPGPU-Sim PTX: reconvergence points for _Z12pgain_kerneliilP5PointiPfS1_PiPb...
GPGPU-Sim PTX:  1 (potential) branch divergence @  PC=0x030 (_1.ptx:76) @%p2 bra $Lt_0_3842;
GPGPU-Sim PTX:    immediate post dominator      @  PC=0x0e0 (_1.ptx:103) mov.u64 %rd1, coord_s;
GPGPU-Sim PTX:  2 (potential) branch divergence @  PC=0x038 (_1.ptx:77) @!%p1 bra $Lt_0_4354;
GPGPU-Sim PTX:    immediate post dominator      @  PC=0x0d8 (_1.ptx:101) mov.u64 %rd1, coord_s;
GPGPU-Sim PTX:  3 (potential) branch divergence @  PC=0x0d0 (_1.ptx:99) @%p3 bra $Lt_0_4866;
GPGPU-Sim PTX:    immediate post dominator      @  PC=0x0d8 (_1.ptx:101) mov.u64 %rd1, coord_s;
GPGPU-Sim PTX:  4 (potential) branch divergence @  PC=0x110 (_1.ptx:110) @!%p1 bra $Lt_0_7170;
GPGPU-Sim PTX:    immediate post dominator      @  PC=0x218 (_1.ptx:149) ld.param.u64 %rd15, [__cudaparm__Z12pgain_kerneliilP5PointiPfS1_PiPb_p];
GPGPU-Sim PTX:  5 (potential) branch divergence @  PC=0x1d8 (_1.ptx:138) @%p4 bra $Lt_0_5890;
GPGPU-Sim PTX:    immediate post dominator      @  PC=0x1e0 (_1.ptx:139) bra.uni $Lt_0_5378;
GPGPU-Sim PTX:  6 (potential) branch divergence @  PC=0x1e0 (_1.ptx:139) bra.uni $Lt_0_5378;
GPGPU-Sim PTX:    immediate post dominator      @  PC=0x218 (_1.ptx:149) ld.param.u64 %rd15, [__cudaparm__Z12pgain_kerneliilP5PointiPfS1_PiPb_p];
GPGPU-Sim PTX:  7 (potential) branch divergence @  PC=0x288 (_1.ptx:164) @!%p5 bra $Lt_0_6658;
GPGPU-Sim PTX:    immediate post dominator      @  PC=0x358 (_1.ptx:197) exit;
GPGPU-Sim PTX:  8 (potential) branch divergence @  PC=0x2e8 (_1.ptx:178) bra.uni $Lt_0_6402;
GPGPU-Sim PTX:    immediate post dominator      @  PC=0x358 (_1.ptx:197) exit;
GPGPU-Sim PTX: ... end of reconvergence points for _Z12pgain_kerneliilP5PointiPfS1_PiPb
GPGPU-Sim PTX: ... done pre-decoding instructions for '_Z12pgain_kerneliilP5PointiPfS1_PiPb'.
GPGPU-Sim PTX: finished parsing EMBEDDED .ptx file _1.ptx
Adding _cuobjdump_1.ptx with cubin handle 1
GPGPU-Sim PTX: extracting embedded .ptx to temporary file "_ptx_1iZxUL"
Running: cat _ptx_1iZxUL | sed 's/.version 1.5/.version 1.4/' | sed 's/, texmode_independent//' | sed 's/\(\.extern \.const\[1\] .b8 \w\+\)\[\]/\1\[1\]/' | sed 's/const\[.\]/const\[0\]/g' > _ptx2_CKuwux
GPGPU-Sim PTX: generating ptxinfo using "$CUDA_INSTALL_PATH/bin/ptxas --gpu-name=sm_20 -v _ptx2_CKuwux --output-file  /dev/null 2> _ptx_1iZxULinfo"
GPGPU-Sim PTX: Kernel '_Z12pgain_kerneliilP5PointiPfS1_PiPb' : regs=12, lmem=0, smem=0, cmem=96
GPGPU-Sim PTX: removing ptxinfo using "rm -f _ptx_1iZxUL _ptx2_CKuwux _ptx_1iZxULinfo"
GPGPU-Sim PTX: loading globals with explicit initializers... 
GPGPU-Sim PTX: finished loading globals (0 bytes total).
GPGPU-Sim PTX: loading constants with explicit initializers...  done.
PARSEC Benchmark Suite

GPGPU-Sim PTX: cudaLaunch for 0x0x404fe3 (mode=performance simulation) on stream 0
GPGPU-Sim PTX: pushing kernel '_Z12pgain_kerneliilP5PointiPfS1_PiPb' to stream 0, gridDim= (128,1,1) blockDim = (512,1,1) 
kernel '_Z12pgain_kerneliilP5PointiPfS1_PiPb' transfer to GPU hardware scheduler
GPGPU-Sim uArch: Shader 1 bind to kernel 1 '_Z12pgain_kerneliilP5PointiPfS1_PiPb'
GPGPU-Sim uArch: CTA/core = 3, limited by: threads
GPGPU-Sim uArch: core:  1, cta: 0 initialized @(1,0)
GPGPU-Sim uArch: Shader 2 bind to kernel 1 '_Z12pgain_kerneliilP5PointiPfS1_PiPb'
GPGPU-Sim uArch: core:  2, cta: 0 initialized @(1,0)
GPGPU-Sim uArch: Shader 3 bind to kernel 1 '_Z12pgain_kerneliilP5PointiPfS1_PiPb'
GPGPU-Sim uArch: core:  3, cta: 0 initialized @(1,0)
GPGPU-Sim uArch: Shader 4 bind to kernel 1 '_Z12pgain_kerneliilP5PointiPfS1_PiPb'
GPGPU-Sim uArch: core:  4, cta: 0 initialized @(1,0)
GPGPU-Sim uArch: Shader 5 bind to kernel 1 '_Z12pgain_kerneliilP5PointiPfS1_PiPb'
GPGPU-Sim uArch: core:  5, cta: 0 initialized @(1,0)
GPGPU-Sim uArch: Shader 6 bind to kernel 1 '_Z12pgain_kerneliilP5PointiPfS1_PiPb'
GPGPU-Sim uArch: core:  6, cta: 0 initialized @(1,0)
GPGPU-Sim uArch: Shader 7 bind to kernel 1 '_Z12pgain_kerneliilP5PointiPfS1_PiPb'
GPGPU-Sim uArch: core:  7, cta: 0 initialized @(1,0)
GPGPU-Sim uArch: Shader 8 bind to kernel 1 '_Z12pgain_kerneliilP5PointiPfS1_PiPb'
GPGPU-Sim uArch: core:  8, cta: 0 initialized @(1,0)
GPGPU-Sim uArch: Shader 9 bind to kernel 1 '_Z12pgain_kerneliilP5PointiPfS1_PiPb'
GPGPU-Sim uArch: core:  9, cta: 0 initialized @(1,0)
GPGPU-Sim uArch: Shader 10 bind to kernel 1 '_Z12pgain_kerneliilP5PointiPfS1_PiPb'
GPGPU-Sim uArch: core: 10, cta: 0 initialized @(1,0)
GPGPU-Sim uArch: Shader 11 bind to kernel 1 '_Z12pgain_kerneliilP5PointiPfS1_PiPb'
GPGPU-Sim uArch: core: 11, cta: 0 initialized @(1,0)
GPGPU-Sim uArch: Shader 12 bind to kernel 1 '_Z12pgain_kerneliilP5PointiPfS1_PiPb'
GPGPU-Sim uArch: core: 12, cta: 0 initialized @(1,0)
GPGPU-Sim uArch: Shader 13 bind to kernel 1 '_Z12pgain_kerneliilP5PointiPfS1_PiPb'
GPGPU-Sim uArch: core: 13, cta: 0 initialized @(1,0)
GPGPU-Sim uArch: Shader 14 bind to kernel 1 '_Z12pgain_kerneliilP5PointiPfS1_PiPb'
GPGPU-Sim uArch: core: 14, cta: 0 initialized @(1,0)
GPGPU-Sim uArch: Shader 0 bind to kernel 1 '_Z12pgain_kerneliilP5PointiPfS1_PiPb'
GPGPU-Sim uArch: core:  0, cta: 0 initialized @(1,0)
GPGPU-Sim uArch: core:  1, cta: 1 initialized @(2,0)
GPGPU-Sim uArch: core:  2, cta: 1 initialized @(2,0)
GPGPU-Sim uArch: core:  3, cta: 1 initialized @(2,0)
GPGPU-Sim uArch: core:  4, cta: 1 initialized @(2,0)
GPGPU-Sim uArch: core:  5, cta: 1 initialized @(2,0)
GPGPU-Sim uArch: core:  6, cta: 1 initialized @(2,0)
GPGPU-Sim uArch: core:  7, cta: 1 initialized @(2,0)
GPGPU-Sim uArch: core:  8, cta: 1 initialized @(2,0)
GPGPU-Sim uArch: core:  9, cta: 1 initialized @(2,0)
GPGPU-Sim uArch: core: 10, cta: 1 initialized @(2,0)
GPGPU-Sim uArch: core: 11, cta: 1 initialized @(2,0)
GPGPU-Sim uArch: core: 12, cta: 1 initialized @(2,0)
GPGPU-Sim uArch: core: 13, cta: 1 initialized @(2,0)
GPGPU-Sim uArch: core: 14, cta: 1 initialized @(2,0)
GPGPU-Sim uArch: core:  0, cta: 1 initialized @(2,0)
GPGPU-Sim uArch: core:  1, cta: 2 initialized @(3,0)
GPGPU-Sim uArch: core:  2, cta: 2 initialized @(3,0)
GPGPU-Sim uArch: core:  3, cta: 2 initialized @(3,0)
GPGPU-Sim uArch: core:  4, cta: 2 initialized @(3,0)
GPGPU-Sim uArch: core:  5, cta: 2 initialized @(3,0)
GPGPU-Sim uArch: core:  6, cta: 2 initialized @(3,0)
GPGPU-Sim uArch: core:  7, cta: 2 initialized @(3,0)
GPGPU-Sim uArch: core:  8, cta: 2 initialized @(3,0)
GPGPU-Sim uArch: core:  9, cta: 2 initialized @(3,0)
GPGPU-Sim uArch: core: 10, cta: 2 initialized @(3,0)
GPGPU-Sim uArch: core: 11, cta: 2 initialized @(3,0)
GPGPU-Sim uArch: core: 12, cta: 2 initialized @(3,0)
GPGPU-Sim uArch: core: 13, cta: 2 initialized @(3,0)
GPGPU-Sim uArch: core: 14, cta: 2 initialized @(3,0)
GPGPU-Sim uArch: core:  0, cta: 2 initialized @(3,0)
GPGPU-Sim uArch: cycles simulated: 500  inst.: 17760 (ipc=35.5) sim_rate=2960 (inst/sec) elapsed = 0:0:00:06 / Tue Mar 22 13:26:05 2016
GPGPU-Sim PTX: 100000 instructions simulated : ctaid=(34,0,0) tid=(184,0,0)
GPGPU-Sim PTX: 200000 instructions simulated : ctaid=(42,0,0) tid=(50,0,0)
GPGPU-Sim uArch: cycles simulated: 1500  inst.: 205290 (ipc=136.9) sim_rate=29327 (inst/sec) elapsed = 0:0:00:07 / Tue Mar 22 13:26:06 2016
GPGPU-Sim uArch: cycles simulated: 5500  inst.: 209385 (ipc=38.1) sim_rate=26173 (inst/sec) elapsed = 0:0:00:08 / Tue Mar 22 13:26:07 2016
GPGPU-Sim uArch: cycles simulated: 9500  inst.: 213480 (ipc=22.5) sim_rate=23720 (inst/sec) elapsed = 0:0:00:09 / Tue Mar 22 13:26:08 2016
GPGPU-Sim uArch: cycles simulated: 13500  inst.: 217575 (ipc=16.1) sim_rate=21757 (inst/sec) elapsed = 0:0:00:10 / Tue Mar 22 13:26:09 2016
GPGPU-Sim uArch: cycles simulated: 18000  inst.: 222300 (ipc=12.3) sim_rate=20209 (inst/sec) elapsed = 0:0:00:11 / Tue Mar 22 13:26:10 2016
GPGPU-Sim uArch: cycles simulated: 21500  inst.: 225765 (ipc=10.5) sim_rate=18813 (inst/sec) elapsed = 0:0:00:12 / Tue Mar 22 13:26:11 2016
GPGPU-Sim uArch: cycles simulated: 25500  inst.: 229860 (ipc= 9.0) sim_rate=17681 (inst/sec) elapsed = 0:0:00:13 / Tue Mar 22 13:26:12 2016
GPGPU-Sim uArch: cycles simulated: 29000  inst.: 233476 (ipc= 8.1) sim_rate=16676 (inst/sec) elapsed = 0:0:00:14 / Tue Mar 22 13:26:13 2016
GPGPU-Sim uArch: cycles simulated: 33000  inst.: 237549 (ipc= 7.2) sim_rate=15836 (inst/sec) elapsed = 0:0:00:15 / Tue Mar 22 13:26:14 2016
GPGPU-Sim uArch: cycles simulated: 37000  inst.: 241658 (ipc= 6.5) sim_rate=15103 (inst/sec) elapsed = 0:0:00:16 / Tue Mar 22 13:26:15 2016
GPGPU-Sim uArch: cycles simulated: 41000  inst.: 245713 (ipc= 6.0) sim_rate=14453 (inst/sec) elapsed = 0:0:00:17 / Tue Mar 22 13:26:16 2016
GPGPU-Sim uArch: cycles simulated: 45000  inst.: 249756 (ipc= 5.6) sim_rate=13875 (inst/sec) elapsed = 0:0:00:18 / Tue Mar 22 13:26:17 2016
GPGPU-Sim uArch: cycles simulated: 49000  inst.: 253808 (ipc= 5.2) sim_rate=13358 (inst/sec) elapsed = 0:0:00:19 / Tue Mar 22 13:26:18 2016
GPGPU-Sim uArch: cycles simulated: 53000  inst.: 257898 (ipc= 4.9) sim_rate=12894 (inst/sec) elapsed = 0:0:00:20 / Tue Mar 22 13:26:19 2016
GPGPU-Sim uArch: cycles simulated: 57000  inst.: 261990 (ipc= 4.6) sim_rate=12475 (inst/sec) elapsed = 0:0:00:21 / Tue Mar 22 13:26:20 2016
GPGPU-Sim uArch: cycles simulated: 61500  inst.: 266715 (ipc= 4.3) sim_rate=12123 (inst/sec) elapsed = 0:0:00:22 / Tue Mar 22 13:26:21 2016
GPGPU-Sim uArch: cycles simulated: 65500  inst.: 270810 (ipc= 4.1) sim_rate=11774 (inst/sec) elapsed = 0:0:00:23 / Tue Mar 22 13:26:22 2016
GPGPU-Sim uArch: cycles simulated: 69000  inst.: 274275 (ipc= 4.0) sim_rate=11428 (inst/sec) elapsed = 0:0:00:24 / Tue Mar 22 13:26:23 2016
GPGPU-Sim uArch: cycles simulated: 73000  inst.: 278370 (ipc= 3.8) sim_rate=11134 (inst/sec) elapsed = 0:0:00:25 / Tue Mar 22 13:26:24 2016
GPGPU-Sim uArch: cycles simulated: 77000  inst.: 282465 (ipc= 3.7) sim_rate=10864 (inst/sec) elapsed = 0:0:00:26 / Tue Mar 22 13:26:25 2016
GPGPU-Sim PTX: 300000 instructions simulated : ctaid=(30,0,0) tid=(106,0,0)
GPGPU-Sim PTX: 400000 instructions simulated : ctaid=(13,0,0) tid=(423,0,0)
GPGPU-Sim uArch: cycles simulated: 80500  inst.: 477735 (ipc= 5.9) sim_rate=17693 (inst/sec) elapsed = 0:0:00:27 / Tue Mar 22 13:26:26 2016
GPGPU-Sim PTX: 500000 instructions simulated : ctaid=(23,0,0) tid=(309,0,0)
GPGPU-Sim PTX: 600000 instructions simulated : ctaid=(14,0,0) tid=(400,0,0)
GPGPU-Sim PTX: 700000 instructions simulated : ctaid=(33,0,0) tid=(393,0,0)
GPGPU-Sim PTX: 800000 instructions simulated : ctaid=(33,0,0) tid=(233,0,0)
GPGPU-Sim uArch: cycles simulated: 81000  inst.: 786799 (ipc= 9.7) sim_rate=28099 (inst/sec) elapsed = 0:0:00:28 / Tue Mar 22 13:26:27 2016
GPGPU-Sim PTX: 900000 instructions simulated : ctaid=(10,0,0) tid=(105,0,0)
GPGPU-Sim PTX: 1000000 instructions simulated : ctaid=(37,0,0) tid=(233,0,0)
GPGPU-Sim PTX: 1100000 instructions simulated : ctaid=(13,0,0) tid=(361,0,0)
GPGPU-Sim PTX: 1200000 instructions simulated : ctaid=(5,0,0) tid=(9,0,0)
GPGPU-Sim uArch: cycles simulated: 82000  inst.: 1185711 (ipc=14.5) sim_rate=40886 (inst/sec) elapsed = 0:0:00:29 / Tue Mar 22 13:26:28 2016
GPGPU-Sim PTX: 1300000 instructions simulated : ctaid=(35,0,0) tid=(457,0,0)
GPGPU-Sim PTX: 1400000 instructions simulated : ctaid=(16,0,0) tid=(329,0,0)
GPGPU-Sim PTX: 1500000 instructions simulated : ctaid=(3,0,0) tid=(233,0,0)
GPGPU-Sim uArch: cycles simulated: 83000  inst.: 1548655 (ipc=18.7) sim_rate=51621 (inst/sec) elapsed = 0:0:00:30 / Tue Mar 22 13:26:29 2016
GPGPU-Sim PTX: 1600000 instructions simulated : ctaid=(12,0,0) tid=(265,0,0)
GPGPU-Sim PTX: 1700000 instructions simulated : ctaid=(13,0,0) tid=(393,0,0)
GPGPU-Sim PTX: 1800000 instructions simulated : ctaid=(36,0,0) tid=(297,0,0)
GPGPU-Sim PTX: 1900000 instructions simulated : ctaid=(1,0,0) tid=(137,0,0)
GPGPU-Sim uArch: cycles simulated: 84000  inst.: 1916207 (ipc=22.8) sim_rate=61813 (inst/sec) elapsed = 0:0:00:31 / Tue Mar 22 13:26:30 2016
GPGPU-Sim PTX: 2000000 instructions simulated : ctaid=(10,0,0) tid=(201,0,0)
GPGPU-Sim PTX: 2100000 instructions simulated : ctaid=(35,0,0) tid=(425,0,0)
GPGPU-Sim PTX: 2200000 instructions simulated : ctaid=(8,0,0) tid=(105,0,0)
GPGPU-Sim PTX: 2300000 instructions simulated : ctaid=(33,0,0) tid=(489,0,0)
GPGPU-Sim uArch: cycles simulated: 85000  inst.: 2295823 (ipc=27.0) sim_rate=71744 (inst/sec) elapsed = 0:0:00:32 / Tue Mar 22 13:26:31 2016
GPGPU-Sim PTX: 2400000 instructions simulated : ctaid=(39,0,0) tid=(73,0,0)
GPGPU-Sim PTX: 2500000 instructions simulated : ctaid=(23,0,0) tid=(393,0,0)
GPGPU-Sim PTX: 2600000 instructions simulated : ctaid=(28,0,0) tid=(329,0,0)
GPGPU-Sim PTX: 2700000 instructions simulated : ctaid=(35,0,0) tid=(489,0,0)
GPGPU-Sim uArch: cycles simulated: 86000  inst.: 2669839 (ipc=31.0) sim_rate=80904 (inst/sec) elapsed = 0:0:00:33 / Tue Mar 22 13:26:32 2016
GPGPU-Sim PTX: 2800000 instructions simulated : ctaid=(36,0,0) tid=(457,0,0)
GPGPU-Sim PTX: 2900000 instructions simulated : ctaid=(3,0,0) tid=(73,0,0)
GPGPU-Sim PTX: 3000000 instructions simulated : ctaid=(8,0,0) tid=(457,0,0)
GPGPU-Sim uArch: cycles simulated: 87000  inst.: 3037903 (ipc=34.9) sim_rate=89350 (inst/sec) elapsed = 0:0:00:34 / Tue Mar 22 13:26:33 2016
GPGPU-Sim PTX: 3100000 instructions simulated : ctaid=(14,0,0) tid=(137,0,0)
GPGPU-Sim PTX: 3200000 instructions simulated : ctaid=(19,0,0) tid=(297,0,0)
GPGPU-Sim PTX: 3300000 instructions simulated : ctaid=(36,0,0) tid=(137,0,0)
GPGPU-Sim PTX: 3400000 instructions simulated : ctaid=(29,0,0) tid=(265,0,0)
GPGPU-Sim uArch: cycles simulated: 88000  inst.: 3410287 (ipc=38.8) sim_rate=97436 (inst/sec) elapsed = 0:0:00:35 / Tue Mar 22 13:26:34 2016
GPGPU-Sim PTX: 3500000 instructions simulated : ctaid=(27,0,0) tid=(41,0,0)
GPGPU-Sim PTX: 3600000 instructions simulated : ctaid=(9,0,0) tid=(489,0,0)
GPGPU-Sim uArch: cycles simulated: 88500  inst.: 3596719 (ipc=40.6) sim_rate=99908 (inst/sec) elapsed = 0:0:00:36 / Tue Mar 22 13:26:35 2016
GPGPU-Sim PTX: 3700000 instructions simulated : ctaid=(15,0,0) tid=(41,0,0)
GPGPU-Sim PTX: 3800000 instructions simulated : ctaid=(37,0,0) tid=(137,0,0)
GPGPU-Sim PTX: 3900000 instructions simulated : ctaid=(20,0,0) tid=(105,0,0)
GPGPU-Sim PTX: 4000000 instructions simulated : ctaid=(17,0,0) tid=(41,0,0)
GPGPU-Sim uArch: cycles simulated: 89500  inst.: 3964623 (ipc=44.3) sim_rate=107151 (inst/sec) elapsed = 0:0:00:37 / Tue Mar 22 13:26:36 2016
GPGPU-Sim PTX: 4100000 instructions simulated : ctaid=(25,0,0) tid=(265,0,0)
GPGPU-Sim PTX: 4200000 instructions simulated : ctaid=(32,0,0) tid=(73,0,0)
GPGPU-Sim PTX: 4300000 instructions simulated : ctaid=(44,0,0) tid=(169,0,0)
GPGPU-Sim uArch: cycles simulated: 90500  inst.: 4339535 (ipc=48.0) sim_rate=114198 (inst/sec) elapsed = 0:0:00:38 / Tue Mar 22 13:26:37 2016
GPGPU-Sim PTX: 4400000 instructions simulated : ctaid=(27,0,0) tid=(9,0,0)
GPGPU-Sim PTX: 4500000 instructions simulated : ctaid=(26,0,0) tid=(489,0,0)
GPGPU-Sim PTX: 4600000 instructions simulated : ctaid=(34,0,0) tid=(329,0,0)
GPGPU-Sim PTX: 4700000 instructions simulated : ctaid=(42,0,0) tid=(457,0,0)
GPGPU-Sim uArch: cycles simulated: 91500  inst.: 4704271 (ipc=51.4) sim_rate=120622 (inst/sec) elapsed = 0:0:00:39 / Tue Mar 22 13:26:38 2016
GPGPU-Sim PTX: 4800000 instructions simulated : ctaid=(39,0,0) tid=(457,0,0)
GPGPU-Sim PTX: 4900000 instructions simulated : ctaid=(24,0,0) tid=(425,0,0)
GPGPU-Sim PTX: 5000000 instructions simulated : ctaid=(14,0,0) tid=(329,0,0)
GPGPU-Sim PTX: 5100000 instructions simulated : ctaid=(21,0,0) tid=(41,0,0)
GPGPU-Sim uArch: cycles simulated: 92500  inst.: 5080815 (ipc=54.9) sim_rate=127020 (inst/sec) elapsed = 0:0:00:40 / Tue Mar 22 13:26:39 2016
GPGPU-Sim PTX: 5200000 instructions simulated : ctaid=(5,0,0) tid=(137,0,0)
GPGPU-Sim PTX: 5300000 instructions simulated : ctaid=(12,0,0) tid=(329,0,0)
GPGPU-Sim uArch: cycles simulated: 93000  inst.: 5267183 (ipc=56.6) sim_rate=128467 (inst/sec) elapsed = 0:0:00:41 / Tue Mar 22 13:26:40 2016
GPGPU-Sim PTX: 5400000 instructions simulated : ctaid=(3,0,0) tid=(201,0,0)
GPGPU-Sim PTX: 5500000 instructions simulated : ctaid=(27,0,0) tid=(265,0,0)
GPGPU-Sim PTX: 5600000 instructions simulated : ctaid=(4,0,0) tid=(425,0,0)
GPGPU-Sim uArch: cycles simulated: 94000  inst.: 5642063 (ipc=60.0) sim_rate=134334 (inst/sec) elapsed = 0:0:00:42 / Tue Mar 22 13:26:41 2016
GPGPU-Sim PTX: 5700000 instructions simulated : ctaid=(10,0,0) tid=(201,0,0)
GPGPU-Sim PTX: 5800000 instructions simulated : ctaid=(12,0,0) tid=(329,0,0)
GPGPU-Sim PTX: 5900000 instructions simulated : ctaid=(34,0,0) tid=(329,0,0)
GPGPU-Sim PTX: 6000000 instructions simulated : ctaid=(0,0,0) tid=(137,0,0)
GPGPU-Sim uArch: cycles simulated: 95000  inst.: 6012047 (ipc=63.3) sim_rate=139815 (inst/sec) elapsed = 0:0:00:43 / Tue Mar 22 13:26:42 2016
GPGPU-Sim PTX: 6100000 instructions simulated : ctaid=(19,0,0) tid=(425,0,0)
GPGPU-Sim PTX: 6200000 instructions simulated : ctaid=(20,0,0) tid=(137,0,0)
GPGPU-Sim PTX: 6300000 instructions simulated : ctaid=(18,0,0) tid=(393,0,0)
GPGPU-Sim PTX: 6400000 instructions simulated : ctaid=(42,0,0) tid=(489,0,0)
GPGPU-Sim uArch: cycles simulated: 96000  inst.: 6384591 (ipc=66.5) sim_rate=145104 (inst/sec) elapsed = 0:0:00:44 / Tue Mar 22 13:26:43 2016
GPGPU-Sim PTX: 6500000 instructions simulated : ctaid=(6,0,0) tid=(169,0,0)
GPGPU-Sim PTX: 6600000 instructions simulated : ctaid=(11,0,0) tid=(137,0,0)
GPGPU-Sim PTX: 6700000 instructions simulated : ctaid=(0,0,0) tid=(105,0,0)
GPGPU-Sim PTX: 6800000 instructions simulated : ctaid=(31,0,0) tid=(201,0,0)
GPGPU-Sim uArch: cycles simulated: 97000  inst.: 6769871 (ipc=69.8) sim_rate=150441 (inst/sec) elapsed = 0:0:00:45 / Tue Mar 22 13:26:44 2016
GPGPU-Sim PTX: 6900000 instructions simulated : ctaid=(42,0,0) tid=(169,0,0)
GPGPU-Sim PTX: 7000000 instructions simulated : ctaid=(15,0,0) tid=(201,0,0)
GPGPU-Sim PTX: 7100000 instructions simulated : ctaid=(44,0,0) tid=(201,0,0)
GPGPU-Sim uArch: cycles simulated: 98000  inst.: 7145199 (ipc=72.9) sim_rate=155330 (inst/sec) elapsed = 0:0:00:46 / Tue Mar 22 13:26:45 2016
GPGPU-Sim PTX: 7200000 instructions simulated : ctaid=(36,0,0) tid=(233,0,0)
GPGPU-Sim PTX: 7300000 instructions simulated : ctaid=(15,0,0) tid=(169,0,0)
GPGPU-Sim uArch: cycles simulated: 98500  inst.: 7335503 (ipc=74.5) sim_rate=156074 (inst/sec) elapsed = 0:0:00:47 / Tue Mar 22 13:26:46 2016
GPGPU-Sim PTX: 7400000 instructions simulated : ctaid=(5,0,0) tid=(297,0,0)
GPGPU-Sim PTX: 7500000 instructions simulated : ctaid=(10,0,0) tid=(393,0,0)
GPGPU-Sim PTX: 7600000 instructions simulated : ctaid=(7,0,0) tid=(297,0,0)
GPGPU-Sim PTX: 7700000 instructions simulated : ctaid=(4,0,0) tid=(297,0,0)
GPGPU-Sim PTX: 7800000 instructions simulated : ctaid=(12,0,0) tid=(73,0,0)
GPGPU-Sim PTX: 7900000 instructions simulated : ctaid=(20,0,0) tid=(9,0,0)
GPGPU-Sim uArch: cycles simulated: 100000  inst.: 7896431 (ipc=79.0) sim_rate=164508 (inst/sec) elapsed = 0:0:00:48 / Tue Mar 22 13:26:47 2016
GPGPU-Sim PTX: 8000000 instructions simulated : ctaid=(20,0,0) tid=(73,0,0)
GPGPU-Sim PTX: 8100000 instructions simulated : ctaid=(0,0,0) tid=(393,0,0)
GPGPU-Sim uArch: cycles simulated: 100500  inst.: 8087567 (ipc=80.5) sim_rate=165052 (inst/sec) elapsed = 0:0:00:49 / Tue Mar 22 13:26:48 2016
GPGPU-Sim PTX: 8200000 instructions simulated : ctaid=(29,0,0) tid=(393,0,0)
GPGPU-Sim PTX: 8300000 instructions simulated : ctaid=(0,0,0) tid=(361,0,0)
GPGPU-Sim PTX: 8400000 instructions simulated : ctaid=(19,0,0) tid=(297,0,0)
GPGPU-Sim PTX: 8500000 instructions simulated : ctaid=(27,0,0) tid=(329,0,0)
GPGPU-Sim uArch: cycles simulated: 101500  inst.: 8461551 (ipc=83.4) sim_rate=169231 (inst/sec) elapsed = 0:0:00:50 / Tue Mar 22 13:26:49 2016
GPGPU-Sim PTX: 8600000 instructions simulated : ctaid=(20,0,0) tid=(41,0,0)
GPGPU-Sim PTX: 8700000 instructions simulated : ctaid=(7,0,0) tid=(169,0,0)
GPGPU-Sim PTX: 8800000 instructions simulated : ctaid=(12,0,0) tid=(265,0,0)
GPGPU-Sim uArch: cycles simulated: 102500  inst.: 8842767 (ipc=86.3) sim_rate=173387 (inst/sec) elapsed = 0:0:00:51 / Tue Mar 22 13:26:50 2016
GPGPU-Sim PTX: 8900000 instructions simulated : ctaid=(18,0,0) tid=(73,0,0)
GPGPU-Sim PTX: 9000000 instructions simulated : ctaid=(28,0,0) tid=(265,0,0)
GPGPU-Sim PTX: 9100000 instructions simulated : ctaid=(30,0,0) tid=(233,0,0)
GPGPU-Sim PTX: 9200000 instructions simulated : ctaid=(3,0,0) tid=(457,0,0)
GPGPU-Sim uArch: cycles simulated: 103500  inst.: 9215631 (ipc=89.0) sim_rate=177223 (inst/sec) elapsed = 0:0:00:52 / Tue Mar 22 13:26:51 2016
GPGPU-Sim PTX: 9300000 instructions simulated : ctaid=(35,0,0) tid=(393,0,0)
GPGPU-Sim PTX: 9400000 instructions simulated : ctaid=(27,0,0) tid=(329,0,0)
GPGPU-Sim PTX: 9500000 instructions simulated : ctaid=(40,0,0) tid=(457,0,0)
GPGPU-Sim PTX: 9600000 instructions simulated : ctaid=(1,0,0) tid=(361,0,0)
GPGPU-Sim uArch: cycles simulated: 104500  inst.: 9590639 (ipc=91.8) sim_rate=180955 (inst/sec) elapsed = 0:0:00:53 / Tue Mar 22 13:26:52 2016
GPGPU-Sim PTX: 9700000 instructions simulated : ctaid=(27,0,0) tid=(329,0,0)
GPGPU-Sim PTX: 9800000 instructions simulated : ctaid=(13,0,0) tid=(169,0,0)
GPGPU-Sim PTX: 9900000 instructions simulated : ctaid=(35,0,0) tid=(329,0,0)
GPGPU-Sim PTX: 10000000 instructions simulated : ctaid=(12,0,0) tid=(137,0,0)
GPGPU-Sim uArch: cycles simulated: 105500  inst.: 9963151 (ipc=94.4) sim_rate=184502 (inst/sec) elapsed = 0:0:00:54 / Tue Mar 22 13:26:53 2016
GPGPU-Sim PTX: 10100000 instructions simulated : ctaid=(13,0,0) tid=(137,0,0)
GPGPU-Sim PTX: 10200000 instructions simulated : ctaid=(8,0,0) tid=(457,0,0)
GPGPU-Sim PTX: 10300000 instructions simulated : ctaid=(6,0,0) tid=(137,0,0)
GPGPU-Sim uArch: cycles simulated: 106500  inst.: 10324783 (ipc=96.9) sim_rate=187723 (inst/sec) elapsed = 0:0:00:55 / Tue Mar 22 13:26:54 2016
GPGPU-Sim PTX: 10400000 instructions simulated : ctaid=(35,0,0) tid=(489,0,0)
GPGPU-Sim PTX: 10500000 instructions simulated : ctaid=(5,0,0) tid=(361,0,0)
GPGPU-Sim PTX: 10600000 instructions simulated : ctaid=(40,0,0) tid=(201,0,0)
GPGPU-Sim PTX: 10700000 instructions simulated : ctaid=(32,0,0) tid=(105,0,0)
GPGPU-Sim uArch: cycles simulated: 107500  inst.: 10700495 (ipc=99.5) sim_rate=191080 (inst/sec) elapsed = 0:0:00:56 / Tue Mar 22 13:26:55 2016
GPGPU-Sim PTX: 10800000 instructions simulated : ctaid=(8,0,0) tid=(105,0,0)
GPGPU-Sim PTX: 10900000 instructions simulated : ctaid=(40,0,0) tid=(361,0,0)
GPGPU-Sim uArch: cycles simulated: 108000  inst.: 10876719 (ipc=100.7) sim_rate=190819 (inst/sec) elapsed = 0:0:00:57 / Tue Mar 22 13:26:56 2016
GPGPU-Sim PTX: 11000000 instructions simulated : ctaid=(2,0,0) tid=(9,0,0)
GPGPU-Sim PTX: 11100000 instructions simulated : ctaid=(34,0,0) tid=(137,0,0)
GPGPU-Sim PTX: 11200000 instructions simulated : ctaid=(10,0,0) tid=(137,0,0)
GPGPU-Sim PTX: 11300000 instructions simulated : ctaid=(19,0,0) tid=(265,0,0)
GPGPU-Sim uArch: cycles simulated: 109000  inst.: 11258671 (ipc=103.3) sim_rate=194115 (inst/sec) elapsed = 0:0:00:58 / Tue Mar 22 13:26:57 2016
GPGPU-Sim PTX: 11400000 instructions simulated : ctaid=(36,0,0) tid=(233,0,0)
GPGPU-Sim PTX: 11500000 instructions simulated : ctaid=(24,0,0) tid=(457,0,0)
GPGPU-Sim PTX: 11600000 instructions simulated : ctaid=(16,0,0) tid=(201,0,0)
GPGPU-Sim uArch: cycles simulated: 110000  inst.: 11618671 (ipc=105.6) sim_rate=196926 (inst/sec) elapsed = 0:0:00:59 / Tue Mar 22 13:26:58 2016
GPGPU-Sim PTX: 11700000 instructions simulated : ctaid=(6,0,0) tid=(9,0,0)
GPGPU-Sim PTX: 11800000 instructions simulated : ctaid=(4,0,0) tid=(297,0,0)
GPGPU-Sim PTX: 11900000 instructions simulated : ctaid=(17,0,0) tid=(169,0,0)
GPGPU-Sim PTX: 12000000 instructions simulated : ctaid=(12,0,0) tid=(169,0,0)
GPGPU-Sim uArch: cycles simulated: 111000  inst.: 11996847 (ipc=108.1) sim_rate=199947 (inst/sec) elapsed = 0:0:01:00 / Tue Mar 22 13:26:59 2016
GPGPU-Sim PTX: 12100000 instructions simulated : ctaid=(40,0,0) tid=(393,0,0)
GPGPU-Sim PTX: 12200000 instructions simulated : ctaid=(15,0,0) tid=(169,0,0)
GPGPU-Sim PTX: 12300000 instructions simulated : ctaid=(15,0,0) tid=(329,0,0)
GPGPU-Sim PTX: 12400000 instructions simulated : ctaid=(35,0,0) tid=(73,0,0)
GPGPU-Sim uArch: cycles simulated: 112000  inst.: 12365711 (ipc=110.4) sim_rate=202716 (inst/sec) elapsed = 0:0:01:01 / Tue Mar 22 13:27:00 2016
GPGPU-Sim PTX: 12500000 instructions simulated : ctaid=(17,0,0) tid=(73,0,0)
GPGPU-Sim PTX: 12600000 instructions simulated : ctaid=(32,0,0) tid=(169,0,0)
GPGPU-Sim PTX: 12700000 instructions simulated : ctaid=(24,0,0) tid=(265,0,0)
GPGPU-Sim uArch: cycles simulated: 113000  inst.: 12721071 (ipc=112.6) sim_rate=205178 (inst/sec) elapsed = 0:0:01:02 / Tue Mar 22 13:27:01 2016
GPGPU-Sim PTX: 12800000 instructions simulated : ctaid=(6,0,0) tid=(9,0,0)
GPGPU-Sim PTX: 12900000 instructions simulated : ctaid=(23,0,0) tid=(137,0,0)
GPGPU-Sim PTX: 13000000 instructions simulated : ctaid=(17,0,0) tid=(425,0,0)
GPGPU-Sim PTX: 13100000 instructions simulated : ctaid=(15,0,0) tid=(137,0,0)
GPGPU-Sim uArch: cycles simulated: 114000  inst.: 13093871 (ipc=114.9) sim_rate=207839 (inst/sec) elapsed = 0:0:01:03 / Tue Mar 22 13:27:02 2016
GPGPU-Sim PTX: 13200000 instructions simulated : ctaid=(25,0,0) tid=(393,0,0)
GPGPU-Sim PTX: 13300000 instructions simulated : ctaid=(31,0,0) tid=(329,0,0)
GPGPU-Sim uArch: cycles simulated: 114500  inst.: 13279311 (ipc=116.0) sim_rate=207489 (inst/sec) elapsed = 0:0:01:04 / Tue Mar 22 13:27:03 2016
GPGPU-Sim PTX: 13400000 instructions simulated : ctaid=(32,0,0) tid=(457,0,0)
GPGPU-Sim PTX: 13500000 instructions simulated : ctaid=(42,0,0) tid=(9,0,0)
GPGPU-Sim PTX: 13600000 instructions simulated : ctaid=(22,0,0) tid=(265,0,0)
GPGPU-Sim PTX: 13700000 instructions simulated : ctaid=(8,0,0) tid=(73,0,0)
GPGPU-Sim uArch: cycles simulated: 115500  inst.: 13656559 (ipc=118.2) sim_rate=210100 (inst/sec) elapsed = 0:0:01:05 / Tue Mar 22 13:27:04 2016
GPGPU-Sim PTX: 13800000 instructions simulated : ctaid=(42,0,0) tid=(201,0,0)
GPGPU-Sim PTX: 13900000 instructions simulated : ctaid=(42,0,0) tid=(393,0,0)
GPGPU-Sim PTX: 14000000 instructions simulated : ctaid=(19,0,0) tid=(169,0,0)
GPGPU-Sim uArch: cycles simulated: 116500  inst.: 14035951 (ipc=120.5) sim_rate=212665 (inst/sec) elapsed = 0:0:01:06 / Tue Mar 22 13:27:05 2016
GPGPU-Sim PTX: 14100000 instructions simulated : ctaid=(28,0,0) tid=(297,0,0)
GPGPU-Sim PTX: 14200000 instructions simulated : ctaid=(3,0,0) tid=(297,0,0)
GPGPU-Sim PTX: 14300000 instructions simulated : ctaid=(43,0,0) tid=(265,0,0)
GPGPU-Sim PTX: 14400000 instructions simulated : ctaid=(1,0,0) tid=(73,0,0)
GPGPU-Sim uArch: cycles simulated: 117500  inst.: 14406959 (ipc=122.6) sim_rate=215029 (inst/sec) elapsed = 0:0:01:07 / Tue Mar 22 13:27:06 2016
GPGPU-Sim PTX: 14500000 instructions simulated : ctaid=(34,0,0) tid=(9,0,0)
GPGPU-Sim PTX: 14600000 instructions simulated : ctaid=(20,0,0) tid=(137,0,0)
GPGPU-Sim PTX: 14700000 instructions simulated : ctaid=(38,0,0) tid=(233,0,0)
GPGPU-Sim PTX: 14800000 instructions simulated : ctaid=(38,0,0) tid=(41,0,0)
GPGPU-Sim uArch: cycles simulated: 118500  inst.: 14790607 (ipc=124.8) sim_rate=217508 (inst/sec) elapsed = 0:0:01:08 / Tue Mar 22 13:27:07 2016
GPGPU-Sim PTX: 14900000 instructions simulated : ctaid=(35,0,0) tid=(329,0,0)
GPGPU-Sim PTX: 15000000 instructions simulated : ctaid=(33,0,0) tid=(265,0,0)
GPGPU-Sim uArch: cycles simulated: 119000  inst.: 14978063 (ipc=125.9) sim_rate=217073 (inst/sec) elapsed = 0:0:01:09 / Tue Mar 22 13:27:08 2016
GPGPU-Sim PTX: 15100000 instructions simulated : ctaid=(13,0,0) tid=(201,0,0)
GPGPU-Sim PTX: 15200000 instructions simulated : ctaid=(0,0,0) tid=(169,0,0)
GPGPU-Sim PTX: 15300000 instructions simulated : ctaid=(34,0,0) tid=(393,0,0)
GPGPU-Sim uArch: cycles simulated: 120000  inst.: 15347119 (ipc=127.9) sim_rate=219244 (inst/sec) elapsed = 0:0:01:10 / Tue Mar 22 13:27:09 2016
GPGPU-Sim PTX: 15400000 instructions simulated : ctaid=(38,0,0) tid=(329,0,0)
GPGPU-Sim PTX: 15500000 instructions simulated : ctaid=(25,0,0) tid=(9,0,0)
GPGPU-Sim PTX: 15600000 instructions simulated : ctaid=(41,0,0) tid=(137,0,0)
GPGPU-Sim PTX: 15700000 instructions simulated : ctaid=(23,0,0) tid=(393,0,0)
GPGPU-Sim uArch: cycles simulated: 121000  inst.: 15721935 (ipc=129.9) sim_rate=221435 (inst/sec) elapsed = 0:0:01:11 / Tue Mar 22 13:27:10 2016
GPGPU-Sim PTX: 15800000 instructions simulated : ctaid=(44,0,0) tid=(201,0,0)
GPGPU-Sim PTX: 15900000 instructions simulated : ctaid=(13,0,0) tid=(41,0,0)
GPGPU-Sim PTX: 16000000 instructions simulated : ctaid=(29,0,0) tid=(73,0,0)
GPGPU-Sim PTX: 16100000 instructions simulated : ctaid=(18,0,0) tid=(201,0,0)
GPGPU-Sim uArch: cycles simulated: 122000  inst.: 16112335 (ipc=132.1) sim_rate=223782 (inst/sec) elapsed = 0:0:01:12 / Tue Mar 22 13:27:11 2016
GPGPU-Sim PTX: 16200000 instructions simulated : ctaid=(9,0,0) tid=(41,0,0)
GPGPU-Sim PTX: 16300000 instructions simulated : ctaid=(43,0,0) tid=(137,0,0)
GPGPU-Sim PTX: 16400000 instructions simulated : ctaid=(27,0,0) tid=(425,0,0)
GPGPU-Sim PTX: 16500000 instructions simulated : ctaid=(15,0,0) tid=(41,0,0)
GPGPU-Sim uArch: cycles simulated: 123000  inst.: 16485007 (ipc=134.0) sim_rate=225822 (inst/sec) elapsed = 0:0:01:13 / Tue Mar 22 13:27:12 2016
GPGPU-Sim PTX: 16600000 instructions simulated : ctaid=(14,0,0) tid=(201,0,0)
GPGPU-Sim PTX: 16700000 instructions simulated : ctaid=(13,0,0) tid=(297,0,0)
GPGPU-Sim uArch: cycles simulated: 123500  inst.: 16673391 (ipc=135.0) sim_rate=225316 (inst/sec) elapsed = 0:0:01:14 / Tue Mar 22 13:27:13 2016
GPGPU-Sim PTX: 16800000 instructions simulated : ctaid=(40,0,0) tid=(169,0,0)
GPGPU-Sim PTX: 16900000 instructions simulated : ctaid=(39,0,0) tid=(425,0,0)
GPGPU-Sim PTX: 17000000 instructions simulated : ctaid=(13,0,0) tid=(233,0,0)
GPGPU-Sim uArch: cycles simulated: 124500  inst.: 17050863 (ipc=137.0) sim_rate=227344 (inst/sec) elapsed = 0:0:01:15 / Tue Mar 22 13:27:14 2016
GPGPU-Sim PTX: 17100000 instructions simulated : ctaid=(35,0,0) tid=(105,0,0)
GPGPU-Sim PTX: 17200000 instructions simulated : ctaid=(12,0,0) tid=(329,0,0)
GPGPU-Sim PTX: 17300000 instructions simulated : ctaid=(27,0,0) tid=(393,0,0)
GPGPU-Sim PTX: 17400000 instructions simulated : ctaid=(37,0,0) tid=(73,0,0)
GPGPU-Sim uArch: cycles simulated: 125500  inst.: 17432239 (ipc=138.9) sim_rate=229371 (inst/sec) elapsed = 0:0:01:16 / Tue Mar 22 13:27:15 2016
GPGPU-Sim PTX: 17500000 instructions simulated : ctaid=(4,0,0) tid=(9,0,0)
GPGPU-Sim PTX: 17600000 instructions simulated : ctaid=(5,0,0) tid=(265,0,0)
GPGPU-Sim PTX: 17700000 instructions simulated : ctaid=(37,0,0) tid=(425,0,0)
GPGPU-Sim PTX: 17800000 instructions simulated : ctaid=(32,0,0) tid=(489,0,0)
GPGPU-Sim uArch: cycles simulated: 126500  inst.: 17795503 (ipc=140.7) sim_rate=231110 (inst/sec) elapsed = 0:0:01:17 / Tue Mar 22 13:27:16 2016
GPGPU-Sim PTX: 17900000 instructions simulated : ctaid=(14,0,0) tid=(137,0,0)
GPGPU-Sim PTX: 18000000 instructions simulated : ctaid=(5,0,0) tid=(201,0,0)
GPGPU-Sim PTX: 18100000 instructions simulated : ctaid=(39,0,0) tid=(393,0,0)
GPGPU-Sim PTX: 18200000 instructions simulated : ctaid=(39,0,0) tid=(169,0,0)
GPGPU-Sim uArch: cycles simulated: 127500  inst.: 18178415 (ipc=142.6) sim_rate=233056 (inst/sec) elapsed = 0:0:01:18 / Tue Mar 22 13:27:17 2016
GPGPU-Sim PTX: 18300000 instructions simulated : ctaid=(7,0,0) tid=(393,0,0)
GPGPU-Sim PTX: 18400000 instructions simulated : ctaid=(27,0,0) tid=(329,0,0)
GPGPU-Sim uArch: cycles simulated: 128000  inst.: 18369135 (ipc=143.5) sim_rate=232520 (inst/sec) elapsed = 0:0:01:19 / Tue Mar 22 13:27:18 2016
GPGPU-Sim PTX: 18500000 instructions simulated : ctaid=(5,0,0) tid=(329,0,0)
GPGPU-Sim PTX: 18600000 instructions simulated : ctaid=(26,0,0) tid=(265,0,0)
GPGPU-Sim PTX: 18700000 instructions simulated : ctaid=(24,0,0) tid=(425,0,0)
GPGPU-Sim uArch: cycles simulated: 129000  inst.: 18733711 (ipc=145.2) sim_rate=234171 (inst/sec) elapsed = 0:0:01:20 / Tue Mar 22 13:27:19 2016
GPGPU-Sim PTX: 18800000 instructions simulated : ctaid=(20,0,0) tid=(361,0,0)
GPGPU-Sim PTX: 18900000 instructions simulated : ctaid=(33,0,0) tid=(9,0,0)
GPGPU-Sim PTX: 19000000 instructions simulated : ctaid=(35,0,0) tid=(73,0,0)
GPGPU-Sim PTX: 19100000 instructions simulated : ctaid=(24,0,0) tid=(297,0,0)
GPGPU-Sim uArch: cycles simulated: 130000  inst.: 19116111 (ipc=147.0) sim_rate=236001 (inst/sec) elapsed = 0:0:01:21 / Tue Mar 22 13:27:20 2016
GPGPU-Sim PTX: 19200000 instructions simulated : ctaid=(42,0,0) tid=(73,0,0)
GPGPU-Sim PTX: 19300000 instructions simulated : ctaid=(31,0,0) tid=(137,0,0)
GPGPU-Sim PTX: 19400000 instructions simulated : ctaid=(9,0,0) tid=(425,0,0)
GPGPU-Sim PTX: 19500000 instructions simulated : ctaid=(35,0,0) tid=(201,0,0)
GPGPU-Sim uArch: cycles simulated: 131000  inst.: 19494063 (ipc=148.8) sim_rate=237732 (inst/sec) elapsed = 0:0:01:22 / Tue Mar 22 13:27:21 2016
GPGPU-Sim PTX: 19600000 instructions simulated : ctaid=(20,0,0) tid=(137,0,0)
GPGPU-Sim PTX: 19700000 instructions simulated : ctaid=(0,0,0) tid=(169,0,0)
GPGPU-Sim PTX: 19800000 instructions simulated : ctaid=(35,0,0) tid=(9,0,0)
GPGPU-Sim PTX: 19900000 instructions simulated : ctaid=(25,0,0) tid=(9,0,0)
GPGPU-Sim uArch: cycles simulated: 132000  inst.: 19883311 (ipc=150.6) sim_rate=239557 (inst/sec) elapsed = 0:0:01:23 / Tue Mar 22 13:27:22 2016
GPGPU-Sim PTX: 20000000 instructions simulated : ctaid=(0,0,0) tid=(297,0,0)
GPGPU-Sim PTX: 20100000 instructions simulated : ctaid=(29,0,0) tid=(393,0,0)
GPGPU-Sim uArch: cycles simulated: 132500  inst.: 20067503 (ipc=151.5) sim_rate=238898 (inst/sec) elapsed = 0:0:01:24 / Tue Mar 22 13:27:23 2016
GPGPU-Sim PTX: 20200000 instructions simulated : ctaid=(10,0,0) tid=(201,0,0)
GPGPU-Sim PTX: 20300000 instructions simulated : ctaid=(34,0,0) tid=(265,0,0)
GPGPU-Sim PTX: 20400000 instructions simulated : ctaid=(24,0,0) tid=(489,0,0)
GPGPU-Sim uArch: cycles simulated: 133500  inst.: 20438959 (ipc=153.1) sim_rate=240458 (inst/sec) elapsed = 0:0:01:25 / Tue Mar 22 13:27:24 2016
GPGPU-Sim PTX: 20500000 instructions simulated : ctaid=(44,0,0) tid=(489,0,0)
GPGPU-Sim PTX: 20600000 instructions simulated : ctaid=(39,0,0) tid=(201,0,0)
GPGPU-Sim PTX: 20700000 instructions simulated : ctaid=(40,0,0) tid=(9,0,0)
GPGPU-Sim PTX: 20800000 instructions simulated : ctaid=(2,0,0) tid=(9,0,0)
GPGPU-Sim uArch: cycles simulated: 134500  inst.: 20802543 (ipc=154.7) sim_rate=241890 (inst/sec) elapsed = 0:0:01:26 / Tue Mar 22 13:27:25 2016
GPGPU-Sim PTX: 20900000 instructions simulated : ctaid=(1,0,0) tid=(265,0,0)
GPGPU-Sim PTX: 21000000 instructions simulated : ctaid=(24,0,0) tid=(73,0,0)
GPGPU-Sim PTX: 21100000 instructions simulated : ctaid=(31,0,0) tid=(41,0,0)
GPGPU-Sim PTX: 21200000 instructions simulated : ctaid=(5,0,0) tid=(73,0,0)
GPGPU-Sim uArch: cycles simulated: 135500  inst.: 21179503 (ipc=156.3) sim_rate=243442 (inst/sec) elapsed = 0:0:01:27 / Tue Mar 22 13:27:26 2016
GPGPU-Sim PTX: 21300000 instructions simulated : ctaid=(15,0,0) tid=(425,0,0)
GPGPU-Sim PTX: 21400000 instructions simulated : ctaid=(20,0,0) tid=(41,0,0)
GPGPU-Sim PTX: 21500000 instructions simulated : ctaid=(41,0,0) tid=(393,0,0)
GPGPU-Sim uArch: cycles simulated: 136500  inst.: 21555247 (ipc=157.9) sim_rate=244945 (inst/sec) elapsed = 0:0:01:28 / Tue Mar 22 13:27:27 2016
GPGPU-Sim PTX: 21600000 instructions simulated : ctaid=(1,0,0) tid=(329,0,0)
GPGPU-Sim PTX: 21700000 instructions simulated : ctaid=(16,0,0) tid=(393,0,0)
GPGPU-Sim uArch: cycles simulated: 137000  inst.: 21747279 (ipc=158.7) sim_rate=244351 (inst/sec) elapsed = 0:0:01:29 / Tue Mar 22 13:27:28 2016
GPGPU-Sim PTX: 21800000 instructions simulated : ctaid=(29,0,0) tid=(233,0,0)
GPGPU-Sim PTX: 21900000 instructions simulated : ctaid=(3,0,0) tid=(329,0,0)
GPGPU-Sim PTX: 22000000 instructions simulated : ctaid=(22,0,0) tid=(425,0,0)
GPGPU-Sim PTX: 22100000 instructions simulated : ctaid=(29,0,0) tid=(73,0,0)
GPGPU-Sim uArch: cycles simulated: 138000  inst.: 22136271 (ipc=160.4) sim_rate=245958 (inst/sec) elapsed = 0:0:01:30 / Tue Mar 22 13:27:29 2016
GPGPU-Sim PTX: 22200000 instructions simulated : ctaid=(20,0,0) tid=(9,0,0)
GPGPU-Sim PTX: 22300000 instructions simulated : ctaid=(12,0,0) tid=(137,0,0)
GPGPU-Sim PTX: 22400000 instructions simulated : ctaid=(12,0,0) tid=(9,0,0)
GPGPU-Sim PTX: 22500000 instructions simulated : ctaid=(42,0,0) tid=(233,0,0)
GPGPU-Sim uArch: cycles simulated: 139000  inst.: 22514767 (ipc=162.0) sim_rate=247415 (inst/sec) elapsed = 0:0:01:31 / Tue Mar 22 13:27:30 2016
GPGPU-Sim PTX: 22600000 instructions simulated : ctaid=(17,0,0) tid=(233,0,0)
GPGPU-Sim PTX: 22700000 instructions simulated : ctaid=(28,0,0) tid=(297,0,0)
GPGPU-Sim PTX: 22800000 instructions simulated : ctaid=(38,0,0) tid=(137,0,0)
GPGPU-Sim PTX: 22900000 instructions simulated : ctaid=(41,0,0) tid=(425,0,0)
GPGPU-Sim uArch: cycles simulated: 140000  inst.: 22887407 (ipc=163.5) sim_rate=248776 (inst/sec) elapsed = 0:0:01:32 / Tue Mar 22 13:27:31 2016
GPGPU-Sim PTX: 23000000 instructions simulated : ctaid=(6,0,0) tid=(137,0,0)
GPGPU-Sim PTX: 23100000 instructions simulated : ctaid=(26,0,0) tid=(41,0,0)
GPGPU-Sim PTX: 23200000 instructions simulated : ctaid=(8,0,0) tid=(169,0,0)
GPGPU-Sim PTX: 23300000 instructions simulated : ctaid=(12,0,0) tid=(73,0,0)
GPGPU-Sim uArch: cycles simulated: 141000  inst.: 23271279 (ipc=165.0) sim_rate=250228 (inst/sec) elapsed = 0:0:01:33 / Tue Mar 22 13:27:32 2016
GPGPU-Sim PTX: 23400000 instructions simulated : ctaid=(37,0,0) tid=(169,0,0)
GPGPU-Sim PTX: 23500000 instructions simulated : ctaid=(3,0,0) tid=(105,0,0)
GPGPU-Sim PTX: 23600000 instructions simulated : ctaid=(27,0,0) tid=(457,0,0)
GPGPU-Sim uArch: cycles simulated: 142000  inst.: 23651599 (ipc=166.6) sim_rate=251612 (inst/sec) elapsed = 0:0:01:34 / Tue Mar 22 13:27:33 2016
GPGPU-Sim PTX: 23700000 instructions simulated : ctaid=(16,0,0) tid=(329,0,0)
GPGPU-Sim PTX: 23800000 instructions simulated : ctaid=(13,0,0) tid=(73,0,0)
GPGPU-Sim PTX: 23900000 instructions simulated : ctaid=(39,0,0) tid=(137,0,0)
GPGPU-Sim PTX: 24000000 instructions simulated : ctaid=(5,0,0) tid=(201,0,0)
GPGPU-Sim uArch: cycles simulated: 143000  inst.: 24036207 (ipc=168.1) sim_rate=253012 (inst/sec) elapsed = 0:0:01:35 / Tue Mar 22 13:27:34 2016
GPGPU-Sim PTX: 24100000 instructions simulated : ctaid=(1,0,0) tid=(73,0,0)
GPGPU-Sim PTX: 24200000 instructions simulated : ctaid=(19,0,0) tid=(393,0,0)
GPGPU-Sim uArch: cycles simulated: 143500  inst.: 24227439 (ipc=168.8) sim_rate=252369 (inst/sec) elapsed = 0:0:01:36 / Tue Mar 22 13:27:35 2016
GPGPU-Sim PTX: 24300000 instructions simulated : ctaid=(44,0,0) tid=(297,0,0)
GPGPU-Sim PTX: 24400000 instructions simulated : ctaid=(31,0,0) tid=(457,0,0)
GPGPU-Sim PTX: 24500000 instructions simulated : ctaid=(32,0,0) tid=(489,0,0)
GPGPU-Sim PTX: 24600000 instructions simulated : ctaid=(39,0,0) tid=(265,0,0)
GPGPU-Sim uArch: cycles simulated: 144500  inst.: 24606639 (ipc=170.3) sim_rate=253676 (inst/sec) elapsed = 0:0:01:37 / Tue Mar 22 13:27:36 2016
GPGPU-Sim PTX: 24700000 instructions simulated : ctaid=(37,0,0) tid=(361,0,0)
GPGPU-Sim PTX: 24800000 instructions simulated : ctaid=(30,0,0) tid=(105,0,0)
GPGPU-Sim PTX: 24900000 instructions simulated : ctaid=(15,0,0) tid=(393,0,0)
GPGPU-Sim PTX: 25000000 instructions simulated : ctaid=(19,0,0) tid=(41,0,0)
GPGPU-Sim uArch: cycles simulated: 145500  inst.: 24976911 (ipc=171.7) sim_rate=254866 (inst/sec) elapsed = 0:0:01:38 / Tue Mar 22 13:27:37 2016
GPGPU-Sim PTX: 25100000 instructions simulated : ctaid=(16,0,0) tid=(393,0,0)
GPGPU-Sim PTX: 25200000 instructions simulated : ctaid=(3,0,0) tid=(329,0,0)
GPGPU-Sim PTX: 25300000 instructions simulated : ctaid=(1,0,0) tid=(9,0,0)
GPGPU-Sim PTX: 25400000 instructions simulated : ctaid=(1,0,0) tid=(169,0,0)
GPGPU-Sim uArch: cycles simulated: 146500  inst.: 25357519 (ipc=173.1) sim_rate=256136 (inst/sec) elapsed = 0:0:01:39 / Tue Mar 22 13:27:38 2016
GPGPU-Sim PTX: 25500000 instructions simulated : ctaid=(42,0,0) tid=(201,0,0)
GPGPU-Sim PTX: 25600000 instructions simulated : ctaid=(10,0,0) tid=(169,0,0)
GPGPU-Sim PTX: 25700000 instructions simulated : ctaid=(6,0,0) tid=(329,0,0)
GPGPU-Sim uArch: cycles simulated: 147500  inst.: 25733167 (ipc=174.5) sim_rate=257331 (inst/sec) elapsed = 0:0:01:40 / Tue Mar 22 13:27:39 2016
GPGPU-Sim PTX: 25800000 instructions simulated : ctaid=(22,0,0) tid=(425,0,0)
GPGPU-Sim PTX: 25900000 instructions simulated : ctaid=(18,0,0) tid=(329,0,0)
GPGPU-Sim uArch: cycles simulated: 148000  inst.: 25924687 (ipc=175.2) sim_rate=256680 (inst/sec) elapsed = 0:0:01:41 / Tue Mar 22 13:27:40 2016
GPGPU-Sim PTX: 26000000 instructions simulated : ctaid=(39,0,0) tid=(297,0,0)
GPGPU-Sim PTX: 26100000 instructions simulated : ctaid=(37,0,0) tid=(457,0,0)
GPGPU-Sim PTX: 26200000 instructions simulated : ctaid=(24,0,0) tid=(201,0,0)
GPGPU-Sim PTX: 26300000 instructions simulated : ctaid=(1,0,0) tid=(201,0,0)
GPGPU-Sim uArch: cycles simulated: 149000  inst.: 26307951 (ipc=176.6) sim_rate=257921 (inst/sec) elapsed = 0:0:01:42 / Tue Mar 22 13:27:41 2016
GPGPU-Sim PTX: 26400000 instructions simulated : ctaid=(7,0,0) tid=(169,0,0)
GPGPU-Sim PTX: 26500000 instructions simulated : ctaid=(21,0,0) tid=(457,0,0)
GPGPU-Sim PTX: 26600000 instructions simulated : ctaid=(4,0,0) tid=(41,0,0)
GPGPU-Sim PTX: 26700000 instructions simulated : ctaid=(29,0,0) tid=(489,0,0)
GPGPU-Sim uArch: cycles simulated: 150000  inst.: 26681487 (ipc=177.9) sim_rate=259043 (inst/sec) elapsed = 0:0:01:43 / Tue Mar 22 13:27:42 2016
GPGPU-Sim PTX: 26800000 instructions simulated : ctaid=(25,0,0) tid=(425,0,0)
GPGPU-Sim PTX: 26900000 instructions simulated : ctaid=(8,0,0) tid=(137,0,0)
GPGPU-Sim PTX: 27000000 instructions simulated : ctaid=(42,0,0) tid=(489,0,0)
GPGPU-Sim PTX: 27100000 instructions simulated : ctaid=(38,0,0) tid=(265,0,0)
GPGPU-Sim PTX: 27200000 instructions simulated : ctaid=(13,0,0) tid=(329,0,0)
GPGPU-Sim uArch: cycles simulated: 151500  inst.: 27221007 (ipc=179.7) sim_rate=261740 (inst/sec) elapsed = 0:0:01:44 / Tue Mar 22 13:27:43 2016
GPGPU-Sim PTX: 27300000 instructions simulated : ctaid=(23,0,0) tid=(361,0,0)
GPGPU-Sim PTX: 27400000 instructions simulated : ctaid=(36,0,0) tid=(393,0,0)
GPGPU-Sim uArch: cycles simulated: 152000  inst.: 27402255 (ipc=180.3) sim_rate=260973 (inst/sec) elapsed = 0:0:01:45 / Tue Mar 22 13:27:44 2016
GPGPU-Sim PTX: 27500000 instructions simulated : ctaid=(42,0,0) tid=(393,0,0)
GPGPU-Sim PTX: 27600000 instructions simulated : ctaid=(3,0,0) tid=(361,0,0)
GPGPU-Sim PTX: 27700000 instructions simulated : ctaid=(28,0,0) tid=(457,0,0)
GPGPU-Sim PTX: 27800000 instructions simulated : ctaid=(24,0,0) tid=(73,0,0)
GPGPU-Sim uArch: cycles simulated: 153000  inst.: 27778735 (ipc=181.6) sim_rate=262063 (inst/sec) elapsed = 0:0:01:46 / Tue Mar 22 13:27:45 2016
GPGPU-Sim PTX: 27900000 instructions simulated : ctaid=(26,0,0) tid=(73,0,0)
GPGPU-Sim PTX: 28000000 instructions simulated : ctaid=(0,0,0) tid=(201,0,0)
GPGPU-Sim PTX: 28100000 instructions simulated : ctaid=(37,0,0) tid=(9,0,0)
GPGPU-Sim uArch: cycles simulated: 154000  inst.: 28143919 (ipc=182.8) sim_rate=263027 (inst/sec) elapsed = 0:0:01:47 / Tue Mar 22 13:27:46 2016
GPGPU-Sim PTX: 28200000 instructions simulated : ctaid=(27,0,0) tid=(9,0,0)
GPGPU-Sim PTX: 28300000 instructions simulated : ctaid=(12,0,0) tid=(201,0,0)
GPGPU-Sim PTX: 28400000 instructions simulated : ctaid=(11,0,0) tid=(9,0,0)
GPGPU-Sim PTX: 28500000 instructions simulated : ctaid=(13,0,0) tid=(265,0,0)
GPGPU-Sim uArch: cycles simulated: 155000  inst.: 28504815 (ipc=183.9) sim_rate=263933 (inst/sec) elapsed = 0:0:01:48 / Tue Mar 22 13:27:47 2016
GPGPU-Sim PTX: 28600000 instructions simulated : ctaid=(1,0,0) tid=(361,0,0)
GPGPU-Sim PTX: 28700000 instructions simulated : ctaid=(33,0,0) tid=(489,0,0)
GPGPU-Sim PTX: 28800000 instructions simulated : ctaid=(16,0,0) tid=(329,0,0)
GPGPU-Sim PTX: 28900000 instructions simulated : ctaid=(21,0,0) tid=(329,0,0)
GPGPU-Sim uArch: cycles simulated: 156000  inst.: 28878863 (ipc=185.1) sim_rate=264943 (inst/sec) elapsed = 0:0:01:49 / Tue Mar 22 13:27:48 2016
GPGPU-Sim PTX: 29000000 instructions simulated : ctaid=(15,0,0) tid=(73,0,0)
GPGPU-Sim PTX: 29100000 instructions simulated : ctaid=(0,0,0) tid=(201,0,0)
GPGPU-Sim PTX: 29200000 instructions simulated : ctaid=(0,0,0) tid=(105,0,0)
GPGPU-Sim uArch: cycles simulated: 157000  inst.: 29236559 (ipc=186.2) sim_rate=265786 (inst/sec) elapsed = 0:0:01:50 / Tue Mar 22 13:27:49 2016
GPGPU-Sim PTX: 29300000 instructions simulated : ctaid=(24,0,0) tid=(457,0,0)
GPGPU-Sim PTX: 29400000 instructions simulated : ctaid=(29,0,0) tid=(201,0,0)
GPGPU-Sim PTX: 29500000 instructions simulated : ctaid=(32,0,0) tid=(41,0,0)
GPGPU-Sim PTX: 29600000 instructions simulated : ctaid=(23,0,0) tid=(233,0,0)
GPGPU-Sim uArch: cycles simulated: 158000  inst.: 29607983 (ipc=187.4) sim_rate=266738 (inst/sec) elapsed = 0:0:01:51 / Tue Mar 22 13:27:50 2016
GPGPU-Sim PTX: 29700000 instructions simulated : ctaid=(11,0,0) tid=(457,0,0)
GPGPU-Sim PTX: 29800000 instructions simulated : ctaid=(17,0,0) tid=(489,0,0)
GPGPU-Sim PTX: 29900000 instructions simulated : ctaid=(5,0,0) tid=(9,0,0)
GPGPU-Sim PTX: 30000000 instructions simulated : ctaid=(8,0,0) tid=(233,0,0)
GPGPU-Sim uArch: cycles simulated: 159000  inst.: 29993871 (ipc=188.6) sim_rate=267802 (inst/sec) elapsed = 0:0:01:52 / Tue Mar 22 13:27:51 2016
GPGPU-Sim PTX: 30100000 instructions simulated : ctaid=(44,0,0) tid=(73,0,0)
GPGPU-Sim PTX: 30200000 instructions simulated : ctaid=(21,0,0) tid=(201,0,0)
GPGPU-Sim uArch: cycles simulated: 159500  inst.: 30183375 (ipc=189.2) sim_rate=267109 (inst/sec) elapsed = 0:0:01:53 / Tue Mar 22 13:27:52 2016
GPGPU-Sim PTX: 30300000 instructions simulated : ctaid=(6,0,0) tid=(265,0,0)
GPGPU-Sim PTX: 30400000 instructions simulated : ctaid=(27,0,0) tid=(329,0,0)
GPGPU-Sim PTX: 30500000 instructions simulated : ctaid=(43,0,0) tid=(201,0,0)
GPGPU-Sim PTX: 30600000 instructions simulated : ctaid=(7,0,0) tid=(297,0,0)
GPGPU-Sim uArch: cycles simulated: 160500  inst.: 30557711 (ipc=190.4) sim_rate=268050 (inst/sec) elapsed = 0:0:01:54 / Tue Mar 22 13:27:53 2016
GPGPU-Sim PTX: 30700000 instructions simulated : ctaid=(20,0,0) tid=(169,0,0)
GPGPU-Sim PTX: 30800000 instructions simulated : ctaid=(9,0,0) tid=(457,0,0)
GPGPU-Sim PTX: 30900000 instructions simulated : ctaid=(18,0,0) tid=(457,0,0)
GPGPU-Sim uArch: cycles simulated: 161500  inst.: 30931695 (ipc=191.5) sim_rate=268971 (inst/sec) elapsed = 0:0:01:55 / Tue Mar 22 13:27:54 2016
GPGPU-Sim PTX: 31000000 instructions simulated : ctaid=(2,0,0) tid=(137,0,0)
GPGPU-Sim PTX: 31100000 instructions simulated : ctaid=(32,0,0) tid=(169,0,0)
GPGPU-Sim PTX: 31200000 instructions simulated : ctaid=(23,0,0) tid=(265,0,0)
GPGPU-Sim PTX: 31300000 instructions simulated : ctaid=(2,0,0) tid=(457,0,0)
GPGPU-Sim uArch: cycles simulated: 162500  inst.: 31307727 (ipc=192.7) sim_rate=269894 (inst/sec) elapsed = 0:0:01:56 / Tue Mar 22 13:27:55 2016
GPGPU-Sim PTX: 31400000 instructions simulated : ctaid=(4,0,0) tid=(297,0,0)
GPGPU-Sim PTX: 31500000 instructions simulated : ctaid=(32,0,0) tid=(201,0,0)
GPGPU-Sim PTX: 31600000 instructions simulated : ctaid=(7,0,0) tid=(201,0,0)
GPGPU-Sim PTX: 31700000 instructions simulated : ctaid=(14,0,0) tid=(233,0,0)
GPGPU-Sim uArch: cycles simulated: 163500  inst.: 31680911 (ipc=193.8) sim_rate=270777 (inst/sec) elapsed = 0:0:01:57 / Tue Mar 22 13:27:56 2016
GPGPU-Sim PTX: 31800000 instructions simulated : ctaid=(44,0,0) tid=(105,0,0)
GPGPU-Sim PTX: 31900000 instructions simulated : ctaid=(35,0,0) tid=(41,0,0)
GPGPU-Sim PTX: 32000000 instructions simulated : ctaid=(21,0,0) tid=(329,0,0)
GPGPU-Sim uArch: cycles simulated: 164500  inst.: 32050767 (ipc=194.8) sim_rate=271616 (inst/sec) elapsed = 0:0:01:58 / Tue Mar 22 13:27:57 2016
GPGPU-Sim PTX: 32100000 instructions simulated : ctaid=(17,0,0) tid=(425,0,0)
GPGPU-Sim PTX: 32200000 instructions simulated : ctaid=(43,0,0) tid=(233,0,0)
GPGPU-Sim PTX: 32300000 instructions simulated : ctaid=(7,0,0) tid=(201,0,0)
GPGPU-Sim PTX: 32400000 instructions simulated : ctaid=(27,0,0) tid=(297,0,0)
GPGPU-Sim uArch: cycles simulated: 165500  inst.: 32420559 (ipc=195.9) sim_rate=272441 (inst/sec) elapsed = 0:0:01:59 / Tue Mar 22 13:27:58 2016
GPGPU-Sim PTX: 32500000 instructions simulated : ctaid=(26,0,0) tid=(297,0,0)
GPGPU-Sim PTX: 32600000 instructions simulated : ctaid=(21,0,0) tid=(265,0,0)
GPGPU-Sim uArch: cycles simulated: 166000  inst.: 32614159 (ipc=196.5) sim_rate=271784 (inst/sec) elapsed = 0:0:02:00 / Tue Mar 22 13:27:59 2016
GPGPU-Sim PTX: 32700000 instructions simulated : ctaid=(40,0,0) tid=(393,0,0)
GPGPU-Sim PTX: 32800000 instructions simulated : ctaid=(44,0,0) tid=(105,0,0)
GPGPU-Sim PTX: 32900000 instructions simulated : ctaid=(33,0,0) tid=(265,0,0)
GPGPU-Sim PTX: 33000000 instructions simulated : ctaid=(38,0,0) tid=(489,0,0)
GPGPU-Sim PTX: 33100000 instructions simulated : ctaid=(11,0,0) tid=(393,0,0)
GPGPU-Sim PTX: 33200000 instructions simulated : ctaid=(32,0,0) tid=(73,0,0)
GPGPU-Sim uArch: cycles simulated: 167500  inst.: 33163727 (ipc=198.0) sim_rate=274080 (inst/sec) elapsed = 0:0:02:01 / Tue Mar 22 13:28:00 2016
GPGPU-Sim PTX: 33300000 instructions simulated : ctaid=(17,0,0) tid=(361,0,0)
GPGPU-Sim PTX: 33400000 instructions simulated : ctaid=(16,0,0) tid=(489,0,0)
GPGPU-Sim PTX: 33500000 instructions simulated : ctaid=(21,0,0) tid=(457,0,0)
GPGPU-Sim uArch: cycles simulated: 168500  inst.: 33541487 (ipc=199.1) sim_rate=274930 (inst/sec) elapsed = 0:0:02:02 / Tue Mar 22 13:28:01 2016
GPGPU-Sim PTX: 33600000 instructions simulated : ctaid=(2,0,0) tid=(361,0,0)
GPGPU-Sim PTX: 33700000 instructions simulated : ctaid=(39,0,0) tid=(137,0,0)
GPGPU-Sim uArch: cycles simulated: 169000  inst.: 33733903 (ipc=199.6) sim_rate=274259 (inst/sec) elapsed = 0:0:02:03 / Tue Mar 22 13:28:02 2016
GPGPU-Sim PTX: 33800000 instructions simulated : ctaid=(36,0,0) tid=(297,0,0)
GPGPU-Sim PTX: 33900000 instructions simulated : ctaid=(43,0,0) tid=(169,0,0)
GPGPU-Sim PTX: 34000000 instructions simulated : ctaid=(0,0,0) tid=(361,0,0)
GPGPU-Sim PTX: 34100000 instructions simulated : ctaid=(38,0,0) tid=(361,0,0)
GPGPU-Sim uArch: cycles simulated: 170000  inst.: 34104399 (ipc=200.6) sim_rate=275035 (inst/sec) elapsed = 0:0:02:04 / Tue Mar 22 13:28:03 2016
GPGPU-Sim PTX: 34200000 instructions simulated : ctaid=(38,0,0) tid=(41,0,0)
GPGPU-Sim PTX: 34300000 instructions simulated : ctaid=(39,0,0) tid=(457,0,0)
GPGPU-Sim PTX: 34400000 instructions simulated : ctaid=(40,0,0) tid=(457,0,0)
GPGPU-Sim PTX: 34500000 instructions simulated : ctaid=(22,0,0) tid=(137,0,0)
GPGPU-Sim uArch: cycles simulated: 171000  inst.: 34481711 (ipc=201.6) sim_rate=275853 (inst/sec) elapsed = 0:0:02:05 / Tue Mar 22 13:28:04 2016
GPGPU-Sim PTX: 34600000 instructions simulated : ctaid=(27,0,0) tid=(233,0,0)
GPGPU-Sim PTX: 34700000 instructions simulated : ctaid=(2,0,0) tid=(265,0,0)
GPGPU-Sim PTX: 34800000 instructions simulated : ctaid=(23,0,0) tid=(393,0,0)
GPGPU-Sim PTX: 34900000 instructions simulated : ctaid=(20,0,0) tid=(233,0,0)
GPGPU-Sim uArch: cycles simulated: 172000  inst.: 34863087 (ipc=202.7) sim_rate=276691 (inst/sec) elapsed = 0:0:02:06 / Tue Mar 22 13:28:05 2016
GPGPU-Sim PTX: 35000000 instructions simulated : ctaid=(42,0,0) tid=(169,0,0)
GPGPU-Sim PTX: 35100000 instructions simulated : ctaid=(25,0,0) tid=(361,0,0)
GPGPU-Sim PTX: 35200000 instructions simulated : ctaid=(23,0,0) tid=(329,0,0)
GPGPU-Sim uArch: cycles simulated: 173000  inst.: 35232399 (ipc=203.7) sim_rate=277420 (inst/sec) elapsed = 0:0:02:07 / Tue Mar 22 13:28:06 2016
GPGPU-Sim PTX: 35300000 instructions simulated : ctaid=(6,0,0) tid=(457,0,0)
GPGPU-Sim PTX: 35400000 instructions simulated : ctaid=(22,0,0) tid=(265,0,0)
GPGPU-Sim PTX: 35500000 instructions simulated : ctaid=(32,0,0) tid=(297,0,0)
GPGPU-Sim PTX: 35600000 instructions simulated : ctaid=(12,0,0) tid=(169,0,0)
GPGPU-Sim uArch: cycles simulated: 174000  inst.: 35609775 (ipc=204.7) sim_rate=278201 (inst/sec) elapsed = 0:0:02:08 / Tue Mar 22 13:28:07 2016
GPGPU-Sim PTX: 35700000 instructions simulated : ctaid=(12,0,0) tid=(201,0,0)
GPGPU-Sim PTX: 35800000 instructions simulated : ctaid=(20,0,0) tid=(73,0,0)
GPGPU-Sim uArch: cycles simulated: 174500  inst.: 35796111 (ipc=205.1) sim_rate=277489 (inst/sec) elapsed = 0:0:02:09 / Tue Mar 22 13:28:08 2016
GPGPU-Sim PTX: 35900000 instructions simulated : ctaid=(24,0,0) tid=(137,0,0)
GPGPU-Sim PTX: 36000000 instructions simulated : ctaid=(36,0,0) tid=(137,0,0)
GPGPU-Sim PTX: 36100000 instructions simulated : ctaid=(32,0,0) tid=(361,0,0)
GPGPU-Sim PTX: 36200000 instructions simulated : ctaid=(6,0,0) tid=(329,0,0)
GPGPU-Sim uArch: cycles simulated: 175500  inst.: 36172335 (ipc=206.1) sim_rate=278248 (inst/sec) elapsed = 0:0:02:10 / Tue Mar 22 13:28:09 2016
GPGPU-Sim PTX: 36300000 instructions simulated : ctaid=(6,0,0) tid=(393,0,0)
GPGPU-Sim PTX: 36400000 instructions simulated : ctaid=(21,0,0) tid=(201,0,0)
GPGPU-Sim PTX: 36500000 instructions simulated : ctaid=(14,0,0) tid=(233,0,0)
GPGPU-Sim uArch: cycles simulated: 176500  inst.: 36552239 (ipc=207.1) sim_rate=279024 (inst/sec) elapsed = 0:0:02:11 / Tue Mar 22 13:28:10 2016
GPGPU-Sim PTX: 36600000 instructions simulated : ctaid=(13,0,0) tid=(297,0,0)
GPGPU-Sim PTX: 36700000 instructions simulated : ctaid=(25,0,0) tid=(9,0,0)
GPGPU-Sim PTX: 36800000 instructions simulated : ctaid=(29,0,0) tid=(201,0,0)
GPGPU-Sim PTX: 36900000 instructions simulated : ctaid=(12,0,0) tid=(393,0,0)
GPGPU-Sim uArch: cycles simulated: 177500  inst.: 36927375 (ipc=208.0) sim_rate=279752 (inst/sec) elapsed = 0:0:02:12 / Tue Mar 22 13:28:11 2016
GPGPU-Sim PTX: 37000000 instructions simulated : ctaid=(34,0,0) tid=(169,0,0)
GPGPU-Sim PTX: 37100000 instructions simulated : ctaid=(27,0,0) tid=(201,0,0)
GPGPU-Sim PTX: 37200000 instructions simulated : ctaid=(25,0,0) tid=(425,0,0)
GPGPU-Sim PTX: 37300000 instructions simulated : ctaid=(21,0,0) tid=(297,0,0)
GPGPU-Sim uArch: cycles simulated: 178500  inst.: 37302575 (ipc=209.0) sim_rate=280470 (inst/sec) elapsed = 0:0:02:13 / Tue Mar 22 13:28:12 2016
GPGPU-Sim PTX: 37400000 instructions simulated : ctaid=(25,0,0) tid=(9,0,0)
GPGPU-Sim PTX: 37500000 instructions simulated : ctaid=(19,0,0) tid=(233,0,0)
GPGPU-Sim PTX: 37600000 instructions simulated : ctaid=(9,0,0) tid=(329,0,0)
GPGPU-Sim PTX: 37700000 instructions simulated : ctaid=(36,0,0) tid=(137,0,0)
GPGPU-Sim uArch: cycles simulated: 179500  inst.: 37679407 (ipc=209.9) sim_rate=281189 (inst/sec) elapsed = 0:0:02:14 / Tue Mar 22 13:28:13 2016
GPGPU-Sim PTX: 37800000 instructions simulated : ctaid=(7,0,0) tid=(361,0,0)
GPGPU-Sim PTX: 37900000 instructions simulated : ctaid=(0,0,0) tid=(425,0,0)
GPGPU-Sim uArch: cycles simulated: 180000  inst.: 37871567 (ipc=210.4) sim_rate=280530 (inst/sec) elapsed = 0:0:02:15 / Tue Mar 22 13:28:14 2016
GPGPU-Sim PTX: 38000000 instructions simulated : ctaid=(37,0,0) tid=(329,0,0)
GPGPU-Sim PTX: 38100000 instructions simulated : ctaid=(43,0,0) tid=(329,0,0)
GPGPU-Sim PTX: 38200000 instructions simulated : ctaid=(3,0,0) tid=(457,0,0)
GPGPU-Sim PTX: 38300000 instructions simulated : ctaid=(6,0,0) tid=(297,0,0)
GPGPU-Sim uArch: cycles simulated: 181000  inst.: 38257967 (ipc=211.4) sim_rate=281308 (inst/sec) elapsed = 0:0:02:16 / Tue Mar 22 13:28:15 2016
GPGPU-Sim PTX: 38400000 instructions simulated : ctaid=(28,0,0) tid=(361,0,0)
GPGPU-Sim PTX: 38500000 instructions simulated : ctaid=(26,0,0) tid=(265,0,0)
GPGPU-Sim PTX: 38600000 instructions simulated : ctaid=(6,0,0) tid=(9,0,0)
GPGPU-Sim uArch: cycles simulated: 182000  inst.: 38622863 (ipc=212.2) sim_rate=281918 (inst/sec) elapsed = 0:0:02:17 / Tue Mar 22 13:28:16 2016
GPGPU-Sim PTX: 38700000 instructions simulated : ctaid=(17,0,0) tid=(393,0,0)
GPGPU-Sim PTX: 38800000 instructions simulated : ctaid=(37,0,0) tid=(489,0,0)
GPGPU-Sim PTX: 38900000 instructions simulated : ctaid=(12,0,0) tid=(265,0,0)
GPGPU-Sim PTX: 39000000 instructions simulated : ctaid=(18,0,0) tid=(393,0,0)
GPGPU-Sim uArch: cycles simulated: 183000  inst.: 38990031 (ipc=213.1) sim_rate=282536 (inst/sec) elapsed = 0:0:02:18 / Tue Mar 22 13:28:17 2016
GPGPU-Sim PTX: 39100000 instructions simulated : ctaid=(17,0,0) tid=(329,0,0)
GPGPU-Sim PTX: 39200000 instructions simulated : ctaid=(32,0,0) tid=(265,0,0)
GPGPU-Sim PTX: 39300000 instructions simulated : ctaid=(34,0,0) tid=(297,0,0)
GPGPU-Sim PTX: 39400000 instructions simulated : ctaid=(14,0,0) tid=(425,0,0)
GPGPU-Sim uArch: cycles simulated: 184000  inst.: 39362639 (ipc=213.9) sim_rate=283184 (inst/sec) elapsed = 0:0:02:19 / Tue Mar 22 13:28:18 2016
GPGPU-Sim PTX: 39500000 instructions simulated : ctaid=(18,0,0) tid=(41,0,0)
GPGPU-Sim PTX: 39600000 instructions simulated : ctaid=(25,0,0) tid=(201,0,0)
GPGPU-Sim PTX: 39700000 instructions simulated : ctaid=(44,0,0) tid=(201,0,0)
GPGPU-Sim uArch: cycles simulated: 185000  inst.: 39745135 (ipc=214.8) sim_rate=283893 (inst/sec) elapsed = 0:0:02:20 / Tue Mar 22 13:28:19 2016
GPGPU-Sim PTX: 39800000 instructions simulated : ctaid=(34,0,0) tid=(9,0,0)
GPGPU-Sim PTX: 39900000 instructions simulated : ctaid=(26,0,0) tid=(457,0,0)
GPGPU-Sim PTX: 40000000 instructions simulated : ctaid=(41,0,0) tid=(41,0,0)
GPGPU-Sim PTX: 40100000 instructions simulated : ctaid=(9,0,0) tid=(201,0,0)
GPGPU-Sim uArch: cycles simulated: 186000  inst.: 40124303 (ipc=215.7) sim_rate=284569 (inst/sec) elapsed = 0:0:02:21 / Tue Mar 22 13:28:20 2016
GPGPU-Sim PTX: 40200000 instructions simulated : ctaid=(11,0,0) tid=(233,0,0)
GPGPU-Sim PTX: 40300000 instructions simulated : ctaid=(17,0,0) tid=(393,0,0)
GPGPU-Sim PTX: 40400000 instructions simulated : ctaid=(14,0,0) tid=(393,0,0)
GPGPU-Sim PTX: 40500000 instructions simulated : ctaid=(2,0,0) tid=(457,0,0)
GPGPU-Sim uArch: cycles simulated: 187000  inst.: 40500175 (ipc=216.6) sim_rate=285212 (inst/sec) elapsed = 0:0:02:22 / Tue Mar 22 13:28:21 2016
GPGPU-Sim PTX: 40600000 instructions simulated : ctaid=(8,0,0) tid=(425,0,0)
GPGPU-Sim PTX: 40700000 instructions simulated : ctaid=(19,0,0) tid=(9,0,0)
GPGPU-Sim uArch: cycles simulated: 187500  inst.: 40686959 (ipc=217.0) sim_rate=284524 (inst/sec) elapsed = 0:0:02:23 / Tue Mar 22 13:28:22 2016
GPGPU-Sim PTX: 40800000 instructions simulated : ctaid=(31,0,0) tid=(201,0,0)
GPGPU-Sim PTX: 40900000 instructions simulated : ctaid=(25,0,0) tid=(41,0,0)
GPGPU-Sim PTX: 41000000 instructions simulated : ctaid=(38,0,0) tid=(457,0,0)
GPGPU-Sim PTX: 41100000 instructions simulated : ctaid=(31,0,0) tid=(9,0,0)
GPGPU-Sim uArch: cycles simulated: 188500  inst.: 41059663 (ipc=217.8) sim_rate=285136 (inst/sec) elapsed = 0:0:02:24 / Tue Mar 22 13:28:23 2016
GPGPU-Sim PTX: 41200000 instructions simulated : ctaid=(0,0,0) tid=(265,0,0)
GPGPU-Sim PTX: 41300000 instructions simulated : ctaid=(9,0,0) tid=(265,0,0)
GPGPU-Sim PTX: 41400000 instructions simulated : ctaid=(7,0,0) tid=(233,0,0)
GPGPU-Sim uArch: cycles simulated: 189500  inst.: 41423535 (ipc=218.6) sim_rate=285679 (inst/sec) elapsed = 0:0:02:25 / Tue Mar 22 13:28:24 2016
GPGPU-Sim PTX: 41500000 instructions simulated : ctaid=(21,0,0) tid=(265,0,0)
GPGPU-Sim PTX: 41600000 instructions simulated : ctaid=(3,0,0) tid=(233,0,0)
GPGPU-Sim PTX: 41700000 instructions simulated : ctaid=(23,0,0) tid=(297,0,0)
GPGPU-Sim PTX: 41800000 instructions simulated : ctaid=(2,0,0) tid=(9,0,0)
GPGPU-Sim uArch: cycles simulated: 190500  inst.: 41800207 (ipc=219.4) sim_rate=286302 (inst/sec) elapsed = 0:0:02:26 / Tue Mar 22 13:28:25 2016
GPGPU-Sim PTX: 41900000 instructions simulated : ctaid=(10,0,0) tid=(393,0,0)
GPGPU-Sim PTX: 42000000 instructions simulated : ctaid=(9,0,0) tid=(265,0,0)
GPGPU-Sim PTX: 42100000 instructions simulated : ctaid=(8,0,0) tid=(265,0,0)
GPGPU-Sim PTX: 42200000 instructions simulated : ctaid=(19,0,0) tid=(233,0,0)
GPGPU-Sim uArch: cycles simulated: 191500  inst.: 42176367 (ipc=220.2) sim_rate=286914 (inst/sec) elapsed = 0:0:02:27 / Tue Mar 22 13:28:26 2016
GPGPU-Sim PTX: 42300000 instructions simulated : ctaid=(43,0,0) tid=(137,0,0)
GPGPU-Sim PTX: 42400000 instructions simulated : ctaid=(14,0,0) tid=(425,0,0)
GPGPU-Sim PTX: 42500000 instructions simulated : ctaid=(20,0,0) tid=(457,0,0)
GPGPU-Sim uArch: cycles simulated: 192500  inst.: 42546287 (ipc=221.0) sim_rate=287474 (inst/sec) elapsed = 0:0:02:28 / Tue Mar 22 13:28:27 2016
GPGPU-Sim PTX: 42600000 instructions simulated : ctaid=(9,0,0) tid=(265,0,0)
GPGPU-Sim PTX: 42700000 instructions simulated : ctaid=(42,0,0) tid=(329,0,0)
GPGPU-Sim uArch: cycles simulated: 193000  inst.: 42733743 (ipc=221.4) sim_rate=286803 (inst/sec) elapsed = 0:0:02:29 / Tue Mar 22 13:28:28 2016
GPGPU-Sim PTX: 42800000 instructions simulated : ctaid=(12,0,0) tid=(329,0,0)
GPGPU-Sim PTX: 42900000 instructions simulated : ctaid=(36,0,0) tid=(73,0,0)
GPGPU-Sim PTX: 43000000 instructions simulated : ctaid=(24,0,0) tid=(265,0,0)
GPGPU-Sim PTX: 43100000 instructions simulated : ctaid=(42,0,0) tid=(201,0,0)
GPGPU-Sim uArch: cycles simulated: 194000  inst.: 43106863 (ipc=222.2) sim_rate=287379 (inst/sec) elapsed = 0:0:02:30 / Tue Mar 22 13:28:29 2016
GPGPU-Sim PTX: 43200000 instructions simulated : ctaid=(28,0,0) tid=(425,0,0)
GPGPU-Sim PTX: 43300000 instructions simulated : ctaid=(41,0,0) tid=(265,0,0)
GPGPU-Sim PTX: 43400000 instructions simulated : ctaid=(27,0,0) tid=(457,0,0)
GPGPU-Sim PTX: 43500000 instructions simulated : ctaid=(10,0,0) tid=(361,0,0)
GPGPU-Sim uArch: cycles simulated: 195000  inst.: 43483439 (ipc=223.0) sim_rate=287969 (inst/sec) elapsed = 0:0:02:31 / Tue Mar 22 13:28:30 2016
GPGPU-Sim PTX: 43600000 instructions simulated : ctaid=(0,0,0) tid=(201,0,0)
GPGPU-Sim PTX: 43700000 instructions simulated : ctaid=(19,0,0) tid=(73,0,0)
GPGPU-Sim PTX: 43800000 instructions simulated : ctaid=(32,0,0) tid=(105,0,0)
GPGPU-Sim uArch: cycles simulated: 196000  inst.: 43855055 (ipc=223.8) sim_rate=288520 (inst/sec) elapsed = 0:0:02:32 / Tue Mar 22 13:28:31 2016
GPGPU-Sim PTX: 43900000 instructions simulated : ctaid=(2,0,0) tid=(201,0,0)
GPGPU-Sim PTX: 44000000 instructions simulated : ctaid=(40,0,0) tid=(265,0,0)
GPGPU-Sim PTX: 44100000 instructions simulated : ctaid=(33,0,0) tid=(425,0,0)
GPGPU-Sim PTX: 44200000 instructions simulated : ctaid=(43,0,0) tid=(425,0,0)
[...]
traffic_breakdown_coretomem[INST_ACC_R] = 840 {8:105,}
traffic_breakdown_memtocore[CONST_ACC_R] = 1080 {72:15,}
traffic_breakdown_memtocore[GLOBAL_ACC_R] = 157876688 {136:1160858,}
traffic_breakdown_memtocore[GLOBAL_ACC_W] = 330864 {8:41358,}
traffic_breakdown_memtocore[INST_ACC_R] = 14280 {136:105,}
maxmrqlatency = 571 
maxdqlatency = 0 
maxmflatency = 1189 
averagemflatency = 358 
max_icnt2mem_latency = 835 
max_icnt2sh_latency = 1447919 
mrq_lat_table:612204 	32014 	40963 	79460 	159820 	131799 	71484 	15881 	1072 	5 	0 	0 	0 	0 	0 	0 	0 	0 	0 	0 	0 	0 	0 	0 	0 	0 	0 	0 	0 	0 	0 	0 	
dq_lat_table:0 	0 	0 	0 	0 	0 	0 	0 	0 	0 	0 	0 	0 	0 	0 	0 	0 	0 	0 	0 	0 	0 	0 	0 	0 	0 	0 	0 	0 	0 	0 	0 	
mf_lat_table:0 	0 	0 	0 	0 	0 	0 	24008 	1083965 	94216 	42 	0 	0 	0 	0 	0 	0 	0 	0 	0 	0 	0 	0 	0 	0 	0 	0 	0 	0 	0 	0 	0 	
icnt2mem_lat_table:0 	0 	0 	1010830 	25169 	36027 	60436 	50637 	18463 	774 	0 	0 	0 	0 	0 	0 	0 	0 	0 	0 	0 	0 	0 	0 	
icnt2sh_lat_table:0 	0 	0 	176937 	705615 	273500 	4819 	2 	0 	0 	0 	0 	0 	0 	0 	0 	0 	10882 	11016 	12820 	6640 	0 	0 	0 	
mf_lat_pw_table:0 	0 	0 	0 	0 	0 	0 	38 	2841 	14 	0 	0 	0 	0 	0 	0 	0 	0 	0 	0 	0 	0 	0 	0 	0 	0 	0 	0 	0 	0 	0 	0 	
maximum concurrent accesses to same row:
dram[0]:        31        23        31        22        32        32        24        25        32        32        28        28        31        23        32        31 
dram[1]:        27        23        31        22        32        32        26        27        32        32        28        28        32        15        32        32 
dram[2]:        18        16        30        28        31        32        24        31        32        35        28        28        32        19        32        32 
dram[3]:        23        30        29        25        32        32        25        23        32        32        28        28        22        31        32        32 
dram[4]:        23        28        22        24        32        32        27        31        32        41        28        28        19        26        32        31 
dram[5]:        22        31        25        22        32        32        26        26        32        32        28        28        32        32        32        31 
maximum service time to same row:
dram[0]:     81111     81803     79464     81197     81151     81229     81609     81911    179699    182075     80813     80788     81719     81729     81632     81596 
dram[1]:     81015     81814     81169     81219     81107     81188     81591     82034    181304    182878     80816     80788     81572     81728     81644     81721 
dram[2]:     81904     82022     81291     81212     81166     82173     81697     79625    179598    182350     80822     80837     81784     81555     81557     81585 
dram[3]:     81976     81941     81297     81187     81232     82253     81616     81476    180640    184004     80826     80831     81741     81782     81572     81787 
dram[4]:     81796     82047     81153     81309     81177     82290     81471     81606    178428    184401     80782     80822     77870     81613     81569     81612 
dram[5]:     81738     82032     81178     81238     81257     81163     81889     81549    182035    182076     80785     80822     81715     81676     81525     81573 
average row accesses per activate:
dram[0]:  1.574165  1.535471  1.558865  1.563000  1.520718  1.554361  1.571844  1.591116  1.605832  1.599193  1.498926  1.512049  1.510004  1.634921  1.517754  1.559389 
dram[1]:  1.579132  1.548252  1.525885  1.586750  1.545538  1.514512  1.518542  1.576739  1.521388  1.613534  1.432331  1.543739  1.520077  1.534007  1.544008  1.579221 
dram[2]:  1.605090  1.566808  1.582416  1.576399  1.456444  1.510633  1.509587  1.568220  1.511309  1.598979  1.486280  1.507628  1.571466  1.588472  1.503618  1.517679 
dram[3]:  1.602610  1.515231  1.521667  1.534243  1.555497  1.500000  1.555142  1.532129  1.544674  1.565406  1.442715  1.485034  1.576698  1.546736  1.557690  1.474287 
dram[4]:  1.605124  1.601422  1.615802  1.631673  1.554084  1.557117  1.537815  1.620248  1.551684  1.626504  1.480524  1.425703  1.559825  1.535997  1.547915  1.509626 
dram[5]:  1.590689  1.553031  1.544278  1.634046  1.464458  1.541363  1.532835  1.569428  1.540477  1.594069  1.459769  1.448748  1.526228  1.621933  1.565309  1.583946 
average row locality = 1144702/740641 = 1.545556
number of total memory accesses made:
dram[0]:         0         0         0         0         0         0         0         0         0         0         0         0         0         0         0         0 
dram[1]:         0         0         0         0         0         0         0         0         0         0         0         0         0         0         0         0 
dram[2]:         0         0         0         0         0         0         0         0         0         0         0         0         0         0         0         0 
dram[3]:         0         0         0         0         0         0         0         0         0         0         0         0         0         0         0         0 
dram[4]:         0         0         0         0         0         0         0         0         0         0         0         0         0         0         0         0 
dram[5]:         0         0         0         0         0         0         0         0         0         0         0         0         0         0         0         0 
total accesses: 0
min_bank_accesses = 0!
min_chip_accesses = 0!
number of total read accesses:
dram[0]:     11668     11667     11847     11583     11565     11562     11586     11588     11589     11585     11566     11562     11561     11555     11552     11554 
dram[1]:     11680     11674     11587     11844     11564     11562     11587     11588     11587     11584     11566     11563     11560     11553     11553     11553 
dram[2]:     11672     11668     11587     11580     11564     11568     11584     11844     11587     11593     11564     11562     11553     11562     11556     11559 
dram[3]:     11664     11682     11589     11581     11562     11581     11839     11586     11585     11592     11566     11562     11553     11560     11552     11552 
dram[4]:     11666     11670     11585     11582     11562     11565     11589     11587     11584     11588     11562     11562     11809     11553     11552     11552 
dram[5]:     11668     11668     11587     11583     11564     11564     11593     11591     11584     11588     11569     11562     11553     11809     11552     11552 
total reads: 1113559
bank skew: 11847/11552 = 1.03
chip skew: 185606/185568 = 1.00
number of total write accesses:
dram[0]:       494       497       348       338       289       290       305       304       307       305       298       297       288       290       288       288 
dram[1]:       503       503       350       347       281       283       288       288       292       290       298       296       289       288       288       288 
dram[2]:       501       492       346       336       290       295       304       305       307       305       298       297       288       288       288       288 
dram[3]:       495       505       350       337       280       287       288       288       292       291       296       296       288       288       288       288 
dram[4]:       488       496       338       339       291       294       306       304       305       305       297       297       289       288       288       288 
dram[5]:       496       500       341       339       282       286       288       288       290       291       296       296       289       289       288       288 
total reads: 31143
bank skew: 505/280 = 1.80
chip skew: 5228/5147 = 1.02
average mf latency per bank:
dram[0]:        355       359       459       372       369       378       363       372       375       384       362       371       365       367       382       390
dram[1]:        362       353       376       443       378       365       378       368       387       369       370       360       376       362       390       379
dram[2]:        353       360       362       368       369       379       369       471       375       386       367       368       361       376       380       384
dram[3]:        354       357       367       365       370       383       452       375       378       384       363       362       368       375       376       381
dram[4]:        356       354       370       368       367       364       376       376       378       378       362       364       464       372       378       382
dram[5]:        353       359       363       365       366       369       374       387       369       377       368       367       362       452       373       381
maximum mf latency per bank:
dram[0]:       1143       937       998      1189       842       987       960       915       873      1070       979       881       918       937       930       982
dram[1]:       1073      1137      1071       889       907      1022      1091       999       948      1126       993      1002       976       868       967       973
dram[2]:       1036      1066      1010      1030      1044       972       976       962      1106       939      1037      1070       904       960       941      1028
dram[3]:        901       976       983       926       930       963       918       950       934       991       959      1050       918       960       999      1155
dram[4]:        855       988       938       987       977       992       873       934       913       992      1027      1114       970       912      1013      1082
dram[5]:        960       989      1006      1033       945      1018       876       998       990       956       980      1070       989       961       933      1024

Number of Memory Banks Accessed per Memory Operation per Warp (from 0):
0	0	0	0	0	0	0	0	0	0	0	0	0	0	0	0	0	0	0	0	0	0	0	0	0	0	0	0	0	0	0	0	0	0	0	0	0	0	0	0	0	0	0	0	0	0	0	0	0	0	0	0	0	0	0	0	0	0	0	0	0	0	0	0	0	0	0	0	0	0	0	0	0	0	0	0	0	0	0	0	0	0	0	0	0	0	0	0	0	0	0	0	0	0	0	0	
Average # of Memory Banks Accessed per Memory Operation per Warp=-nan

position of mrq chosen
0	0	0	0	0	0	0	0	0	0	0	0	0	0	0	0	

average position of mrq chosen = -nan
Memory Partition 0: 
Cache L2_bank_000:
MSHR contents

Cache L2_bank_001:
MSHR contents

In Dram Latency Queue (total = 0): 
DRAM[0]: 16 bks, busW=4 BL=8 CL=12, tRRD=2 tCCD=6, tRCD=12 tRAS=28 tRP=12 tRC=40
n_cmd=1911253 n_nop=1284670 n_act=122645 n_pre=122629 n_req=190816 n_rd=371180 n_write=10129 bw_util=0.399
n_activity=1268066 dram_eff=0.6014
bk0: 23336a 1541154i bk1: 23334a 1528003i bk2: 23694a 1533492i bk3: 23166a 1527514i bk4: 23130a 1520503i bk5: 23124a 1513025i bk6: 23172a 1511425i bk7: 23176a 1498707i bk8: 23178a 1552360i bk9: 23170a 1538970i bk10: 23132a 1532227i bk11: 23124a 1522396i bk12: 23122a 1518421i bk13: 23110a 1528016i bk14: 23104a 1485512i bk15: 23108a 1470747i 
dram_util_bins: 0 0 0 0 0 0 0 0 0 0
dram_eff_bins: 0 0 0 0 0 0 0 0 0 0
mrqq: max=16 avg=2.27001
Memory Partition 1: 
Cache L2_bank_002:
MSHR contents

Cache L2_bank_003:
MSHR contents

In Dram Latency Queue (total = 0): 
DRAM[1]: 16 bks, busW=4 BL=8 CL=12, tRRD=2 tCCD=6, tRCD=12 tRAS=28 tRP=12 tRC=40
n_cmd=1911253 n_nop=1282578 n_act=123736 n_pre=123720 n_req=190777 n_rd=371210 n_write=10009 bw_util=0.3989
n_activity=1272067 dram_eff=0.5994
bk0: 23360a 1537925i bk1: 23348a 1530090i bk2: 23174a 1525431i bk3: 23688a 1525515i bk4: 23128a 1518180i bk5: 23124a 1506786i bk6: 23174a 1497765i bk7: 23176a 1498950i bk8: 23174a 1533963i bk9: 23168a 1543128i bk10: 23132a 1515675i bk11: 23126a 1528055i bk12: 23120a 1519050i bk13: 23106a 1516169i bk14: 23106a 1484695i bk15: 23106a 1476898i 
dram_util_bins: 0 0 0 0 0 0 0 0 0 0
dram_eff_bins: 0 0 0 0 0 0 0 0 0 0
mrqq: max=16 avg=2.30647
Memory Partition 2: 
Cache L2_bank_004:
MSHR contents

Cache L2_bank_005:
MSHR contents

In Dram Latency Queue (total = 0): 
DRAM[2]: 16 bks, busW=4 BL=8 CL=12, tRRD=2 tCCD=6, tRCD=12 tRAS=28 tRP=12 tRC=40
n_cmd=1911253 n_nop=1282128 n_act=123895 n_pre=123879 n_req=190831 n_rd=371206 n_write=10145 bw_util=0.3991
n_activity=1270079 dram_eff=0.6005
bk0: 23344a 1544440i bk1: 23336a 1533172i bk2: 23174a 1540010i bk3: 23160a 1531253i bk4: 23128a 1509934i bk5: 23136a 1509242i bk6: 23168a 1501713i bk7: 23688a 1489806i bk8: 23174a 1536852i bk9: 23186a 1542979i bk10: 23128a 1528505i bk11: 23124a 1524934i bk12: 23106a 1533779i bk13: 23124a 1522719i bk14: 23112a 1488530i bk15: 23118a 1475493i 
dram_util_bins: 0 0 0 0 0 0 0 0 0 0
dram_eff_bins: 0 0 0 0 0 0 0 0 0 0
mrqq: max=16 avg=2.20326
Memory Partition 3: 
Cache L2_bank_006:
MSHR contents

Cache L2_bank_007:
MSHR contents

In Dram Latency Queue (total = 0): 
DRAM[3]: 16 bks, busW=4 BL=8 CL=12, tRRD=2 tCCD=6, tRCD=12 tRAS=28 tRP=12 tRC=40
n_cmd=1911253 n_nop=1280850 n_act=124606 n_pre=124590 n_req=190763 n_rd=371212 n_write=9995 bw_util=0.3989
n_activity=1273642 dram_eff=0.5986
bk0: 23328a 1545107i bk1: 23364a 1527381i bk2: 23178a 1527582i bk3: 23162a 1522429i bk4: 23124a 1522871i bk5: 23162a 1507699i bk6: 23678a 1504098i bk7: 23172a 1489392i bk8: 23170a 1540542i bk9: 23184a 1536984i bk10: 23132a 1516492i bk11: 23124a 1521001i bk12: 23106a 1528128i bk13: 23120a 1515210i bk14: 23104a 1494111i bk15: 23104a 1466866i 
dram_util_bins: 0 0 0 0 0 0 0 0 0 0
dram_eff_bins: 0 0 0 0 0 0 0 0 0 0
mrqq: max=16 avg=2.25754
Memory Partition 4: 
Cache L2_bank_008:
MSHR contents

Cache L2_bank_009:
MSHR contents

In Dram Latency Queue (total = 0): 
DRAM[4]: 16 bks, busW=4 BL=8 CL=12, tRRD=2 tCCD=6, tRCD=12 tRAS=28 tRP=12 tRC=40
n_cmd=1911253 n_nop=1285155 n_act=122430 n_pre=122414 n_req=190781 n_rd=371136 n_write=10118 bw_util=0.399
n_activity=1271863 dram_eff=0.5995
bk0: 23332a 1545554i bk1: 23340a 1542233i bk2: 23170a 1543511i bk3: 23164a 1538154i bk4: 23124a 1526027i bk5: 23130a 1518660i bk6: 23178a 1501431i bk7: 23174a 1503301i bk8: 23168a 1543546i bk9: 23176a 1547656i bk10: 23124a 1532286i bk11: 23124a 1513918i bk12: 23618a 1525715i bk13: 23106a 1514062i bk14: 23104a 1495552i bk15: 23104a 1475798i 
dram_util_bins: 0 0 0 0 0 0 0 0 0 0
dram_eff_bins: 0 0 0 0 0 0 0 0 0 0
mrqq: max=16 avg=2.23397
Memory Partition 5: 
Cache L2_bank_010:
MSHR contents

Cache L2_bank_011:
MSHR contents

In Dram Latency Queue (total = 0): 
DRAM[5]: 16 bks, busW=4 BL=8 CL=12, tRRD=2 tCCD=6, tRCD=12 tRAS=28 tRP=12 tRC=40
n_cmd=1911253 n_nop=1283463 n_act=123329 n_pre=123313 n_req=190734 n_rd=371174 n_write=9974 bw_util=0.3988
n_activity=1274794 dram_eff=0.598
bk0: 23336a 1545832i bk1: 23336a 1531874i bk2: 23174a 1533862i bk3: 23166a 1539268i bk4: 23128a 1512528i bk5: 23128a 1515960i bk6: 23186a 1506270i bk7: 23182a 1496699i bk8: 23168a 1544187i bk9: 23176a 1545602i bk10: 23138a 1527282i bk11: 23124a 1516987i bk12: 23106a 1528481i bk13: 23618a 1521499i bk14: 23104a 1498304i bk15: 23104a 1485648i 
dram_util_bins: 0 0 0 0 0 0 0 0 0 0
dram_eff_bins: 0 0 0 0 0 0 0 0 0 0
mrqq: max=16 avg=2.22353

========= L2 cache stats =========
L2_cache_bank[0]: Access = 102395, Miss = 92934, Miss_rate = 0.908, Pending_hits = 775, Reservation_fails = 40823
L2_cache_bank[1]: Access = 97689, Miss = 92656, Miss_rate = 0.948, Pending_hits = 8, Reservation_fails = 19016
L2_cache_bank[2]: Access = 97923, Miss = 92684, Miss_rate = 0.946, Pending_hits = 20, Reservation_fails = 17970
L2_cache_bank[3]: Access = 101908, Miss = 92921, Miss_rate = 0.912, Pending_hits = 770, Reservation_fails = 41003
L2_cache_bank[4]: Access = 98162, Miss = 92667, Miss_rate = 0.944, Pending_hits = 10, Reservation_fails = 11964
L2_cache_bank[5]: Access = 103349, Miss = 92936, Miss_rate = 0.899, Pending_hits = 765, Reservation_fails = 39302
L2_cache_bank[6]: Access = 101795, Miss = 92910, Miss_rate = 0.913, Pending_hits = 768, Reservation_fails = 41248
L2_cache_bank[7]: Access = 98865, Miss = 92696, Miss_rate = 0.938, Pending_hits = 19, Reservation_fails = 13706
L2_cache_bank[8]: Access = 102306, Miss = 92909, Miss_rate = 0.908, Pending_hits = 751, Reservation_fails = 41275
L2_cache_bank[9]: Access = 97808, Miss = 92659, Miss_rate = 0.947, Pending_hits = 8, Reservation_fails = 15721
L2_cache_bank[10]: Access = 98163, Miss = 92670, Miss_rate = 0.944, Pending_hits = 20, Reservation_fails = 12749
L2_cache_bank[11]: Access = 101973, Miss = 92917, Miss_rate = 0.911, Pending_hits = 769, Reservation_fails = 42310
L2_total_cache_accesses = 1202336
L2_total_cache_misses = 1113559
L2_total_cache_miss_rate = 0.9262
L2_total_cache_pending_hits = 4683
L2_total_cache_reservation_fails = 337087
L2_total_cache_breakdown:
	L2_cache_stats_breakdown[GLOBAL_ACC_R][HIT] = 44619
	L2_cache_stats_breakdown[GLOBAL_ACC_R][HIT_RESERVED] = 4547
	L2_cache_stats_breakdown[GLOBAL_ACC_R][MISS] = 1111692
	L2_cache_stats_breakdown[GLOBAL_ACC_R][RESERVATION_FAIL] = 336566
	L2_cache_stats_breakdown[CONST_ACC_R][HIT] = 11
	L2_cache_stats_breakdown[CONST_ACC_R][HIT_RESERVED] = 3
	L2_cache_stats_breakdown[CONST_ACC_R][MISS] = 1
	L2_cache_stats_breakdown[CONST_ACC_R][RESERVATION_FAIL] = 109
	L2_cache_stats_breakdown[GLOBAL_ACC_W][HIT] = 39379
	L2_cache_stats_breakdown[GLOBAL_ACC_W][HIT_RESERVED] = 120
	L2_cache_stats_breakdown[GLOBAL_ACC_W][MISS] = 1859
	L2_cache_stats_breakdown[GLOBAL_ACC_W][RESERVATION_FAIL] = 12
	L2_cache_stats_breakdown[INST_ACC_R][HIT] = 85
	L2_cache_stats_breakdown[INST_ACC_R][HIT_RESERVED] = 13
	L2_cache_stats_breakdown[INST_ACC_R][MISS] = 7
	L2_cache_stats_breakdown[INST_ACC_R][RESERVATION_FAIL] = 400
L2_cache_data_port_util = 0.024
L2_cache_fill_port_util = 0.256

icnt_total_pkts_mem_to_simt=5846218
icnt_total_pkts_simt_to_mem=1333075
LD_mem_lat_dist  0 0 0 0 0 0 0 0 0 0 0 0 0 0 0 0 0 0 0 0 0 0 0 0 0 0 0
ST_mem_lat_dist  0 0 0 0 0 0 0 0 0 0 0 0 0 0 0 0 0 0 0 0 0 0 0 0 0 0 0
----------------------------Interconnect-DETAILS--------------------------------
Class 0:
Packet latency average = 17.4344
	minimum = 6
	maximum = 557
Network latency average = 13.9798
	minimum = 6
	maximum = 499
Slowest packet = 1571176
Flit latency average = 12.907
	minimum = 6
	maximum = 499
Slowest flit = 4906549
Fragmentation average = 0.0123564
	minimum = 0
	maximum = 415
Injected packet rate average = 0.0609709
	minimum = 0.0386927 (at node 14)
	maximum = 0.0729264 (at node 21)
Accepted packet rate average = 0.0609709
	minimum = 0.0386927 (at node 14)
	maximum = 0.0729264 (at node 21)
Injected flit rate average = 0.182578
	minimum = 0.0410122 (at node 14)
	maximum = 0.359725 (at node 21)
Accepted flit rate average= 0.182578
	minimum = 0.0711918 (at node 25)
	maximum = 0.286184 (at node 6)
Injected packet length average = 2.99451
Accepted packet length average = 2.99451
Total in-flight flits = 0 (0 measured)
====== Overall Traffic Statistics ======
====== Traffic class 0 ======
Packet latency average = 19.3249 (2 samples)
	minimum = 6 (2 samples)
	maximum = 605.5 (2 samples)
Network latency average = 15.1004 (2 samples)
	minimum = 6 (2 samples)
	maximum = 518.5 (2 samples)
Flit latency average = 13.4363 (2 samples)
	minimum = 6 (2 samples)
	maximum = 518.5 (2 samples)
Fragmentation average = 0.0181199 (2 samples)
	minimum = 0 (2 samples)
	maximum = 435 (2 samples)
Injected packet rate average = 0.0614937 (2 samples)
	minimum = 0.0423319 (2 samples)
	maximum = 0.0740266 (2 samples)
Accepted packet rate average = 0.0614937 (2 samples)
	minimum = 0.0423319 (2 samples)
	maximum = 0.0740266 (2 samples)
Injected flit rate average = 0.18361 (2 samples)
	minimum = 0.0470089 (2 samples)
	maximum = 0.360787 (2 samples)
Accepted flit rate average = 0.18361 (2 samples)
	minimum = 0.0747606 (2 samples)
	maximum = 0.285154 (2 samples)
Injected packet size average = 2.98583 (2 samples)
Accepted packet size average = 2.98583 (2 samples)
Hops average = 1 (2 samples)
----------------------------END-of-Interconnect-DETAILS-------------------------
GPGPU-Sim API: Stream Manager State
