

        *** GPGPU-Sim Simulator Version 3.2.2  [build 0] ***


GPGPU-Sim PTX: simulation mode 0 (can change with PTX_SIM_MODE_FUNC environment variable:
               1=functional simulation only, 0=detailed performance simulator)
GPGPU-Sim: Configuration options:

-network_mode                           1 # Interconnection network mode
-inter_config_file   config_fermi_islip.icnt # Interconnection network config file
-gpgpu_ptx_use_cuobjdump                    1 # Use cuobjdump to extract ptx and sass from binaries
-gpgpu_experimental_lib_support                    0 # Try to extract code from cuda libraries [Broken because of unknown cudaGetExportTable]
-gpgpu_ptx_convert_to_ptxplus                    0 # Convert SASS (native ISA) to ptxplus and run ptxplus
-gpgpu_ptx_force_max_capability                   20 # Force maximum compute capability
-gpgpu_ptx_inst_debug_to_file                    0 # Dump executed instructions' debug information to file
-gpgpu_ptx_inst_debug_file       inst_debug.txt # Executed instructions' debug output file
-gpgpu_ptx_inst_debug_thread_uid                    1 # Thread UID for executed instructions' debug output
-gpgpu_simd_model                       1 # 1 = post-dominator
-gpgpu_shader_core_pipeline              1536:32 # shader core pipeline config, i.e., {<nthread>:<warpsize>}
-gpgpu_tex_cache:l1  4:128:24,L:R:m:N:L,F:128:4,128:2 # per-shader L1 texture cache  (READ-ONLY) config  {<nsets>:<bsize>:<assoc>,<rep>:<wr>:<alloc>:<wr_alloc>,<mshr>:<N>:<merge>,<mq>:<rf>}
-gpgpu_const_cache:l1 64:64:2,L:R:f:N:L,A:2:32,4 # per-shader L1 constant memory cache  (READ-ONLY) config  {<nsets>:<bsize>:<assoc>,<rep>:<wr>:<alloc>:<wr_alloc>,<mshr>:<N>:<merge>,<mq>} 
-gpgpu_cache:il1     4:128:4,L:R:f:N:L,A:2:32,4 # shader L1 instruction cache config  {<nsets>:<bsize>:<assoc>,<rep>:<wr>:<alloc>:<wr_alloc>,<mshr>:<N>:<merge>,<mq>} 
-gpgpu_cache:dl1     32:128:4,L:L:m:N:H,A:32:8,8:2,0,1:0:1:1:0:1,1:4:8:16:32:64,/sciclone/data10/hwang07/GPU_RESEARCH/swl/swl_outputs/RESULTS/swl4/ # per-shader L1 data cache config  {<nsets>:<bsize>:<assoc>,<rep>:<wr>:<alloc>:<wr_alloc>,<mshr>:<N>:<merge>,<mq> | none}
-gpgpu_cache:dl1PrefL1                 none # per-shader L1 data cache config  {<nsets>:<bsize>:<assoc>,<rep>:<wr>:<alloc>:<wr_alloc>,<mshr>:<N>:<merge>,<mq> | none}
-gpgpu_cache:dl1PreShared                 none # per-shader L1 data cache config  {<nsets>:<bsize>:<assoc>,<rep>:<wr>:<alloc>:<wr_alloc>,<mshr>:<N>:<merge>,<mq> | none}
-gmem_skip_L1D                          0 # global memory access skip L1D cache (implements -Xptxas -dlcm=cg, default=no skip)
-gpgpu_perfect_mem                      0 # enable perfect memory mode (no cache miss)
-n_regfile_gating_group                    4 # group of lanes that should be read/written together)
-gpgpu_clock_gated_reg_file                    0 # enable clock gated reg file for power calculations
-gpgpu_clock_gated_lanes                    0 # enable clock gated lanes for power calculations
-gpgpu_shader_registers                32768 # Number of registers per shader core. Limits number of concurrent CTAs. (default 8192)
-gpgpu_shader_cta                       8 # Maximum number of concurrent CTAs in shader (default 8)
-gpgpu_num_cta_barriers                   16 # Maximum number of named barriers per CTA (default 16)
-gpgpu_n_clusters                      15 # number of processing clusters
-gpgpu_n_cores_per_cluster                    1 # number of simd cores per cluster
-gpgpu_n_cluster_ejection_buffer_size                    8 # number of packets in ejection buffer
-gpgpu_n_ldst_response_buffer_size                    2 # number of response packets in ld/st unit ejection buffer
-gpgpu_shmem_size                   16384 # Size of shared memory per shader core (default 16kB)
-gpgpu_shmem_size                   49152 # Size of shared memory per shader core (default 16kB)
-gpgpu_shmem_size_PrefL1                16384 # Size of shared memory per shader core (default 16kB)
-gpgpu_shmem_size_PrefShared                16384 # Size of shared memory per shader core (default 16kB)
-gpgpu_shmem_num_banks                   32 # Number of banks in the shared memory in each shader core (default 16)
-gpgpu_shmem_limited_broadcast                    0 # Limit shared memory to do one broadcast per cycle (default on)
-gpgpu_shmem_warp_parts                    1 # Number of portions a warp is divided into for shared memory bank conflict check 
-gpgpu_warpdistro_shader                   -1 # Specify which shader core to collect the warp size distribution from
-gpgpu_warp_issue_shader                    0 # Specify which shader core to collect the warp issue distribution from
-gpgpu_local_mem_map                    1 # Mapping from local memory space address to simulated GPU physical address space (default = enabled)
-gpgpu_num_reg_banks                   16 # Number of register banks (default = 8)
-gpgpu_reg_bank_use_warp_id                    0 # Use warp ID in mapping registers to banks (default = off)
-gpgpu_operand_collector_num_units_sp                    6 # number of collector units (default = 4)
-gpgpu_operand_collector_num_units_sfu                    8 # number of collector units (default = 4)
-gpgpu_operand_collector_num_units_mem                    2 # number of collector units (default = 2)
-gpgpu_operand_collector_num_units_gen                    0 # number of collector units (default = 0)
-gpgpu_operand_collector_num_in_ports_sp                    2 # number of collector unit in ports (default = 1)
-gpgpu_operand_collector_num_in_ports_sfu                    1 # number of collector unit in ports (default = 1)
-gpgpu_operand_collector_num_in_ports_mem                    1 # number of collector unit in ports (default = 1)
-gpgpu_operand_collector_num_in_ports_gen                    0 # number of collector unit in ports (default = 0)
-gpgpu_operand_collector_num_out_ports_sp                    2 # number of collector unit in ports (default = 1)
-gpgpu_operand_collector_num_out_ports_sfu                    1 # number of collector unit in ports (default = 1)
-gpgpu_operand_collector_num_out_ports_mem                    1 # number of collector unit in ports (default = 1)
-gpgpu_operand_collector_num_out_ports_gen                    0 # number of collector unit in ports (default = 0)
-gpgpu_coalesce_arch                   13 # Coalescing arch (default = 13, anything else is off for now)
-gpgpu_num_sched_per_core                    2 # Number of warp schedulers per core
-gpgpu_max_insn_issue_per_warp                    1 # Max number of instructions that can be issued per warp in one cycle by scheduler
-gpgpu_simt_core_sim_order                    1 # Select the simulation order of cores in a cluster (0=Fix, 1=Round-Robin)
-gpgpu_pipeline_widths        2,1,1,2,1,1,2 # Pipeline widths ID_OC_SP,ID_OC_SFU,ID_OC_MEM,OC_EX_SP,OC_EX_SFU,OC_EX_MEM,EX_WB
-gpgpu_num_sp_units                     2 # Number of SP units (default=1)
-gpgpu_num_sfu_units                    1 # Number of SF units (default=1)
-gpgpu_num_mem_units                    1 # Number if ldst units (default=1) WARNING: not hooked up to anything
-gpgpu_scheduler        warp_limiting:2:4 # Scheduler configuration: < lrr | gto | two_level_active > If two_level_active:<num_active_warps>:<inner_prioritization>:<outer_prioritization>For complete list of prioritization values see shader.h enum scheduler_prioritization_typeDefault: gto
-gpgpu_dram_scheduler                    1 # 0 = fifo, 1 = FR-FCFS (defaul)
-gpgpu_dram_partition_queues              8:8:8:8 # i2$:$2d:d2$:$2i
-l2_ideal                               0 # Use a ideal L2 cache that always hit
-gpgpu_cache:dl2     64:128:8,L:B:m:W:L,A:32:4,4:0,32 # unified banked L2 data cache config  {<nsets>:<bsize>:<assoc>,<rep>:<wr>:<alloc>:<wr_alloc>,<mshr>:<N>:<merge>,<mq>}
-gpgpu_cache:dl2_texture_only                    0 # L2 cache used for texture only
-gpgpu_n_mem                            6 # number of memory modules (e.g. memory controllers) in gpu
-gpgpu_n_sub_partition_per_mchannel                    2 # number of memory subpartition in each memory module
-gpgpu_n_mem_per_ctrlr                    2 # number of memory chips per memory controller
-gpgpu_memlatency_stat                   14 # track and display latency statistics 0x2 enables MC, 0x4 enables queue logs
-gpgpu_frfcfs_dram_sched_queue_size                   16 # 0 = unlimited (default); # entries per chip
-gpgpu_dram_return_queue_size                  116 # 0 = unlimited (default); # entries per chip
-gpgpu_dram_buswidth                    4 # default = 4 bytes (8 bytes per cycle at DDR)
-gpgpu_dram_burst_length                    8 # Burst length of each DRAM request (default = 4 data bus cycle)
-dram_data_command_freq_ratio                    4 # Frequency ratio between DRAM data bus and command bus (default = 2 times, i.e. DDR)
-gpgpu_dram_timing_opt nbk=16:CCD=2:RRD=6:RCD=12:RAS=28:RP=12:RC=40: CL=12:WL=4:CDLR=5:WR=12:nbkgrp=4:CCDL=3:RTPL=2 # DRAM timing parameters = {nbk:tCCD:tRRD:tRCD:tRAS:tRP:tRC:CL:WL:tCDLR:tWR:nbkgrp:tCCDL:tRTPL}
-rop_latency                          120 # ROP queue latency (default 85)
-dram_latency                         100 # DRAM latency (default 30)
-gpgpu_mem_addr_mapping dramid@8;00000000.00000000.00000000.00000000.0000RRRR.RRRRRRRR.BBBCCCCB.CCSSSSSS # mapping memory address to dram model {dramid@<start bit>;<memory address map>}
-gpgpu_mem_addr_test                    0 # run sweep test to check address mapping for aliased address
-gpgpu_mem_address_mask                    1 # 0 = old addressing mask, 1 = new addressing mask, 2 = new add. mask + flipped bank sel and chip sel bits
-gpuwattch_xml_file  gpuwattch_gtx480.xml # GPUWattch XML file
-power_simulation_enabled                    0 # Turn on power simulator (1=On, 0=Off)
-power_per_cycle_dump                    0 # Dump detailed power output each cycle
-power_trace_enabled                    0 # produce a file for the power trace (1=On, 0=Off)
-power_trace_zlevel                     6 # Compression level of the power trace output log (0=no comp, 9=highest)
-steady_power_levels_enabled                    0 # produce a file for the steady power levels (1=On, 0=Off)
-steady_state_definition                  8:4 # allowed deviation:number of samples
-gpgpu_max_cycle                        0 # terminates gpu simulation early (0 = no limit)
-gpgpu_max_insn                         0 # terminates gpu simulation early (0 = no limit)
-gpgpu_max_cta                          0 # terminates gpu simulation early (0 = no limit)
-gpgpu_runtime_stat                   500 # display runtime statistics such as dram utilization {<freq>:<flag>}
-liveness_message_freq                    1 # Minimum number of seconds between simulation liveness messages (0 = always print)
-gpgpu_flush_l1_cache                    0 # Flush L1 cache at the end of each kernel call
-gpgpu_flush_l2_cache                    0 # Flush L2 cache at the end of each kernel call
-gpgpu_deadlock_detect                    1 # Stop the simulation at deadlock (1=on (default), 0=off)
-gpgpu_ptx_instruction_classification                    0 # if enabled will classify ptx instruction types per kernel (Max 255 kernels now)
-gpgpu_ptx_sim_mode                     0 # Select between Performance (default) or Functional simulation (1)
-gpgpu_clock_domains 700.0:700.0:700.0:924.0 # Clock Domain Frequencies in MhZ {<Core Clock>:<ICNT Clock>:<L2 Clock>:<DRAM Clock>}
-gpgpu_max_concurrent_kernel                    8 # maximum kernels that can run concurrently on GPU
-gpgpu_cflog_interval                    0 # Interval between each snapshot in control flow logger
-visualizer_enabled                     0 # Turn on visualizer output (1=On, 0=Off)
-visualizer_outputfile                 NULL # Specifies the output log file for visualizer
-visualizer_zlevel                      6 # Compression level of the visualizer output log (0=no comp, 9=highest)
-trace_enabled                          0 # Turn on traces
-trace_components                    none # comma seperated list of traces to enable. Complete list found in trace_streams.tup. Default none
-trace_sampling_core                    0 # The core which is printed using CORE_DPRINTF. Default 0
-trace_sampling_memory_partition                   -1 # The memory partition which is printed using MEMPART_DPRINTF. Default -1 (i.e. all)
-enable_ptx_file_line_stats                    1 # Turn on PTX source line statistic profiling. (1 = On)
-ptx_line_stats_filename gpgpu_inst_stats.txt # Output file for PTX source line statistics.
-save_embedded_ptx                      0 # saves ptx files embedded in binary as <n>.ptx
-keep                                   0 # keep intermediate files created by GPGPU-Sim when interfacing with external programs
-gpgpu_ptx_save_converted_ptxplus                    0 # Saved converted ptxplus to a file
-ptx_opcode_latency_int         4,13,4,5,145 # Opcode latencies for integers <ADD,MAX,MUL,MAD,DIV>Default 1,1,19,25,145
-ptx_opcode_latency_fp          4,13,4,5,39 # Opcode latencies for single precision floating points <ADD,MAX,MUL,MAD,DIV>Default 1,1,1,1,30
-ptx_opcode_latency_dp         8,19,8,8,330 # Opcode latencies for double precision floating points <ADD,MAX,MUL,MAD,DIV>Default 8,8,8,8,335
-ptx_opcode_initiation_int            1,2,2,1,8 # Opcode initiation intervals for integers <ADD,MAX,MUL,MAD,DIV>Default 1,1,4,4,32
-ptx_opcode_initiation_fp            1,2,1,1,4 # Opcode initiation intervals for single precision floating points <ADD,MAX,MUL,MAD,DIV>Default 1,1,1,1,5
-ptx_opcode_initiation_dp         8,16,8,8,130 # Opcode initiation intervals for double precision floating points <ADD,MAX,MUL,MAD,DIV>Default 8,8,8,8,130
DRAM Timing Options:
nbk                                    16 # number of banks
CCD                                     2 # column to column delay
RRD                                     6 # minimal delay between activation of rows in different banks
RCD                                    12 # row to column delay
RAS                                    28 # time needed to activate row
RP                                     12 # time needed to precharge (deactivate) row
RC                                     40 # row cycle time
CDLR                                    5 # switching from write to read (changes tWTR)
WR                                     12 # last data-in to row precharge
CL                                     12 # CAS latency
WL                                      4 # Write latency
nbkgrp                                  4 # number of bank groups
CCDL                                    3 # column to column delay between accesses to different bank groups
RTPL                                    2 # read to precharge delay between accesses to different bank groups
Total number of memory sub partition = 12
addr_dec_mask[CHIP]  = 0000000000000000 	high:64 low:0
addr_dec_mask[BK]    = 000000000000e100 	high:16 low:8
addr_dec_mask[ROW]   = 000000000fff0000 	high:28 low:16
addr_dec_mask[COL]   = 0000000000001eff 	high:13 low:0
addr_dec_mask[BURST] = 000000000000003f 	high:6 low:0
sub_partition_id_mask = 0000000000000100
GPGPU-Sim uArch: clock freqs: 700000000.000000:700000000.000000:700000000.000000:924000000.000000
GPGPU-Sim uArch: clock periods: 0.00000000142857142857:0.00000000142857142857:0.00000000142857142857:0.00000000108225108225
*** Initializing Memory Statistics ***
GPGPU-Sim uArch: interconnect node map (shaderID+MemID to icntID)
GPGPU-Sim uArch: Memory nodes ID start from index: 15
GPGPU-Sim uArch:    0   1   2   3   4
GPGPU-Sim uArch:    5   6   7   8   9
GPGPU-Sim uArch:   10  11  12  13  14
GPGPU-Sim uArch:   15  16  17  18  19
GPGPU-Sim uArch:   20  21  22  23  24
GPGPU-Sim uArch:   25  26
GPGPU-Sim uArch: interconnect node reverse map (icntID to shaderID+MemID)
GPGPU-Sim uArch: Memory nodes start from ID: 15
GPGPU-Sim uArch:    0   1   2   3   4
GPGPU-Sim uArch:    5   6   7   8   9
GPGPU-Sim uArch:   10  11  12  13  14
GPGPU-Sim uArch:   15  16  17  18  19
GPGPU-Sim uArch:   20  21  22  23  24
GPGPU-Sim uArch:   25  26
af04f0b458cb08397a3295dafdcb0262  /sciclone/data10/hwang07/adwait/applications/benchmarks/CUDA/TRA/gpgpu_ptx_sim__TRA
GPGPU-Sim uArch: performance model initialization complete.
GPGPU-Sim PTX: __cudaRegisterFatBinary, fat_cubin_handle = 1, filename=transpose.cu
self exe links to: /sciclone/data10/hwang07/adwait/applications/benchmarks/CUDA/TRA/gpgpu_ptx_sim__TRA
Running md5sum using "md5sum /sciclone/data10/hwang07/adwait/applications/benchmarks/CUDA/TRA/gpgpu_ptx_sim__TRA "
Parsing file _cuobjdump_complete_output_C95Imb
######### cuobjdump parser ########
## Adding new section ELF
Adding arch: sm_20
Adding identifier: transpose.cu
## Adding new section PTX
Adding ptx filename: _cuobjdump_1.ptx
Adding arch: sm_20
Adding identifier: transpose.cu
Done parsing!!!
GPGPU-Sim PTX: __cudaRegisterFunction _Z15transpose_naivePfS_ii : hostFun 0x0x404f49, fat_cubin_handle = 1
GPGPU-Sim PTX: allocating shared region for "__cuda___cuda_local_var_42235_32_non_const_block24" from 0x0 to 0x440 (shared memory space)
GPGPU-Sim PTX: instruction assembly for function '_Z9transposePfS_ii'...   done.
GPGPU-Sim PTX: finding reconvergence points for '_Z9transposePfS_ii'...
GPGPU-Sim PTX: Finding dominators for '_Z9transposePfS_ii'...
GPGPU-Sim PTX: Finding immediate dominators for '_Z9transposePfS_ii'...
GPGPU-Sim PTX: Finding postdominators for '_Z9transposePfS_ii'...
GPGPU-Sim PTX: Finding immediate postdominators for '_Z9transposePfS_ii'...
GPGPU-Sim PTX: pre-decoding instructions for '_Z9transposePfS_ii'...
GPGPU-Sim PTX: reconvergence points for _Z9transposePfS_ii...
GPGPU-Sim PTX:  1 (potential) branch divergence @  PC=0x088 (_1.ptx:81) @%p1 bra $Lt_0_2306;
GPGPU-Sim PTX:    immediate post dominator      @  PC=0x108 (_1.ptx:99) mov.u64 %rd1, __cuda___cuda_local_var_42235_32_non_const_block24;
GPGPU-Sim PTX:  2 (potential) branch divergence @  PC=0x160 (_1.ptx:111) @%p2 bra $Lt_0_2818;
GPGPU-Sim PTX:    immediate post dominator      @  PC=0x1d8 (_1.ptx:129) exit;
GPGPU-Sim PTX: ... end of reconvergence points for _Z9transposePfS_ii
GPGPU-Sim PTX: ... done pre-decoding instructions for '_Z9transposePfS_ii'.
GPGPU-Sim PTX: instruction assembly for function '_Z15transpose_naivePfS_ii'...   done.
GPGPU-Sim PTX: finding reconvergence points for '_Z15transpose_naivePfS_ii'...
GPGPU-Sim PTX: Finding dominators for '_Z15transpose_naivePfS_ii'...
GPGPU-Sim PTX: Finding immediate dominators for '_Z15transpose_naivePfS_ii'...
GPGPU-Sim PTX: Finding postdominators for '_Z15transpose_naivePfS_ii'...
GPGPU-Sim PTX: Finding immediate postdominators for '_Z15transpose_naivePfS_ii'...
GPGPU-Sim PTX: pre-decoding instructions for '_Z15transpose_naivePfS_ii'...
GPGPU-Sim PTX: reconvergence points for _Z15transpose_naivePfS_ii...
GPGPU-Sim PTX:  1 (potential) branch divergence @  PC=0x278 (_1.ptx:164) @%p1 bra $Lt_1_1282;
GPGPU-Sim PTX:    immediate post dominator      @  PC=0x2f0 (_1.ptx:182) exit;
GPGPU-Sim PTX: ... end of reconvergence points for _Z15transpose_naivePfS_ii
GPGPU-Sim PTX: ... done pre-decoding instructions for '_Z15transpose_naivePfS_ii'.
GPGPU-Sim PTX: finished parsing EMBEDDED .ptx file _1.ptx
Adding _cuobjdump_1.ptx with cubin handle 1
GPGPU-Sim PTX: extracting embedded .ptx to temporary file "_ptx_jmksER"
Running: cat _ptx_jmksER | sed 's/.version 1.5/.version 1.4/' | sed 's/, texmode_independent//' | sed 's/\(\.extern \.const\[1\] .b8 \w\+\)\[\]/\1\[1\]/' | sed 's/const\[.\]/const\[0\]/g' > _ptx2_bKrkfB
GPGPU-Sim PTX: generating ptxinfo using "$CUDA_INSTALL_PATH/bin/ptxas --gpu-name=sm_20 -v _ptx2_bKrkfB --output-file  /dev/null 2> _ptx_jmksERinfo"
GPGPU-Sim PTX: Kernel '_Z15transpose_naivePfS_ii' : regs=8, lmem=0, smem=0, cmem=56
GPGPU-Sim PTX: Kernel '_Z9transposePfS_ii' : regs=9, lmem=0, smem=1088, cmem=56
GPGPU-Sim PTX: removing ptxinfo using "rm -f _ptx_jmksER _ptx2_bKrkfB _ptx_jmksERinfo"
GPGPU-Sim PTX: loading globals with explicit initializers... 
GPGPU-Sim PTX: finished loading globals (0 bytes total).
GPGPU-Sim PTX: loading constants with explicit initializers...  done.
GPGPU-Sim PTX: __cudaRegisterFunction _Z9transposePfS_ii : hostFun 0x0x404e59, fat_cubin_handle = 1

GPGPU-Sim PTX: cudaLaunch for 0x0x404f49 (mode=performance simulation) on stream 0
GPGPU-Sim PTX: pushing kernel '_Z15transpose_naivePfS_ii' to stream 0, gridDim= (16,256,1) blockDim = (16,16,1) 
kernel '_Z15transpose_naivePfS_ii' transfer to GPU hardware scheduler
GPGPU-Sim uArch: Shader 1 bind to kernel 1 '_Z15transpose_naivePfS_ii'
GPGPU-Sim uArch: CTA/core = 6, limited by: threads
GPGPU-Sim uArch: core:  1, cta: 0 initialized @(1,0)
GPGPU-Sim uArch: Shader 2 bind to kernel 1 '_Z15transpose_naivePfS_ii'
GPGPU-Sim uArch: core:  2, cta: 0 initialized @(1,0)
GPGPU-Sim uArch: Shader 3 bind to kernel 1 '_Z15transpose_naivePfS_ii'
GPGPU-Sim uArch: core:  3, cta: 0 initialized @(1,0)
GPGPU-Sim uArch: Shader 4 bind to kernel 1 '_Z15transpose_naivePfS_ii'
GPGPU-Sim uArch: core:  4, cta: 0 initialized @(1,0)
GPGPU-Sim uArch: Shader 5 bind to kernel 1 '_Z15transpose_naivePfS_ii'
GPGPU-Sim uArch: core:  5, cta: 0 initialized @(1,0)
GPGPU-Sim uArch: Shader 6 bind to kernel 1 '_Z15transpose_naivePfS_ii'
GPGPU-Sim uArch: core:  6, cta: 0 initialized @(1,0)
GPGPU-Sim uArch: Shader 7 bind to kernel 1 '_Z15transpose_naivePfS_ii'
GPGPU-Sim uArch: core:  7, cta: 0 initialized @(1,0)
GPGPU-Sim uArch: Shader 8 bind to kernel 1 '_Z15transpose_naivePfS_ii'
GPGPU-Sim uArch: core:  8, cta: 0 initialized @(1,0)
GPGPU-Sim uArch: Shader 9 bind to kernel 1 '_Z15transpose_naivePfS_ii'
GPGPU-Sim uArch: core:  9, cta: 0 initialized @(1,0)
GPGPU-Sim uArch: Shader 10 bind to kernel 1 '_Z15transpose_naivePfS_ii'
GPGPU-Sim uArch: core: 10, cta: 0 initialized @(1,0)
GPGPU-Sim uArch: Shader 11 bind to kernel 1 '_Z15transpose_naivePfS_ii'
GPGPU-Sim uArch: core: 11, cta: 0 initialized @(1,0)
GPGPU-Sim uArch: Shader 12 bind to kernel 1 '_Z15transpose_naivePfS_ii'
GPGPU-Sim uArch: core: 12, cta: 0 initialized @(1,0)
GPGPU-Sim uArch: Shader 13 bind to kernel 1 '_Z15transpose_naivePfS_ii'
GPGPU-Sim uArch: core: 13, cta: 0 initialized @(1,0)
GPGPU-Sim uArch: Shader 14 bind to kernel 1 '_Z15transpose_naivePfS_ii'
GPGPU-Sim uArch: core: 14, cta: 0 initialized @(1,0)
GPGPU-Sim uArch: Shader 0 bind to kernel 1 '_Z15transpose_naivePfS_ii'
GPGPU-Sim uArch: core:  0, cta: 0 initialized @(1,0)
GPGPU-Sim uArch: core:  1, cta: 1 initialized @(2,0)
GPGPU-Sim uArch: core:  2, cta: 1 initialized @(2,0)
GPGPU-Sim uArch: core:  3, cta: 1 initialized @(2,0)
GPGPU-Sim uArch: core:  4, cta: 1 initialized @(2,0)
GPGPU-Sim uArch: core:  5, cta: 1 initialized @(2,0)
GPGPU-Sim uArch: core:  6, cta: 1 initialized @(2,0)
GPGPU-Sim uArch: core:  7, cta: 1 initialized @(2,0)
GPGPU-Sim uArch: core:  8, cta: 1 initialized @(2,0)
GPGPU-Sim uArch: core:  9, cta: 1 initialized @(2,0)
GPGPU-Sim uArch: core: 10, cta: 1 initialized @(2,0)
GPGPU-Sim uArch: core: 11, cta: 1 initialized @(2,0)
GPGPU-Sim uArch: core: 12, cta: 1 initialized @(2,0)
GPGPU-Sim uArch: core: 13, cta: 1 initialized @(2,0)
GPGPU-Sim uArch: core: 14, cta: 1 initialized @(2,0)
GPGPU-Sim uArch: core:  0, cta: 1 initialized @(2,0)
GPGPU-Sim uArch: core:  1, cta: 2 initialized @(3,0)
GPGPU-Sim uArch: core:  2, cta: 2 initialized @(3,0)
GPGPU-Sim uArch: core:  3, cta: 2 initialized @(3,0)
GPGPU-Sim uArch: core:  4, cta: 2 initialized @(3,0)
GPGPU-Sim uArch: core:  5, cta: 2 initialized @(3,0)
GPGPU-Sim uArch: core:  6, cta: 2 initialized @(3,0)
GPGPU-Sim uArch: core:  7, cta: 2 initialized @(3,0)
GPGPU-Sim uArch: core:  8, cta: 2 initialized @(3,0)
GPGPU-Sim uArch: core:  9, cta: 2 initialized @(3,0)
GPGPU-Sim uArch: core: 10, cta: 2 initialized @(3,0)
GPGPU-Sim uArch: core: 11, cta: 2 initialized @(3,0)
GPGPU-Sim uArch: core: 12, cta: 2 initialized @(3,0)
GPGPU-Sim uArch: core: 13, cta: 2 initialized @(3,0)
GPGPU-Sim uArch: core: 14, cta: 2 initialized @(3,0)
GPGPU-Sim uArch: core:  0, cta: 2 initialized @(3,0)
GPGPU-Sim uArch: core:  1, cta: 3 initialized @(4,0)
GPGPU-Sim uArch: core:  2, cta: 3 initialized @(4,0)
GPGPU-Sim uArch: core:  3, cta: 3 initialized @(4,0)
GPGPU-Sim uArch: core:  4, cta: 3 initialized @(4,0)
GPGPU-Sim uArch: core:  5, cta: 3 initialized @(4,0)
GPGPU-Sim uArch: core:  6, cta: 3 initialized @(4,0)
GPGPU-Sim uArch: core:  7, cta: 3 initialized @(4,0)
GPGPU-Sim uArch: core:  8, cta: 3 initialized @(4,0)
GPGPU-Sim uArch: core:  9, cta: 3 initialized @(4,0)
GPGPU-Sim uArch: core: 10, cta: 3 initialized @(4,0)
GPGPU-Sim uArch: core: 11, cta: 3 initialized @(4,0)
GPGPU-Sim uArch: core: 12, cta: 3 initialized @(4,0)
GPGPU-Sim uArch: core: 13, cta: 3 initialized @(4,0)
GPGPU-Sim uArch: core: 14, cta: 3 initialized @(4,0)
GPGPU-Sim uArch: core:  0, cta: 3 initialized @(4,0)
GPGPU-Sim uArch: core:  1, cta: 4 initialized @(5,0)
GPGPU-Sim uArch: core:  2, cta: 4 initialized @(5,0)
GPGPU-Sim uArch: core:  3, cta: 4 initialized @(5,0)
GPGPU-Sim uArch: core:  4, cta: 4 initialized @(5,0)
GPGPU-Sim uArch: core:  5, cta: 4 initialized @(5,0)
GPGPU-Sim uArch: core:  6, cta: 4 initialized @(5,0)
GPGPU-Sim uArch: core:  7, cta: 4 initialized @(5,0)
GPGPU-Sim uArch: core:  8, cta: 4 initialized @(5,0)
GPGPU-Sim uArch: core:  9, cta: 4 initialized @(5,0)
GPGPU-Sim uArch: core: 10, cta: 4 initialized @(5,0)
GPGPU-Sim uArch: core: 11, cta: 4 initialized @(5,0)
GPGPU-Sim uArch: core: 12, cta: 4 initialized @(5,0)
GPGPU-Sim uArch: core: 13, cta: 4 initialized @(5,0)
GPGPU-Sim uArch: core: 14, cta: 4 initialized @(5,0)
GPGPU-Sim uArch: core:  0, cta: 4 initialized @(5,0)
GPGPU-Sim uArch: core:  1, cta: 5 initialized @(6,0)
GPGPU-Sim uArch: core:  2, cta: 5 initialized @(6,0)
GPGPU-Sim uArch: core:  3, cta: 5 initialized @(6,0)
GPGPU-Sim uArch: core:  4, cta: 5 initialized @(6,0)
GPGPU-Sim uArch: core:  5, cta: 5 initialized @(6,0)
GPGPU-Sim uArch: core:  6, cta: 5 initialized @(6,0)
GPGPU-Sim uArch: core:  7, cta: 5 initialized @(6,0)
GPGPU-Sim uArch: core:  8, cta: 5 initialized @(6,0)
GPGPU-Sim uArch: core:  9, cta: 5 initialized @(6,0)
GPGPU-Sim uArch: core: 10, cta: 5 initialized @(6,0)
GPGPU-Sim uArch: core: 11, cta: 5 initialized @(6,0)
GPGPU-Sim uArch: core: 12, cta: 5 initialized @(6,0)
GPGPU-Sim uArch: core: 13, cta: 5 initialized @(6,0)
GPGPU-Sim uArch: core: 14, cta: 5 initialized @(6,0)
GPGPU-Sim uArch: core:  0, cta: 5 initialized @(6,0)
GPGPU-Sim uArch: cycles simulated: 500  inst.: 15360 (ipc=30.7) sim_rate=1920 (inst/sec) elapsed = 0:0:00:08 / Tue Mar 22 12:46:20 2016
GPGPU-Sim PTX: 100000 instructions simulated : ctaid=(13,0,0) tid=(15,1,0)
GPGPU-Sim uArch: cycles simulated: 1500  inst.: 119040 (ipc=79.4) sim_rate=13226 (inst/sec) elapsed = 0:0:00:09 / Tue Mar 22 12:46:21 2016
GPGPU-Sim uArch: cycles simulated: 3000  inst.: 154752 (ipc=51.6) sim_rate=15475 (inst/sec) elapsed = 0:0:00:10 / Tue Mar 22 12:46:22 2016
GPGPU-Sim uArch: cycles simulated: 5000  inst.: 169632 (ipc=33.9) sim_rate=15421 (inst/sec) elapsed = 0:0:00:11 / Tue Mar 22 12:46:23 2016
GPGPU-Sim uArch: cycles simulated: 6000  inst.: 182688 (ipc=30.4) sim_rate=15224 (inst/sec) elapsed = 0:0:00:12 / Tue Mar 22 12:46:24 2016
GPGPU-Sim PTX: 200000 instructions simulated : ctaid=(10,1,0) tid=(15,1,0)
GPGPU-Sim uArch: cycles simulated: 7500  inst.: 199904 (ipc=26.7) sim_rate=15377 (inst/sec) elapsed = 0:0:00:13 / Tue Mar 22 12:46:25 2016
GPGPU-Sim uArch: Shader 0 finished CTA #0 (8428,0), 5 CTAs running
GPGPU-Sim uArch: core:  0, cta: 0 initialized @(8429,0)
GPGPU-Sim uArch: Shader 3 finished CTA #0 (8937,0), 5 CTAs running
GPGPU-Sim uArch: core:  3, cta: 0 initialized @(8938,0)
GPGPU-Sim uArch: cycles simulated: 9000  inst.: 248512 (ipc=27.6) sim_rate=17750 (inst/sec) elapsed = 0:0:00:14 / Tue Mar 22 12:46:26 2016
GPGPU-Sim uArch: Shader 5 finished CTA #0 (9006,0), 5 CTAs running
GPGPU-Sim uArch: core:  5, cta: 0 initialized @(9007,0)
GPGPU-Sim uArch: Shader 2 finished CTA #0 (9157,0), 5 CTAs running
GPGPU-Sim uArch: core:  2, cta: 0 initialized @(9158,0)
GPGPU-Sim uArch: Shader 6 finished CTA #0 (9303,0), 5 CTAs running
GPGPU-Sim uArch: core:  6, cta: 0 initialized @(9304,0)
GPGPU-Sim uArch: Shader 4 finished CTA #0 (9358,0), 5 CTAs running
GPGPU-Sim uArch: core:  4, cta: 0 initialized @(9359,0)
GPGPU-Sim uArch: Shader 9 finished CTA #0 (9394,0), 5 CTAs running
GPGPU-Sim uArch: core:  9, cta: 0 initialized @(9395,0)
GPGPU-Sim uArch: Shader 1 finished CTA #0 (9455,0), 5 CTAs running
GPGPU-Sim uArch: core:  1, cta: 0 initialized @(9456,0)
GPGPU-Sim uArch: Shader 12 finished CTA #0 (9471,0), 5 CTAs running
GPGPU-Sim uArch: core: 12, cta: 0 initialized @(9472,0)
GPGPU-Sim uArch: Shader 11 finished CTA #0 (9523,0), 5 CTAs running
GPGPU-Sim uArch: core: 11, cta: 0 initialized @(9524,0)
GPGPU-Sim uArch: Shader 7 finished CTA #0 (9721,0), 5 CTAs running
GPGPU-Sim uArch: core:  7, cta: 0 initialized @(9722,0)
GPGPU-Sim uArch: Shader 10 finished CTA #0 (9756,0), 5 CTAs running
GPGPU-Sim uArch: core: 10, cta: 0 initialized @(9757,0)
GPGPU-Sim uArch: Shader 8 finished CTA #0 (9784,0), 5 CTAs running
GPGPU-Sim uArch: core:  8, cta: 0 initialized @(9785,0)
GPGPU-Sim uArch: Shader 13 finished CTA #0 (9793,0), 5 CTAs running
GPGPU-Sim uArch: core: 13, cta: 0 initialized @(9794,0)
GPGPU-Sim uArch: Shader 14 finished CTA #0 (9885,0), 5 CTAs running
GPGPU-Sim uArch: core: 14, cta: 0 initialized @(9886,0)
GPGPU-Sim uArch: cycles simulated: 10500  inst.: 280192 (ipc=26.7) sim_rate=18679 (inst/sec) elapsed = 0:0:00:15 / Tue Mar 22 12:46:27 2016
GPGPU-Sim PTX: 300000 instructions simulated : ctaid=(12,2,0) tid=(15,13,0)
GPGPU-Sim uArch: cycles simulated: 12000  inst.: 291968 (ipc=24.3) sim_rate=18248 (inst/sec) elapsed = 0:0:00:16 / Tue Mar 22 12:46:28 2016
GPGPU-Sim uArch: cycles simulated: 13500  inst.: 311616 (ipc=23.1) sim_rate=18330 (inst/sec) elapsed = 0:0:00:17 / Tue Mar 22 12:46:29 2016
GPGPU-Sim uArch: cycles simulated: 15000  inst.: 326272 (ipc=21.8) sim_rate=18126 (inst/sec) elapsed = 0:0:00:18 / Tue Mar 22 12:46:30 2016
GPGPU-Sim uArch: Shader 0 finished CTA #1 (16347,0), 5 CTAs running
GPGPU-Sim uArch: core:  0, cta: 1 initialized @(16348,0)
GPGPU-Sim uArch: cycles simulated: 16500  inst.: 364928 (ipc=22.1) sim_rate=19206 (inst/sec) elapsed = 0:0:00:19 / Tue Mar 22 12:46:31 2016
GPGPU-Sim uArch: Shader 10 finished CTA #1 (16922,0), 5 CTAs running
GPGPU-Sim uArch: core: 10, cta: 1 initialized @(16923,0)
GPGPU-Sim uArch: Shader 13 finished CTA #1 (16960,0), 5 CTAs running
GPGPU-Sim uArch: core: 13, cta: 1 initialized @(16961,0)
GPGPU-Sim uArch: Shader 7 finished CTA #1 (17047,0), 5 CTAs running
GPGPU-Sim uArch: core:  7, cta: 1 initialized @(17048,0)
GPGPU-Sim uArch: Shader 6 finished CTA #1 (17215,0), 5 CTAs running
GPGPU-Sim uArch: core:  6, cta: 1 initialized @(17216,0)
GPGPU-Sim uArch: Shader 3 finished CTA #1 (17293,0), 5 CTAs running
GPGPU-Sim uArch: core:  3, cta: 1 initialized @(17294,0)
GPGPU-Sim PTX: 400000 instructions simulated : ctaid=(11,2,0) tid=(15,1,0)
GPGPU-Sim uArch: cycles simulated: 17500  inst.: 390528 (ipc=22.3) sim_rate=19526 (inst/sec) elapsed = 0:0:00:20 / Tue Mar 22 12:46:32 2016
GPGPU-Sim uArch: Shader 11 finished CTA #1 (17570,0), 5 CTAs running
GPGPU-Sim uArch: core: 11, cta: 1 initialized @(17571,0)
GPGPU-Sim uArch: Shader 9 finished CTA #1 (17619,0), 5 CTAs running
GPGPU-Sim uArch: core:  9, cta: 1 initialized @(17620,0)
GPGPU-Sim uArch: Shader 12 finished CTA #1 (17659,0), 5 CTAs running
GPGPU-Sim uArch: core: 12, cta: 1 initialized @(17660,0)
GPGPU-Sim uArch: Shader 1 finished CTA #1 (17711,0), 5 CTAs running
GPGPU-Sim uArch: core:  1, cta: 1 initialized @(17712,0)
GPGPU-Sim uArch: Shader 2 finished CTA #1 (17883,0), 5 CTAs running
GPGPU-Sim uArch: core:  2, cta: 1 initialized @(17884,0)
GPGPU-Sim uArch: Shader 4 finished CTA #1 (18004,0), 5 CTAs running
GPGPU-Sim uArch: core:  4, cta: 1 initialized @(18005,0)
GPGPU-Sim uArch: Shader 8 finished CTA #1 (18312,0), 5 CTAs running
GPGPU-Sim uArch: core:  8, cta: 1 initialized @(18313,0)
GPGPU-Sim uArch: Shader 14 finished CTA #1 (18411,0), 5 CTAs running
GPGPU-Sim uArch: core: 14, cta: 1 initialized @(18412,0)
GPGPU-Sim uArch: Shader 5 finished CTA #1 (18709,0), 5 CTAs running
GPGPU-Sim uArch: core:  5, cta: 1 initialized @(18710,0)
GPGPU-Sim uArch: cycles simulated: 19000  inst.: 413888 (ipc=21.8) sim_rate=19708 (inst/sec) elapsed = 0:0:00:21 / Tue Mar 22 12:46:33 2016
GPGPU-Sim uArch: cycles simulated: 20000  inst.: 430560 (ipc=21.5) sim_rate=19570 (inst/sec) elapsed = 0:0:00:22 / Tue Mar 22 12:46:34 2016
GPGPU-Sim uArch: cycles simulated: 21500  inst.: 451648 (ipc=21.0) sim_rate=19636 (inst/sec) elapsed = 0:0:00:23 / Tue Mar 22 12:46:35 2016
GPGPU-Sim PTX: 500000 instructions simulated : ctaid=(7,3,0) tid=(15,15,0)
GPGPU-Sim uArch: cycles simulated: 23000  inst.: 494912 (ipc=21.5) sim_rate=20621 (inst/sec) elapsed = 0:0:00:24 / Tue Mar 22 12:46:36 2016
GPGPU-Sim uArch: Shader 13 finished CTA #2 (23256,0), 5 CTAs running
GPGPU-Sim uArch: core: 13, cta: 2 initialized @(23257,0)
GPGPU-Sim uArch: Shader 0 finished CTA #2 (23419,0), 5 CTAs running
GPGPU-Sim uArch: core:  0, cta: 2 initialized @(23420,0)
GPGPU-Sim uArch: Shader 7 finished CTA #2 (23571,0), 5 CTAs running
GPGPU-Sim uArch: core:  7, cta: 2 initialized @(23572,0)
GPGPU-Sim uArch: Shader 10 finished CTA #2 (23623,0), 5 CTAs running
GPGPU-Sim uArch: core: 10, cta: 2 initialized @(23624,0)
GPGPU-Sim uArch: Shader 11 finished CTA #2 (23745,0), 5 CTAs running
GPGPU-Sim uArch: core: 11, cta: 2 initialized @(23746,0)
GPGPU-Sim uArch: cycles simulated: 24000  inst.: 514368 (ipc=21.4) sim_rate=20574 (inst/sec) elapsed = 0:0:00:25 / Tue Mar 22 12:46:37 2016
GPGPU-Sim uArch: Shader 1 finished CTA #2 (24002,0), 5 CTAs running
GPGPU-Sim uArch: core:  1, cta: 2 initialized @(24003,0)
GPGPU-Sim uArch: Shader 9 finished CTA #2 (24326,0), 5 CTAs running
GPGPU-Sim uArch: core:  9, cta: 2 initialized @(24327,0)
GPGPU-Sim uArch: Shader 12 finished CTA #2 (24483,0), 5 CTAs running
GPGPU-Sim uArch: core: 12, cta: 2 initialized @(24484,0)
GPGPU-Sim uArch: Shader 2 finished CTA #2 (25051,0), 5 CTAs running
GPGPU-Sim uArch: core:  2, cta: 2 initialized @(25052,0)
GPGPU-Sim uArch: Shader 3 finished CTA #2 (25139,0), 5 CTAs running
GPGPU-Sim uArch: core:  3, cta: 2 initialized @(25140,0)
GPGPU-Sim uArch: Shader 8 finished CTA #2 (25147,0), 5 CTAs running
GPGPU-Sim uArch: core:  8, cta: 2 initialized @(25148,0)
GPGPU-Sim uArch: cycles simulated: 25500  inst.: 533696 (ipc=20.9) sim_rate=20526 (inst/sec) elapsed = 0:0:00:26 / Tue Mar 22 12:46:38 2016
GPGPU-Sim uArch: cycles simulated: 27000  inst.: 555968 (ipc=20.6) sim_rate=20591 (inst/sec) elapsed = 0:0:00:27 / Tue Mar 22 12:46:39 2016
GPGPU-Sim uArch: Shader 4 finished CTA #2 (27640,0), 5 CTAs running
GPGPU-Sim uArch: core:  4, cta: 2 initialized @(27641,0)
GPGPU-Sim uArch: Shader 14 finished CTA #2 (28324,0), 5 CTAs running
GPGPU-Sim uArch: core: 14, cta: 2 initialized @(28325,0)
GPGPU-Sim uArch: cycles simulated: 28500  inst.: 577920 (ipc=20.3) sim_rate=20640 (inst/sec) elapsed = 0:0:00:28 / Tue Mar 22 12:46:40 2016
GPGPU-Sim PTX: 600000 instructions simulated : ctaid=(2,4,0) tid=(15,11,0)
GPGPU-Sim uArch: Shader 5 finished CTA #2 (28708,0), 5 CTAs running
GPGPU-Sim uArch: core:  5, cta: 2 initialized @(28709,0)
GPGPU-Sim uArch: Shader 6 finished CTA #2 (29658,0), 5 CTAs running
GPGPU-Sim uArch: core:  6, cta: 2 initialized @(29659,0)
GPGPU-Sim uArch: cycles simulated: 30000  inst.: 607104 (ipc=20.2) sim_rate=20934 (inst/sec) elapsed = 0:0:00:29 / Tue Mar 22 12:46:41 2016
GPGPU-Sim uArch: Shader 0 finished CTA #3 (30900,0), 5 CTAs running
GPGPU-Sim uArch: core:  0, cta: 3 initialized @(30901,0)
GPGPU-Sim uArch: Shader 13 finished CTA #3 (31033,0), 5 CTAs running
GPGPU-Sim uArch: core: 13, cta: 3 initialized @(31034,0)
GPGPU-Sim uArch: Shader 11 finished CTA #3 (31366,0), 5 CTAs running
GPGPU-Sim uArch: core: 11, cta: 3 initialized @(31367,0)
GPGPU-Sim uArch: Shader 10 finished CTA #3 (31482,0), 5 CTAs running
GPGPU-Sim uArch: core: 10, cta: 3 initialized @(31483,0)
GPGPU-Sim uArch: cycles simulated: 31500  inst.: 665760 (ipc=21.1) sim_rate=22192 (inst/sec) elapsed = 0:0:00:30 / Tue Mar 22 12:46:42 2016
GPGPU-Sim uArch: Shader 14 finished CTA #3 (31685,0), 5 CTAs running
GPGPU-Sim uArch: core: 14, cta: 3 initialized @(31686,0)
GPGPU-Sim uArch: Shader 9 finished CTA #3 (31738,0), 5 CTAs running
GPGPU-Sim uArch: core:  9, cta: 3 initialized @(31739,0)
GPGPU-Sim uArch: Shader 7 finished CTA #3 (31765,0), 5 CTAs running
GPGPU-Sim uArch: core:  7, cta: 3 initialized @(31766,0)
GPGPU-Sim uArch: Shader 12 finished CTA #3 (31771,0), 5 CTAs running
GPGPU-Sim uArch: core: 12, cta: 3 initialized @(31772,0)
GPGPU-Sim uArch: Shader 0 finished CTA #4 (31901,0), 5 CTAs running
GPGPU-Sim uArch: core:  0, cta: 4 initialized @(31902,0)
GPGPU-Sim uArch: Shader 1 finished CTA #3 (31923,0), 5 CTAs running
GPGPU-Sim uArch: core:  1, cta: 3 initialized @(31924,0)
GPGPU-Sim PTX: 700000 instructions simulated : ctaid=(1,4,0) tid=(15,3,0)
GPGPU-Sim uArch: Shader 8 finished CTA #3 (31996,0), 5 CTAs running
GPGPU-Sim uArch: core:  8, cta: 3 initialized @(31997,0)
GPGPU-Sim uArch: Shader 3 finished CTA #3 (32068,0), 5 CTAs running
GPGPU-Sim uArch: core:  3, cta: 3 initialized @(32069,0)
GPGPU-Sim uArch: Shader 2 finished CTA #3 (32072,0), 5 CTAs running
GPGPU-Sim uArch: core:  2, cta: 3 initialized @(32073,0)
GPGPU-Sim uArch: Shader 5 finished CTA #3 (32174,0), 5 CTAs running
GPGPU-Sim uArch: core:  5, cta: 3 initialized @(32175,0)
GPGPU-Sim uArch: Shader 13 finished CTA #4 (32224,0), 5 CTAs running
GPGPU-Sim uArch: core: 13, cta: 4 initialized @(32225,0)
GPGPU-Sim uArch: Shader 6 finished CTA #3 (32650,0), 5 CTAs running
GPGPU-Sim uArch: core:  6, cta: 3 initialized @(32651,0)
GPGPU-Sim uArch: cycles simulated: 33000  inst.: 715488 (ipc=21.7) sim_rate=23080 (inst/sec) elapsed = 0:0:00:31 / Tue Mar 22 12:46:43 2016
GPGPU-Sim uArch: Shader 4 finished CTA #3 (33018,0), 5 CTAs running
GPGPU-Sim uArch: core:  4, cta: 3 initialized @(33019,0)
GPGPU-Sim uArch: Shader 1 finished CTA #4 (33545,0), 5 CTAs running
GPGPU-Sim uArch: core:  1, cta: 4 initialized @(33546,0)
GPGPU-Sim uArch: Shader 3 finished CTA #4 (33575,0), 5 CTAs running
GPGPU-Sim uArch: core:  3, cta: 4 initialized @(33576,0)
GPGPU-Sim uArch: Shader 2 finished CTA #4 (33647,0), 5 CTAs running
GPGPU-Sim uArch: core:  2, cta: 4 initialized @(33648,0)
GPGPU-Sim uArch: cycles simulated: 34500  inst.: 748352 (ipc=21.7) sim_rate=23386 (inst/sec) elapsed = 0:0:00:32 / Tue Mar 22 12:46:44 2016
GPGPU-Sim uArch: Shader 4 finished CTA #4 (35047,0), 5 CTAs running
GPGPU-Sim uArch: core:  4, cta: 4 initialized @(35048,0)
GPGPU-Sim PTX: 800000 instructions simulated : ctaid=(7,6,0) tid=(15,1,0)
GPGPU-Sim uArch: cycles simulated: 36000  inst.: 776576 (ipc=21.6) sim_rate=23532 (inst/sec) elapsed = 0:0:00:33 / Tue Mar 22 12:46:45 2016
GPGPU-Sim uArch: Shader 11 finished CTA #4 (37213,0), 5 CTAs running
GPGPU-Sim uArch: core: 11, cta: 4 initialized @(37214,0)
GPGPU-Sim uArch: cycles simulated: 37500  inst.: 804096 (ipc=21.4) sim_rate=23649 (inst/sec) elapsed = 0:0:00:34 / Tue Mar 22 12:46:46 2016
GPGPU-Sim uArch: Shader 10 finished CTA #4 (37545,0), 5 CTAs running
GPGPU-Sim uArch: core: 10, cta: 4 initialized @(37546,0)
GPGPU-Sim uArch: Shader 8 finished CTA #4 (38827,0), 5 CTAs running
GPGPU-Sim uArch: core:  8, cta: 4 initialized @(38828,0)
GPGPU-Sim uArch: Shader 0 finished CTA #5 (38908,0), 5 CTAs running
GPGPU-Sim uArch: core:  0, cta: 5 initialized @(38909,0)
GPGPU-Sim uArch: cycles simulated: 39000  inst.: 822272 (ipc=21.1) sim_rate=23493 (inst/sec) elapsed = 0:0:00:35 / Tue Mar 22 12:46:47 2016
GPGPU-Sim uArch: Shader 14 finished CTA #4 (39253,0), 5 CTAs running
GPGPU-Sim uArch: core: 14, cta: 4 initialized @(39254,0)
GPGPU-Sim uArch: Shader 7 finished CTA #4 (39743,0), 5 CTAs running
GPGPU-Sim uArch: core:  7, cta: 4 initialized @(39744,0)
GPGPU-Sim uArch: Shader 5 finished CTA #4 (40200,0), 5 CTAs running
GPGPU-Sim uArch: core:  5, cta: 4 initialized @(40201,0)
GPGPU-Sim uArch: cycles simulated: 40500  inst.: 856960 (ipc=21.2) sim_rate=23804 (inst/sec) elapsed = 0:0:00:36 / Tue Mar 22 12:46:48 2016
GPGPU-Sim uArch: Shader 6 finished CTA #4 (40657,0), 5 CTAs running
GPGPU-Sim uArch: core:  6, cta: 4 initialized @(40658,0)
GPGPU-Sim uArch: Shader 1 finished CTA #5 (40963,0), 5 CTAs running
GPGPU-Sim uArch: core:  1, cta: 5 initialized @(40964,0)
GPGPU-Sim uArch: Shader 13 finished CTA #5 (41043,0), 5 CTAs running
GPGPU-Sim uArch: core: 13, cta: 5 initialized @(41044,0)
GPGPU-Sim uArch: Shader 3 finished CTA #5 (41082,0), 5 CTAs running
GPGPU-Sim uArch: core:  3, cta: 5 initialized @(41083,0)
GPGPU-Sim PTX: 900000 instructions simulated : ctaid=(15,5,0) tid=(15,3,0)
GPGPU-Sim uArch: Shader 2 finished CTA #5 (41244,0), 5 CTAs running
GPGPU-Sim uArch: core:  2, cta: 5 initialized @(41245,0)
GPGPU-Sim uArch: cycles simulated: 42000  inst.: 890464 (ipc=21.2) sim_rate=24066 (inst/sec) elapsed = 0:0:00:37 / Tue Mar 22 12:46:49 2016
GPGPU-Sim uArch: Shader 12 finished CTA #4 (42259,0), 5 CTAs running
GPGPU-Sim uArch: core: 12, cta: 4 initialized @(42260,0)
GPGPU-Sim uArch: Shader 4 finished CTA #5 (42403,0), 5 CTAs running
GPGPU-Sim uArch: core:  4, cta: 5 initialized @(42404,0)
GPGPU-Sim uArch: Shader 9 finished CTA #4 (43276,0), 5 CTAs running
GPGPU-Sim uArch: core:  9, cta: 4 initialized @(43277,0)
GPGPU-Sim uArch: cycles simulated: 43500  inst.: 907904 (ipc=20.9) sim_rate=23892 (inst/sec) elapsed = 0:0:00:38 / Tue Mar 22 12:46:50 2016
GPGPU-Sim uArch: cycles simulated: 44500  inst.: 927360 (ipc=20.8) sim_rate=23778 (inst/sec) elapsed = 0:0:00:39 / Tue Mar 22 12:46:51 2016
GPGPU-Sim uArch: Shader 11 finished CTA #5 (44677,0), 5 CTAs running
GPGPU-Sim uArch: core: 11, cta: 5 initialized @(44678,0)
GPGPU-Sim uArch: Shader 14 finished CTA #5 (44717,0), 5 CTAs running
GPGPU-Sim uArch: core: 14, cta: 5 initialized @(44718,0)
GPGPU-Sim uArch: Shader 10 finished CTA #5 (45374,0), 5 CTAs running
GPGPU-Sim uArch: core: 10, cta: 5 initialized @(45375,0)
GPGPU-Sim uArch: Shader 0 finished CTA #0 (45433,0), 5 CTAs running
GPGPU-Sim uArch: core:  0, cta: 0 initialized @(45434,0)
GPGPU-Sim uArch: cycles simulated: 46000  inst.: 965760 (ipc=21.0) sim_rate=24144 (inst/sec) elapsed = 0:0:00:40 / Tue Mar 22 12:46:52 2016
GPGPU-Sim PTX: 1000000 instructions simulated : ctaid=(6,6,0) tid=(15,11,0)
GPGPU-Sim uArch: Shader 6 finished CTA #5 (46639,0), 5 CTAs running
GPGPU-Sim uArch: core:  6, cta: 5 initialized @(46640,0)
GPGPU-Sim uArch: Shader 8 finished CTA #5 (46641,0), 5 CTAs running
GPGPU-Sim uArch: core:  8, cta: 5 initialized @(46642,0)
GPGPU-Sim uArch: Shader 3 finished CTA #0 (46997,0), 5 CTAs running
GPGPU-Sim uArch: core:  3, cta: 0 initialized @(46998,0)
GPGPU-Sim uArch: Shader 13 finished CTA #0 (47312,0), 5 CTAs running
GPGPU-Sim uArch: core: 13, cta: 0 initialized @(47313,0)
GPGPU-Sim uArch: Shader 5 finished CTA #5 (47564,0), 5 CTAs running
GPGPU-Sim uArch: core:  5, cta: 5 initialized @(47565,0)
GPGPU-Sim uArch: Shader 2 finished CTA #0 (47680,0), 5 CTAs running
GPGPU-Sim uArch: core:  2, cta: 0 initialized @(47681,0)
GPGPU-Sim uArch: Shader 9 finished CTA #5 (47797,0), 5 CTAs running
GPGPU-Sim uArch: core:  9, cta: 5 initialized @(47798,0)
GPGPU-Sim uArch: Shader 1 finished CTA #0 (47906,0), 5 CTAs running
GPGPU-Sim uArch: core:  1, cta: 0 initialized @(47907,0)
GPGPU-Sim uArch: cycles simulated: 48000  inst.: 1018048 (ipc=21.2) sim_rate=24830 (inst/sec) elapsed = 0:0:00:41 / Tue Mar 22 12:46:53 2016
GPGPU-Sim uArch: Shader 7 finished CTA #5 (48274,0), 5 CTAs running
GPGPU-Sim uArch: core:  7, cta: 5 initialized @(48275,0)
GPGPU-Sim uArch: Shader 4 finished CTA #0 (48391,0), 5 CTAs running
GPGPU-Sim uArch: core:  4, cta: 0 initialized @(48392,0)
GPGPU-Sim uArch: cycles simulated: 49000  inst.: 1029664 (ipc=21.0) sim_rate=24515 (inst/sec) elapsed = 0:0:00:42 / Tue Mar 22 12:46:54 2016
GPGPU-Sim uArch: Shader 12 finished CTA #5 (50175,0), 5 CTAs running
GPGPU-Sim uArch: core: 12, cta: 5 initialized @(50176,0)
GPGPU-Sim uArch: cycles simulated: 50500  inst.: 1062944 (ipc=21.0) sim_rate=24719 (inst/sec) elapsed = 0:0:00:43 / Tue Mar 22 12:46:55 2016
GPGPU-Sim uArch: Shader 11 finished CTA #0 (50632,0), 5 CTAs running
GPGPU-Sim uArch: core: 11, cta: 0 initialized @(50633,0)
GPGPU-Sim PTX: 1100000 instructions simulated : ctaid=(2,8,0) tid=(15,1,0)
GPGPU-Sim uArch: Shader 0 finished CTA #1 (51884,0), 5 CTAs running
GPGPU-Sim uArch: core:  0, cta: 1 initialized @(51885,0)
GPGPU-Sim uArch: cycles simulated: 52000  inst.: 1096448 (ipc=21.1) sim_rate=24919 (inst/sec) elapsed = 0:0:00:44 / Tue Mar 22 12:46:56 2016
GPGPU-Sim uArch: Shader 10 finished CTA #0 (52068,0), 5 CTAs running
GPGPU-Sim uArch: core: 10, cta: 0 initialized @(52069,0)
GPGPU-Sim uArch: Shader 5 finished CTA #0 (52841,0), 5 CTAs running
GPGPU-Sim uArch: core:  5, cta: 0 initialized @(52842,0)
GPGPU-Sim uArch: Shader 6 finished CTA #0 (52843,0), 5 CTAs running
GPGPU-Sim uArch: core:  6, cta: 0 initialized @(52844,0)
GPGPU-Sim uArch: Shader 12 finished CTA #0 (53197,0), 5 CTAs running
GPGPU-Sim uArch: core: 12, cta: 0 initialized @(53198,0)
GPGPU-Sim uArch: Shader 3 finished CTA #1 (53275,0), 5 CTAs running
GPGPU-Sim uArch: core:  3, cta: 1 initialized @(53276,0)
GPGPU-Sim uArch: Shader 2 finished CTA #1 (53342,0), 5 CTAs running
GPGPU-Sim uArch: core:  2, cta: 1 initialized @(53343,0)
GPGPU-Sim uArch: Shader 4 finished CTA #1 (53403,0), 5 CTAs running
GPGPU-Sim uArch: core:  4, cta: 1 initialized @(53404,0)
GPGPU-Sim uArch: cycles simulated: 53500  inst.: 1156608 (ipc=21.6) sim_rate=25702 (inst/sec) elapsed = 0:0:00:45 / Tue Mar 22 12:46:57 2016
GPGPU-Sim uArch: Shader 8 finished CTA #0 (53538,0), 5 CTAs running
GPGPU-Sim uArch: core:  8, cta: 0 initialized @(53539,0)
GPGPU-Sim uArch: Shader 13 finished CTA #1 (53573,0), 5 CTAs running
GPGPU-Sim uArch: core: 13, cta: 1 initialized @(53574,0)
GPGPU-Sim PTX: 1200000 instructions simulated : ctaid=(10,9,0) tid=(15,11,0)
GPGPU-Sim uArch: Shader 14 finished CTA #0 (53721,0), 5 CTAs running
GPGPU-Sim uArch: core: 14, cta: 0 initialized @(53722,0)
GPGPU-Sim uArch: Shader 2 finished CTA #2 (53881,0), 5 CTAs running
GPGPU-Sim uArch: core:  2, cta: 2 initialized @(53882,0)
GPGPU-Sim uArch: Shader 1 finished CTA #1 (53883,0), 5 CTAs running
GPGPU-Sim uArch: core:  1, cta: 1 initialized @(53884,0)
GPGPU-Sim uArch: Shader 3 finished CTA #2 (53955,0), 5 CTAs running
GPGPU-Sim uArch: core:  3, cta: 2 initialized @(53956,0)
GPGPU-Sim uArch: cycles simulated: 54500  inst.: 1202944 (ipc=22.1) sim_rate=26150 (inst/sec) elapsed = 0:0:00:46 / Tue Mar 22 12:46:58 2016
GPGPU-Sim uArch: Shader 4 finished CTA #2 (54541,0), 5 CTAs running
GPGPU-Sim uArch: core:  4, cta: 2 initialized @(54542,0)
GPGPU-Sim uArch: Shader 3 finished CTA #3 (54756,0), 5 CTAs running
GPGPU-Sim uArch: core:  3, cta: 3 initialized @(54757,0)
GPGPU-Sim uArch: Shader 2 finished CTA #3 (55289,0), 5 CTAs running
GPGPU-Sim uArch: core:  2, cta: 3 initialized @(55290,0)
GPGPU-Sim uArch: Shader 9 finished CTA #0 (55655,0), 5 CTAs running
GPGPU-Sim uArch: core:  9, cta: 0 initialized @(55656,0)
GPGPU-Sim uArch: Shader 3 finished CTA #4 (55888,0), 5 CTAs running
GPGPU-Sim uArch: core:  3, cta: 4 initialized @(55889,0)
GPGPU-Sim uArch: cycles simulated: 56000  inst.: 1257472 (ipc=22.5) sim_rate=26754 (inst/sec) elapsed = 0:0:00:47 / Tue Mar 22 12:46:59 2016
GPGPU-Sim PTX: 1300000 instructions simulated : ctaid=(10,9,0) tid=(15,15,0)
GPGPU-Sim uArch: Shader 5 finished CTA #1 (56606,0), 5 CTAs running
GPGPU-Sim uArch: core:  5, cta: 1 initialized @(56607,0)
GPGPU-Sim uArch: Shader 4 finished CTA #3 (56622,0), 5 CTAs running
GPGPU-Sim uArch: core:  4, cta: 3 initialized @(56623,0)
GPGPU-Sim uArch: Shader 11 finished CTA #1 (56692,0), 5 CTAs running
GPGPU-Sim uArch: core: 11, cta: 1 initialized @(56693,0)
GPGPU-Sim uArch: Shader 6 finished CTA #1 (56901,0), 5 CTAs running
GPGPU-Sim uArch: core:  6, cta: 1 initialized @(56902,0)
GPGPU-Sim uArch: Shader 2 finished CTA #4 (56992,0), 5 CTAs running
GPGPU-Sim uArch: core:  2, cta: 4 initialized @(56993,0)
GPGPU-Sim uArch: cycles simulated: 57000  inst.: 1315040 (ipc=23.1) sim_rate=27396 (inst/sec) elapsed = 0:0:00:48 / Tue Mar 22 12:47:00 2016
GPGPU-Sim uArch: Shader 10 finished CTA #1 (57273,0), 5 CTAs running
GPGPU-Sim uArch: core: 10, cta: 1 initialized @(57274,0)
GPGPU-Sim uArch: Shader 3 finished CTA #5 (57344,0), 5 CTAs running
GPGPU-Sim uArch: core:  3, cta: 5 initialized @(57345,0)
GPGPU-Sim uArch: Shader 4 finished CTA #4 (57439,0), 5 CTAs running
GPGPU-Sim uArch: core:  4, cta: 4 initialized @(57440,0)
GPGPU-Sim uArch: Shader 14 finished CTA #1 (57550,0), 5 CTAs running
GPGPU-Sim uArch: core: 14, cta: 1 initialized @(57551,0)
GPGPU-Sim uArch: Shader 13 finished CTA #2 (57650,0), 5 CTAs running
GPGPU-Sim uArch: core: 13, cta: 2 initialized @(57651,0)
GPGPU-Sim uArch: Shader 0 finished CTA #2 (57669,0), 5 CTAs running
GPGPU-Sim uArch: core:  0, cta: 2 initialized @(57670,0)
GPGPU-Sim PTX: 1400000 instructions simulated : ctaid=(5,10,0) tid=(15,1,0)
GPGPU-Sim uArch: Shader 8 finished CTA #1 (57758,0), 5 CTAs running
GPGPU-Sim uArch: core:  8, cta: 1 initialized @(57759,0)
GPGPU-Sim uArch: Shader 7 finished CTA #0 (57924,0), 5 CTAs running
GPGPU-Sim uArch: core:  7, cta: 0 initialized @(57925,0)
GPGPU-Sim uArch: Shader 1 finished CTA #2 (57980,0), 5 CTAs running
GPGPU-Sim uArch: core:  1, cta: 2 initialized @(57981,0)
GPGPU-Sim uArch: Shader 5 finished CTA #2 (58025,0), 5 CTAs running
GPGPU-Sim uArch: core:  5, cta: 2 initialized @(58026,0)
GPGPU-Sim uArch: Shader 9 finished CTA #1 (58371,0), 5 CTAs running
GPGPU-Sim uArch: core:  9, cta: 1 initialized @(58372,0)
GPGPU-Sim uArch: cycles simulated: 58500  inst.: 1390944 (ipc=23.8) sim_rate=28386 (inst/sec) elapsed = 0:0:00:49 / Tue Mar 22 12:47:01 2016
GPGPU-Sim uArch: Shader 11 finished CTA #2 (58590,0), 5 CTAs running
GPGPU-Sim uArch: core: 11, cta: 2 initialized @(58591,0)
GPGPU-Sim uArch: Shader 10 finished CTA #2 (58663,0), 5 CTAs running
GPGPU-Sim uArch: core: 10, cta: 2 initialized @(58664,0)
GPGPU-Sim uArch: Shader 12 finished CTA #1 (58737,0), 5 CTAs running
GPGPU-Sim uArch: core: 12, cta: 1 initialized @(58738,0)
GPGPU-Sim uArch: cycles simulated: 59500  inst.: 1418560 (ipc=23.8) sim_rate=28371 (inst/sec) elapsed = 0:0:00:50 / Tue Mar 22 12:47:02 2016
GPGPU-Sim uArch: Shader 7 finished CTA #1 (59781,0), 5 CTAs running
GPGPU-Sim uArch: core:  7, cta: 1 initialized @(59782,0)
GPGPU-Sim uArch: Shader 6 finished CTA #2 (59805,0), 5 CTAs running
GPGPU-Sim uArch: core:  6, cta: 2 initialized @(59806,0)
GPGPU-Sim uArch: cycles simulated: 60500  inst.: 1440160 (ipc=23.8) sim_rate=28238 (inst/sec) elapsed = 0:0:00:51 / Tue Mar 22 12:47:03 2016
GPGPU-Sim uArch: Shader 14 finished CTA #2 (60523,0), 5 CTAs running
GPGPU-Sim uArch: core: 14, cta: 2 initialized @(60524,0)
GPGPU-Sim uArch: Shader 9 finished CTA #2 (60976,0), 5 CTAs running
GPGPU-Sim uArch: core:  9, cta: 2 initialized @(60977,0)
GPGPU-Sim uArch: Shader 3 finished CTA #0 (61111,0), 5 CTAs running
GPGPU-Sim uArch: core:  3, cta: 0 initialized @(61112,0)
GPGPU-Sim PTX: 1500000 instructions simulated : ctaid=(9,12,0) tid=(15,5,0)
GPGPU-Sim uArch: Shader 2 finished CTA #5 (61305,0), 5 CTAs running
GPGPU-Sim uArch: core:  2, cta: 5 initialized @(61306,0)
GPGPU-Sim uArch: Shader 12 finished CTA #2 (61453,0), 5 CTAs running
GPGPU-Sim uArch: core: 12, cta: 2 initialized @(61454,0)
GPGPU-Sim uArch: Shader 4 finished CTA #5 (61611,0), 5 CTAs running
GPGPU-Sim uArch: core:  4, cta: 5 initialized @(61612,0)
GPGPU-Sim uArch: Shader 3 finished CTA #1 (61680,0), 5 CTAs running
GPGPU-Sim uArch: core:  3, cta: 1 initialized @(61681,0)
GPGPU-Sim uArch: cycles simulated: 62000  inst.: 1486784 (ipc=24.0) sim_rate=28592 (inst/sec) elapsed = 0:0:00:52 / Tue Mar 22 12:47:04 2016
GPGPU-Sim uArch: Shader 3 finished CTA #2 (62916,0), 5 CTAs running
GPGPU-Sim uArch: core:  3, cta: 2 initialized @(62917,0)
GPGPU-Sim uArch: cycles simulated: 63000  inst.: 1529952 (ipc=24.3) sim_rate=28867 (inst/sec) elapsed = 0:0:00:53 / Tue Mar 22 12:47:05 2016
GPGPU-Sim uArch: Shader 5 finished CTA #3 (63022,0), 5 CTAs running
GPGPU-Sim uArch: core:  5, cta: 3 initialized @(63023,0)
GPGPU-Sim PTX: 1600000 instructions simulated : ctaid=(5,14,0) tid=(15,5,0)
GPGPU-Sim uArch: Shader 13 finished CTA #3 (63713,0), 5 CTAs running
GPGPU-Sim uArch: core: 13, cta: 3 initialized @(63714,0)
GPGPU-Sim uArch: Shader 0 finished CTA #3 (63760,0), 5 CTAs running
GPGPU-Sim uArch: core:  0, cta: 3 initialized @(63761,0)
GPGPU-Sim uArch: Shader 1 finished CTA #3 (63911,0), 5 CTAs running
GPGPU-Sim uArch: core:  1, cta: 3 initialized @(63912,0)
GPGPU-Sim uArch: Shader 3 finished CTA #3 (64175,0), 5 CTAs running
GPGPU-Sim uArch: core:  3, cta: 3 initialized @(64176,0)
GPGPU-Sim uArch: Shader 2 finished CTA #0 (64365,0), 5 CTAs running
GPGPU-Sim uArch: core:  2, cta: 0 initialized @(64366,0)
GPGPU-Sim uArch: Shader 8 finished CTA #2 (64405,0), 5 CTAs running
GPGPU-Sim uArch: core:  8, cta: 2 initialized @(64406,0)
GPGPU-Sim uArch: Shader 11 finished CTA #3 (64453,0), 5 CTAs running
GPGPU-Sim uArch: core: 11, cta: 3 initialized @(64454,0)
GPGPU-Sim uArch: cycles simulated: 64500  inst.: 1608160 (ipc=24.9) sim_rate=29780 (inst/sec) elapsed = 0:0:00:54 / Tue Mar 22 12:47:06 2016
GPGPU-Sim uArch: Shader 7 finished CTA #2 (64602,0), 5 CTAs running
GPGPU-Sim uArch: core:  7, cta: 2 initialized @(64603,0)
GPGPU-Sim uArch: Shader 10 finished CTA #3 (64744,0), 5 CTAs running
GPGPU-Sim uArch: core: 10, cta: 3 initialized @(64745,0)
GPGPU-Sim uArch: Shader 3 finished CTA #4 (64758,0), 5 CTAs running
GPGPU-Sim uArch: core:  3, cta: 4 initialized @(64759,0)
GPGPU-Sim uArch: Shader 2 finished CTA #1 (64778,0), 5 CTAs running
GPGPU-Sim uArch: core:  2, cta: 1 initialized @(64779,0)
GPGPU-Sim uArch: Shader 6 finished CTA #3 (65097,0), 5 CTAs running
GPGPU-Sim uArch: core:  6, cta: 3 initialized @(65098,0)
GPGPU-Sim uArch: Shader 4 finished CTA #0 (65177,0), 5 CTAs running
GPGPU-Sim uArch: core:  4, cta: 0 initialized @(65178,0)
GPGPU-Sim uArch: Shader 3 finished CTA #5 (65401,0), 5 CTAs running
GPGPU-Sim uArch: core:  3, cta: 5 initialized @(65402,0)
GPGPU-Sim PTX: 1700000 instructions simulated : ctaid=(10,13,0) tid=(15,9,0)
GPGPU-Sim uArch: Shader 2 finished CTA #2 (65540,0), 5 CTAs running
GPGPU-Sim uArch: core:  2, cta: 2 initialized @(65541,0)
GPGPU-Sim uArch: Shader 3 finished CTA #0 (65828,0), 5 CTAs running
GPGPU-Sim uArch: core:  3, cta: 0 initialized @(65829,0)
GPGPU-Sim uArch: Shader 4 finished CTA #1 (65832,0), 5 CTAs running
GPGPU-Sim uArch: core:  4, cta: 1 initialized @(65833,0)
GPGPU-Sim uArch: cycles simulated: 66000  inst.: 1673440 (ipc=25.4) sim_rate=30426 (inst/sec) elapsed = 0:0:00:55 / Tue Mar 22 12:47:07 2016
GPGPU-Sim uArch: Shader 2 finished CTA #3 (66328,0), 5 CTAs running
GPGPU-Sim uArch: core:  2, cta: 3 initialized @(66329,0)
GPGPU-Sim uArch: Shader 4 finished CTA #2 (66775,0), 5 CTAs running
GPGPU-Sim uArch: core:  4, cta: 2 initialized @(66776,0)
GPGPU-Sim uArch: Shader 2 finished CTA #4 (66810,0), 5 CTAs running
GPGPU-Sim uArch: core:  2, cta: 4 initialized @(66811,0)
GPGPU-Sim uArch: cycles simulated: 67000  inst.: 1732640 (ipc=25.9) sim_rate=30940 (inst/sec) elapsed = 0:0:00:56 / Tue Mar 22 12:47:08 2016
GPGPU-Sim uArch: Shader 3 finished CTA #1 (67108,0), 5 CTAs running
GPGPU-Sim uArch: core:  3, cta: 1 initialized @(67109,0)
GPGPU-Sim PTX: 1800000 instructions simulated : ctaid=(9,15,0) tid=(15,13,0)
GPGPU-Sim uArch: Shader 9 finished CTA #3 (67547,0), 5 CTAs running
GPGPU-Sim uArch: core:  9, cta: 3 initialized @(67548,0)
GPGPU-Sim uArch: Shader 12 finished CTA #3 (67740,0), 5 CTAs running
GPGPU-Sim uArch: core: 12, cta: 3 initialized @(67741,0)
GPGPU-Sim uArch: Shader 4 finished CTA #3 (67831,0), 5 CTAs running
GPGPU-Sim uArch: core:  4, cta: 3 initialized @(67832,0)
GPGPU-Sim uArch: Shader 7 finished CTA #3 (67972,0), 5 CTAs running
GPGPU-Sim uArch: core:  7, cta: 3 initialized @(67973,0)
GPGPU-Sim uArch: Shader 2 finished CTA #5 (68116,0), 5 CTAs running
GPGPU-Sim uArch: core:  2, cta: 5 initialized @(68117,0)
GPGPU-Sim uArch: Shader 4 finished CTA #4 (68187,0), 5 CTAs running
GPGPU-Sim uArch: core:  4, cta: 4 initialized @(68188,0)
GPGPU-Sim uArch: Shader 13 finished CTA #4 (68194,0), 5 CTAs running
GPGPU-Sim uArch: core: 13, cta: 4 initialized @(68195,0)
GPGPU-Sim uArch: Shader 14 finished CTA #3 (68241,0), 5 CTAs running
GPGPU-Sim uArch: core: 14, cta: 3 initialized @(68242,0)
GPGPU-Sim uArch: Shader 5 finished CTA #4 (68303,0), 5 CTAs running
GPGPU-Sim uArch: core:  5, cta: 4 initialized @(68304,0)
GPGPU-Sim uArch: cycles simulated: 68500  inst.: 1819776 (ipc=26.6) sim_rate=31925 (inst/sec) elapsed = 0:0:00:57 / Tue Mar 22 12:47:09 2016
GPGPU-Sim uArch: Shader 11 finished CTA #4 (68733,0), 5 CTAs running
GPGPU-Sim uArch: core: 11, cta: 4 initialized @(68734,0)
GPGPU-Sim uArch: Shader 3 finished CTA #2 (68764,0), 5 CTAs running
GPGPU-Sim uArch: core:  3, cta: 2 initialized @(68765,0)
GPGPU-Sim PTX: 1900000 instructions simulated : ctaid=(8,15,0) tid=(15,11,0)
GPGPU-Sim uArch: Shader 10 finished CTA #4 (69036,0), 5 CTAs running
GPGPU-Sim uArch: core: 10, cta: 4 initialized @(69037,0)
GPGPU-Sim uArch: Shader 2 finished CTA #0 (69055,0), 5 CTAs running
GPGPU-Sim uArch: core:  2, cta: 0 initialized @(69056,0)
GPGPU-Sim uArch: Shader 0 finished CTA #4 (69076,0), 5 CTAs running
GPGPU-Sim uArch: core:  0, cta: 4 initialized @(69077,0)
GPGPU-Sim uArch: Shader 4 finished CTA #5 (69348,0), 5 CTAs running
GPGPU-Sim uArch: core:  4, cta: 5 initialized @(69349,0)
GPGPU-Sim uArch: Shader 8 finished CTA #3 (69662,0), 5 CTAs running
GPGPU-Sim uArch: core:  8, cta: 3 initialized @(69663,0)
GPGPU-Sim uArch: Shader 14 finished CTA #4 (69705,0), 5 CTAs running
GPGPU-Sim uArch: core: 14, cta: 4 initialized @(69706,0)
GPGPU-Sim uArch: Shader 6 finished CTA #4 (69782,0), 5 CTAs running
GPGPU-Sim uArch: core:  6, cta: 4 initialized @(69783,0)
GPGPU-Sim uArch: Shader 2 finished CTA #1 (69886,0), 5 CTAs running
GPGPU-Sim uArch: core:  2, cta: 1 initialized @(69887,0)
GPGPU-Sim uArch: Shader 3 finished CTA #3 (69951,0), 5 CTAs running
GPGPU-Sim uArch: core:  3, cta: 3 initialized @(69952,0)
GPGPU-Sim uArch: cycles simulated: 70000  inst.: 1888992 (ipc=27.0) sim_rate=32568 (inst/sec) elapsed = 0:0:00:58 / Tue Mar 22 12:47:10 2016
GPGPU-Sim uArch: Shader 7 finished CTA #4 (70275,0), 5 CTAs running
GPGPU-Sim uArch: core:  7, cta: 4 initialized @(70276,0)
GPGPU-Sim uArch: Shader 4 finished CTA #0 (70534,0), 5 CTAs running
GPGPU-Sim uArch: core:  4, cta: 0 initialized @(70535,0)
GPGPU-Sim uArch: Shader 5 finished CTA #5 (71074,0), 5 CTAs running
GPGPU-Sim uArch: core:  5, cta: 5 initialized @(71075,0)
GPGPU-Sim PTX: 2000000 instructions simulated : ctaid=(14,12,0) tid=(15,7,0)
GPGPU-Sim uArch: Shader 9 finished CTA #4 (71311,0), 5 CTAs running
GPGPU-Sim uArch: core:  9, cta: 4 initialized @(71312,0)
GPGPU-Sim uArch: Shader 1 finished CTA #4 (71326,0), 5 CTAs running
GPGPU-Sim uArch: core:  1, cta: 4 initialized @(71327,0)
GPGPU-Sim uArch: Shader 3 finished CTA #4 (71369,0), 5 CTAs running
GPGPU-Sim uArch: core:  3, cta: 4 initialized @(71370,0)
GPGPU-Sim uArch: Shader 2 finished CTA #2 (71447,0), 5 CTAs running
GPGPU-Sim uArch: core:  2, cta: 2 initialized @(71448,0)
GPGPU-Sim uArch: cycles simulated: 71500  inst.: 1958880 (ipc=27.4) sim_rate=33201 (inst/sec) elapsed = 0:0:00:59 / Tue Mar 22 12:47:11 2016
GPGPU-Sim uArch: Shader 4 finished CTA #1 (71730,0), 5 CTAs running
GPGPU-Sim uArch: core:  4, cta: 1 initialized @(71731,0)
GPGPU-Sim uArch: Shader 2 finished CTA #3 (71835,0), 5 CTAs running
GPGPU-Sim uArch: core:  2, cta: 3 initialized @(71836,0)
GPGPU-Sim uArch: Shader 2 finished CTA #4 (72129,0), 5 CTAs running
GPGPU-Sim uArch: core:  2, cta: 4 initialized @(72130,0)
GPGPU-Sim uArch: Shader 4 finished CTA #2 (72269,0), 5 CTAs running
GPGPU-Sim uArch: core:  4, cta: 2 initialized @(72270,0)
GPGPU-Sim uArch: Shader 3 finished CTA #5 (72766,0), 5 CTAs running
GPGPU-Sim uArch: core:  3, cta: 5 initialized @(72767,0)
GPGPU-Sim uArch: cycles simulated: 73000  inst.: 2030144 (ipc=27.8) sim_rate=33835 (inst/sec) elapsed = 0:0:01:00 / Tue Mar 22 12:47:12 2016
GPGPU-Sim PTX: 2100000 instructions simulated : ctaid=(5,12,0) tid=(15,7,0)
GPGPU-Sim uArch: Shader 2 finished CTA #5 (73118,0), 5 CTAs running
GPGPU-Sim uArch: core:  2, cta: 5 initialized @(73119,0)
GPGPU-Sim uArch: Shader 4 finished CTA #3 (73327,0), 5 CTAs running
GPGPU-Sim uArch: core:  4, cta: 3 initialized @(73328,0)
GPGPU-Sim uArch: Shader 13 finished CTA #5 (73808,0), 5 CTAs running
GPGPU-Sim uArch: core: 13, cta: 5 initialized @(73809,0)
GPGPU-Sim uArch: Shader 7 finished CTA #5 (73809,0), 5 CTAs running
GPGPU-Sim uArch: core:  7, cta: 5 initialized @(73810,0)
GPGPU-Sim uArch: Shader 4 finished CTA #4 (73888,0), 5 CTAs running
GPGPU-Sim uArch: core:  4, cta: 4 initialized @(73889,0)
GPGPU-Sim uArch: Shader 12 finished CTA #4 (73963,0), 5 CTAs running
GPGPU-Sim uArch: core: 12, cta: 4 initialized @(73964,0)
GPGPU-Sim uArch: Shader 2 finished CTA #0 (74256,0), 5 CTAs running
GPGPU-Sim uArch: core:  2, cta: 0 initialized @(74257,0)
GPGPU-Sim uArch: Shader 3 finished CTA #0 (74302,0), 5 CTAs running
GPGPU-Sim uArch: core:  3, cta: 0 initialized @(74303,0)
GPGPU-Sim uArch: Shader 10 finished CTA #5 (74323,0), 5 CTAs running
GPGPU-Sim uArch: core: 10, cta: 5 initialized @(74324,0)
GPGPU-Sim uArch: Shader 8 finished CTA #4 (74453,0), 5 CTAs running
GPGPU-Sim uArch: core:  8, cta: 4 initialized @(74454,0)
GPGPU-Sim uArch: cycles simulated: 74500  inst.: 2121504 (ipc=28.5) sim_rate=34778 (inst/sec) elapsed = 0:0:01:01 / Tue Mar 22 12:47:13 2016
GPGPU-Sim uArch: Shader 5 finished CTA #0 (74530,0), 5 CTAs running
GPGPU-Sim uArch: core:  5, cta: 0 initialized @(74531,0)
GPGPU-Sim uArch: Shader 14 finished CTA #5 (74612,0), 5 CTAs running
GPGPU-Sim uArch: core: 14, cta: 5 initialized @(74613,0)
GPGPU-Sim uArch: Shader 9 finished CTA #5 (74673,0), 5 CTAs running
GPGPU-Sim uArch: core:  9, cta: 5 initialized @(74674,0)
GPGPU-Sim PTX: 2200000 instructions simulated : ctaid=(2,14,0) tid=(15,5,0)
GPGPU-Sim uArch: Shader 5 finished CTA #1 (75027,0), 5 CTAs running
GPGPU-Sim uArch: core:  5, cta: 1 initialized @(75028,0)
GPGPU-Sim uArch: Shader 11 finished CTA #5 (75057,0), 5 CTAs running
GPGPU-Sim uArch: core: 11, cta: 5 initialized @(75058,0)
GPGPU-Sim uArch: Shader 0 finished CTA #5 (75097,0), 5 CTAs running
GPGPU-Sim uArch: core:  0, cta: 5 initialized @(75098,0)
GPGPU-Sim uArch: Shader 9 finished CTA #0 (75337,0), 5 CTAs running
GPGPU-Sim uArch: core:  9, cta: 0 initialized @(75338,0)
GPGPU-Sim uArch: Shader 14 finished CTA #0 (75401,0), 5 CTAs running
GPGPU-Sim uArch: core: 14, cta: 0 initialized @(75402,0)
GPGPU-Sim uArch: cycles simulated: 75500  inst.: 2184064 (ipc=28.9) sim_rate=35226 (inst/sec) elapsed = 0:0:01:02 / Tue Mar 22 12:47:14 2016
GPGPU-Sim uArch: Shader 7 finished CTA #0 (75607,0), 5 CTAs running
GPGPU-Sim uArch: core:  7, cta: 0 initialized @(75608,0)
GPGPU-Sim uArch: Shader 6 finished CTA #5 (75683,0), 5 CTAs running
GPGPU-Sim uArch: core:  6, cta: 5 initialized @(75684,0)
GPGPU-Sim uArch: Shader 1 finished CTA #5 (76128,0), 5 CTAs running
GPGPU-Sim uArch: core:  1, cta: 5 initialized @(76129,0)
GPGPU-Sim uArch: Shader 2 finished CTA #1 (76140,0), 5 CTAs running
GPGPU-Sim uArch: core:  2, cta: 1 initialized @(76141,0)
GPGPU-Sim uArch: Shader 4 finished CTA #5 (76212,0), 5 CTAs running
GPGPU-Sim uArch: core:  4, cta: 5 initialized @(76213,0)
GPGPU-Sim PTX: 2300000 instructions simulated : ctaid=(0,17,0) tid=(15,5,0)
GPGPU-Sim uArch: Shader 14 finished CTA #1 (76426,0), 5 CTAs running
GPGPU-Sim uArch: core: 14, cta: 1 initialized @(76427,0)
GPGPU-Sim uArch: Shader 9 finished CTA #1 (76668,0), 5 CTAs running
GPGPU-Sim uArch: core:  9, cta: 1 initialized @(76669,0)
GPGPU-Sim uArch: Shader 5 finished CTA #2 (76732,0), 5 CTAs running
GPGPU-Sim uArch: core:  5, cta: 2 initialized @(76733,0)
GPGPU-Sim uArch: cycles simulated: 77000  inst.: 2261632 (ipc=29.4) sim_rate=35898 (inst/sec) elapsed = 0:0:01:03 / Tue Mar 22 12:47:15 2016
GPGPU-Sim uArch: Shader 4 finished CTA #0 (77190,0), 5 CTAs running
GPGPU-Sim uArch: core:  4, cta: 0 initialized @(77191,0)
GPGPU-Sim uArch: Shader 13 finished CTA #0 (77330,0), 5 CTAs running
GPGPU-Sim uArch: core: 13, cta: 0 initialized @(77331,0)
GPGPU-Sim uArch: Shader 7 finished CTA #1 (77446,0), 5 CTAs running
GPGPU-Sim uArch: core:  7, cta: 1 initialized @(77447,0)
GPGPU-Sim uArch: Shader 13 finished CTA #1 (77456,0), 5 CTAs running
GPGPU-Sim uArch: core: 13, cta: 1 initialized @(77457,0)
GPGPU-Sim uArch: Shader 8 finished CTA #5 (77662,0), 5 CTAs running
GPGPU-Sim uArch: core:  8, cta: 5 initialized @(77663,0)
GPGPU-Sim uArch: Shader 13 finished CTA #2 (77853,0), 5 CTAs running
GPGPU-Sim uArch: core: 13, cta: 2 initialized @(77854,0)
GPGPU-Sim uArch: Shader 8 finished CTA #0 (77953,0), 5 CTAs running
GPGPU-Sim uArch: core:  8, cta: 0 initialized @(77954,0)
GPGPU-Sim uArch: Shader 3 finished CTA #1 (78093,0), 5 CTAs running
GPGPU-Sim uArch: core:  3, cta: 1 initialized @(78094,0)
GPGPU-Sim PTX: 2400000 instructions simulated : ctaid=(0,13,0) tid=(15,3,0)
GPGPU-Sim uArch: Shader 1 finished CTA #0 (78152,0), 5 CTAs running
GPGPU-Sim uArch: core:  1, cta: 0 initialized @(78153,0)
GPGPU-Sim uArch: Shader 12 finished CTA #5 (78226,0), 5 CTAs running
GPGPU-Sim uArch: core: 12, cta: 5 initialized @(78227,0)
GPGPU-Sim uArch: cycles simulated: 78500  inst.: 2360128 (ipc=30.1) sim_rate=36877 (inst/sec) elapsed = 0:0:01:04 / Tue Mar 22 12:47:16 2016
GPGPU-Sim uArch: Shader 6 finished CTA #0 (78555,0), 5 CTAs running
GPGPU-Sim uArch: core:  6, cta: 0 initialized @(78556,0)
GPGPU-Sim uArch: Shader 10 finished CTA #0 (78651,0), 5 CTAs running
GPGPU-Sim uArch: core: 10, cta: 0 initialized @(78652,0)
GPGPU-Sim uArch: Shader 9 finished CTA #2 (78681,0), 5 CTAs running
GPGPU-Sim uArch: core:  9, cta: 2 initialized @(78682,0)
GPGPU-Sim uArch: Shader 1 finished CTA #1 (78809,0), 5 CTAs running
GPGPU-Sim uArch: core:  1, cta: 1 initialized @(78810,0)
GPGPU-Sim uArch: Shader 0 finished CTA #0 (78959,0), 5 CTAs running
GPGPU-Sim uArch: core:  0, cta: 0 initialized @(78960,0)
GPGPU-Sim uArch: Shader 11 finished CTA #0 (78969,0), 5 CTAs running
GPGPU-Sim uArch: core: 11, cta: 0 initialized @(78970,0)
GPGPU-Sim uArch: Shader 2 finished CTA #2 (79006,0), 5 CTAs running
GPGPU-Sim uArch: core:  2, cta: 2 initialized @(79007,0)
GPGPU-Sim uArch: Shader 12 finished CTA #0 (79195,0), 5 CTAs running
GPGPU-Sim uArch: core: 12, cta: 0 initialized @(79196,0)
GPGPU-Sim PTX: 2500000 instructions simulated : ctaid=(13,14,0) tid=(15,5,0)
GPGPU-Sim uArch: Shader 14 finished CTA #2 (79715,0), 5 CTAs running
GPGPU-Sim uArch: core: 14, cta: 2 initialized @(79716,0)
GPGPU-Sim uArch: cycles simulated: 80000  inst.: 2437792 (ipc=30.5) sim_rate=37504 (inst/sec) elapsed = 0:0:01:05 / Tue Mar 22 12:47:17 2016
GPGPU-Sim uArch: Shader 5 finished CTA #3 (80277,0), 5 CTAs running
GPGPU-Sim uArch: core:  5, cta: 3 initialized @(80278,0)
GPGPU-Sim uArch: Shader 10 finished CTA #1 (80357,0), 5 CTAs running
GPGPU-Sim uArch: core: 10, cta: 1 initialized @(80358,0)
GPGPU-Sim uArch: Shader 0 finished CTA #1 (80390,0), 5 CTAs running
GPGPU-Sim uArch: core:  0, cta: 1 initialized @(80391,0)
GPGPU-Sim uArch: Shader 13 finished CTA #3 (80906,0), 5 CTAs running
GPGPU-Sim uArch: core: 13, cta: 3 initialized @(80907,0)
GPGPU-Sim uArch: Shader 1 finished CTA #2 (80925,0), 5 CTAs running
GPGPU-Sim uArch: core:  1, cta: 2 initialized @(80926,0)
GPGPU-Sim uArch: Shader 6 finished CTA #1 (80957,0), 5 CTAs running
GPGPU-Sim uArch: core:  6, cta: 1 initialized @(80958,0)
GPGPU-Sim uArch: cycles simulated: 81000  inst.: 2491072 (ipc=30.8) sim_rate=37743 (inst/sec) elapsed = 0:0:01:06 / Tue Mar 22 12:47:18 2016
GPGPU-Sim uArch: Shader 11 finished CTA #1 (81035,0), 5 CTAs running
GPGPU-Sim uArch: core: 11, cta: 1 initialized @(81036,0)
GPGPU-Sim uArch: Shader 2 finished CTA #3 (81153,0), 5 CTAs running
GPGPU-Sim uArch: core:  2, cta: 3 initialized @(81154,0)
GPGPU-Sim uArch: Shader 4 finished CTA #1 (81301,0), 5 CTAs running
GPGPU-Sim uArch: core:  4, cta: 1 initialized @(81302,0)
GPGPU-Sim uArch: Shader 8 finished CTA #1 (81321,0), 5 CTAs running
GPGPU-Sim uArch: core:  8, cta: 1 initialized @(81322,0)
GPGPU-Sim PTX: 2600000 instructions simulated : ctaid=(5,19,0) tid=(15,13,0)
GPGPU-Sim uArch: Shader 0 finished CTA #2 (81545,0), 5 CTAs running
GPGPU-Sim uArch: core:  0, cta: 2 initialized @(81546,0)
GPGPU-Sim uArch: Shader 11 finished CTA #2 (81721,0), 5 CTAs running
GPGPU-Sim uArch: core: 11, cta: 2 initialized @(81722,0)
GPGPU-Sim uArch: Shader 10 finished CTA #2 (81731,0), 5 CTAs running
GPGPU-Sim uArch: core: 10, cta: 2 initialized @(81732,0)
GPGPU-Sim uArch: cycles simulated: 82000  inst.: 2545536 (ipc=31.0) sim_rate=37993 (inst/sec) elapsed = 0:0:01:07 / Tue Mar 22 12:47:19 2016
GPGPU-Sim uArch: Shader 12 finished CTA #1 (82445,0), 5 CTAs running
GPGPU-Sim uArch: core: 12, cta: 1 initialized @(82446,0)
GPGPU-Sim uArch: Shader 7 finished CTA #2 (82734,0), 5 CTAs running
GPGPU-Sim uArch: core:  7, cta: 2 initialized @(82735,0)
GPGPU-Sim uArch: Shader 11 finished CTA #3 (82815,0), 5 CTAs running
GPGPU-Sim uArch: core: 11, cta: 3 initialized @(82816,0)
GPGPU-Sim uArch: Shader 13 finished CTA #4 (83397,0), 5 CTAs running
GPGPU-Sim uArch: core: 13, cta: 4 initialized @(83398,0)
GPGPU-Sim uArch: cycles simulated: 83500  inst.: 2599968 (ipc=31.1) sim_rate=38234 (inst/sec) elapsed = 0:0:01:08 / Tue Mar 22 12:47:20 2016
GPGPU-Sim uArch: Shader 3 finished CTA #2 (83683,0), 5 CTAs running
GPGPU-Sim uArch: core:  3, cta: 2 initialized @(83684,0)
GPGPU-Sim uArch: Shader 14 finished CTA #3 (84127,0), 5 CTAs running
GPGPU-Sim uArch: core: 14, cta: 3 initialized @(84128,0)
GPGPU-Sim uArch: Shader 5 finished CTA #4 (84303,0), 5 CTAs running
GPGPU-Sim uArch: core:  5, cta: 4 initialized @(84304,0)
GPGPU-Sim PTX: 2700000 instructions simulated : ctaid=(2,17,0) tid=(15,11,0)
GPGPU-Sim uArch: Shader 1 finished CTA #3 (84450,0), 5 CTAs running
GPGPU-Sim uArch: core:  1, cta: 3 initialized @(84451,0)
GPGPU-Sim uArch: Shader 6 finished CTA #2 (84456,0), 5 CTAs running
GPGPU-Sim uArch: core:  6, cta: 2 initialized @(84457,0)
GPGPU-Sim uArch: cycles simulated: 84500  inst.: 2631040 (ipc=31.1) sim_rate=38131 (inst/sec) elapsed = 0:0:01:09 / Tue Mar 22 12:47:21 2016
GPGPU-Sim uArch: Shader 10 finished CTA #3 (84777,0), 5 CTAs running
GPGPU-Sim uArch: core: 10, cta: 3 initialized @(84778,0)
GPGPU-Sim uArch: Shader 9 finished CTA #3 (84831,0), 5 CTAs running
GPGPU-Sim uArch: core:  9, cta: 3 initialized @(84832,0)
GPGPU-Sim uArch: Shader 12 finished CTA #2 (84940,0), 5 CTAs running
GPGPU-Sim uArch: core: 12, cta: 2 initialized @(84941,0)
GPGPU-Sim uArch: Shader 6 finished CTA #3 (84942,0), 5 CTAs running
GPGPU-Sim uArch: core:  6, cta: 3 initialized @(84943,0)
GPGPU-Sim uArch: Shader 0 finished CTA #3 (84963,0), 5 CTAs running
GPGPU-Sim uArch: core:  0, cta: 3 initialized @(84964,0)
GPGPU-Sim uArch: Shader 8 finished CTA #2 (85369,0), 5 CTAs running
GPGPU-Sim uArch: core:  8, cta: 2 initialized @(85370,0)
GPGPU-Sim uArch: Shader 7 finished CTA #3 (85649,0), 5 CTAs running
GPGPU-Sim uArch: core:  7, cta: 3 initialized @(85650,0)
GPGPU-Sim uArch: Shader 2 finished CTA #4 (85806,0), 5 CTAs running
GPGPU-Sim uArch: core:  2, cta: 4 initialized @(85807,0)
GPGPU-Sim uArch: cycles simulated: 86000  inst.: 2682944 (ipc=31.2) sim_rate=38327 (inst/sec) elapsed = 0:0:01:10 / Tue Mar 22 12:47:22 2016
GPGPU-Sim uArch: Shader 3 finished CTA #3 (86140,0), 5 CTAs running
GPGPU-Sim uArch: core:  3, cta: 3 initialized @(86141,0)
GPGPU-Sim uArch: Shader 9 finished CTA #4 (86321,0), 5 CTAs running
GPGPU-Sim uArch: core:  9, cta: 4 initialized @(86322,0)
GPGPU-Sim uArch: Shader 4 finished CTA #2 (86763,0), 5 CTAs running
GPGPU-Sim uArch: core:  4, cta: 2 initialized @(86764,0)
GPGPU-Sim uArch: cycles simulated: 87000  inst.: 2703616 (ipc=31.1) sim_rate=38079 (inst/sec) elapsed = 0:0:01:11 / Tue Mar 22 12:47:23 2016
GPGPU-Sim PTX: 2800000 instructions simulated : ctaid=(3,19,0) tid=(15,3,0)
GPGPU-Sim uArch: Shader 3 finished CTA #4 (87727,0), 5 CTAs running
GPGPU-Sim uArch: core:  3, cta: 4 initialized @(87728,0)
GPGPU-Sim uArch: Shader 0 finished CTA #4 (87934,0), 5 CTAs running
GPGPU-Sim uArch: core:  0, cta: 4 initialized @(87935,0)
GPGPU-Sim uArch: cycles simulated: 88000  inst.: 2744448 (ipc=31.2) sim_rate=38117 (inst/sec) elapsed = 0:0:01:12 / Tue Mar 22 12:47:24 2016
GPGPU-Sim uArch: Shader 11 finished CTA #4 (88101,0), 5 CTAs running
GPGPU-Sim uArch: core: 11, cta: 4 initialized @(88102,0)
GPGPU-Sim uArch: Shader 6 finished CTA #4 (88399,0), 5 CTAs running
GPGPU-Sim uArch: core:  6, cta: 4 initialized @(88400,0)
GPGPU-Sim uArch: Shader 5 finished CTA #5 (88495,0), 5 CTAs running
GPGPU-Sim uArch: core:  5, cta: 5 initialized @(88496,0)
GPGPU-Sim uArch: Shader 7 finished CTA #4 (88916,0), 5 CTAs running
GPGPU-Sim uArch: core:  7, cta: 4 initialized @(88917,0)
GPGPU-Sim uArch: Shader 1 finished CTA #4 (89104,0), 5 CTAs running
GPGPU-Sim uArch: core:  1, cta: 4 initialized @(89105,0)
GPGPU-Sim uArch: Shader 8 finished CTA #3 (89240,0), 5 CTAs running
GPGPU-Sim uArch: core:  8, cta: 3 initialized @(89241,0)
GPGPU-Sim uArch: cycles simulated: 89500  inst.: 2773376 (ipc=31.0) sim_rate=37991 (inst/sec) elapsed = 0:0:01:13 / Tue Mar 22 12:47:25 2016
GPGPU-Sim uArch: Shader 14 finished CTA #4 (89618,0), 5 CTAs running
GPGPU-Sim uArch: core: 14, cta: 4 initialized @(89619,0)
GPGPU-Sim uArch: Shader 12 finished CTA #3 (90042,0), 5 CTAs running
GPGPU-Sim uArch: core: 12, cta: 3 initialized @(90043,0)
GPGPU-Sim uArch: Shader 10 finished CTA #4 (90077,0), 5 CTAs running
GPGPU-Sim uArch: core: 10, cta: 4 initialized @(90078,0)
GPGPU-Sim PTX: 2900000 instructions simulated : ctaid=(0,20,0) tid=(15,5,0)
GPGPU-Sim uArch: cycles simulated: 90500  inst.: 2815520 (ipc=31.1) sim_rate=38047 (inst/sec) elapsed = 0:0:01:14 / Tue Mar 22 12:47:26 2016
GPGPU-Sim uArch: Shader 4 finished CTA #3 (91603,0), 5 CTAs running
GPGPU-Sim uArch: core:  4, cta: 3 initialized @(91604,0)
GPGPU-Sim uArch: Shader 13 finished CTA #5 (91737,0), 5 CTAs running
GPGPU-Sim uArch: core: 13, cta: 5 initialized @(91738,0)
GPGPU-Sim uArch: Shader 3 finished CTA #5 (91924,0), 5 CTAs running
GPGPU-Sim uArch: core:  3, cta: 5 initialized @(91925,0)
GPGPU-Sim uArch: cycles simulated: 92000  inst.: 2857728 (ipc=31.1) sim_rate=38103 (inst/sec) elapsed = 0:0:01:15 / Tue Mar 22 12:47:27 2016
GPGPU-Sim uArch: Shader 2 finished CTA #5 (92003,0), 5 CTAs running
GPGPU-Sim uArch: core:  2, cta: 5 initialized @(92004,0)
GPGPU-Sim uArch: Shader 6 finished CTA #5 (92161,0), 5 CTAs running
GPGPU-Sim uArch: core:  6, cta: 5 initialized @(92162,0)
GPGPU-Sim uArch: Shader 8 finished CTA #4 (92281,0), 5 CTAs running
GPGPU-Sim uArch: core:  8, cta: 4 initialized @(92282,0)
GPGPU-Sim uArch: Shader 9 finished CTA #5 (92321,0), 5 CTAs running
GPGPU-Sim uArch: core:  9, cta: 5 initialized @(92322,0)
GPGPU-Sim uArch: Shader 7 finished CTA #5 (92665,0), 5 CTAs running
GPGPU-Sim uArch: core:  7, cta: 5 initialized @(92666,0)
GPGPU-Sim uArch: Shader 1 finished CTA #5 (92699,0), 5 CTAs running
GPGPU-Sim uArch: core:  1, cta: 5 initialized @(92700,0)
GPGPU-Sim uArch: Shader 6 finished CTA #0 (93007,0), 5 CTAs running
GPGPU-Sim uArch: core:  6, cta: 0 initialized @(93008,0)
GPGPU-Sim uArch: Shader 12 finished CTA #4 (93214,0), 5 CTAs running
GPGPU-Sim uArch: core: 12, cta: 4 initialized @(93215,0)
GPGPU-Sim PTX: 3000000 instructions simulated : ctaid=(6,22,0) tid=(15,5,0)
GPGPU-Sim uArch: Shader 12 finished CTA #5 (93410,0), 5 CTAs running
GPGPU-Sim uArch: core: 12, cta: 5 initialized @(93411,0)
GPGPU-Sim uArch: cycles simulated: 93500  inst.: 2928704 (ipc=31.3) sim_rate=38535 (inst/sec) elapsed = 0:0:01:16 / Tue Mar 22 12:47:28 2016
GPGPU-Sim uArch: Shader 10 finished CTA #5 (93627,0), 5 CTAs running
GPGPU-Sim uArch: core: 10, cta: 5 initialized @(93628,0)
GPGPU-Sim uArch: Shader 0 finished CTA #5 (94232,0), 5 CTAs running
GPGPU-Sim uArch: core:  0, cta: 5 initialized @(94233,0)
GPGPU-Sim uArch: Shader 11 finished CTA #5 (94339,0), 5 CTAs running
GPGPU-Sim uArch: core: 11, cta: 5 initialized @(94340,0)
GPGPU-Sim uArch: Shader 3 finished CTA #0 (94457,0), 5 CTAs running
GPGPU-Sim uArch: core:  3, cta: 0 initialized @(94458,0)
GPGPU-Sim uArch: cycles simulated: 94500  inst.: 2973440 (ipc=31.5) sim_rate=38616 (inst/sec) elapsed = 0:0:01:17 / Tue Mar 22 12:47:29 2016
GPGPU-Sim uArch: Shader 4 finished CTA #4 (94520,0), 5 CTAs running
GPGPU-Sim uArch: core:  4, cta: 4 initialized @(94521,0)
GPGPU-Sim uArch: Shader 12 finished CTA #0 (94612,0), 5 CTAs running
GPGPU-Sim uArch: core: 12, cta: 0 initialized @(94613,0)
GPGPU-Sim uArch: Shader 14 finished CTA #5 (94674,0), 5 CTAs running
GPGPU-Sim uArch: core: 14, cta: 5 initialized @(94675,0)
GPGPU-Sim uArch: Shader 1 finished CTA #0 (94810,0), 5 CTAs running
GPGPU-Sim uArch: core:  1, cta: 0 initialized @(94811,0)
GPGPU-Sim uArch: Shader 9 finished CTA #0 (95153,0), 5 CTAs running
GPGPU-Sim uArch: core:  9, cta: 0 initialized @(95154,0)
GPGPU-Sim PTX: 3100000 instructions simulated : ctaid=(1,20,0) tid=(15,15,0)
GPGPU-Sim uArch: Shader 14 finished CTA #0 (95302,0), 5 CTAs running
GPGPU-Sim uArch: core: 14, cta: 0 initialized @(95303,0)
GPGPU-Sim uArch: cycles simulated: 95500  inst.: 3014336 (ipc=31.6) sim_rate=38645 (inst/sec) elapsed = 0:0:01:18 / Tue Mar 22 12:47:30 2016
GPGPU-Sim uArch: Shader 8 finished CTA #5 (95650,0), 5 CTAs running
GPGPU-Sim uArch: core:  8, cta: 5 initialized @(95651,0)
GPGPU-Sim uArch: Shader 5 finished CTA #0 (96207,0), 5 CTAs running
GPGPU-Sim uArch: core:  5, cta: 0 initialized @(96208,0)
GPGPU-Sim uArch: Shader 6 finished CTA #1 (96226,0), 5 CTAs running
GPGPU-Sim uArch: core:  6, cta: 1 initialized @(96227,0)
GPGPU-Sim uArch: Shader 2 finished CTA #0 (96238,0), 5 CTAs running
GPGPU-Sim uArch: core:  2, cta: 0 initialized @(96239,0)
GPGPU-Sim uArch: Shader 7 finished CTA #0 (96506,0), 5 CTAs running
GPGPU-Sim uArch: core:  7, cta: 0 initialized @(96507,0)
GPGPU-Sim uArch: Shader 5 finished CTA #1 (96570,0), 5 CTAs running
GPGPU-Sim uArch: core:  5, cta: 1 initialized @(96571,0)
GPGPU-Sim uArch: Shader 7 finished CTA #1 (96572,0), 5 CTAs running
GPGPU-Sim uArch: core:  7, cta: 1 initialized @(96573,0)
GPGPU-Sim uArch: Shader 10 finished CTA #0 (96770,0), 5 CTAs running
GPGPU-Sim uArch: core: 10, cta: 0 initialized @(96771,0)
GPGPU-Sim uArch: cycles simulated: 97000  inst.: 3058368 (ipc=31.5) sim_rate=38713 (inst/sec) elapsed = 0:0:01:19 / Tue Mar 22 12:47:31 2016
GPGPU-Sim uArch: Shader 13 finished CTA #0 (97746,0), 5 CTAs running
GPGPU-Sim uArch: core: 13, cta: 0 initialized @(97747,0)
GPGPU-Sim uArch: Shader 4 finished CTA #5 (98018,0), 5 CTAs running
GPGPU-Sim uArch: core:  4, cta: 5 initialized @(98019,0)
GPGPU-Sim uArch: Shader 4 finished CTA #0 (98160,0), 5 CTAs running
GPGPU-Sim uArch: core:  4, cta: 0 initialized @(98161,0)
GPGPU-Sim uArch: Shader 9 finished CTA #1 (98166,0), 5 CTAs running
GPGPU-Sim uArch: core:  9, cta: 1 initialized @(98167,0)
GPGPU-Sim PTX: 3200000 instructions simulated : ctaid=(0,22,0) tid=(15,9,0)
GPGPU-Sim uArch: Shader 14 finished CTA #1 (98707,0), 5 CTAs running
GPGPU-Sim uArch: core: 14, cta: 1 initialized @(98708,0)
GPGPU-Sim uArch: Shader 0 finished CTA #0 (98759,0), 5 CTAs running
GPGPU-Sim uArch: core:  0, cta: 0 initialized @(98760,0)
GPGPU-Sim uArch: Shader 11 finished CTA #0 (98822,0), 5 CTAs running
GPGPU-Sim uArch: core: 11, cta: 0 initialized @(98823,0)
GPGPU-Sim uArch: cycles simulated: 99000  inst.: 3127904 (ipc=31.6) sim_rate=39098 (inst/sec) elapsed = 0:0:01:20 / Tue Mar 22 12:47:32 2016
GPGPU-Sim uArch: Shader 5 finished CTA #2 (99432,0), 5 CTAs running
GPGPU-Sim uArch: core:  5, cta: 2 initialized @(99433,0)
[...]
maxdqlatency = 0 
maxmflatency = 2125 
averagemflatency = 693 
max_icnt2mem_latency = 1800 
max_icnt2sh_latency = 1133751 
mrq_lat_table:295025 	12685 	17441 	65088 	221682 	234045 	194475 	40301 	282 	0 	0 	0 	0 	0 	0 	0 	0 	0 	0 	0 	0 	0 	0 	0 	0 	0 	0 	0 	0 	0 	0 	0 	
dq_lat_table:0 	0 	0 	0 	0 	0 	0 	0 	0 	0 	0 	0 	0 	0 	0 	0 	0 	0 	0 	0 	0 	0 	0 	0 	0 	0 	0 	0 	0 	0 	0 	0 	
mf_lat_table:0 	0 	0 	0 	0 	0 	0 	38318 	221044 	321225 	139761 	3 	0 	0 	0 	0 	0 	0 	0 	0 	0 	0 	0 	0 	0 	0 	0 	0 	0 	0 	0 	0 	
icnt2mem_lat_table:0 	0 	0 	32433 	21563 	132614 	69590 	70260 	182894 	200786 	10301 	0 	0 	0 	0 	0 	0 	0 	0 	0 	0 	0 	0 	0 	
icnt2sh_lat_table:0 	0 	0 	52833 	56472 	20006 	1214 	2 	0 	0 	79 	520 	998 	1942 	4916 	13909 	38857 	78958 	157345 	267074 	25226 	0 	0 	0 	
mf_lat_pw_table:0 	0 	0 	0 	0 	0 	0 	1 	240 	1900 	124 	0 	0 	0 	0 	0 	0 	0 	0 	0 	0 	0 	0 	0 	0 	0 	0 	0 	0 	0 	0 	0 	
maximum concurrent accesses to same row:
dram[0]:        29        32        32        32        32        32        32        32        32        32        32        27        32        32        32        32 
dram[1]:        32        32        31        32        32        32        32        32        29        32        32        32        32        32        32        32 
dram[2]:        32        30        32        32        32        32        32        32        32        32        32        32        32        32        32        32 
dram[3]:        32        32        28        30        32        32        32        32        32        32        32        32        32        32        32        32 
dram[4]:        26        32        32        32        32        32        32        32        32        32        32        28        32        32        32        32 
dram[5]:        32        32        29        32        32        32        32        32        29        32        32        32        32        32        32        32 
maximum service time to same row:
dram[0]:     35097     48068     35666     48059     35666     46523     35667     38934     34185     29763     28400     47053     29567     50488     31326     50479 
dram[1]:     29065     58642     29288     58632     27778     57152     26372     50490     28540     31674     30196     47519     29315     59782     29306     59774 
dram[2]:     47517     35579     48062     35676     46522     37039     38934     35628     29759     34908     47054     27094     50491     29568     50482     30102 
dram[3]:     58644     29291     58636     29282     57151     28722     50499     26382     31675     28547     47525     29318     59785     29309     59777     29300 
dram[4]:     35098     48065     35676     48056     35675     46522     35626     38926     34908     29760     27933     50494     29559     50485     31421     50477 
dram[5]:     29294     58639     29285     58629     27778     57150     26370     50490     28538     32294     29321     51697     29312     59779     29303     59771 
average row accesses per activate:
dram[0]:  2.166319  2.152262  2.139517  2.139180  2.158500  2.154383  2.159151  2.171317  2.147851  2.150524  2.172647  2.171924  2.171794  2.156980  2.172890  2.168609 
dram[1]:  2.138772  2.152190  2.145317  2.159237  2.140505  2.142618  2.144487  2.155046  2.141084  2.164345  2.152165  2.151056  2.205392  2.156063  2.208710  2.148771 
dram[2]:  2.150285  2.181020  2.141674  2.152648  2.157759  2.170523  2.170169  2.162936  2.151738  2.147676  2.171857  2.175725  2.167101  2.179880  2.175005  2.171665 
dram[3]:  2.145651  2.130792  2.162162  2.138689  2.147498  2.142700  2.162249  2.142726  2.156168  2.152059  2.151909  2.152546  2.171429  2.204527  2.158694  2.194479 
dram[4]:  2.161589  2.155933  2.143208  2.128707  2.170229  2.167036  2.157348  2.171631  2.156027  2.146983  2.170727  2.172644  2.167079  2.162254  2.172449  2.156463 
dram[5]:  2.127958  2.148681  2.140663  2.163250  2.131037  2.154379  2.147520  2.158202  2.156004  2.153414  2.149806  2.142716  2.207237  2.159621  2.203487  2.160082 
average row locality = 1081024/500811 = 2.158547
number of total memory accesses made:
dram[0]:         0         0         0         0         0         0         0         0         0         0         0         0         0         0         0         0 
dram[1]:         0         0         0         0         0         0         0         0         0         0         0         0         0         0         0         0 
dram[2]:         0         0         0         0         0         0         0         0         0         0         0         0         0         0         0         0 
dram[3]:         0         0         0         0         0         0         0         0         0         0         0         0         0         0         0         0 
dram[4]:         0         0         0         0         0         0         0         0         0         0         0         0         0         0         0         0 
dram[5]:         0         0         0         0         0         0         0         0         0         0         0         0         0         0         0         0 
total accesses: 0
min_bank_accesses = 0!
min_chip_accesses = 0!
number of total read accesses:
dram[0]:      5298      5531      5254      5477      5322      5543      5303      5526      5369      5558      5121      5332      4939      5168      4951      5163 
dram[1]:      5519      5379      5469      5329      5542      5409      5522      5366      5582      5401      5313      5094      5113      4938      5142      4952 
dram[2]:      5532      5299      5484      5254      5530      5322      5524      5300      5558      5358      5346      5059      5173      4944      5190      4924 
dram[3]:      5396      5530      5349      5473      5367      5559      5389      5528      5405      5600      5155      5283      4951      5106      4971      5116 
dram[4]:      5305      5519      5258      5480      5330      5568      5317      5530      5365      5552      5109      5298      4922      5163      4941      5160 
dram[5]:      5530      5373      5447      5312      5540      5393      5518      5387      5595      5411      5296      5147      5128      4945      5139      4965 
total reads: 509843
bank skew: 5600/4922 = 1.14
chip skew: 85178/84797 = 1.00
number of total write accesses:
dram[0]:      6112      6173      6094      6158      6131      6179      6093      6147      6122      6143      5777      5823      5579      5632      5581      5628 
dram[1]:      6148      6118      6120      6102      6158      6129      6129      6101      6149      6096      5818      5700      5603      5534      5610      5534 
dram[2]:      6172      6123      6156      6084      6178      6121      6145      6103      6141      6102      5813      5750      5630      5587      5635      5576 
dram[3]:      6124      6151      6091      6108      6135      6168      6112      6137      6096      6161      5781      5794      5537      5608      5544      5615 
dram[4]:      6119      6164      6086      6147      6144      6173      6104      6136      6118      6119      5762      5789      5584      5618      5578      5618 
dram[5]:      6161      6116      6119      6084      6153      6120      6128      6086      6166      6099      5797      5723      5608      5527      5603      5533 
total reads: 571181
bank skew: 6179/5527 = 1.12
chip skew: 95372/95023 = 1.00
average mf latency per bank:
dram[0]:        462       460       467       459       464       459       471       471       466       461       464       457       465       461       464       459
dram[1]:        473       445       473       442       474       444       476       454       471       444       477       453       473       451       470       451
dram[2]:        463       459       461       464       462       459       474       467       463       462       464       460       467       463       464       468
dram[3]:        445       467       442       463       444       467       452       468       444       462       451       467       449       464       453       464
dram[4]:        457       470       463       468       459       467       464       478       458       469       455       466       458       471       462       468
dram[5]:        473       447       473       445       475       450       477       457       469       446       476       452       473       453       470       453
maximum mf latency per bank:
dram[0]:       2005      1932      1931      1908      1941      1899      2014      1996      1933      1904      1878      2002      1896      1865      1936      1867
dram[1]:       1903      1851      1831      1733      1902      1869      1844      1779      1921      1715      1943      1814      1863      1854      1785      1686
dram[2]:       2125      1860      2019      1816      2029      1870      2029      1800      2056      1858      2022      1845      2026      1968      1886      1915
dram[3]:       1717      1810      1784      1836      1850      1789      1735      1933      1749      1772      1829      1708      1782      1703      1894      1777
dram[4]:       1933      1955      1843      1951      1904      1999      1869      2089      1919      1947      1899      2036      1958      1858      1966      1917
dram[5]:       1852      1747      1910      1884      1974      1784      1801      1780      1820      1660      1913      1910      1693      1774      1776      1791

Number of Memory Banks Accessed per Memory Operation per Warp (from 0):
0	0	0	0	0	0	0	0	0	0	0	0	0	0	0	0	0	0	0	0	0	0	0	0	0	0	0	0	0	0	0	0	0	0	0	0	0	0	0	0	0	0	0	0	0	0	0	0	0	0	0	0	0	0	0	0	0	0	0	0	0	0	0	0	0	0	0	0	0	0	0	0	0	0	0	0	0	0	0	0	0	0	0	0	0	0	0	0	0	0	0	0	0	0	0	0	
Average # of Memory Banks Accessed per Memory Operation per Warp=-nan

position of mrq chosen
0	0	0	0	0	0	0	0	0	0	0	0	0	0	0	0	

average position of mrq chosen = -nan
Memory Partition 0: 
Cache L2_bank_000:
MSHR contents

Cache L2_bank_001:
MSHR contents

In Dram Latency Queue (total = 0): 
DRAM[0]: 16 bks, busW=4 BL=8 CL=12, tRRD=2 tCCD=6, tRCD=12 tRAS=28 tRP=12 tRC=40
n_cmd=1496551 n_nop=1059502 n_act=83466 n_pre=83450 n_req=180227 n_rd=169710 n_write=100423 bw_util=0.361
n_activity=1200950 dram_eff=0.4499
bk0: 10596a 1153670i bk1: 11062a 1139383i bk2: 10508a 1142576i bk3: 10954a 1131400i bk4: 10644a 1132140i bk5: 11086a 1123197i bk6: 10606a 1131885i bk7: 11052a 1119019i bk8: 10738a 1148028i bk9: 11116a 1135069i bk10: 10242a 1162172i bk11: 10664a 1146487i bk12: 9878a 1163766i bk13: 10336a 1150440i bk14: 9902a 1160514i bk15: 10326a 1148787i 
dram_util_bins: 0 0 0 0 0 0 0 0 0 0
dram_eff_bins: 0 0 0 0 0 0 0 0 0 0
mrqq: max=16 avg=5.78913
Memory Partition 1: 
Cache L2_bank_002:
MSHR contents

Cache L2_bank_003:
MSHR contents
MSHR: tag=0x807bbf80, atomic=0 1 entries : 0x7fd4374048b0 :  mf: uid=15414167, sid10:w39, part=1, addr=0x807bbfc0, load , size=64, unknown  status = IN_PARTITION_DRAM (1133743), 

In Dram Latency Queue (total = 0): 
DRAM[1]: 16 bks, busW=4 BL=8 CL=12, tRRD=2 tCCD=6, tRCD=12 tRAS=28 tRP=12 tRC=40
n_cmd=1496551 n_nop=1059378 n_act=83543 n_pre=83527 n_req=180119 n_rd=170140 n_write=99963 bw_util=0.361
n_activity=1200966 dram_eff=0.4498
bk0: 11038a 1143781i bk1: 10758a 1145978i bk2: 10938a 1139310i bk3: 10658a 1138325i bk4: 11084a 1130435i bk5: 10818a 1129460i bk6: 11044a 1123709i bk7: 10732a 1126338i bk8: 11164a 1142033i bk9: 10802a 1145411i bk10: 10626a 1150172i bk11: 10188a 1160516i bk12: 10226a 1160963i bk13: 9876a 1163022i bk14: 10284a 1156451i bk15: 9904a 1160225i 
dram_util_bins: 0 0 0 0 0 0 0 0 0 0
dram_eff_bins: 0 0 0 0 0 0 0 0 0 0
mrqq: max=16 avg=5.87511
Memory Partition 2: 
Cache L2_bank_004:
MSHR contents

Cache L2_bank_005:
MSHR contents

In Dram Latency Queue (total = 0): 
DRAM[2]: 16 bks, busW=4 BL=8 CL=12, tRRD=2 tCCD=6, tRCD=12 tRAS=28 tRP=12 tRC=40
n_cmd=1496551 n_nop=1060104 n_act=83236 n_pre=83220 n_req=180113 n_rd=169594 n_write=100397 bw_util=0.3608
n_activity=1200583 dram_eff=0.4498
bk0: 11064a 1139150i bk1: 10598a 1151482i bk2: 10968a 1130893i bk3: 10508a 1139927i bk4: 11060a 1122611i bk5: 10644a 1136445i bk6: 11048a 1119927i bk7: 10600a 1129979i bk8: 11116a 1137524i bk9: 10716a 1145780i bk10: 10692a 1145063i bk11: 10118a 1162624i bk12: 10346a 1150521i bk13: 9888a 1163372i bk14: 10380a 1147085i bk15: 9848a 1160542i 
dram_util_bins: 0 0 0 0 0 0 0 0 0 0
dram_eff_bins: 0 0 0 0 0 0 0 0 0 0
mrqq: max=16 avg=5.80926
Memory Partition 3: 
Cache L2_bank_006:
MSHR contents

Cache L2_bank_007:
MSHR contents

In Dram Latency Queue (total = 0): 
DRAM[3]: 16 bks, busW=4 BL=8 CL=12, tRRD=2 tCCD=6, tRCD=12 tRAS=28 tRP=12 tRC=40
n_cmd=1496551 n_nop=1058934 n_act=83627 n_pre=83611 n_req=180340 n_rd=170356 n_write=100023 bw_util=0.3613
n_activity=1200909 dram_eff=0.4503
bk0: 10792a 1148182i bk1: 11060a 1141328i bk2: 10698a 1140850i bk3: 10946a 1135841i bk4: 10734a 1132328i bk5: 11118a 1127122i bk6: 10778a 1124733i bk7: 11056a 1122659i bk8: 10810a 1145272i bk9: 11200a 1137391i bk10: 10310a 1155115i bk11: 10566a 1150385i bk12: 9902a 1162810i bk13: 10212a 1161189i bk14: 9942a 1157459i bk15: 10232a 1156777i 
dram_util_bins: 0 0 0 0 0 0 0 0 0 0
dram_eff_bins: 0 0 0 0 0 0 0 0 0 0
mrqq: max=16 avg=5.8568
Memory Partition 4: 
Cache L2_bank_008:
MSHR contents

Cache L2_bank_009:
MSHR contents

In Dram Latency Queue (total = 0): 
DRAM[4]: 16 bks, busW=4 BL=8 CL=12, tRRD=2 tCCD=6, tRCD=12 tRAS=28 tRP=12 tRC=40
n_cmd=1496551 n_nop=1059885 n_act=83377 n_pre=83361 n_req=180076 n_rd=169634 n_write=100294 bw_util=0.3607
n_activity=1200611 dram_eff=0.4497
bk0: 10610a 1151825i bk1: 11038a 1137990i bk2: 10516a 1141040i bk3: 10960a 1129534i bk4: 10660a 1133870i bk5: 11136a 1122353i bk6: 10634a 1127603i bk7: 11060a 1117422i bk8: 10730a 1146735i bk9: 11104a 1135070i bk10: 10218a 1160320i bk11: 10596a 1150532i bk12: 9844a 1164793i bk13: 10326a 1151578i bk14: 9882a 1159883i bk15: 10320a 1147957i 
dram_util_bins: 0 0 0 0 0 0 0 0 0 0
dram_eff_bins: 0 0 0 0 0 0 0 0 0 0
mrqq: max=16 avg=5.80738
Memory Partition 5: 
Cache L2_bank_010:
MSHR contents

Cache L2_bank_011:
MSHR contents
MSHR: tag=0x807b3f80, atomic=0 1 entries : 0x7fd43747a290 :  mf: uid=15414159, sid10:w38, part=5, addr=0x807b3fc0, load , size=64, unknown  status = IN_PARTITION_DRAM (1133749), 

In Dram Latency Queue (total = 0): 
DRAM[5]: 16 bks, busW=4 BL=8 CL=12, tRRD=2 tCCD=6, tRCD=12 tRAS=28 tRP=12 tRC=40
n_cmd=1496551 n_nop=1059296 n_act=83563 n_pre=83547 n_req=180149 n_rd=170252 n_write=99893 bw_util=0.361
n_activity=1200492 dram_eff=0.4501
bk0: 11060a 1142090i bk1: 10746a 1146014i bk2: 10894a 1138682i bk3: 10624a 1141447i bk4: 11080a 1127931i bk5: 10786a 1130385i bk6: 11036a 1123537i bk7: 10774a 1124611i bk8: 11190a 1139613i bk9: 10822a 1143395i bk10: 10592a 1150689i bk11: 10294a 1157183i bk12: 10256a 1159324i bk13: 9890a 1163065i bk14: 10278a 1158625i bk15: 9930a 1161361i 
dram_util_bins: 0 0 0 0 0 0 0 0 0 0
dram_eff_bins: 0 0 0 0 0 0 0 0 0 0
mrqq: max=16 avg=5.83956

========= L2 cache stats =========
L2_cache_bank[0]: Access = 60080, Miss = 41557, Miss_rate = 0.692, Pending_hits = 9650, Reservation_fails = 235745
L2_cache_bank[1]: Access = 60022, Miss = 43298, Miss_rate = 0.721, Pending_hits = 8717, Reservation_fails = 246110
L2_cache_bank[2]: Access = 60082, Miss = 43202, Miss_rate = 0.719, Pending_hits = 8620, Reservation_fails = 251974
L2_cache_bank[3]: Access = 60017, Miss = 41868, Miss_rate = 0.698, Pending_hits = 9318, Reservation_fails = 232254
L2_cache_bank[4]: Access = 60088, Miss = 43337, Miss_rate = 0.721, Pending_hits = 8644, Reservation_fails = 247040
L2_cache_bank[5]: Access = 60003, Miss = 41460, Miss_rate = 0.691, Pending_hits = 9727, Reservation_fails = 235272
L2_cache_bank[6]: Access = 60051, Miss = 41983, Miss_rate = 0.699, Pending_hits = 9331, Reservation_fails = 232240
L2_cache_bank[7]: Access = 60027, Miss = 43195, Miss_rate = 0.720, Pending_hits = 8701, Reservation_fails = 247540
L2_cache_bank[8]: Access = 59994, Miss = 41547, Miss_rate = 0.693, Pending_hits = 9685, Reservation_fails = 234264
L2_cache_bank[9]: Access = 60032, Miss = 43270, Miss_rate = 0.721, Pending_hits = 8645, Reservation_fails = 251497
L2_cache_bank[10]: Access = 60017, Miss = 43193, Miss_rate = 0.720, Pending_hits = 8704, Reservation_fails = 249147
L2_cache_bank[11]: Access = 60028, Miss = 41933, Miss_rate = 0.699, Pending_hits = 9216, Reservation_fails = 233812
L2_total_cache_accesses = 720441
L2_total_cache_misses = 509843
L2_total_cache_miss_rate = 0.7077
L2_total_cache_pending_hits = 108958
L2_total_cache_reservation_fails = 2896895
L2_total_cache_breakdown:
	L2_cache_stats_breakdown[GLOBAL_ACC_R][HIT] = 53108
	L2_cache_stats_breakdown[GLOBAL_ACC_R][HIT_RESERVED] = 10841
	L2_cache_stats_breakdown[GLOBAL_ACC_R][MISS] = 66563
	L2_cache_stats_breakdown[GLOBAL_ACC_R][RESERVATION_FAIL] = 13041
	L2_cache_stats_breakdown[CONST_ACC_R][HIT] = 11
	L2_cache_stats_breakdown[CONST_ACC_R][HIT_RESERVED] = 3
	L2_cache_stats_breakdown[CONST_ACC_R][MISS] = 1
	L2_cache_stats_breakdown[CONST_ACC_R][RESERVATION_FAIL] = 100
	L2_cache_stats_breakdown[GLOBAL_ACC_W][HIT] = 48455
	L2_cache_stats_breakdown[GLOBAL_ACC_W][HIT_RESERVED] = 98096
	L2_cache_stats_breakdown[GLOBAL_ACC_W][MISS] = 443273
	L2_cache_stats_breakdown[GLOBAL_ACC_W][RESERVATION_FAIL] = 2883099
	L2_cache_stats_breakdown[INST_ACC_R][HIT] = 66
	L2_cache_stats_breakdown[INST_ACC_R][HIT_RESERVED] = 18
	L2_cache_stats_breakdown[INST_ACC_R][MISS] = 6
	L2_cache_stats_breakdown[INST_ACC_R][RESERVATION_FAIL] = 655
L2_cache_data_port_util = 0.020
L2_cache_fill_port_util = 0.150

icnt_total_pkts_mem_to_simt=1242879
icnt_total_pkts_simt_to_mem=1375801
LD_mem_lat_dist  0 0 0 0 0 0 0 0 0 0 0 0 0 0 0 0 0 0 0 0 0 0 0 0 0 0 0
ST_mem_lat_dist  0 0 0 0 0 0 0 0 0 0 0 0 0 0 0 0 0 0 0 0 0 0 0 0 0 0 0
----------------------------Interconnect-DETAILS--------------------------------
Class 0:
Packet latency average = 60.0856
	minimum = 6
	maximum = 920
Network latency average = 38.0244
	minimum = 6
	maximum = 711
Slowest packet = 1179803
Flit latency average = 31.702
	minimum = 6
	maximum = 711
Slowest flit = 2589799
Fragmentation average = 0.490106
	minimum = 0
	maximum = 437
Injected packet rate average = 0.0436575
	minimum = 0.0384707 (at node 3)
	maximum = 0.0491923 (at node 17)
Accepted packet rate average = 0.0436575
	minimum = 0.0384707 (at node 3)
	maximum = 0.0491923 (at node 17)
Injected flit rate average = 0.109122
	minimum = 0.0769279 (at node 3)
	maximum = 0.147586 (at node 17)
Accepted flit rate average= 0.109122
	minimum = 0.098182 (at node 23)
	maximum = 0.120264 (at node 11)
Injected packet length average = 2.4995
Accepted packet length average = 2.4995
Total in-flight flits = 0 (0 measured)
====== Overall Traffic Statistics ======
====== Traffic class 0 ======
Packet latency average = 82.0169 (2 samples)
	minimum = 6 (2 samples)
	maximum = 1170 (2 samples)
Network latency average = 47.702 (2 samples)
	minimum = 6 (2 samples)
	maximum = 940 (2 samples)
Flit latency average = 47.3258 (2 samples)
	minimum = 6 (2 samples)
	maximum = 940 (2 samples)
Fragmentation average = 0.34248 (2 samples)
	minimum = 0 (2 samples)
	maximum = 529.5 (2 samples)
Injected packet rate average = 0.0457797 (2 samples)
	minimum = 0.0399224 (2 samples)
	maximum = 0.0515657 (2 samples)
Accepted packet rate average = 0.0457797 (2 samples)
	minimum = 0.0399224 (2 samples)
	maximum = 0.0515657 (2 samples)
Injected flit rate average = 0.0944611 (2 samples)
	minimum = 0.0772893 (2 samples)
	maximum = 0.116306 (2 samples)
Accepted flit rate average = 0.0944611 (2 samples)
	minimum = 0.0789479 (2 samples)
	maximum = 0.111078 (2 samples)
Injected packet size average = 2.06338 (2 samples)
Accepted packet size average = 2.06338 (2 samples)
Hops average = 1 (2 samples)
----------------------------END-of-Interconnect-DETAILS-------------------------
GPGPU-Sim API: Stream Manager State
