

        *** GPGPU-Sim Simulator Version 3.2.2  [build 0] ***


GPGPU-Sim PTX: simulation mode 0 (can change with PTX_SIM_MODE_FUNC environment variable:
               1=functional simulation only, 0=detailed performance simulator)
GPGPU-Sim: Configuration options:

-network_mode                           1 # Interconnection network mode
-inter_config_file   config_fermi_islip.icnt # Interconnection network config file
-gpgpu_ptx_use_cuobjdump                    1 # Use cuobjdump to extract ptx and sass from binaries
-gpgpu_experimental_lib_support                    0 # Try to extract code from cuda libraries [Broken because of unknown cudaGetExportTable]
-gpgpu_ptx_convert_to_ptxplus                    0 # Convert SASS (native ISA) to ptxplus and run ptxplus
-gpgpu_ptx_force_max_capability                   20 # Force maximum compute capability
-gpgpu_ptx_inst_debug_to_file                    0 # Dump executed instructions' debug information to file
-gpgpu_ptx_inst_debug_file       inst_debug.txt # Executed instructions' debug output file
-gpgpu_ptx_inst_debug_thread_uid                    1 # Thread UID for executed instructions' debug output
-gpgpu_simd_model                       1 # 1 = post-dominator
-gpgpu_shader_core_pipeline              1536:32 # shader core pipeline config, i.e., {<nthread>:<warpsize>}
-gpgpu_tex_cache:l1  4:128:24,L:R:m:N:L,F:128:4,128:2 # per-shader L1 texture cache  (READ-ONLY) config  {<nsets>:<bsize>:<assoc>,<rep>:<wr>:<alloc>:<wr_alloc>,<mshr>:<N>:<merge>,<mq>:<rf>}
-gpgpu_const_cache:l1 64:64:2,L:R:f:N:L,A:2:32,4 # per-shader L1 constant memory cache  (READ-ONLY) config  {<nsets>:<bsize>:<assoc>,<rep>:<wr>:<alloc>:<wr_alloc>,<mshr>:<N>:<merge>,<mq>} 
-gpgpu_cache:il1     4:128:4,L:R:f:N:L,A:2:32,4 # shader L1 instruction cache config  {<nsets>:<bsize>:<assoc>,<rep>:<wr>:<alloc>:<wr_alloc>,<mshr>:<N>:<merge>,<mq>} 
-gpgpu_cache:dl1     32:128:4,L:L:m:N:H,A:32:8,8:2,0,1:0:1:1:0:1,1:4:8:16:32:64,/sciclone/data10/hwang07/GPU_RESEARCH/swl/swl_outputs/RESULTS/swl2/ # per-shader L1 data cache config  {<nsets>:<bsize>:<assoc>,<rep>:<wr>:<alloc>:<wr_alloc>,<mshr>:<N>:<merge>,<mq> | none}
-gpgpu_cache:dl1PrefL1                 none # per-shader L1 data cache config  {<nsets>:<bsize>:<assoc>,<rep>:<wr>:<alloc>:<wr_alloc>,<mshr>:<N>:<merge>,<mq> | none}
-gpgpu_cache:dl1PreShared                 none # per-shader L1 data cache config  {<nsets>:<bsize>:<assoc>,<rep>:<wr>:<alloc>:<wr_alloc>,<mshr>:<N>:<merge>,<mq> | none}
-gmem_skip_L1D                          0 # global memory access skip L1D cache (implements -Xptxas -dlcm=cg, default=no skip)
-gpgpu_perfect_mem                      0 # enable perfect memory mode (no cache miss)
-n_regfile_gating_group                    4 # group of lanes that should be read/written together)
-gpgpu_clock_gated_reg_file                    0 # enable clock gated reg file for power calculations
-gpgpu_clock_gated_lanes                    0 # enable clock gated lanes for power calculations
-gpgpu_shader_registers                32768 # Number of registers per shader core. Limits number of concurrent CTAs. (default 8192)
-gpgpu_shader_cta                       8 # Maximum number of concurrent CTAs in shader (default 8)
-gpgpu_num_cta_barriers                   16 # Maximum number of named barriers per CTA (default 16)
-gpgpu_n_clusters                      15 # number of processing clusters
-gpgpu_n_cores_per_cluster                    1 # number of simd cores per cluster
-gpgpu_n_cluster_ejection_buffer_size                    8 # number of packets in ejection buffer
-gpgpu_n_ldst_response_buffer_size                    2 # number of response packets in ld/st unit ejection buffer
-gpgpu_shmem_size                   16384 # Size of shared memory per shader core (default 16kB)
-gpgpu_shmem_size                   49152 # Size of shared memory per shader core (default 16kB)
-gpgpu_shmem_size_PrefL1                16384 # Size of shared memory per shader core (default 16kB)
-gpgpu_shmem_size_PrefShared                16384 # Size of shared memory per shader core (default 16kB)
-gpgpu_shmem_num_banks                   32 # Number of banks in the shared memory in each shader core (default 16)
-gpgpu_shmem_limited_broadcast                    0 # Limit shared memory to do one broadcast per cycle (default on)
-gpgpu_shmem_warp_parts                    1 # Number of portions a warp is divided into for shared memory bank conflict check 
-gpgpu_warpdistro_shader                   -1 # Specify which shader core to collect the warp size distribution from
-gpgpu_warp_issue_shader                    0 # Specify which shader core to collect the warp issue distribution from
-gpgpu_local_mem_map                    1 # Mapping from local memory space address to simulated GPU physical address space (default = enabled)
-gpgpu_num_reg_banks                   16 # Number of register banks (default = 8)
-gpgpu_reg_bank_use_warp_id                    0 # Use warp ID in mapping registers to banks (default = off)
-gpgpu_operand_collector_num_units_sp                    6 # number of collector units (default = 4)
-gpgpu_operand_collector_num_units_sfu                    8 # number of collector units (default = 4)
-gpgpu_operand_collector_num_units_mem                    2 # number of collector units (default = 2)
-gpgpu_operand_collector_num_units_gen                    0 # number of collector units (default = 0)
-gpgpu_operand_collector_num_in_ports_sp                    2 # number of collector unit in ports (default = 1)
-gpgpu_operand_collector_num_in_ports_sfu                    1 # number of collector unit in ports (default = 1)
-gpgpu_operand_collector_num_in_ports_mem                    1 # number of collector unit in ports (default = 1)
-gpgpu_operand_collector_num_in_ports_gen                    0 # number of collector unit in ports (default = 0)
-gpgpu_operand_collector_num_out_ports_sp                    2 # number of collector unit in ports (default = 1)
-gpgpu_operand_collector_num_out_ports_sfu                    1 # number of collector unit in ports (default = 1)
-gpgpu_operand_collector_num_out_ports_mem                    1 # number of collector unit in ports (default = 1)
-gpgpu_operand_collector_num_out_ports_gen                    0 # number of collector unit in ports (default = 0)
-gpgpu_coalesce_arch                   13 # Coalescing arch (default = 13, anything else is off for now)
-gpgpu_num_sched_per_core                    2 # Number of warp schedulers per core
-gpgpu_max_insn_issue_per_warp                    1 # Max number of instructions that can be issued per warp in one cycle by scheduler
-gpgpu_simt_core_sim_order                    1 # Select the simulation order of cores in a cluster (0=Fix, 1=Round-Robin)
-gpgpu_pipeline_widths        2,1,1,2,1,1,2 # Pipeline widths ID_OC_SP,ID_OC_SFU,ID_OC_MEM,OC_EX_SP,OC_EX_SFU,OC_EX_MEM,EX_WB
-gpgpu_num_sp_units                     2 # Number of SP units (default=1)
-gpgpu_num_sfu_units                    1 # Number of SF units (default=1)
-gpgpu_num_mem_units                    1 # Number if ldst units (default=1) WARNING: not hooked up to anything
-gpgpu_scheduler        warp_limiting:2:2 # Scheduler configuration: < lrr | gto | two_level_active > If two_level_active:<num_active_warps>:<inner_prioritization>:<outer_prioritization>For complete list of prioritization values see shader.h enum scheduler_prioritization_typeDefault: gto
-gpgpu_dram_scheduler                    1 # 0 = fifo, 1 = FR-FCFS (defaul)
-gpgpu_dram_partition_queues              8:8:8:8 # i2$:$2d:d2$:$2i
-l2_ideal                               0 # Use a ideal L2 cache that always hit
-gpgpu_cache:dl2     64:128:8,L:B:m:W:L,A:32:4,4:0,32 # unified banked L2 data cache config  {<nsets>:<bsize>:<assoc>,<rep>:<wr>:<alloc>:<wr_alloc>,<mshr>:<N>:<merge>,<mq>}
-gpgpu_cache:dl2_texture_only                    0 # L2 cache used for texture only
-gpgpu_n_mem                            6 # number of memory modules (e.g. memory controllers) in gpu
-gpgpu_n_sub_partition_per_mchannel                    2 # number of memory subpartition in each memory module
-gpgpu_n_mem_per_ctrlr                    2 # number of memory chips per memory controller
-gpgpu_memlatency_stat                   14 # track and display latency statistics 0x2 enables MC, 0x4 enables queue logs
-gpgpu_frfcfs_dram_sched_queue_size                   16 # 0 = unlimited (default); # entries per chip
-gpgpu_dram_return_queue_size                  116 # 0 = unlimited (default); # entries per chip
-gpgpu_dram_buswidth                    4 # default = 4 bytes (8 bytes per cycle at DDR)
-gpgpu_dram_burst_length                    8 # Burst length of each DRAM request (default = 4 data bus cycle)
-dram_data_command_freq_ratio                    4 # Frequency ratio between DRAM data bus and command bus (default = 2 times, i.e. DDR)
-gpgpu_dram_timing_opt nbk=16:CCD=2:RRD=6:RCD=12:RAS=28:RP=12:RC=40: CL=12:WL=4:CDLR=5:WR=12:nbkgrp=4:CCDL=3:RTPL=2 # DRAM timing parameters = {nbk:tCCD:tRRD:tRCD:tRAS:tRP:tRC:CL:WL:tCDLR:tWR:nbkgrp:tCCDL:tRTPL}
-rop_latency                          120 # ROP queue latency (default 85)
-dram_latency                         100 # DRAM latency (default 30)
-gpgpu_mem_addr_mapping dramid@8;00000000.00000000.00000000.00000000.0000RRRR.RRRRRRRR.BBBCCCCB.CCSSSSSS # mapping memory address to dram model {dramid@<start bit>;<memory address map>}
-gpgpu_mem_addr_test                    0 # run sweep test to check address mapping for aliased address
-gpgpu_mem_address_mask                    1 # 0 = old addressing mask, 1 = new addressing mask, 2 = new add. mask + flipped bank sel and chip sel bits
-gpuwattch_xml_file  gpuwattch_gtx480.xml # GPUWattch XML file
-power_simulation_enabled                    0 # Turn on power simulator (1=On, 0=Off)
-power_per_cycle_dump                    0 # Dump detailed power output each cycle
-power_trace_enabled                    0 # produce a file for the power trace (1=On, 0=Off)
-power_trace_zlevel                     6 # Compression level of the power trace output log (0=no comp, 9=highest)
-steady_power_levels_enabled                    0 # produce a file for the steady power levels (1=On, 0=Off)
-steady_state_definition                  8:4 # allowed deviation:number of samples
-gpgpu_max_cycle                        0 # terminates gpu simulation early (0 = no limit)
-gpgpu_max_insn                         0 # terminates gpu simulation early (0 = no limit)
-gpgpu_max_cta                          0 # terminates gpu simulation early (0 = no limit)
-gpgpu_runtime_stat                   500 # display runtime statistics such as dram utilization {<freq>:<flag>}
-liveness_message_freq                    1 # Minimum number of seconds between simulation liveness messages (0 = always print)
-gpgpu_flush_l1_cache                    0 # Flush L1 cache at the end of each kernel call
-gpgpu_flush_l2_cache                    0 # Flush L2 cache at the end of each kernel call
-gpgpu_deadlock_detect                    1 # Stop the simulation at deadlock (1=on (default), 0=off)
-gpgpu_ptx_instruction_classification                    0 # if enabled will classify ptx instruction types per kernel (Max 255 kernels now)
-gpgpu_ptx_sim_mode                     0 # Select between Performance (default) or Functional simulation (1)
-gpgpu_clock_domains 700.0:700.0:700.0:924.0 # Clock Domain Frequencies in MhZ {<Core Clock>:<ICNT Clock>:<L2 Clock>:<DRAM Clock>}
-gpgpu_max_concurrent_kernel                    8 # maximum kernels that can run concurrently on GPU
-gpgpu_cflog_interval                    0 # Interval between each snapshot in control flow logger
-visualizer_enabled                     0 # Turn on visualizer output (1=On, 0=Off)
-visualizer_outputfile                 NULL # Specifies the output log file for visualizer
-visualizer_zlevel                      6 # Compression level of the visualizer output log (0=no comp, 9=highest)
-trace_enabled                          0 # Turn on traces
-trace_components                    none # comma seperated list of traces to enable. Complete list found in trace_streams.tup. Default none
-trace_sampling_core                    0 # The core which is printed using CORE_DPRINTF. Default 0
-trace_sampling_memory_partition                   -1 # The memory partition which is printed using MEMPART_DPRINTF. Default -1 (i.e. all)
-enable_ptx_file_line_stats                    1 # Turn on PTX source line statistic profiling. (1 = On)
-ptx_line_stats_filename gpgpu_inst_stats.txt # Output file for PTX source line statistics.
-save_embedded_ptx                      0 # saves ptx files embedded in binary as <n>.ptx
-keep                                   0 # keep intermediate files created by GPGPU-Sim when interfacing with external programs
-gpgpu_ptx_save_converted_ptxplus                    0 # Saved converted ptxplus to a file
-ptx_opcode_latency_int         4,13,4,5,145 # Opcode latencies for integers <ADD,MAX,MUL,MAD,DIV>Default 1,1,19,25,145
-ptx_opcode_latency_fp          4,13,4,5,39 # Opcode latencies for single precision floating points <ADD,MAX,MUL,MAD,DIV>Default 1,1,1,1,30
-ptx_opcode_latency_dp         8,19,8,8,330 # Opcode latencies for double precision floating points <ADD,MAX,MUL,MAD,DIV>Default 8,8,8,8,335
-ptx_opcode_initiation_int            1,2,2,1,8 # Opcode initiation intervals for integers <ADD,MAX,MUL,MAD,DIV>Default 1,1,4,4,32
-ptx_opcode_initiation_fp            1,2,1,1,4 # Opcode initiation intervals for single precision floating points <ADD,MAX,MUL,MAD,DIV>Default 1,1,1,1,5
-ptx_opcode_initiation_dp         8,16,8,8,130 # Opcode initiation intervals for double precision floating points <ADD,MAX,MUL,MAD,DIV>Default 8,8,8,8,130
DRAM Timing Options:
nbk                                    16 # number of banks
CCD                                     2 # column to column delay
RRD                                     6 # minimal delay between activation of rows in different banks
RCD                                    12 # row to column delay
RAS                                    28 # time needed to activate row
RP                                     12 # time needed to precharge (deactivate) row
RC                                     40 # row cycle time
CDLR                                    5 # switching from write to read (changes tWTR)
WR                                     12 # last data-in to row precharge
CL                                     12 # CAS latency
WL                                      4 # Write latency
nbkgrp                                  4 # number of bank groups
CCDL                                    3 # column to column delay between accesses to different bank groups
RTPL                                    2 # read to precharge delay between accesses to different bank groups
Total number of memory sub partition = 12
addr_dec_mask[CHIP]  = 0000000000000000 	high:64 low:0
addr_dec_mask[BK]    = 000000000000e100 	high:16 low:8
addr_dec_mask[ROW]   = 000000000fff0000 	high:28 low:16
addr_dec_mask[COL]   = 0000000000001eff 	high:13 low:0
addr_dec_mask[BURST] = 000000000000003f 	high:6 low:0
sub_partition_id_mask = 0000000000000100
GPGPU-Sim uArch: clock freqs: 700000000.000000:700000000.000000:700000000.000000:924000000.000000
GPGPU-Sim uArch: clock periods: 0.00000000142857142857:0.00000000142857142857:0.00000000142857142857:0.00000000108225108225
*** Initializing Memory Statistics ***
GPGPU-Sim uArch: interconnect node map (shaderID+MemID to icntID)
GPGPU-Sim uArch: Memory nodes ID start from index: 15
GPGPU-Sim uArch:    0   1   2   3   4
GPGPU-Sim uArch:    5   6   7   8   9
GPGPU-Sim uArch:   10  11  12  13  14
GPGPU-Sim uArch:   15  16  17  18  19
GPGPU-Sim uArch:   20  21  22  23  24
GPGPU-Sim uArch:   25  26
GPGPU-Sim uArch: interconnect node reverse map (icntID to shaderID+MemID)
GPGPU-Sim uArch: Memory nodes start from ID: 15
GPGPU-Sim uArch:    0   1   2   3   4
GPGPU-Sim uArch:    5   6   7   8   9
GPGPU-Sim uArch:   10  11  12  13  14
GPGPU-Sim uArch:   15  16  17  18  19
GPGPU-Sim uArch:   20  21  22  23  24
GPGPU-Sim uArch:   25  26
f1881a25b389a12d23212c7f43d14eea  /sciclone/data10/hwang07/adwait/applications/benchmarks/Mars/sample_apps/InvertedIndex/gpgpu_ptx_sim__InvertedIndex
GPGPU-Sim uArch: performance model initialization complete.
GPGPU-Sim PTX: __cudaRegisterFatBinary, fat_cubin_handle = 1, filename=MarsSort.cu
self exe links to: /sciclone/data10/hwang07/adwait/applications/benchmarks/Mars/sample_apps/InvertedIndex/gpgpu_ptx_sim__InvertedIndex
Running md5sum using "md5sum /sciclone/data10/hwang07/adwait/applications/benchmarks/Mars/sample_apps/InvertedIndex/gpgpu_ptx_sim__InvertedIndex "
Parsing file _cuobjdump_complete_output_WQ1BF0
######### cuobjdump parser ########
## Adding new section ELF
Adding arch: sm_20
Adding identifier: main.cu
## Adding new section PTX
Adding ptx filename: _cuobjdump_1.ptx
Adding arch: sm_20
Adding identifier: main.cu
## Adding new section ELF
Adding arch: sm_20
Adding identifier: MarsLib.cu
## Adding new section PTX
Adding ptx filename: _cuobjdump_2.ptx
Adding arch: sm_20
Adding identifier: MarsLib.cu
## Adding new section ELF
Adding arch: sm_20
Adding identifier: MarsScan.cu
## Adding new section PTX
Adding ptx filename: _cuobjdump_3.ptx
Adding arch: sm_20
Adding identifier: MarsScan.cu
## Adding new section ELF
Adding arch: sm_20
Adding identifier: MarsSort.cu
## Adding new section PTX
Adding ptx filename: _cuobjdump_4.ptx
Adding arch: sm_20
Adding identifier: MarsSort.cu
Done parsing!!!
GPGPU-Sim PTX: __cudaRegisterFunction _Z20writeBoundary_kerneliiPiS_S_ : hostFun 0x0x4094c7, fat_cubin_handle = 1
GPGPU-Sim PTX: allocating stack frame region for .param "__cudaretf__Z7comparePKviS0_i" from 0x0 to 0x4
GPGPU-Sim PTX: allocating stack frame region for .param "__cudaparmf1__Z7comparePKviS0_i" from 0x4 to 0xc
GPGPU-Sim PTX: allocating stack frame region for .param "__cudaparmf2__Z7comparePKviS0_i" from 0xc to 0x10
GPGPU-Sim PTX: allocating stack frame region for .param "__cudaparmf3__Z7comparePKviS0_i" from 0x10 to 0x18
GPGPU-Sim PTX: allocating stack frame region for .param "__cudaparmf4__Z7comparePKviS0_i" from 0x18 to 0x1c
GPGPU-Sim PTX: allocating stack frame region for .param "__cudaretf__Z15getCompareValuePv4int4S0_" from 0x0 to 0x4
GPGPU-Sim PTX: allocating stack frame region for .param "__cudaparmf1__Z15getCompareValuePv4int4S0_" from 0x4 to 0xc
GPGPU-Sim PTX: allocating stack frame region for .param "__cudaparmf2__Z15getCompareValuePv4int4S0_" from 0xc to 0x1c
GPGPU-Sim PTX: allocating stack frame region for .param "__cudaparmf3__Z15getCompareValuePv4int4S0_" from 0x1c to 0x2c
GPGPU-Sim PTX: instruction assembly for function '_Z7comparePKviS0_i'...   done.
GPGPU-Sim PTX: finding reconvergence points for '_Z7comparePKviS0_i'...
GPGPU-Sim PTX: Finding dominators for '_Z7comparePKviS0_i'...
GPGPU-Sim PTX: Finding immediate dominators for '_Z7comparePKviS0_i'...
GPGPU-Sim PTX: Finding postdominators for '_Z7comparePKviS0_i'...
GPGPU-Sim PTX: Finding immediate postdominators for '_Z7comparePKviS0_i'...
GPGPU-Sim PTX: pre-decoding instructions for '_Z7comparePKviS0_i'...
GPGPU-Sim PTX: reconvergence points for _Z7comparePKviS0_i...
GPGPU-Sim PTX:  1 (potential) branch divergence @  PC=0x038 (_1.ptx:72) @%p1 bra $Lt_0_6402;
GPGPU-Sim PTX:    immediate post dominator      @  PC=0x1a8 (_1.ptx:134) mov.s32 %r12, %r3;
GPGPU-Sim PTX:  2 (potential) branch divergence @  PC=0x048 (_1.ptx:75) bra.uni $LBB19__Z7comparePKviS0_i;
GPGPU-Sim PTX:    immediate post dominator      @  PC=0x1a8 (_1.ptx:134) mov.s32 %r12, %r3;
GPGPU-Sim PTX:  3 (potential) branch divergence @  PC=0x058 (_1.ptx:78) @%p2 bra $Lt_0_6914;
GPGPU-Sim PTX:    immediate post dominator      @  PC=0x1a8 (_1.ptx:134) mov.s32 %r12, %r3;
GPGPU-Sim PTX:  4 (potential) branch divergence @  PC=0x068 (_1.ptx:81) bra.uni $LBB19__Z7comparePKviS0_i;
GPGPU-Sim PTX:    immediate post dominator      @  PC=0x1a8 (_1.ptx:134) mov.s32 %r12, %r3;
GPGPU-Sim PTX:  5 (potential) branch divergence @  PC=0x0c8 (_1.ptx:97) @%p3 bra $Lt_0_8706;
GPGPU-Sim PTX:    immediate post dominator      @  PC=0x160 (_1.ptx:119) setp.le.s32 %p9, %r6, %r7;
GPGPU-Sim PTX:  6 (potential) branch divergence @  PC=0x0e0 (_1.ptx:100) @%p4 bra $Lt_0_8706;
GPGPU-Sim PTX:    immediate post dominator      @  PC=0x160 (_1.ptx:119) setp.le.s32 %p9, %r6, %r7;
GPGPU-Sim PTX:  7 (potential) branch divergence @  PC=0x0f8 (_1.ptx:103) @%p5 bra $Lt_0_8706;
GPGPU-Sim PTX:    immediate post dominator      @  PC=0x160 (_1.ptx:119) setp.le.s32 %p9, %r6, %r7;
GPGPU-Sim PTX:  8 (potential) branch divergence @  PC=0x128 (_1.ptx:110) @%p6 bra $Lt_0_8706;
GPGPU-Sim PTX:    immediate post dominator      @  PC=0x160 (_1.ptx:119) setp.le.s32 %p9, %r6, %r7;
GPGPU-Sim PTX:  9 (potential) branch divergence @  PC=0x140 (_1.ptx:113) @%p7 bra $Lt_0_8706;
GPGPU-Sim PTX:    immediate post dominator      @  PC=0x160 (_1.ptx:119) setp.le.s32 %p9, %r6, %r7;
GPGPU-Sim PTX: 10 (potential) branch divergence @  PC=0x158 (_1.ptx:116) @%p8 bra $L_0_4866;
GPGPU-Sim PTX:    immediate post dominator      @  PC=0x160 (_1.ptx:119) setp.le.s32 %p9, %r6, %r7;
GPGPU-Sim PTX: 11 (potential) branch divergence @  PC=0x168 (_1.ptx:120) @%p9 bra $Lt_0_7426;
GPGPU-Sim PTX:    immediate post dominator      @  PC=0x1a8 (_1.ptx:134) mov.s32 %r12, %r3;
GPGPU-Sim PTX: 12 (potential) branch divergence @  PC=0x178 (_1.ptx:123) bra.uni $LBB19__Z7comparePKviS0_i;
GPGPU-Sim PTX:    immediate post dominator      @  PC=0x1a8 (_1.ptx:134) mov.s32 %r12, %r3;
GPGPU-Sim PTX: 13 (potential) branch divergence @  PC=0x188 (_1.ptx:126) @%p10 bra $Lt_0_7938;
GPGPU-Sim PTX:    immediate post dominator      @  PC=0x1a8 (_1.ptx:134) mov.s32 %r12, %r3;
GPGPU-Sim PTX: 14 (potential) branch divergence @  PC=0x198 (_1.ptx:129) bra.uni $LBB19__Z7comparePKviS0_i;
GPGPU-Sim PTX:    immediate post dominator      @  PC=0x1a8 (_1.ptx:134) mov.s32 %r12, %r3;
GPGPU-Sim PTX: ... end of reconvergence points for _Z7comparePKviS0_i
GPGPU-Sim PTX: ... done pre-decoding instructions for '_Z7comparePKviS0_i'.
GPGPU-Sim PTX: instruction assembly for function '_Z15getCompareValuePv4int4S0_'...   done.
GPGPU-Sim PTX: finding reconvergence points for '_Z15getCompareValuePv4int4S0_'...
GPGPU-Sim PTX: Finding dominators for '_Z15getCompareValuePv4int4S0_'...
GPGPU-Sim PTX: Finding immediate dominators for '_Z15getCompareValuePv4int4S0_'...
GPGPU-Sim PTX: Finding postdominators for '_Z15getCompareValuePv4int4S0_'...
GPGPU-Sim PTX: Finding immediate postdominators for '_Z15getCompareValuePv4int4S0_'...
GPGPU-Sim PTX: pre-decoding instructions for '_Z15getCompareValuePv4int4S0_'...
GPGPU-Sim PTX: reconvergence points for _Z15getCompareValuePv4int4S0_...
GPGPU-Sim PTX:  1 (potential) branch divergence @  PC=0x238 (_1.ptx:162) @%p2 bra $Lt_1_9730;
GPGPU-Sim PTX:    immediate post dominator      @  PC=0x430 (_1.ptx:248) mov.s32 %r26, %r12;
GPGPU-Sim PTX:  2 (potential) branch divergence @  PC=0x248 (_1.ptx:164) @%p3 bra $Lt_1_10242;
GPGPU-Sim PTX:    immediate post dominator      @  PC=0x430 (_1.ptx:248) mov.s32 %r26, %r12;
GPGPU-Sim PTX:  3 (potential) branch divergence @  PC=0x258 (_1.ptx:166) bra.uni $Lt_1_9474;
GPGPU-Sim PTX:    immediate post dominator      @  PC=0x430 (_1.ptx:248) mov.s32 %r26, %r12;
GPGPU-Sim PTX:  4 (potential) branch divergence @  PC=0x278 (_1.ptx:172) bra.uni $Lt_1_9474;
GPGPU-Sim PTX:    immediate post dominator      @  PC=0x430 (_1.ptx:248) mov.s32 %r26, %r12;
GPGPU-Sim PTX:  5 (potential) branch divergence @  PC=0x2b8 (_1.ptx:182) @%p4 bra $Lt_1_10498;
GPGPU-Sim PTX:    immediate post dominator      @  PC=0x428 (_1.ptx:245) mov.s32 %r12, %r17;
GPGPU-Sim PTX:  6 (potential) branch divergence @  PC=0x2c8 (_1.ptx:185) bra.uni $LDWendi__Z7comparePKviS0_i_181_1;
GPGPU-Sim PTX:    immediate post dominator      @  PC=0x428 (_1.ptx:245) mov.s32 %r12, %r17;
GPGPU-Sim PTX:  7 (potential) branch divergence @  PC=0x2d8 (_1.ptx:188) @%p5 bra $Lt_1_11010;
GPGPU-Sim PTX:    immediate post dominator      @  PC=0x428 (_1.ptx:245) mov.s32 %r12, %r17;
GPGPU-Sim PTX:  8 (potential) branch divergence @  PC=0x2e8 (_1.ptx:191) bra.uni $LDWendi__Z7comparePKviS0_i_181_1;
GPGPU-Sim PTX:    immediate post dominator      @  PC=0x428 (_1.ptx:245) mov.s32 %r12, %r17;
GPGPU-Sim PTX:  9 (potential) branch divergence @  PC=0x348 (_1.ptx:207) @%p6 bra $Lt_1_12802;
GPGPU-Sim PTX:    immediate post dominator      @  PC=0x3e0 (_1.ptx:229) setp.le.s32 %p12, %r20, %r21;
GPGPU-Sim PTX: 10 (potential) branch divergence @  PC=0x360 (_1.ptx:210) @%p7 bra $Lt_1_12802;
GPGPU-Sim PTX:    immediate post dominator      @  PC=0x3e0 (_1.ptx:229) setp.le.s32 %p12, %r20, %r21;
GPGPU-Sim PTX: 11 (potential) branch divergence @  PC=0x378 (_1.ptx:213) @%p8 bra $Lt_1_12802;
GPGPU-Sim PTX:    immediate post dominator      @  PC=0x3e0 (_1.ptx:229) setp.le.s32 %p12, %r20, %r21;
GPGPU-Sim PTX: 12 (potential) branch divergence @  PC=0x3a8 (_1.ptx:220) @%p9 bra $Lt_1_12802;
GPGPU-Sim PTX:    immediate post dominator      @  PC=0x3e0 (_1.ptx:229) setp.le.s32 %p12, %r20, %r21;
GPGPU-Sim PTX: 13 (potential) branch divergence @  PC=0x3c0 (_1.ptx:223) @%p10 bra $Lt_1_12802;
GPGPU-Sim PTX:    immediate post dominator      @  PC=0x3e0 (_1.ptx:229) setp.le.s32 %p12, %r20, %r21;
GPGPU-Sim PTX: 14 (potential) branch divergence @  PC=0x3d8 (_1.ptx:226) @%p11 bra $L_1_7938;
GPGPU-Sim PTX:    immediate post dominator      @  PC=0x3e0 (_1.ptx:229) setp.le.s32 %p12, %r20, %r21;
GPGPU-Sim PTX: 15 (potential) branch divergence @  PC=0x3e8 (_1.ptx:230) @%p12 bra $Lt_1_11522;
GPGPU-Sim PTX:    immediate post dominator      @  PC=0x428 (_1.ptx:245) mov.s32 %r12, %r17;
GPGPU-Sim PTX: 16 (potential) branch divergence @  PC=0x3f8 (_1.ptx:233) bra.uni $LDWendi__Z7comparePKviS0_i_181_1;
GPGPU-Sim PTX:    immediate post dominator      @  PC=0x428 (_1.ptx:245) mov.s32 %r12, %r17;
GPGPU-Sim PTX: 17 (potential) branch divergence @  PC=0x408 (_1.ptx:236) @%p13 bra $Lt_1_12034;
GPGPU-Sim PTX:    immediate post dominator      @  PC=0x428 (_1.ptx:245) mov.s32 %r12, %r17;
GPGPU-Sim PTX: 18 (potential) branch divergence @  PC=0x418 (_1.ptx:239) bra.uni $LDWendi__Z7comparePKviS0_i_181_1;
GPGPU-Sim PTX:    immediate post dominator      @  PC=0x428 (_1.ptx:245) mov.s32 %r12, %r17;
GPGPU-Sim PTX: ... end of reconvergence points for _Z15getCompareValuePv4int4S0_
GPGPU-Sim PTX: ... done pre-decoding instructions for '_Z15getCompareValuePv4int4S0_'.
GPGPU-Sim PTX: allocating shared region for "__cuda___cuda_local_var_45785_37_non_const_shared48" from 0x0 to 0x1000 (shared memory space)
GPGPU-Sim PTX: instruction assembly for function '_Z21partBitonicSortKernelPviP4int4jii'...   done.
GPGPU-Sim PTX: finding reconvergence points for '_Z21partBitonicSortKernelPviP4int4jii'...
GPGPU-Sim PTX: Finding dominators for '_Z21partBitonicSortKernelPviP4int4jii'...
GPGPU-Sim PTX: Finding immediate dominators for '_Z21partBitonicSortKernelPviP4int4jii'...
GPGPU-Sim PTX: Finding postdominators for '_Z21partBitonicSortKernelPviP4int4jii'...
GPGPU-Sim PTX: Finding immediate postdominators for '_Z21partBitonicSortKernelPviP4int4jii'...
GPGPU-Sim PTX: pre-decoding instructions for '_Z21partBitonicSortKernelPviP4int4jii'...
GPGPU-Sim PTX: reconvergence points for _Z21partBitonicSortKernelPviP4int4jii...
GPGPU-Sim PTX:  1 (potential) branch divergence @  PC=0x518 (_1.ptx:296) @%p1 bra $Lt_2_34562;
GPGPU-Sim PTX:    immediate post dominator      @  PC=0xb88 (_1.ptx:572) ld.v4.s32 {%r87,%r88,%r89,%r90}, [%rd4+0];
GPGPU-Sim PTX:  2 (potential) branch divergence @  PC=0x560 (_1.ptx:308) @%p2 bra $Lt_2_33538;
GPGPU-Sim PTX:    immediate post dominator      @  PC=0x828 (_1.ptx:427) bar.sync 0;
GPGPU-Sim PTX:  3 (potential) branch divergence @  PC=0x5b0 (_1.ptx:319) @%p4 bra $Lt_2_29698;
GPGPU-Sim PTX:    immediate post dominator      @  PC=0x7b0 (_1.ptx:406) and.b32 %r50, %r6, 256;
GPGPU-Sim PTX:  4 (potential) branch divergence @  PC=0x5c0 (_1.ptx:321) @%p5 bra $Lt_2_30210;
GPGPU-Sim PTX:    immediate post dominator      @  PC=0x7b0 (_1.ptx:406) and.b32 %r50, %r6, 256;
GPGPU-Sim PTX:  5 (potential) branch divergence @  PC=0x5d0 (_1.ptx:323) bra.uni $Lt_2_29442;
GPGPU-Sim PTX:    immediate post dominator      @  PC=0x7b0 (_1.ptx:406) and.b32 %r50, %r6, 256;
GPGPU-Sim PTX:  6 (potential) branch divergence @  PC=0x5f0 (_1.ptx:329) bra.uni $Lt_2_29442;
GPGPU-Sim PTX:    immediate post dominator      @  PC=0x7b0 (_1.ptx:406) and.b32 %r50, %r6, 256;
GPGPU-Sim PTX:  7 (potential) branch divergence @  PC=0x638 (_1.ptx:340) @%p6 bra $Lt_2_30466;
GPGPU-Sim PTX:    immediate post dominator      @  PC=0x7a8 (_1.ptx:403) mov.s32 %r36, %r41;
GPGPU-Sim PTX:  8 (potential) branch divergence @  PC=0x648 (_1.ptx:343) bra.uni $LDWendi__Z7comparePKviS0_i_182_3;
GPGPU-Sim PTX:    immediate post dominator      @  PC=0x7a8 (_1.ptx:403) mov.s32 %r36, %r41;
GPGPU-Sim PTX:  9 (potential) branch divergence @  PC=0x658 (_1.ptx:346) @%p7 bra $Lt_2_30978;
GPGPU-Sim PTX:    immediate post dominator      @  PC=0x7a8 (_1.ptx:403) mov.s32 %r36, %r41;
GPGPU-Sim PTX: 10 (potential) branch divergence @  PC=0x668 (_1.ptx:349) bra.uni $LDWendi__Z7comparePKviS0_i_182_3;
GPGPU-Sim PTX:    immediate post dominator      @  PC=0x7a8 (_1.ptx:403) mov.s32 %r36, %r41;
GPGPU-Sim PTX: 11 (potential) branch divergence @  PC=0x6c8 (_1.ptx:365) @%p8 bra $Lt_2_40706;
GPGPU-Sim PTX:    immediate post dominator      @  PC=0x760 (_1.ptx:387) setp.le.s32 %p14, %r44, %r45;
GPGPU-Sim PTX: 12 (potential) branch divergence @  PC=0x6e0 (_1.ptx:368) @%p9 bra $Lt_2_40706;
GPGPU-Sim PTX:    immediate post dominator      @  PC=0x760 (_1.ptx:387) setp.le.s32 %p14, %r44, %r45;
GPGPU-Sim PTX: 13 (potential) branch divergence @  PC=0x6f8 (_1.ptx:371) @%p10 bra $Lt_2_40706;
GPGPU-Sim PTX:    immediate post dominator      @  PC=0x760 (_1.ptx:387) setp.le.s32 %p14, %r44, %r45;
GPGPU-Sim PTX: 14 (potential) branch divergence @  PC=0x728 (_1.ptx:378) @%p11 bra $Lt_2_40706;
GPGPU-Sim PTX:    immediate post dominator      @  PC=0x760 (_1.ptx:387) setp.le.s32 %p14, %r44, %r45;
GPGPU-Sim PTX: 15 (potential) branch divergence @  PC=0x740 (_1.ptx:381) @%p12 bra $Lt_2_40706;
GPGPU-Sim PTX:    immediate post dominator      @  PC=0x760 (_1.ptx:387) setp.le.s32 %p14, %r44, %r45;
GPGPU-Sim PTX: 16 (potential) branch divergence @  PC=0x758 (_1.ptx:384) @%p13 bra $L_2_24578;
GPGPU-Sim PTX:    immediate post dominator      @  PC=0x760 (_1.ptx:387) setp.le.s32 %p14, %r44, %r45;
GPGPU-Sim PTX: 17 (potential) branch divergence @  PC=0x768 (_1.ptx:388) @%p14 bra $Lt_2_31490;
GPGPU-Sim PTX:    immediate post dominator      @  PC=0x7a8 (_1.ptx:403) mov.s32 %r36, %r41;
GPGPU-Sim PTX: 18 (potential) branch divergence @  PC=0x778 (_1.ptx:391) bra.uni $LDWendi__Z7comparePKviS0_i_182_3;
GPGPU-Sim PTX:    immediate post dominator      @  PC=0x7a8 (_1.ptx:403) mov.s32 %r36, %r41;
GPGPU-Sim PTX: 19 (potential) branch divergence @  PC=0x788 (_1.ptx:394) @%p15 bra $Lt_2_32002;
GPGPU-Sim PTX:    immediate post dominator      @  PC=0x7a8 (_1.ptx:403) mov.s32 %r36, %r41;
GPGPU-Sim PTX: 20 (potential) branch divergence @  PC=0x798 (_1.ptx:397) bra.uni $LDWendi__Z7comparePKviS0_i_182_3;
GPGPU-Sim PTX:    immediate post dominator      @  PC=0x7a8 (_1.ptx:403) mov.s32 %r36, %r41;
GPGPU-Sim PTX: 21 (potential) branch divergence @  PC=0x7c8 (_1.ptx:409) @%p16 bra $Lt_2_32770;
GPGPU-Sim PTX:    immediate post dominator      @  PC=0x828 (_1.ptx:427) bar.sync 0;
GPGPU-Sim PTX: 22 (potential) branch divergence @  PC=0x7e0 (_1.ptx:412) @%p17 bra $Lt_2_33538;
GPGPU-Sim PTX:    immediate post dominator      @  PC=0x828 (_1.ptx:427) bar.sync 0;
GPGPU-Sim PTX: 23 (potential) branch divergence @  PC=0x7f8 (_1.ptx:415) bra.uni $Lt_2_33538;
GPGPU-Sim PTX:    immediate post dominator      @  PC=0x828 (_1.ptx:427) bar.sync 0;
GPGPU-Sim PTX: 24 (potential) branch divergence @  PC=0x810 (_1.ptx:420) @%p18 bra $Lt_2_33538;
GPGPU-Sim PTX:    immediate post dominator      @  PC=0x828 (_1.ptx:427) bar.sync 0;
GPGPU-Sim PTX: 25 (potential) branch divergence @  PC=0x848 (_1.ptx:432) @%p19 bra $Lt_2_28674;
GPGPU-Sim PTX:    immediate post dominator      @  PC=0x850 (_1.ptx:433) bra.uni $Lt_2_27650;
GPGPU-Sim PTX: 26 (potential) branch divergence @  PC=0x850 (_1.ptx:433) bra.uni $Lt_2_27650;
GPGPU-Sim PTX:    immediate post dominator      @  PC=0xb88 (_1.ptx:572) ld.v4.s32 {%r87,%r88,%r89,%r90}, [%rd4+0];
GPGPU-Sim PTX: 27 (potential) branch divergence @  PC=0x898 (_1.ptx:446) @%p20 bra $Lt_2_39682;
GPGPU-Sim PTX:    immediate post dominator      @  PC=0xb60 (_1.ptx:565) bar.sync 0;
GPGPU-Sim PTX: 28 (potential) branch divergence @  PC=0x8e8 (_1.ptx:457) @%p22 bra $Lt_2_35842;
GPGPU-Sim PTX:    immediate post dominator      @  PC=0xae8 (_1.ptx:544) and.b32 %r82, %r6, 256;
GPGPU-Sim PTX: 29 (potential) branch divergence @  PC=0x8f8 (_1.ptx:459) @%p23 bra $Lt_2_36354;
GPGPU-Sim PTX:    immediate post dominator      @  PC=0xae8 (_1.ptx:544) and.b32 %r82, %r6, 256;
GPGPU-Sim PTX: 30 (potential) branch divergence @  PC=0x908 (_1.ptx:461) bra.uni $Lt_2_35586;
GPGPU-Sim PTX:    immediate post dominator      @  PC=0xae8 (_1.ptx:544) and.b32 %r82, %r6, 256;
GPGPU-Sim PTX: 31 (potential) branch divergence @  PC=0x928 (_1.ptx:467) bra.uni $Lt_2_35586;
GPGPU-Sim PTX:    immediate post dominator      @  PC=0xae8 (_1.ptx:544) and.b32 %r82, %r6, 256;
GPGPU-Sim PTX: 32 (potential) branch divergence @  PC=0x970 (_1.ptx:478) @%p24 bra $Lt_2_36610;
GPGPU-Sim PTX:    immediate post dominator      @  PC=0xae0 (_1.ptx:541) mov.s32 %r36, %r41;
GPGPU-Sim PTX: 33 (potential) branch divergence @  PC=0x980 (_1.ptx:481) bra.uni $LDWendi__Z7comparePKviS0_i_182_1;
GPGPU-Sim PTX:    immediate post dominator      @  PC=0xae0 (_1.ptx:541) mov.s32 %r36, %r41;
GPGPU-Sim PTX: 34 (potential) branch divergence @  PC=0x990 (_1.ptx:484) @%p25 bra $Lt_2_37122;
GPGPU-Sim PTX:    immediate post dominator      @  PC=0xae0 (_1.ptx:541) mov.s32 %r36, %r41;
GPGPU-Sim PTX: 35 (potential) branch divergence @  PC=0x9a0 (_1.ptx:487) bra.uni $LDWendi__Z7comparePKviS0_i_182_1;
GPGPU-Sim PTX:    immediate post dominator      @  PC=0xae0 (_1.ptx:541) mov.s32 %r36, %r41;
GPGPU-Sim PTX: 36 (potential) branch divergence @  PC=0xa00 (_1.ptx:503) @%p26 bra $Lt_2_41986;
GPGPU-Sim PTX:    immediate post dominator      @  PC=0xa98 (_1.ptx:525) setp.le.s32 %p32, %r44, %r45;
GPGPU-Sim PTX: 37 (potential) branch divergence @  PC=0xa18 (_1.ptx:506) @%p27 bra $Lt_2_41986;
GPGPU-Sim PTX:    immediate post dominator      @  PC=0xa98 (_1.ptx:525) setp.le.s32 %p32, %r44, %r45;
GPGPU-Sim PTX: 38 (potential) branch divergence @  PC=0xa30 (_1.ptx:509) @%p28 bra $Lt_2_41986;
GPGPU-Sim PTX:    immediate post dominator      @  PC=0xa98 (_1.ptx:525) setp.le.s32 %p32, %r44, %r45;
GPGPU-Sim PTX: 39 (potential) branch divergence @  PC=0xa60 (_1.ptx:516) @%p29 bra $Lt_2_41986;
GPGPU-Sim PTX:    immediate post dominator      @  PC=0xa98 (_1.ptx:525) setp.le.s32 %p32, %r44, %r45;
GPGPU-Sim PTX: 40 (potential) branch divergence @  PC=0xa78 (_1.ptx:519) @%p30 bra $Lt_2_41986;
GPGPU-Sim PTX:    immediate post dominator      @  PC=0xa98 (_1.ptx:525) setp.le.s32 %p32, %r44, %r45;
GPGPU-Sim PTX: 41 (potential) branch divergence @  PC=0xa90 (_1.ptx:522) @%p31 bra $L_2_26114;
GPGPU-Sim PTX:    immediate post dominator      @  PC=0xa98 (_1.ptx:525) setp.le.s32 %p32, %r44, %r45;
GPGPU-Sim PTX: 42 (potential) branch divergence @  PC=0xaa0 (_1.ptx:526) @%p32 bra $Lt_2_37634;
GPGPU-Sim PTX:    immediate post dominator      @  PC=0xae0 (_1.ptx:541) mov.s32 %r36, %r41;
GPGPU-Sim PTX: 43 (potential) branch divergence @  PC=0xab0 (_1.ptx:529) bra.uni $LDWendi__Z7comparePKviS0_i_182_1;
GPGPU-Sim PTX:    immediate post dominator      @  PC=0xae0 (_1.ptx:541) mov.s32 %r36, %r41;
GPGPU-Sim PTX: 44 (potential) branch divergence @  PC=0xac0 (_1.ptx:532) @%p33 bra $Lt_2_38146;
GPGPU-Sim PTX:    immediate post dominator      @  PC=0xae0 (_1.ptx:541) mov.s32 %r36, %r41;
GPGPU-Sim PTX: 45 (potential) branch divergence @  PC=0xad0 (_1.ptx:535) bra.uni $LDWendi__Z7comparePKviS0_i_182_1;
GPGPU-Sim PTX:    immediate post dominator      @  PC=0xae0 (_1.ptx:541) mov.s32 %r36, %r41;
GPGPU-Sim PTX: 46 (potential) branch divergence @  PC=0xb00 (_1.ptx:547) @%p34 bra $Lt_2_38914;
GPGPU-Sim PTX:    immediate post dominator      @  PC=0xb60 (_1.ptx:565) bar.sync 0;
GPGPU-Sim PTX: 47 (potential) branch divergence @  PC=0xb18 (_1.ptx:550) @%p35 bra $Lt_2_39682;
GPGPU-Sim PTX:    immediate post dominator      @  PC=0xb60 (_1.ptx:565) bar.sync 0;
GPGPU-Sim PTX: 48 (potential) branch divergence @  PC=0xb30 (_1.ptx:553) bra.uni $Lt_2_39682;
GPGPU-Sim PTX:    immediate post dominator      @  PC=0xb60 (_1.ptx:565) bar.sync 0;
GPGPU-Sim PTX: 49 (potential) branch divergence @  PC=0xb48 (_1.ptx:558) @%p36 bra $Lt_2_39682;
GPGPU-Sim PTX:    immediate post dominator      @  PC=0xb60 (_1.ptx:565) bar.sync 0;
GPGPU-Sim PTX: 50 (potential) branch divergence @  PC=0xb80 (_1.ptx:570) @%p37 bra $Lt_2_34818;
GPGPU-Sim PTX:    immediate post dominator      @  PC=0xb88 (_1.ptx:572) ld.v4.s32 {%r87,%r88,%r89,%r90}, [%rd4+0];
GPGPU-Sim PTX: ... end of reconvergence points for _Z21partBitonicSortKernelPviP4int4jii
GPGPU-Sim PTX: ... done pre-decoding instructions for '_Z21partBitonicSortKernelPviP4int4jii'.
GPGPU-Sim PTX: allocating shared region for "__cuda___cuda_local_var_45868_37_non_const_shared4176" from 0x0 to 0x1000 (shared memory space)
GPGPU-Sim PTX: instruction assembly for function '_Z21unitBitonicSortKernelPviP4int4ji'...   done.
GPGPU-Sim PTX: finding reconvergence points for '_Z21unitBitonicSortKernelPviP4int4ji'...
GPGPU-Sim PTX: Finding dominators for '_Z21unitBitonicSortKernelPviP4int4ji'...
GPGPU-Sim PTX: Finding immediate dominators for '_Z21unitBitonicSortKernelPviP4int4ji'...
GPGPU-Sim PTX: Finding postdominators for '_Z21unitBitonicSortKernelPviP4int4ji'...
GPGPU-Sim PTX: Finding immediate postdominators for '_Z21unitBitonicSortKernelPviP4int4ji'...
GPGPU-Sim PTX: pre-decoding instructions for '_Z21unitBitonicSortKernelPviP4int4ji'...
GPGPU-Sim PTX: reconvergence points for _Z21unitBitonicSortKernelPviP4int4ji...
GPGPU-Sim PTX:  1 (potential) branch divergence @  PC=0xc60 (_1.ptx:618) @%p1 bra $Lt_3_37634;
GPGPU-Sim PTX:    immediate post dominator      @  PC=0x1360 (_1.ptx:920) ld.v4.s32 {%r93,%r94,%r95,%r96}, [%rd4+0];
GPGPU-Sim PTX:  2 (potential) branch divergence @  PC=0xc90 (_1.ptx:627) @%p2 bra $Lt_3_30978;
GPGPU-Sim PTX:    immediate post dominator      @  PC=0xfc0 (_1.ptx:764) shl.b32 %r17, %r17, 1;
GPGPU-Sim PTX:  3 (potential) branch divergence @  PC=0xcd0 (_1.ptx:637) @%p3 bra $Lt_3_36354;
GPGPU-Sim PTX:    immediate post dominator      @  PC=0xf98 (_1.ptx:756) bar.sync 0;
GPGPU-Sim PTX:  4 (potential) branch divergence @  PC=0xd20 (_1.ptx:648) @%p5 bra $Lt_3_32514;
GPGPU-Sim PTX:    immediate post dominator      @  PC=0xf20 (_1.ptx:735) and.b32 %r51, %r17, %r6;
GPGPU-Sim PTX:  5 (potential) branch divergence @  PC=0xd30 (_1.ptx:650) @%p6 bra $Lt_3_33026;
GPGPU-Sim PTX:    immediate post dominator      @  PC=0xf20 (_1.ptx:735) and.b32 %r51, %r17, %r6;
GPGPU-Sim PTX:  6 (potential) branch divergence @  PC=0xd40 (_1.ptx:652) bra.uni $Lt_3_32258;
GPGPU-Sim PTX:    immediate post dominator      @  PC=0xf20 (_1.ptx:735) and.b32 %r51, %r17, %r6;
GPGPU-Sim PTX:  7 (potential) branch divergence @  PC=0xd60 (_1.ptx:658) bra.uni $Lt_3_32258;
GPGPU-Sim PTX:    immediate post dominator      @  PC=0xf20 (_1.ptx:735) and.b32 %r51, %r17, %r6;
GPGPU-Sim PTX:  8 (potential) branch divergence @  PC=0xda8 (_1.ptx:669) @%p7 bra $Lt_3_33282;
GPGPU-Sim PTX:    immediate post dominator      @  PC=0xf18 (_1.ptx:732) mov.s32 %r37, %r42;
GPGPU-Sim PTX:  9 (potential) branch divergence @  PC=0xdb8 (_1.ptx:672) bra.uni $LDWendi__Z7comparePKviS0_i_183_3;
GPGPU-Sim PTX:    immediate post dominator      @  PC=0xf18 (_1.ptx:732) mov.s32 %r37, %r42;
GPGPU-Sim PTX: 10 (potential) branch divergence @  PC=0xdc8 (_1.ptx:675) @%p8 bra $Lt_3_33794;
GPGPU-Sim PTX:    immediate post dominator      @  PC=0xf18 (_1.ptx:732) mov.s32 %r37, %r42;
GPGPU-Sim PTX: 11 (potential) branch divergence @  PC=0xdd8 (_1.ptx:678) bra.uni $LDWendi__Z7comparePKviS0_i_183_3;
GPGPU-Sim PTX:    immediate post dominator      @  PC=0xf18 (_1.ptx:732) mov.s32 %r37, %r42;
GPGPU-Sim PTX: 12 (potential) branch divergence @  PC=0xe38 (_1.ptx:694) @%p9 bra $Lt_3_45058;
GPGPU-Sim PTX:    immediate post dominator      @  PC=0xed0 (_1.ptx:716) setp.le.s32 %p15, %r45, %r46;
GPGPU-Sim PTX: 13 (potential) branch divergence @  PC=0xe50 (_1.ptx:697) @%p10 bra $Lt_3_45058;
GPGPU-Sim PTX:    immediate post dominator      @  PC=0xed0 (_1.ptx:716) setp.le.s32 %p15, %r45, %r46;
GPGPU-Sim PTX: 14 (potential) branch divergence @  PC=0xe68 (_1.ptx:700) @%p11 bra $Lt_3_45058;
GPGPU-Sim PTX:    immediate post dominator      @  PC=0xed0 (_1.ptx:716) setp.le.s32 %p15, %r45, %r46;
GPGPU-Sim PTX: 15 (potential) branch divergence @  PC=0xe98 (_1.ptx:707) @%p12 bra $Lt_3_45058;
GPGPU-Sim PTX:    immediate post dominator      @  PC=0xed0 (_1.ptx:716) setp.le.s32 %p15, %r45, %r46;
GPGPU-Sim PTX: 16 (potential) branch divergence @  PC=0xeb0 (_1.ptx:710) @%p13 bra $Lt_3_45058;
GPGPU-Sim PTX:    immediate post dominator      @  PC=0xed0 (_1.ptx:716) setp.le.s32 %p15, %r45, %r46;
GPGPU-Sim PTX: 17 (potential) branch divergence @  PC=0xec8 (_1.ptx:713) @%p14 bra $L_3_26626;
GPGPU-Sim PTX:    immediate post dominator      @  PC=0xed0 (_1.ptx:716) setp.le.s32 %p15, %r45, %r46;
GPGPU-Sim PTX: 18 (potential) branch divergence @  PC=0xed8 (_1.ptx:717) @%p15 bra $Lt_3_34306;
GPGPU-Sim PTX:    immediate post dominator      @  PC=0xf18 (_1.ptx:732) mov.s32 %r37, %r42;
GPGPU-Sim PTX: 19 (potential) branch divergence @  PC=0xee8 (_1.ptx:720) bra.uni $LDWendi__Z7comparePKviS0_i_183_3;
GPGPU-Sim PTX:    immediate post dominator      @  PC=0xf18 (_1.ptx:732) mov.s32 %r37, %r42;
GPGPU-Sim PTX: 20 (potential) branch divergence @  PC=0xef8 (_1.ptx:723) @%p16 bra $Lt_3_34818;
GPGPU-Sim PTX:    immediate post dominator      @  PC=0xf18 (_1.ptx:732) mov.s32 %r37, %r42;
GPGPU-Sim PTX: 21 (potential) branch divergence @  PC=0xf08 (_1.ptx:726) bra.uni $LDWendi__Z7comparePKviS0_i_183_3;
GPGPU-Sim PTX:    immediate post dominator      @  PC=0xf18 (_1.ptx:732) mov.s32 %r37, %r42;
GPGPU-Sim PTX: 22 (potential) branch divergence @  PC=0xf38 (_1.ptx:738) @%p17 bra $Lt_3_35586;
GPGPU-Sim PTX:    immediate post dominator      @  PC=0xf98 (_1.ptx:756) bar.sync 0;
GPGPU-Sim PTX: 23 (potential) branch divergence @  PC=0xf50 (_1.ptx:741) @%p18 bra $Lt_3_36354;
GPGPU-Sim PTX:    immediate post dominator      @  PC=0xf98 (_1.ptx:756) bar.sync 0;
GPGPU-Sim PTX: 24 (potential) branch divergence @  PC=0xf68 (_1.ptx:744) bra.uni $Lt_3_36354;
GPGPU-Sim PTX:    immediate post dominator      @  PC=0xf98 (_1.ptx:756) bar.sync 0;
GPGPU-Sim PTX: 25 (potential) branch divergence @  PC=0xf80 (_1.ptx:749) @%p19 bra $Lt_3_36354;
GPGPU-Sim PTX:    immediate post dominator      @  PC=0xf98 (_1.ptx:756) bar.sync 0;
GPGPU-Sim PTX: 26 (potential) branch divergence @  PC=0xfb8 (_1.ptx:761) @%p20 bra $Lt_3_31490;
GPGPU-Sim PTX:    immediate post dominator      @  PC=0xfc0 (_1.ptx:764) shl.b32 %r17, %r17, 1;
GPGPU-Sim PTX: 27 (potential) branch divergence @  PC=0xfd8 (_1.ptx:767) @%p21 bra $Lt_3_30722;
GPGPU-Sim PTX:    immediate post dominator      @  PC=0xfe0 (_1.ptx:768) bra.uni $Lt_3_29698;
GPGPU-Sim PTX: 28 (potential) branch divergence @  PC=0xfe0 (_1.ptx:768) bra.uni $Lt_3_29698;
GPGPU-Sim PTX:    immediate post dominator      @  PC=0x1360 (_1.ptx:920) ld.v4.s32 {%r93,%r94,%r95,%r96}, [%rd4+0];
GPGPU-Sim PTX: 29 (potential) branch divergence @  PC=0x1010 (_1.ptx:778) @%p22 bra $Lt_3_38146;
GPGPU-Sim PTX:    immediate post dominator      @  PC=0x1340 (_1.ptx:915) shl.b32 %r57, %r57, 1;
GPGPU-Sim PTX: 30 (potential) branch divergence @  PC=0x1050 (_1.ptx:788) @%p23 bra $Lt_3_43522;
GPGPU-Sim PTX:    immediate post dominator      @  PC=0x1318 (_1.ptx:907) bar.sync 0;
GPGPU-Sim PTX: 31 (potential) branch divergence @  PC=0x10a0 (_1.ptx:799) @%p25 bra $Lt_3_39682;
GPGPU-Sim PTX:    immediate post dominator      @  PC=0x12a0 (_1.ptx:886) and.b32 %r87, %r57, %r6;
GPGPU-Sim PTX: 32 (potential) branch divergence @  PC=0x10b0 (_1.ptx:801) @%p26 bra $Lt_3_40194;
GPGPU-Sim PTX:    immediate post dominator      @  PC=0x12a0 (_1.ptx:886) and.b32 %r87, %r57, %r6;
GPGPU-Sim PTX: 33 (potential) branch divergence @  PC=0x10c0 (_1.ptx:803) bra.uni $Lt_3_39426;
GPGPU-Sim PTX:    immediate post dominator      @  PC=0x12a0 (_1.ptx:886) and.b32 %r87, %r57, %r6;
GPGPU-Sim PTX: 34 (potential) branch divergence @  PC=0x10e0 (_1.ptx:809) bra.uni $Lt_3_39426;
GPGPU-Sim PTX:    immediate post dominator      @  PC=0x12a0 (_1.ptx:886) and.b32 %r87, %r57, %r6;
GPGPU-Sim PTX: 35 (potential) branch divergence @  PC=0x1128 (_1.ptx:820) @%p27 bra $Lt_3_40450;
GPGPU-Sim PTX:    immediate post dominator      @  PC=0x1298 (_1.ptx:883) mov.s32 %r37, %r42;
GPGPU-Sim PTX: 36 (potential) branch divergence @  PC=0x1138 (_1.ptx:823) bra.uni $LDWendi__Z7comparePKviS0_i_183_1;
GPGPU-Sim PTX:    immediate post dominator      @  PC=0x1298 (_1.ptx:883) mov.s32 %r37, %r42;
GPGPU-Sim PTX: 37 (potential) branch divergence @  PC=0x1148 (_1.ptx:826) @%p28 bra $Lt_3_40962;
GPGPU-Sim PTX:    immediate post dominator      @  PC=0x1298 (_1.ptx:883) mov.s32 %r37, %r42;
GPGPU-Sim PTX: 38 (potential) branch divergence @  PC=0x1158 (_1.ptx:829) bra.uni $LDWendi__Z7comparePKviS0_i_183_1;
GPGPU-Sim PTX:    immediate post dominator      @  PC=0x1298 (_1.ptx:883) mov.s32 %r37, %r42;
GPGPU-Sim PTX: 39 (potential) branch divergence @  PC=0x11b8 (_1.ptx:845) @%p29 bra $Lt_3_46594;
GPGPU-Sim PTX:    immediate post dominator      @  PC=0x1250 (_1.ptx:867) setp.le.s32 %p35, %r45, %r46;
GPGPU-Sim PTX: 40 (potential) branch divergence @  PC=0x11d0 (_1.ptx:848) @%p30 bra $Lt_3_46594;
GPGPU-Sim PTX:    immediate post dominator      @  PC=0x1250 (_1.ptx:867) setp.le.s32 %p35, %r45, %r46;
GPGPU-Sim PTX: 41 (potential) branch divergence @  PC=0x11e8 (_1.ptx:851) @%p31 bra $Lt_3_46594;
GPGPU-Sim PTX:    immediate post dominator      @  PC=0x1250 (_1.ptx:867) setp.le.s32 %p35, %r45, %r46;
GPGPU-Sim PTX: 42 (potential) branch divergence @  PC=0x1218 (_1.ptx:858) @%p32 bra $Lt_3_46594;
GPGPU-Sim PTX:    immediate post dominator      @  PC=0x1250 (_1.ptx:867) setp.le.s32 %p35, %r45, %r46;
GPGPU-Sim PTX: 43 (potential) branch divergence @  PC=0x1230 (_1.ptx:861) @%p33 bra $Lt_3_46594;
GPGPU-Sim PTX:    immediate post dominator      @  PC=0x1250 (_1.ptx:867) setp.le.s32 %p35, %r45, %r46;
GPGPU-Sim PTX: 44 (potential) branch divergence @  PC=0x1248 (_1.ptx:864) @%p34 bra $L_3_28162;
GPGPU-Sim PTX:    immediate post dominator      @  PC=0x1250 (_1.ptx:867) setp.le.s32 %p35, %r45, %r46;
GPGPU-Sim PTX: 45 (potential) branch divergence @  PC=0x1258 (_1.ptx:868) @%p35 bra $Lt_3_41474;
GPGPU-Sim PTX:    immediate post dominator      @  PC=0x1298 (_1.ptx:883) mov.s32 %r37, %r42;
GPGPU-Sim PTX: 46 (potential) branch divergence @  PC=0x1268 (_1.ptx:871) bra.uni $LDWendi__Z7comparePKviS0_i_183_1;
GPGPU-Sim PTX:    immediate post dominator      @  PC=0x1298 (_1.ptx:883) mov.s32 %r37, %r42;
GPGPU-Sim PTX: 47 (potential) branch divergence @  PC=0x1278 (_1.ptx:874) @%p36 bra $Lt_3_41986;
GPGPU-Sim PTX:    immediate post dominator      @  PC=0x1298 (_1.ptx:883) mov.s32 %r37, %r42;
GPGPU-Sim PTX: 48 (potential) branch divergence @  PC=0x1288 (_1.ptx:877) bra.uni $LDWendi__Z7comparePKviS0_i_183_1;
GPGPU-Sim PTX:    immediate post dominator      @  PC=0x1298 (_1.ptx:883) mov.s32 %r37, %r42;
GPGPU-Sim PTX: 49 (potential) branch divergence @  PC=0x12b8 (_1.ptx:889) @%p37 bra $Lt_3_42754;
GPGPU-Sim PTX:    immediate post dominator      @  PC=0x1318 (_1.ptx:907) bar.sync 0;
GPGPU-Sim PTX: 50 (potential) branch divergence @  PC=0x12d0 (_1.ptx:892) @%p38 bra $Lt_3_43522;
GPGPU-Sim PTX:    immediate post dominator      @  PC=0x1318 (_1.ptx:907) bar.sync 0;
GPGPU-Sim PTX: 51 (potential) branch divergence @  PC=0x12e8 (_1.ptx:895) bra.uni $Lt_3_43522;
GPGPU-Sim PTX:    immediate post dominator      @  PC=0x1318 (_1.ptx:907) bar.sync 0;
GPGPU-Sim PTX: 52 (potential) branch divergence @  PC=0x1300 (_1.ptx:900) @%p39 bra $Lt_3_43522;
GPGPU-Sim PTX:    immediate post dominator      @  PC=0x1318 (_1.ptx:907) bar.sync 0;
GPGPU-Sim PTX: 53 (potential) branch divergence @  PC=0x1338 (_1.ptx:912) @%p40 bra $Lt_3_38658;
GPGPU-Sim PTX:    immediate post dominator      @  PC=0x1340 (_1.ptx:915) shl.b32 %r57, %r57, 1;
GPGPU-Sim PTX: 54 (potential) branch divergence @  PC=0x1358 (_1.ptx:918) @%p41 bra $Lt_3_37890;
GPGPU-Sim PTX:    immediate post dominator      @  PC=0x1360 (_1.ptx:920) ld.v4.s32 {%r93,%r94,%r95,%r96}, [%rd4+0];
GPGPU-Sim PTX: ... end of reconvergence points for _Z21unitBitonicSortKernelPviP4int4ji
GPGPU-Sim PTX: ... done pre-decoding instructions for '_Z21unitBitonicSortKernelPviP4int4ji'.
GPGPU-Sim PTX: instruction assembly for function '_Z13bitonicKernelPviP4int4jii'...   done.
GPGPU-Sim PTX: finding reconvergence points for '_Z13bitonicKernelPviP4int4jii'...
GPGPU-Sim PTX: Finding dominators for '_Z13bitonicKernelPviP4int4jii'...
GPGPU-Sim PTX: Finding immediate dominators for '_Z13bitonicKernelPviP4int4jii'...
GPGPU-Sim PTX: Finding postdominators for '_Z13bitonicKernelPviP4int4jii'...
GPGPU-Sim PTX: Finding immediate postdominators for '_Z13bitonicKernelPviP4int4jii'...
GPGPU-Sim PTX: pre-decoding instructions for '_Z13bitonicKernelPviP4int4jii'...
GPGPU-Sim PTX: reconvergence points for _Z13bitonicKernelPviP4int4jii...
GPGPU-Sim PTX:  1 (potential) branch divergence @  PC=0x13d8 (_1.ptx:952) @%p1 bra $Lt_4_29442;
GPGPU-Sim PTX:    immediate post dominator      @  PC=0x1940 (_1.ptx:1180) exit;
GPGPU-Sim PTX:  2 (potential) branch divergence @  PC=0x1480 (_1.ptx:975) @%p4 bra $Lt_4_22530;
GPGPU-Sim PTX:    immediate post dominator      @  PC=0x1940 (_1.ptx:1180) exit;
GPGPU-Sim PTX:  3 (potential) branch divergence @  PC=0x1498 (_1.ptx:979) @%p5 bra $Lt_4_23042;
GPGPU-Sim PTX:    immediate post dominator      @  PC=0x16b8 (_1.ptx:1070) mov.u32 %r45, 1;
GPGPU-Sim PTX:  4 (potential) branch divergence @  PC=0x14a8 (_1.ptx:981) @%p6 bra $Lt_4_23554;
GPGPU-Sim PTX:    immediate post dominator      @  PC=0x16b8 (_1.ptx:1070) mov.u32 %r45, 1;
GPGPU-Sim PTX:  5 (potential) branch divergence @  PC=0x14b8 (_1.ptx:983) bra.uni $Lt_4_22786;
GPGPU-Sim PTX:    immediate post dominator      @  PC=0x16b8 (_1.ptx:1070) mov.u32 %r45, 1;
GPGPU-Sim PTX:  6 (potential) branch divergence @  PC=0x14d8 (_1.ptx:989) bra.uni $Lt_4_22786;
GPGPU-Sim PTX:    immediate post dominator      @  PC=0x16b8 (_1.ptx:1070) mov.u32 %r45, 1;
GPGPU-Sim PTX:  7 (potential) branch divergence @  PC=0x1520 (_1.ptx:1000) @%p7 bra $Lt_4_23810;
GPGPU-Sim PTX:    immediate post dominator      @  PC=0x16b0 (_1.ptx:1067) mov.s32 %r29, %r34;
GPGPU-Sim PTX:  8 (potential) branch divergence @  PC=0x1530 (_1.ptx:1003) bra.uni $LDWendi__Z7comparePKviS0_i_184_3;
GPGPU-Sim PTX:    immediate post dominator      @  PC=0x16b0 (_1.ptx:1067) mov.s32 %r29, %r34;
GPGPU-Sim PTX:  9 (potential) branch divergence @  PC=0x1540 (_1.ptx:1006) @%p8 bra $Lt_4_24322;
GPGPU-Sim PTX:    immediate post dominator      @  PC=0x16b0 (_1.ptx:1067) mov.s32 %r29, %r34;
GPGPU-Sim PTX: 10 (potential) branch divergence @  PC=0x1550 (_1.ptx:1009) bra.uni $LDWendi__Z7comparePKviS0_i_184_3;
GPGPU-Sim PTX:    immediate post dominator      @  PC=0x16b0 (_1.ptx:1067) mov.s32 %r29, %r34;
GPGPU-Sim PTX: 11 (potential) branch divergence @  PC=0x15d0 (_1.ptx:1029) @%p9 bra $Lt_4_30210;
GPGPU-Sim PTX:    immediate post dominator      @  PC=0x1668 (_1.ptx:1051) setp.le.s32 %p15, %r38, %r40;
GPGPU-Sim PTX: 12 (potential) branch divergence @  PC=0x15e8 (_1.ptx:1032) @%p10 bra $Lt_4_30210;
GPGPU-Sim PTX:    immediate post dominator      @  PC=0x1668 (_1.ptx:1051) setp.le.s32 %p15, %r38, %r40;
GPGPU-Sim PTX: 13 (potential) branch divergence @  PC=0x1600 (_1.ptx:1035) @%p11 bra $Lt_4_30210;
GPGPU-Sim PTX:    immediate post dominator      @  PC=0x1668 (_1.ptx:1051) setp.le.s32 %p15, %r38, %r40;
GPGPU-Sim PTX: 14 (potential) branch divergence @  PC=0x1630 (_1.ptx:1042) @%p12 bra $Lt_4_30210;
GPGPU-Sim PTX:    immediate post dominator      @  PC=0x1668 (_1.ptx:1051) setp.le.s32 %p15, %r38, %r40;
GPGPU-Sim PTX: 15 (potential) branch divergence @  PC=0x1648 (_1.ptx:1045) @%p13 bra $Lt_4_30210;
GPGPU-Sim PTX:    immediate post dominator      @  PC=0x1668 (_1.ptx:1051) setp.le.s32 %p15, %r38, %r40;
GPGPU-Sim PTX: 16 (potential) branch divergence @  PC=0x1660 (_1.ptx:1048) @%p14 bra $L_4_18690;
GPGPU-Sim PTX:    immediate post dominator      @  PC=0x1668 (_1.ptx:1051) setp.le.s32 %p15, %r38, %r40;
GPGPU-Sim PTX: 17 (potential) branch divergence @  PC=0x1670 (_1.ptx:1052) @%p15 bra $Lt_4_24834;
GPGPU-Sim PTX:    immediate post dominator      @  PC=0x16b0 (_1.ptx:1067) mov.s32 %r29, %r34;
GPGPU-Sim PTX: 18 (potential) branch divergence @  PC=0x1680 (_1.ptx:1055) bra.uni $LDWendi__Z7comparePKviS0_i_184_3;
GPGPU-Sim PTX:    immediate post dominator      @  PC=0x16b0 (_1.ptx:1067) mov.s32 %r29, %r34;
GPGPU-Sim PTX: 19 (potential) branch divergence @  PC=0x1690 (_1.ptx:1058) @%p16 bra $Lt_4_25346;
GPGPU-Sim PTX:    immediate post dominator      @  PC=0x16b0 (_1.ptx:1067) mov.s32 %r29, %r34;
GPGPU-Sim PTX: 20 (potential) branch divergence @  PC=0x16a0 (_1.ptx:1061) bra.uni $LDWendi__Z7comparePKviS0_i_184_3;
GPGPU-Sim PTX:    immediate post dominator      @  PC=0x16b0 (_1.ptx:1067) mov.s32 %r29, %r34;
GPGPU-Sim PTX: 21 (potential) branch divergence @  PC=0x16c8 (_1.ptx:1072) @%p17 bra $Lt_4_29442;
GPGPU-Sim PTX:    immediate post dominator      @  PC=0x1940 (_1.ptx:1180) exit;
GPGPU-Sim PTX: 22 (potential) branch divergence @  PC=0x16e0 (_1.ptx:1075) bra.uni $Lt_4_29442;
GPGPU-Sim PTX:    immediate post dominator      @  PC=0x1940 (_1.ptx:1180) exit;
GPGPU-Sim PTX: 23 (potential) branch divergence @  PC=0x16f8 (_1.ptx:1080) @%p18 bra $Lt_4_26626;
GPGPU-Sim PTX:    immediate post dominator      @  PC=0x1918 (_1.ptx:1171) mov.u32 %r59, -1;
GPGPU-Sim PTX: 24 (potential) branch divergence @  PC=0x1708 (_1.ptx:1082) @%p19 bra $Lt_4_27138;
GPGPU-Sim PTX:    immediate post dominator      @  PC=0x1918 (_1.ptx:1171) mov.u32 %r59, -1;
GPGPU-Sim PTX: 25 (potential) branch divergence @  PC=0x1718 (_1.ptx:1084) bra.uni $Lt_4_26370;
GPGPU-Sim PTX:    immediate post dominator      @  PC=0x1918 (_1.ptx:1171) mov.u32 %r59, -1;
GPGPU-Sim PTX: 26 (potential) branch divergence @  PC=0x1738 (_1.ptx:1090) bra.uni $Lt_4_26370;
GPGPU-Sim PTX:    immediate post dominator      @  PC=0x1918 (_1.ptx:1171) mov.u32 %r59, -1;
GPGPU-Sim PTX: 27 (potential) branch divergence @  PC=0x1780 (_1.ptx:1101) @%p20 bra $Lt_4_27394;
GPGPU-Sim PTX:    immediate post dominator      @  PC=0x1910 (_1.ptx:1168) mov.s32 %r29, %r34;
GPGPU-Sim PTX: 28 (potential) branch divergence @  PC=0x1790 (_1.ptx:1104) bra.uni $LDWendi__Z7comparePKviS0_i_184_1;
GPGPU-Sim PTX:    immediate post dominator      @  PC=0x1910 (_1.ptx:1168) mov.s32 %r29, %r34;
GPGPU-Sim PTX: 29 (potential) branch divergence @  PC=0x17a0 (_1.ptx:1107) @%p21 bra $Lt_4_27906;
GPGPU-Sim PTX:    immediate post dominator      @  PC=0x1910 (_1.ptx:1168) mov.s32 %r29, %r34;
GPGPU-Sim PTX: 30 (potential) branch divergence @  PC=0x17b0 (_1.ptx:1110) bra.uni $LDWendi__Z7comparePKviS0_i_184_1;
GPGPU-Sim PTX:    immediate post dominator      @  PC=0x1910 (_1.ptx:1168) mov.s32 %r29, %r34;
GPGPU-Sim PTX: 31 (potential) branch divergence @  PC=0x1830 (_1.ptx:1130) @%p22 bra $Lt_4_31490;
GPGPU-Sim PTX:    immediate post dominator      @  PC=0x18c8 (_1.ptx:1152) setp.le.s32 %p28, %r38, %r40;
GPGPU-Sim PTX: 32 (potential) branch divergence @  PC=0x1848 (_1.ptx:1133) @%p23 bra $Lt_4_31490;
GPGPU-Sim PTX:    immediate post dominator      @  PC=0x18c8 (_1.ptx:1152) setp.le.s32 %p28, %r38, %r40;
GPGPU-Sim PTX: 33 (potential) branch divergence @  PC=0x1860 (_1.ptx:1136) @%p24 bra $Lt_4_31490;
GPGPU-Sim PTX:    immediate post dominator      @  PC=0x18c8 (_1.ptx:1152) setp.le.s32 %p28, %r38, %r40;
GPGPU-Sim PTX: 34 (potential) branch divergence @  PC=0x1890 (_1.ptx:1143) @%p25 bra $Lt_4_31490;
GPGPU-Sim PTX:    immediate post dominator      @  PC=0x18c8 (_1.ptx:1152) setp.le.s32 %p28, %r38, %r40;
GPGPU-Sim PTX: 35 (potential) branch divergence @  PC=0x18a8 (_1.ptx:1146) @%p26 bra $Lt_4_31490;
GPGPU-Sim PTX:    immediate post dominator      @  PC=0x18c8 (_1.ptx:1152) setp.le.s32 %p28, %r38, %r40;
GPGPU-Sim PTX: 36 (potential) branch divergence @  PC=0x18c0 (_1.ptx:1149) @%p27 bra $L_4_20226;
GPGPU-Sim PTX:    immediate post dominator      @  PC=0x18c8 (_1.ptx:1152) setp.le.s32 %p28, %r38, %r40;
GPGPU-Sim PTX: 37 (potential) branch divergence @  PC=0x18d0 (_1.ptx:1153) @%p28 bra $Lt_4_28418;
GPGPU-Sim PTX:    immediate post dominator      @  PC=0x1910 (_1.ptx:1168) mov.s32 %r29, %r34;
GPGPU-Sim PTX: 38 (potential) branch divergence @  PC=0x18e0 (_1.ptx:1156) bra.uni $LDWendi__Z7comparePKviS0_i_184_1;
GPGPU-Sim PTX:    immediate post dominator      @  PC=0x1910 (_1.ptx:1168) mov.s32 %r29, %r34;
GPGPU-Sim PTX: 39 (potential) branch divergence @  PC=0x18f0 (_1.ptx:1159) @%p29 bra $Lt_4_28930;
GPGPU-Sim PTX:    immediate post dominator      @  PC=0x1910 (_1.ptx:1168) mov.s32 %r29, %r34;
GPGPU-Sim PTX: 40 (potential) branch divergence @  PC=0x1900 (_1.ptx:1162) bra.uni $LDWendi__Z7comparePKviS0_i_184_1;
GPGPU-Sim PTX:    immediate post dominator      @  PC=0x1910 (_1.ptx:1168) mov.s32 %r29, %r34;
GPGPU-Sim PTX: 41 (potential) branch divergence @  PC=0x1928 (_1.ptx:1173) @%p30 bra $Lt_4_29442;
GPGPU-Sim PTX:    immediate post dominator      @  PC=0x1940 (_1.ptx:1180) exit;
GPGPU-Sim PTX: ... end of reconvergence points for _Z13bitonicKernelPviP4int4jii
GPGPU-Sim PTX: ... done pre-decoding instructions for '_Z13bitonicKernelPviP4int4jii'.
GPGPU-Sim PTX: allocating shared region for "__cuda___cuda_local_var_46005_37_non_const_bs_cmpbuf8352" from 0x0 to 0x1000 (shared memory space)
GPGPU-Sim PTX: instruction assembly for function '_Z29bitonicSortSingleBlock_kernelPviP4int4iS1_'...   done.
GPGPU-Sim PTX: finding reconvergence points for '_Z29bitonicSortSingleBlock_kernelPviP4int4iS1_'...
GPGPU-Sim PTX: Finding dominators for '_Z29bitonicSortSingleBlock_kernelPviP4int4iS1_'...
GPGPU-Sim PTX: Finding immediate dominators for '_Z29bitonicSortSingleBlock_kernelPviP4int4iS1_'...
GPGPU-Sim PTX: Finding postdominators for '_Z29bitonicSortSingleBlock_kernelPviP4int4iS1_'...
GPGPU-Sim PTX: Finding immediate postdominators for '_Z29bitonicSortSingleBlock_kernelPviP4int4iS1_'...
GPGPU-Sim PTX: pre-decoding instructions for '_Z29bitonicSortSingleBlock_kernelPviP4int4iS1_'...
GPGPU-Sim PTX: reconvergence points for _Z29bitonicSortSingleBlock_kernelPviP4int4iS1_...
GPGPU-Sim PTX:  1 (potential) branch divergence @  PC=0x19a0 (_1.ptx:1208) @%p1 bra $Lt_5_25602;
GPGPU-Sim PTX:    immediate post dominator      @  PC=0x19e0 (_1.ptx:1221) bar.sync 0;
GPGPU-Sim PTX:  2 (potential) branch divergence @  PC=0x19c8 (_1.ptx:1214) bra.uni $Lt_5_25346;
GPGPU-Sim PTX:    immediate post dominator      @  PC=0x19e0 (_1.ptx:1221) bar.sync 0;
GPGPU-Sim PTX:  3 (potential) branch divergence @  PC=0x1a30 (_1.ptx:1234) @%p2 bra $Lt_5_26626;
GPGPU-Sim PTX:    immediate post dominator      @  PC=0x2028 (_1.ptx:1482) mul.lo.s32 %r12, %r12, 2;
GPGPU-Sim PTX:  4 (potential) branch divergence @  PC=0x1a48 (_1.ptx:1238) @%p3 bra $Lt_5_35074;
GPGPU-Sim PTX:    immediate post dominator      @  PC=0x1fe0 (_1.ptx:1470) bar.sync 0;
GPGPU-Sim PTX:  5 (potential) branch divergence @  PC=0x1a90 (_1.ptx:1247) @%p4 bra $Lt_5_28162;
GPGPU-Sim PTX:    immediate post dominator      @  PC=0x1fe0 (_1.ptx:1470) bar.sync 0;
GPGPU-Sim PTX:  6 (potential) branch divergence @  PC=0x1ae0 (_1.ptx:1258) @%p6 bra $Lt_5_28674;
GPGPU-Sim PTX:    immediate post dominator      @  PC=0x1d00 (_1.ptx:1349) mov.u32 %r48, 0;
GPGPU-Sim PTX:  7 (potential) branch divergence @  PC=0x1af0 (_1.ptx:1260) @%p7 bra $Lt_5_29186;
GPGPU-Sim PTX:    immediate post dominator      @  PC=0x1d00 (_1.ptx:1349) mov.u32 %r48, 0;
GPGPU-Sim PTX:  8 (potential) branch divergence @  PC=0x1b00 (_1.ptx:1262) bra.uni $Lt_5_28418;
GPGPU-Sim PTX:    immediate post dominator      @  PC=0x1d00 (_1.ptx:1349) mov.u32 %r48, 0;
GPGPU-Sim PTX:  9 (potential) branch divergence @  PC=0x1b20 (_1.ptx:1268) bra.uni $Lt_5_28418;
GPGPU-Sim PTX:    immediate post dominator      @  PC=0x1d00 (_1.ptx:1349) mov.u32 %r48, 0;
GPGPU-Sim PTX: 10 (potential) branch divergence @  PC=0x1b68 (_1.ptx:1279) @%p8 bra $Lt_5_29442;
GPGPU-Sim PTX:    immediate post dominator      @  PC=0x1cf8 (_1.ptx:1346) mov.s32 %r32, %r37;
GPGPU-Sim PTX: 11 (potential) branch divergence @  PC=0x1b78 (_1.ptx:1282) bra.uni $LDWendi__Z7comparePKviS0_i_185_3;
GPGPU-Sim PTX:    immediate post dominator      @  PC=0x1cf8 (_1.ptx:1346) mov.s32 %r32, %r37;
GPGPU-Sim PTX: 12 (potential) branch divergence @  PC=0x1b88 (_1.ptx:1285) @%p9 bra $Lt_5_29954;
GPGPU-Sim PTX:    immediate post dominator      @  PC=0x1cf8 (_1.ptx:1346) mov.s32 %r32, %r37;
GPGPU-Sim PTX: 13 (potential) branch divergence @  PC=0x1b98 (_1.ptx:1288) bra.uni $LDWendi__Z7comparePKviS0_i_185_3;
GPGPU-Sim PTX:    immediate post dominator      @  PC=0x1cf8 (_1.ptx:1346) mov.s32 %r32, %r37;
GPGPU-Sim PTX: 14 (potential) branch divergence @  PC=0x1c18 (_1.ptx:1308) @%p10 bra $Lt_5_37122;
GPGPU-Sim PTX:    immediate post dominator      @  PC=0x1cb0 (_1.ptx:1330) setp.le.s32 %p16, %r41, %r43;
GPGPU-Sim PTX: 15 (potential) branch divergence @  PC=0x1c30 (_1.ptx:1311) @%p11 bra $Lt_5_37122;
GPGPU-Sim PTX:    immediate post dominator      @  PC=0x1cb0 (_1.ptx:1330) setp.le.s32 %p16, %r41, %r43;
GPGPU-Sim PTX: 16 (potential) branch divergence @  PC=0x1c48 (_1.ptx:1314) @%p12 bra $Lt_5_37122;
GPGPU-Sim PTX:    immediate post dominator      @  PC=0x1cb0 (_1.ptx:1330) setp.le.s32 %p16, %r41, %r43;
GPGPU-Sim PTX: 17 (potential) branch divergence @  PC=0x1c78 (_1.ptx:1321) @%p13 bra $Lt_5_37122;
GPGPU-Sim PTX:    immediate post dominator      @  PC=0x1cb0 (_1.ptx:1330) setp.le.s32 %p16, %r41, %r43;
GPGPU-Sim PTX: 18 (potential) branch divergence @  PC=0x1c90 (_1.ptx:1324) @%p14 bra $Lt_5_37122;
GPGPU-Sim PTX:    immediate post dominator      @  PC=0x1cb0 (_1.ptx:1330) setp.le.s32 %p16, %r41, %r43;
GPGPU-Sim PTX: 19 (potential) branch divergence @  PC=0x1ca8 (_1.ptx:1327) @%p15 bra $L_5_22274;
GPGPU-Sim PTX:    immediate post dominator      @  PC=0x1cb0 (_1.ptx:1330) setp.le.s32 %p16, %r41, %r43;
GPGPU-Sim PTX: 20 (potential) branch divergence @  PC=0x1cb8 (_1.ptx:1331) @%p16 bra $Lt_5_30466;
GPGPU-Sim PTX:    immediate post dominator      @  PC=0x1cf8 (_1.ptx:1346) mov.s32 %r32, %r37;
GPGPU-Sim PTX: 21 (potential) branch divergence @  PC=0x1cc8 (_1.ptx:1334) bra.uni $LDWendi__Z7comparePKviS0_i_185_3;
GPGPU-Sim PTX:    immediate post dominator      @  PC=0x1cf8 (_1.ptx:1346) mov.s32 %r32, %r37;
GPGPU-Sim PTX: 22 (potential) branch divergence @  PC=0x1cd8 (_1.ptx:1337) @%p17 bra $Lt_5_30978;
GPGPU-Sim PTX:    immediate post dominator      @  PC=0x1cf8 (_1.ptx:1346) mov.s32 %r32, %r37;
GPGPU-Sim PTX: 23 (potential) branch divergence @  PC=0x1ce8 (_1.ptx:1340) bra.uni $LDWendi__Z7comparePKviS0_i_185_3;
GPGPU-Sim PTX:    immediate post dominator      @  PC=0x1cf8 (_1.ptx:1346) mov.s32 %r32, %r37;
GPGPU-Sim PTX: 24 (potential) branch divergence @  PC=0x1d10 (_1.ptx:1351) @%p18 bra $Lt_5_35074;
GPGPU-Sim PTX:    immediate post dominator      @  PC=0x1fe0 (_1.ptx:1470) bar.sync 0;
GPGPU-Sim PTX: 25 (potential) branch divergence @  PC=0x1d38 (_1.ptx:1356) bra.uni $Lt_5_35074;
GPGPU-Sim PTX:    immediate post dominator      @  PC=0x1fe0 (_1.ptx:1470) bar.sync 0;
GPGPU-Sim PTX: 26 (potential) branch divergence @  PC=0x1d88 (_1.ptx:1368) @%p19 bra $Lt_5_32258;
GPGPU-Sim PTX:    immediate post dominator      @  PC=0x1fa8 (_1.ptx:1459) mov.u32 %r70, 0;
GPGPU-Sim PTX: 27 (potential) branch divergence @  PC=0x1d98 (_1.ptx:1370) @%p20 bra $Lt_5_32770;
GPGPU-Sim PTX:    immediate post dominator      @  PC=0x1fa8 (_1.ptx:1459) mov.u32 %r70, 0;
GPGPU-Sim PTX: 28 (potential) branch divergence @  PC=0x1da8 (_1.ptx:1372) bra.uni $Lt_5_32002;
GPGPU-Sim PTX:    immediate post dominator      @  PC=0x1fa8 (_1.ptx:1459) mov.u32 %r70, 0;
GPGPU-Sim PTX: 29 (potential) branch divergence @  PC=0x1dc8 (_1.ptx:1378) bra.uni $Lt_5_32002;
GPGPU-Sim PTX:    immediate post dominator      @  PC=0x1fa8 (_1.ptx:1459) mov.u32 %r70, 0;
GPGPU-Sim PTX: 30 (potential) branch divergence @  PC=0x1e10 (_1.ptx:1389) @%p21 bra $Lt_5_33026;
GPGPU-Sim PTX:    immediate post dominator      @  PC=0x1fa0 (_1.ptx:1456) mov.s32 %r32, %r37;
GPGPU-Sim PTX: 31 (potential) branch divergence @  PC=0x1e20 (_1.ptx:1392) bra.uni $LDWendi__Z7comparePKviS0_i_185_1;
GPGPU-Sim PTX:    immediate post dominator      @  PC=0x1fa0 (_1.ptx:1456) mov.s32 %r32, %r37;
GPGPU-Sim PTX: 32 (potential) branch divergence @  PC=0x1e30 (_1.ptx:1395) @%p22 bra $Lt_5_33538;
GPGPU-Sim PTX:    immediate post dominator      @  PC=0x1fa0 (_1.ptx:1456) mov.s32 %r32, %r37;
GPGPU-Sim PTX: 33 (potential) branch divergence @  PC=0x1e40 (_1.ptx:1398) bra.uni $LDWendi__Z7comparePKviS0_i_185_1;
GPGPU-Sim PTX:    immediate post dominator      @  PC=0x1fa0 (_1.ptx:1456) mov.s32 %r32, %r37;
GPGPU-Sim PTX: 34 (potential) branch divergence @  PC=0x1ec0 (_1.ptx:1418) @%p23 bra $Lt_5_38402;
GPGPU-Sim PTX:    immediate post dominator      @  PC=0x1f58 (_1.ptx:1440) setp.le.s32 %p29, %r41, %r43;
GPGPU-Sim PTX: 35 (potential) branch divergence @  PC=0x1ed8 (_1.ptx:1421) @%p24 bra $Lt_5_38402;
GPGPU-Sim PTX:    immediate post dominator      @  PC=0x1f58 (_1.ptx:1440) setp.le.s32 %p29, %r41, %r43;
GPGPU-Sim PTX: 36 (potential) branch divergence @  PC=0x1ef0 (_1.ptx:1424) @%p25 bra $Lt_5_38402;
GPGPU-Sim PTX:    immediate post dominator      @  PC=0x1f58 (_1.ptx:1440) setp.le.s32 %p29, %r41, %r43;
GPGPU-Sim PTX: 37 (potential) branch divergence @  PC=0x1f20 (_1.ptx:1431) @%p26 bra $Lt_5_38402;
GPGPU-Sim PTX:    immediate post dominator      @  PC=0x1f58 (_1.ptx:1440) setp.le.s32 %p29, %r41, %r43;
GPGPU-Sim PTX: 38 (potential) branch divergence @  PC=0x1f38 (_1.ptx:1434) @%p27 bra $Lt_5_38402;
GPGPU-Sim PTX:    immediate post dominator      @  PC=0x1f58 (_1.ptx:1440) setp.le.s32 %p29, %r41, %r43;
GPGPU-Sim PTX: 39 (potential) branch divergence @  PC=0x1f50 (_1.ptx:1437) @%p28 bra $L_5_23810;
GPGPU-Sim PTX:    immediate post dominator      @  PC=0x1f58 (_1.ptx:1440) setp.le.s32 %p29, %r41, %r43;
GPGPU-Sim PTX: 40 (potential) branch divergence @  PC=0x1f60 (_1.ptx:1441) @%p29 bra $Lt_5_34050;
GPGPU-Sim PTX:    immediate post dominator      @  PC=0x1fa0 (_1.ptx:1456) mov.s32 %r32, %r37;
GPGPU-Sim PTX: 41 (potential) branch divergence @  PC=0x1f70 (_1.ptx:1444) bra.uni $LDWendi__Z7comparePKviS0_i_185_1;
GPGPU-Sim PTX:    immediate post dominator      @  PC=0x1fa0 (_1.ptx:1456) mov.s32 %r32, %r37;
GPGPU-Sim PTX: 42 (potential) branch divergence @  PC=0x1f80 (_1.ptx:1447) @%p30 bra $Lt_5_34562;
GPGPU-Sim PTX:    immediate post dominator      @  PC=0x1fa0 (_1.ptx:1456) mov.s32 %r32, %r37;
GPGPU-Sim PTX: 43 (potential) branch divergence @  PC=0x1f90 (_1.ptx:1450) bra.uni $LDWendi__Z7comparePKviS0_i_185_1;
GPGPU-Sim PTX:    immediate post dominator      @  PC=0x1fa0 (_1.ptx:1456) mov.s32 %r32, %r37;
GPGPU-Sim PTX: 44 (potential) branch divergence @  PC=0x1fb8 (_1.ptx:1461) @%p31 bra $Lt_5_35074;
GPGPU-Sim PTX:    immediate post dominator      @  PC=0x1fe0 (_1.ptx:1470) bar.sync 0;
GPGPU-Sim PTX: 45 (potential) branch divergence @  PC=0x2020 (_1.ptx:1479) @%p32 bra $Lt_5_27138;
GPGPU-Sim PTX:    immediate post dominator      @  PC=0x2028 (_1.ptx:1482) mul.lo.s32 %r12, %r12, 2;
GPGPU-Sim PTX: 46 (potential) branch divergence @  PC=0x2040 (_1.ptx:1485) @%p33 bra $Lt_5_26370;
GPGPU-Sim PTX:    immediate post dominator      @  PC=0x2048 (_1.ptx:1486) mov.s32 %r83, 256;
GPGPU-Sim PTX: 47 (potential) branch divergence @  PC=0x2060 (_1.ptx:1489) @%p34 bra $Lt_5_36098;
GPGPU-Sim PTX:    immediate post dominator      @  PC=0x20a0 (_1.ptx:1500) exit;
GPGPU-Sim PTX: ... end of reconvergence points for _Z29bitonicSortSingleBlock_kernelPviP4int4iS1_
GPGPU-Sim PTX: ... done pre-decoding instructions for '_Z29bitonicSortSingleBlock_kernelPviP4int4iS1_'.
GPGPU-Sim PTX: allocating shared region for "__cuda___cuda_local_var_46080_40_non_const_bs_shared12496" from 0x0 to 0x1000 (shared memory space)
GPGPU-Sim PTX: allocating shared region for "__cuda_local_var_46077_30_non_const_bs_pStart" from 0x1000 to 0x1004 (shared memory space)
GPGPU-Sim PTX: allocating shared region for "__cuda_local_var_46078_30_non_const_bs_pEnd" from 0x1004 to 0x1008 (shared memory space)
GPGPU-Sim PTX: allocating shared region for "__cuda_local_var_46079_30_non_const_bs_numElement" from 0x1008 to 0x100c (shared memory space)
GPGPU-Sim PTX: instruction assembly for function '_Z32bitonicSortMultipleBlocks_kernelPviP4int4PiiiS1_'...   done.
GPGPU-Sim PTX: finding reconvergence points for '_Z32bitonicSortMultipleBlocks_kernelPviP4int4PiiiS1_'...
GPGPU-Sim PTX: Finding dominators for '_Z32bitonicSortMultipleBlocks_kernelPviP4int4PiiiS1_'...
GPGPU-Sim PTX: Finding immediate dominators for '_Z32bitonicSortMultipleBlocks_kernelPviP4int4PiiiS1_'...
GPGPU-Sim PTX: Finding postdominators for '_Z32bitonicSortMultipleBlocks_kernelPviP4int4PiiiS1_'...
GPGPU-Sim PTX: Finding immediate postdominators for '_Z32bitonicSortMultipleBlocks_kernelPviP4int4PiiiS1_'...
GPGPU-Sim PTX: pre-decoding instructions for '_Z32bitonicSortMultipleBlocks_kernelPviP4int4PiiiS1_'...
GPGPU-Sim PTX: reconvergence points for _Z32bitonicSortMultipleBlocks_kernelPviP4int4PiiiS1_...
GPGPU-Sim PTX:  1 (potential) branch divergence @  PC=0x20e0 (_1.ptx:1529) @%p1 bra $Lt_6_26882;
GPGPU-Sim PTX:    immediate post dominator      @  PC=0x28e8 (_1.ptx:1861) exit;
GPGPU-Sim PTX:  2 (potential) branch divergence @  PC=0x20e8 (_1.ptx:1530) bra.uni $LBB70__Z32bitonicSortMultipleBlocks_kernelPviP4int4PiiiS1_;
GPGPU-Sim PTX:    immediate post dominator      @  PC=0x28e8 (_1.ptx:1861) exit;
GPGPU-Sim PTX:  3 (potential) branch divergence @  PC=0x2128 (_1.ptx:1540) @%p2 bra $Lt_6_27394;
GPGPU-Sim PTX:    immediate post dominator      @  PC=0x2198 (_1.ptx:1559) bar.sync 0;
GPGPU-Sim PTX:  4 (potential) branch divergence @  PC=0x21d0 (_1.ptx:1566) @%p3 bra $Lt_6_28162;
GPGPU-Sim PTX:    immediate post dominator      @  PC=0x2230 (_1.ptx:1583) bar.sync 0;
GPGPU-Sim PTX:  5 (potential) branch divergence @  PC=0x2218 (_1.ptx:1576) bra.uni $Lt_6_27906;
GPGPU-Sim PTX:    immediate post dominator      @  PC=0x2230 (_1.ptx:1583) bar.sync 0;
GPGPU-Sim PTX:  6 (potential) branch divergence @  PC=0x2280 (_1.ptx:1596) @%p4 bra $Lt_6_29186;
GPGPU-Sim PTX:    immediate post dominator      @  PC=0x2878 (_1.ptx:1844) mul.lo.s32 %r27, %r27, 2;
GPGPU-Sim PTX:  7 (potential) branch divergence @  PC=0x2298 (_1.ptx:1600) @%p5 bra $Lt_6_37634;
GPGPU-Sim PTX:    immediate post dominator      @  PC=0x2830 (_1.ptx:1832) bar.sync 0;
GPGPU-Sim PTX:  8 (potential) branch divergence @  PC=0x22e0 (_1.ptx:1609) @%p6 bra $Lt_6_30722;
GPGPU-Sim PTX:    immediate post dominator      @  PC=0x2830 (_1.ptx:1832) bar.sync 0;
GPGPU-Sim PTX:  9 (potential) branch divergence @  PC=0x2330 (_1.ptx:1620) @%p8 bra $Lt_6_31234;
GPGPU-Sim PTX:    immediate post dominator      @  PC=0x2550 (_1.ptx:1711) mov.u32 %r63, 0;
GPGPU-Sim PTX: 10 (potential) branch divergence @  PC=0x2340 (_1.ptx:1622) @%p9 bra $Lt_6_31746;
GPGPU-Sim PTX:    immediate post dominator      @  PC=0x2550 (_1.ptx:1711) mov.u32 %r63, 0;
GPGPU-Sim PTX: 11 (potential) branch divergence @  PC=0x2350 (_1.ptx:1624) bra.uni $Lt_6_30978;
GPGPU-Sim PTX:    immediate post dominator      @  PC=0x2550 (_1.ptx:1711) mov.u32 %r63, 0;
GPGPU-Sim PTX: 12 (potential) branch divergence @  PC=0x2370 (_1.ptx:1630) bra.uni $Lt_6_30978;
GPGPU-Sim PTX:    immediate post dominator      @  PC=0x2550 (_1.ptx:1711) mov.u32 %r63, 0;
GPGPU-Sim PTX: 13 (potential) branch divergence @  PC=0x23b8 (_1.ptx:1641) @%p10 bra $Lt_6_32002;
GPGPU-Sim PTX:    immediate post dominator      @  PC=0x2548 (_1.ptx:1708) mov.s32 %r47, %r52;
GPGPU-Sim PTX: 14 (potential) branch divergence @  PC=0x23c8 (_1.ptx:1644) bra.uni $LDWendi__Z7comparePKviS0_i_186_3;
GPGPU-Sim PTX:    immediate post dominator      @  PC=0x2548 (_1.ptx:1708) mov.s32 %r47, %r52;
GPGPU-Sim PTX: 15 (potential) branch divergence @  PC=0x23d8 (_1.ptx:1647) @%p11 bra $Lt_6_32514;
GPGPU-Sim PTX:    immediate post dominator      @  PC=0x2548 (_1.ptx:1708) mov.s32 %r47, %r52;
GPGPU-Sim PTX: 16 (potential) branch divergence @  PC=0x23e8 (_1.ptx:1650) bra.uni $LDWendi__Z7comparePKviS0_i_186_3;
GPGPU-Sim PTX:    immediate post dominator      @  PC=0x2548 (_1.ptx:1708) mov.s32 %r47, %r52;
GPGPU-Sim PTX: 17 (potential) branch divergence @  PC=0x2468 (_1.ptx:1670) @%p12 bra $Lt_6_39682;
GPGPU-Sim PTX:    immediate post dominator      @  PC=0x2500 (_1.ptx:1692) setp.le.s32 %p18, %r56, %r58;
GPGPU-Sim PTX: 18 (potential) branch divergence @  PC=0x2480 (_1.ptx:1673) @%p13 bra $Lt_6_39682;
GPGPU-Sim PTX:    immediate post dominator      @  PC=0x2500 (_1.ptx:1692) setp.le.s32 %p18, %r56, %r58;
GPGPU-Sim PTX: 19 (potential) branch divergence @  PC=0x2498 (_1.ptx:1676) @%p14 bra $Lt_6_39682;
GPGPU-Sim PTX:    immediate post dominator      @  PC=0x2500 (_1.ptx:1692) setp.le.s32 %p18, %r56, %r58;
GPGPU-Sim PTX: 20 (potential) branch divergence @  PC=0x24c8 (_1.ptx:1683) @%p15 bra $Lt_6_39682;
GPGPU-Sim PTX:    immediate post dominator      @  PC=0x2500 (_1.ptx:1692) setp.le.s32 %p18, %r56, %r58;
GPGPU-Sim PTX: 21 (potential) branch divergence @  PC=0x24e0 (_1.ptx:1686) @%p16 bra $Lt_6_39682;
GPGPU-Sim PTX:    immediate post dominator      @  PC=0x2500 (_1.ptx:1692) setp.le.s32 %p18, %r56, %r58;
GPGPU-Sim PTX: 22 (potential) branch divergence @  PC=0x24f8 (_1.ptx:1689) @%p17 bra $L_6_23810;
GPGPU-Sim PTX:    immediate post dominator      @  PC=0x2500 (_1.ptx:1692) setp.le.s32 %p18, %r56, %r58;
GPGPU-Sim PTX: 23 (potential) branch divergence @  PC=0x2508 (_1.ptx:1693) @%p18 bra $Lt_6_33026;
GPGPU-Sim PTX:    immediate post dominator      @  PC=0x2548 (_1.ptx:1708) mov.s32 %r47, %r52;
GPGPU-Sim PTX: 24 (potential) branch divergence @  PC=0x2518 (_1.ptx:1696) bra.uni $LDWendi__Z7comparePKviS0_i_186_3;
GPGPU-Sim PTX:    immediate post dominator      @  PC=0x2548 (_1.ptx:1708) mov.s32 %r47, %r52;
GPGPU-Sim PTX: 25 (potential) branch divergence @  PC=0x2528 (_1.ptx:1699) @%p19 bra $Lt_6_33538;
GPGPU-Sim PTX:    immediate post dominator      @  PC=0x2548 (_1.ptx:1708) mov.s32 %r47, %r52;
GPGPU-Sim PTX: 26 (potential) branch divergence @  PC=0x2538 (_1.ptx:1702) bra.uni $LDWendi__Z7comparePKviS0_i_186_3;
GPGPU-Sim PTX:    immediate post dominator      @  PC=0x2548 (_1.ptx:1708) mov.s32 %r47, %r52;
GPGPU-Sim PTX: 27 (potential) branch divergence @  PC=0x2560 (_1.ptx:1713) @%p20 bra $Lt_6_37634;
GPGPU-Sim PTX:    immediate post dominator      @  PC=0x2830 (_1.ptx:1832) bar.sync 0;
GPGPU-Sim PTX: 28 (potential) branch divergence @  PC=0x2588 (_1.ptx:1718) bra.uni $Lt_6_37634;
GPGPU-Sim PTX:    immediate post dominator      @  PC=0x2830 (_1.ptx:1832) bar.sync 0;
GPGPU-Sim PTX: 29 (potential) branch divergence @  PC=0x25d8 (_1.ptx:1730) @%p21 bra $Lt_6_34818;
GPGPU-Sim PTX:    immediate post dominator      @  PC=0x27f8 (_1.ptx:1821) mov.u32 %r85, 0;
GPGPU-Sim PTX: 30 (potential) branch divergence @  PC=0x25e8 (_1.ptx:1732) @%p22 bra $Lt_6_35330;
GPGPU-Sim PTX:    immediate post dominator      @  PC=0x27f8 (_1.ptx:1821) mov.u32 %r85, 0;
GPGPU-Sim PTX: 31 (potential) branch divergence @  PC=0x25f8 (_1.ptx:1734) bra.uni $Lt_6_34562;
GPGPU-Sim PTX:    immediate post dominator      @  PC=0x27f8 (_1.ptx:1821) mov.u32 %r85, 0;
GPGPU-Sim PTX: 32 (potential) branch divergence @  PC=0x2618 (_1.ptx:1740) bra.uni $Lt_6_34562;
GPGPU-Sim PTX:    immediate post dominator      @  PC=0x27f8 (_1.ptx:1821) mov.u32 %r85, 0;
GPGPU-Sim PTX: 33 (potential) branch divergence @  PC=0x2660 (_1.ptx:1751) @%p23 bra $Lt_6_35586;
GPGPU-Sim PTX:    immediate post dominator      @  PC=0x27f0 (_1.ptx:1818) mov.s32 %r47, %r52;
GPGPU-Sim PTX: 34 (potential) branch divergence @  PC=0x2670 (_1.ptx:1754) bra.uni $LDWendi__Z7comparePKviS0_i_186_1;
GPGPU-Sim PTX:    immediate post dominator      @  PC=0x27f0 (_1.ptx:1818) mov.s32 %r47, %r52;
GPGPU-Sim PTX: 35 (potential) branch divergence @  PC=0x2680 (_1.ptx:1757) @%p24 bra $Lt_6_36098;
GPGPU-Sim PTX:    immediate post dominator      @  PC=0x27f0 (_1.ptx:1818) mov.s32 %r47, %r52;
GPGPU-Sim PTX: 36 (potential) branch divergence @  PC=0x2690 (_1.ptx:1760) bra.uni $LDWendi__Z7comparePKviS0_i_186_1;
GPGPU-Sim PTX:    immediate post dominator      @  PC=0x27f0 (_1.ptx:1818) mov.s32 %r47, %r52;
GPGPU-Sim PTX: 37 (potential) branch divergence @  PC=0x2710 (_1.ptx:1780) @%p25 bra $Lt_6_40962;
GPGPU-Sim PTX:    immediate post dominator      @  PC=0x27a8 (_1.ptx:1802) setp.le.s32 %p31, %r56, %r58;
GPGPU-Sim PTX: 38 (potential) branch divergence @  PC=0x2728 (_1.ptx:1783) @%p26 bra $Lt_6_40962;
GPGPU-Sim PTX:    immediate post dominator      @  PC=0x27a8 (_1.ptx:1802) setp.le.s32 %p31, %r56, %r58;
GPGPU-Sim PTX: 39 (potential) branch divergence @  PC=0x2740 (_1.ptx:1786) @%p27 bra $Lt_6_40962;
GPGPU-Sim PTX:    immediate post dominator      @  PC=0x27a8 (_1.ptx:1802) setp.le.s32 %p31, %r56, %r58;
GPGPU-Sim PTX: 40 (potential) branch divergence @  PC=0x2770 (_1.ptx:1793) @%p28 bra $Lt_6_40962;
GPGPU-Sim PTX:    immediate post dominator      @  PC=0x27a8 (_1.ptx:1802) setp.le.s32 %p31, %r56, %r58;
GPGPU-Sim PTX: 41 (potential) branch divergence @  PC=0x2788 (_1.ptx:1796) @%p29 bra $Lt_6_40962;
GPGPU-Sim PTX:    immediate post dominator      @  PC=0x27a8 (_1.ptx:1802) setp.le.s32 %p31, %r56, %r58;
GPGPU-Sim PTX: 42 (potential) branch divergence @  PC=0x27a0 (_1.ptx:1799) @%p30 bra $L_6_25346;
GPGPU-Sim PTX:    immediate post dominator      @  PC=0x27a8 (_1.ptx:1802) setp.le.s32 %p31, %r56, %r58;
GPGPU-Sim PTX: 43 (potential) branch divergence @  PC=0x27b0 (_1.ptx:1803) @%p31 bra $Lt_6_36610;
GPGPU-Sim PTX:    immediate post dominator      @  PC=0x27f0 (_1.ptx:1818) mov.s32 %r47, %r52;
GPGPU-Sim PTX: 44 (potential) branch divergence @  PC=0x27c0 (_1.ptx:1806) bra.uni $LDWendi__Z7comparePKviS0_i_186_1;
GPGPU-Sim PTX:    immediate post dominator      @  PC=0x27f0 (_1.ptx:1818) mov.s32 %r47, %r52;
GPGPU-Sim PTX: 45 (potential) branch divergence @  PC=0x27d0 (_1.ptx:1809) @%p32 bra $Lt_6_37122;
GPGPU-Sim PTX:    immediate post dominator      @  PC=0x27f0 (_1.ptx:1818) mov.s32 %r47, %r52;
GPGPU-Sim PTX: 46 (potential) branch divergence @  PC=0x27e0 (_1.ptx:1812) bra.uni $LDWendi__Z7comparePKviS0_i_186_1;
GPGPU-Sim PTX:    immediate post dominator      @  PC=0x27f0 (_1.ptx:1818) mov.s32 %r47, %r52;
GPGPU-Sim PTX: 47 (potential) branch divergence @  PC=0x2808 (_1.ptx:1823) @%p33 bra $Lt_6_37634;
GPGPU-Sim PTX:    immediate post dominator      @  PC=0x2830 (_1.ptx:1832) bar.sync 0;
GPGPU-Sim PTX: 48 (potential) branch divergence @  PC=0x2870 (_1.ptx:1841) @%p34 bra $Lt_6_29698;
GPGPU-Sim PTX:    immediate post dominator      @  PC=0x2878 (_1.ptx:1844) mul.lo.s32 %r27, %r27, 2;
GPGPU-Sim PTX: 49 (potential) branch divergence @  PC=0x2890 (_1.ptx:1847) @%p35 bra $Lt_6_28930;
GPGPU-Sim PTX:    immediate post dominator      @  PC=0x2898 (_1.ptx:1848) ld.shared.s32 %r98, [__cuda_local_var_46079_30_non_const_bs_numElement];
GPGPU-Sim PTX: 50 (potential) branch divergence @  PC=0x28a8 (_1.ptx:1850) @%p36 bra $LBB70__Z32bitonicSortMultipleBlocks_kernelPviP4int4PiiiS1_;
GPGPU-Sim PTX:    immediate post dominator      @  PC=0x28e8 (_1.ptx:1861) exit;
GPGPU-Sim PTX: ... end of reconvergence points for _Z32bitonicSortMultipleBlocks_kernelPviP4int4PiiiS1_
GPGPU-Sim PTX: ... done pre-decoding instructions for '_Z32bitonicSortMultipleBlocks_kernelPviP4int4PiiiS1_'.
GPGPU-Sim PTX: instruction assembly for function '_Z17initialize_kernelP4int4iiS_'...   done.
GPGPU-Sim PTX: finding reconvergence points for '_Z17initialize_kernelP4int4iiS_'...
GPGPU-Sim PTX: Finding dominators for '_Z17initialize_kernelP4int4iiS_'...
GPGPU-Sim PTX: Finding immediate dominators for '_Z17initialize_kernelP4int4iiS_'...
[...]
mf_lat_pw_table:0 	0 	0 	0 	0 	0 	0 	20113 	390 	4 	0 	0 	0 	0 	0 	0 	0 	0 	0 	0 	0 	0 	0 	0 	0 	0 	0 	0 	0 	0 	0 	0 	
maximum concurrent accesses to same row:
dram[0]:        49        20        17        22        11         8        10        10        17        17        10        12         8         9        16        16 
dram[1]:        50        35        29        22        10        18         7        10        13        19         8         9         8         8        16        16 
dram[2]:        19        50        16        22         8         6         7        10        17        16        11         9         8         7        16        16 
dram[3]:        25        34        16        29         7         8         7         7        19        14         7        12         7         8        16        16 
dram[4]:        30        17        16        22        15         9         7         8        17        16         8         8         6         8        16        16 
dram[5]:        45        20        29        22        14         8        10         9        15        18        10         8         8         7        16        16 
maximum service time to same row:
dram[0]:     65533    341181     42527     69653     70847     49840     40394    170975     85616     42579     60697     59714    326559    260681    258119    363567 
dram[1]:    259975     58069     45503     56144     86016     42418     38878     62191     56728     57362     55816     56481    262891    214022    307916    381006 
dram[2]:    331653     61428     36856     55182     73122     39872    162609     60586     68850     46394     67264     58544    252412    214012    388814    331811 
dram[3]:     79859    177480     40039     45139     78455     41547     46137     50705     54866     50141     66772     76525    336415    263720    371643    232279 
dram[4]:     82169    283840     46861     75714     66820     50194     63394     62147     54058     64497     56515     61240    266455    151717    305351    370142 
dram[5]:    197964     56397     57816     76259     62988     67744     56647     44470     71950    100197     64451     57593    226989    362892    298046    398137 
average row accesses per activate:
dram[0]:  1.374655  1.363810  1.301647  1.363602  1.308277  1.298548  1.266507  1.246704  1.274329  1.271636  1.294143  1.310946  1.284475  1.303610  1.268438  1.282206 
dram[1]:  1.373733  1.408611  1.328540  1.302806  1.305340  1.289344  1.256050  1.268640  1.277354  1.266419  1.284171  1.305268  1.275935  1.300084  1.262390  1.274695 
dram[2]:  1.368359  1.366039  1.292700  1.329787  1.298603  1.280112  1.240283  1.247342  1.284247  1.296599  1.293012  1.303095  1.303879  1.277257  1.258088  1.274695 
dram[3]:  1.379792  1.341267  1.327065  1.323911  1.304913  1.282110  1.253500  1.253788  1.282297  1.252048  1.270997  1.293505  1.300175  1.285483  1.262782  1.262058 
dram[4]:  1.344600  1.369146  1.296087  1.329554  1.304836  1.288628  1.277292  1.268002  1.262391  1.260744  1.278909  1.274377  1.274187  1.302496  1.259341  1.253696 
dram[5]:  1.351265  1.382987  1.303294  1.321401  1.301731  1.284386  1.275049  1.262969  1.273115  1.261225  1.309328  1.298617  1.284024  1.308366  1.260669  1.275309 
average row locality = 312388/241094 = 1.295710
number of total memory accesses made:
dram[0]:         0         0         0         0         0         0         0         0         0         0         0         0         0         0         0         0 
dram[1]:         0         0         0         0         0         0         0         0         0         0         0         0         0         0         0         0 
dram[2]:         0         0         0         0         0         0         0         0         0         0         0         0         0         0         0         0 
dram[3]:         0         0         0         0         0         0         0         0         0         0         0         0         0         0         0         0 
dram[4]:         0         0         0         0         0         0         0         0         0         0         0         0         0         0         0         0 
dram[5]:         0         0         0         0         0         0         0         0         0         0         0         0         0         0         0         0 
total accesses: 0
min_bank_accesses = 0!
min_chip_accesses = 0!
number of total read accesses:
dram[0]:      3037      3156      3106      3131      2998      3060      3050      3141      2986      3015      2973      2974      2910      2950      3088      3073 
dram[1]:      3061      3144      3211      3210      2965      3155      3100      3154      2961      3018      3059      2991      2945      3070      3171      3127 
dram[2]:      3060      3044      3299      3122      3033      2969      3358      3033      2956      2970      3132      2999      2979      2945      3314      3113 
dram[3]:      2997      3279      3199      3134      2997      3167      3241      3187      2910      3167      3040      3075      2923      3128      3232      3212 
dram[4]:      3066      3092      3296      3150      3095      3036      3180      3109      2981      3001      3109      2987      2967      2966      3281      3107 
dram[5]:      3019      3147      3113      3104      3067      3084      3106      3005      2948      3051      2986      2973      2985      2936      3160      2989 
total reads: 295300
bank skew: 3358/2910 = 1.15
chip skew: 49888/48648 = 1.03
number of total write accesses:
dram[0]:       445       409       372       428       274       250       115       169        52        56        32        32        52        47       111       112 
dram[1]:       464       455       392       318       237       245       118       147        51        48        32        32        56        45       115       112 
dram[2]:       417       367       402       378       220       230       152       134        44        42        32        32        46        54       147       126 
dram[3]:       458       384       400       332       217       187       161       123        38        42        32        32        44        51       127       111 
dram[4]:       395       387       381       368       278       250       178       184        50        50        32        32        49        61       157       115 
dram[5]:       347       446       329       366       242       231       139       160        40        39        32        32        53        51       119       110 
total reads: 17088
bank skew: 464/32 = 14.50
chip skew: 2967/2736 = 1.08
average mf latency per bank:
dram[0]:       5496      5010      5288      5522      5282      4970      5384      5517      5368      5324      5420      5769      5542      5410      5058      5801
dram[1]:       5769      5226      4993      5012      5720      4857      5465      5082      6066      5538      5071      5129      5866      5167      5062      4919
dram[2]:       5189      5359      5052      5532      4903      5087      4905      5659      5258      5280      5295      5836      5049      5140      4985      5488
dram[3]:       5830      5229      5232      5172      5773      5178      5199      4912      6074      5273      5424      5109      6025      5349      5225      4951
dram[4]:       5457      5048      5673      5075      5142      5103      5979      5029      5741      5045      6040      5440      5434      5185      5706      5005
dram[5]:       5328      5769      4857      5630      4870      5626      5032      5634      5384      6247      5116      5522      5066      6131      4771      5745
maximum mf latency per bank:
dram[0]:        658       643       641       652       663       606       685       599       620       652       821       721       664       572       658       597
dram[1]:        625       654       593       676       622       634       649       761       630       698       818       752       615       710       676       713
dram[2]:        591       643       558       613       571       729       587       730       590       623       800       752       574       682       578       771
dram[3]:        717       642       708       594       820       658       788       609       650       690       816       781       695       657       799       648
dram[4]:        688       564       659       642       689       578       659       598       607       535       771       687       601       612       606       585
dram[5]:        640       702       632       736       601       725       771       755       564       709       762       697       570       670       651       707

Number of Memory Banks Accessed per Memory Operation per Warp (from 0):
0	0	0	0	0	0	0	0	0	0	0	0	0	0	0	0	0	0	0	0	0	0	0	0	0	0	0	0	0	0	0	0	0	0	0	0	0	0	0	0	0	0	0	0	0	0	0	0	0	0	0	0	0	0	0	0	0	0	0	0	0	0	0	0	0	0	0	0	0	0	0	0	0	0	0	0	0	0	0	0	0	0	0	0	0	0	0	0	0	0	0	0	0	0	0	0	
Average # of Memory Banks Accessed per Memory Operation per Warp=-nan

position of mrq chosen
0	0	0	0	0	0	0	0	0	0	0	0	0	0	0	0	

average position of mrq chosen = -nan
Memory Partition 0: 
Cache L2_bank_000:
MSHR contents

Cache L2_bank_001:
MSHR contents

In Dram Latency Queue (total = 0): 
DRAM[0]: 16 bks, busW=4 BL=8 CL=12, tRRD=2 tCCD=6, tRCD=12 tRAS=28 tRP=12 tRC=40
n_cmd=13551881 n_nop=13370580 n_act=39659 n_pre=39643 n_req=51604 n_rd=97296 n_write=4703 bw_util=0.01505
n_activity=1935440 dram_eff=0.1054
bk0: 6074a 13471468i bk1: 6312a 13469438i bk2: 6212a 13467520i bk3: 6262a 13467860i bk4: 5996a 13472522i bk5: 6120a 13471471i bk6: 6100a 13474138i bk7: 6282a 13469152i bk8: 5972a 13477661i bk9: 6030a 13477351i bk10: 5946a 13479586i bk11: 5948a 13480552i bk12: 5820a 13480586i bk13: 5900a 13480905i bk14: 6176a 13474828i bk15: 6146a 13475357i 
dram_util_bins: 0 0 0 0 0 0 0 0 0 0
dram_eff_bins: 0 0 0 0 0 0 0 0 0 0
mrqq: max=16 avg=0.00862397
Memory Partition 1: 
Cache L2_bank_002:
MSHR contents
MSHR: tag=0x81cb1d00, atomic=0 1 entries : 0x7fe00c87b640 :  mf: uid=85288142, sid14:w30, part=1, addr=0x81cb1d00, load , size=128, unknown  status = IN_PARTITION_L2_FILL_QUEUE (10266577), 

Cache L2_bank_003:
MSHR contents

In Dram Latency Queue (total = 0): 
DRAM[1]: 16 bks, busW=4 BL=8 CL=12, tRRD=2 tCCD=6, tRCD=12 tRAS=28 tRP=12 tRC=40
n_cmd=13551881 n_nop=13368264 n_act=40189 n_pre=40173 n_req=52209 n_rd=98684 n_write=4571 bw_util=0.01524
n_activity=1955747 dram_eff=0.1056
bk0: 6122a 13470529i bk1: 6288a 13470938i bk2: 6422a 13466141i bk3: 6420a 13466051i bk4: 5930a 13474210i bk5: 6310a 13468570i bk6: 6200a 13471753i bk7: 6308a 13469919i bk8: 5922a 13478558i bk9: 6036a 13477305i bk10: 6118a 13477210i bk11: 5982a 13480070i bk12: 5890a 13479597i bk13: 6140a 13477956i bk14: 6342a 13472417i bk15: 6254a 13473634i 
dram_util_bins: 0 0 0 0 0 0 0 0 0 0
dram_eff_bins: 0 0 0 0 0 0 0 0 0 0
mrqq: max=16 avg=0.00844621
Memory Partition 2: 
Cache L2_bank_004:
MSHR contents

Cache L2_bank_005:
MSHR contents
MSHR: tag=0x81cb2480, atomic=0 1 entries : 0x7fe00ca730b0 :  mf: uid=85288148, sid00:w29, part=2, addr=0x81cb2480, load , size=128, unknown  status = IN_PARTITION_DRAM (10266568), 

In Dram Latency Queue (total = 0): 
DRAM[2]: 16 bks, busW=4 BL=8 CL=12, tRRD=2 tCCD=6, tRCD=12 tRAS=28 tRP=12 tRC=40
n_cmd=13551881 n_nop=13368097 n_act=40298 n_pre=40282 n_req=52149 n_rd=98652 n_write=4552 bw_util=0.01523
n_activity=1959985 dram_eff=0.1053
bk0: 6120a 13471818i bk1: 6088a 13473160i bk2: 6598a 13461824i bk3: 6244a 13467555i bk4: 6066a 13472764i bk5: 5938a 13473127i bk6: 6716a 13463880i bk7: 6066a 13472129i bk8: 5912a 13479343i bk9: 5940a 13479931i bk10: 6264a 13475882i bk11: 5998a 13479615i bk12: 5958a 13480161i bk13: 5890a 13479892i bk14: 6628a 13467737i bk15: 6226a 13473487i 
dram_util_bins: 0 0 0 0 0 0 0 0 0 0
dram_eff_bins: 0 0 0 0 0 0 0 0 0 0
mrqq: max=16 avg=0.00859733
Memory Partition 3: 
Cache L2_bank_006:
MSHR contents

Cache L2_bank_007:
MSHR contents
MSHR: tag=0x81cb2500, atomic=0 1 entries : 0x7fe00ca72cd0 :  mf: uid=85288147, sid00:w30, part=3, addr=0x81cb2500, load , size=128, unknown  status = IN_PARTITION_DRAM (10266574), 

In Dram Latency Queue (total = 0): 
DRAM[3]: 16 bks, busW=4 BL=8 CL=12, tRRD=2 tCCD=6, tRCD=12 tRAS=28 tRP=12 tRC=40
n_cmd=13551881 n_nop=13366280 n_act=40727 n_pre=40711 n_req=52627 n_rd=99776 n_write=4387 bw_util=0.01537
n_activity=1977813 dram_eff=0.1053
bk0: 5994a 13472889i bk1: 6558a 13466273i bk2: 6398a 13465926i bk3: 6268a 13468721i bk4: 5994a 13474107i bk5: 6334a 13469989i bk6: 6482a 13467068i bk7: 6374a 13469242i bk8: 5820a 13480478i bk9: 6334a 13473149i bk10: 6080a 13476682i bk11: 6150a 13477181i bk12: 5846a 13481183i bk13: 6256a 13475607i bk14: 6464a 13470154i bk15: 6424a 13470835i 
dram_util_bins: 0 0 0 0 0 0 0 0 0 0
dram_eff_bins: 0 0 0 0 0 0 0 0 0 0
mrqq: max=16 avg=0.00881863
Memory Partition 4: 
Cache L2_bank_008:
MSHR contents

Cache L2_bank_009:
MSHR contents

In Dram Latency Queue (total = 0): 
DRAM[4]: 16 bks, busW=4 BL=8 CL=12, tRRD=2 tCCD=6, tRCD=12 tRAS=28 tRP=12 tRC=40
n_cmd=13551881 n_nop=13367012 n_act=40596 n_pre=40580 n_req=52390 n_rd=98846 n_write=4847 bw_util=0.0153
n_activity=1969530 dram_eff=0.1053
bk0: 6132a 13470720i bk1: 6184a 13471797i bk2: 6592a 13462263i bk3: 6300a 13467409i bk4: 6190a 13469639i bk5: 6072a 13471198i bk6: 6360a 13469278i bk7: 6218a 13470497i bk8: 5962a 13477573i bk9: 6002a 13477443i bk10: 6218a 13475828i bk11: 5974a 13478862i bk12: 5934a 13478949i bk13: 5932a 13480219i bk14: 6562a 13467952i bk15: 6214a 13472696i 
dram_util_bins: 0 0 0 0 0 0 0 0 0 0
dram_eff_bins: 0 0 0 0 0 0 0 0 0 0
mrqq: max=16 avg=0.00810338
Memory Partition 5: 
Cache L2_bank_010:
MSHR contents
MSHR: tag=0x81cb2d00, atomic=0 1 entries : 0x7fe00c87b2e0 :  mf: uid=85288141, sid01:w30, part=5, addr=0x81cb2d00, load , size=128, unknown  status = IN_PARTITION_DRAM (10266569), 

Cache L2_bank_011:
MSHR contents

In Dram Latency Queue (total = 0): 
DRAM[5]: 16 bks, busW=4 BL=8 CL=12, tRRD=2 tCCD=6, tRCD=12 tRAS=28 tRP=12 tRC=40
n_cmd=13551881 n_nop=13370856 n_act=39626 n_pre=39610 n_req=51409 n_rd=97346 n_write=4443 bw_util=0.01502
n_activity=1931240 dram_eff=0.1054
bk0: 6038a 13473726i bk1: 6294a 13469765i bk2: 6226a 13468772i bk3: 6208a 13468318i bk4: 6134a 13471345i bk5: 6168a 13470213i bk6: 6212a 13472108i bk7: 6010a 13473186i bk8: 5896a 13479311i bk9: 6102a 13476280i bk10: 5972a 13479985i bk11: 5946a 13480149i bk12: 5970a 13478766i bk13: 5872a 13481295i bk14: 6320a 13472149i bk15: 5978a 13476907i 
dram_util_bins: 0 0 0 0 0 0 0 0 0 0
dram_eff_bins: 0 0 0 0 0 0 0 0 0 0
mrqq: max=16 avg=0.00827442

========= L2 cache stats =========
L2_cache_bank[0]: Access = 658609, Miss = 24148, Miss_rate = 0.037, Pending_hits = 405, Reservation_fails = 10276
L2_cache_bank[1]: Access = 667133, Miss = 24500, Miss_rate = 0.037, Pending_hits = 417, Reservation_fails = 11746
L2_cache_bank[2]: Access = 668180, Miss = 24473, Miss_rate = 0.037, Pending_hits = 408, Reservation_fails = 11098
L2_cache_bank[3]: Access = 648193, Miss = 24869, Miss_rate = 0.038, Pending_hits = 389, Reservation_fails = 10821
L2_cache_bank[4]: Access = 654186, Miss = 25131, Miss_rate = 0.038, Pending_hits = 396, Reservation_fails = 11145
L2_cache_bank[5]: Access = 661093, Miss = 24195, Miss_rate = 0.037, Pending_hits = 347, Reservation_fails = 9447
L2_cache_bank[6]: Access = 674181, Miss = 24539, Miss_rate = 0.036, Pending_hits = 418, Reservation_fails = 11083
L2_cache_bank[7]: Access = 658530, Miss = 25349, Miss_rate = 0.038, Pending_hits = 327, Reservation_fails = 8891
L2_cache_bank[8]: Access = 686183, Miss = 24975, Miss_rate = 0.036, Pending_hits = 332, Reservation_fails = 8282
L2_cache_bank[9]: Access = 646235, Miss = 24448, Miss_rate = 0.038, Pending_hits = 396, Reservation_fails = 9876
L2_cache_bank[10]: Access = 638298, Miss = 24384, Miss_rate = 0.038, Pending_hits = 308, Reservation_fails = 7789
L2_cache_bank[11]: Access = 681577, Miss = 24289, Miss_rate = 0.036, Pending_hits = 390, Reservation_fails = 10668
L2_total_cache_accesses = 7942398
L2_total_cache_misses = 295300
L2_total_cache_miss_rate = 0.0372
L2_total_cache_pending_hits = 4533
L2_total_cache_reservation_fails = 121122
L2_total_cache_breakdown:
	L2_cache_stats_breakdown[GLOBAL_ACC_R][HIT] = 7343153
	L2_cache_stats_breakdown[GLOBAL_ACC_R][MISS] = 291609
	L2_cache_stats_breakdown[GLOBAL_ACC_R][RESERVATION_FAIL] = 1122
	L2_cache_stats_breakdown[LOCAL_ACC_R][HIT] = 37531
	L2_cache_stats_breakdown[LOCAL_ACC_R][MISS] = 2
	L2_cache_stats_breakdown[LOCAL_ACC_R][RESERVATION_FAIL] = 7698
	L2_cache_stats_breakdown[CONST_ACC_R][HIT] = 11
	L2_cache_stats_breakdown[CONST_ACC_R][HIT_RESERVED] = 3
	L2_cache_stats_breakdown[CONST_ACC_R][MISS] = 1
	L2_cache_stats_breakdown[CONST_ACC_R][RESERVATION_FAIL] = 100
	L2_cache_stats_breakdown[GLOBAL_ACC_W][HIT] = 72833
	L2_cache_stats_breakdown[GLOBAL_ACC_W][HIT_RESERVED] = 4
	L2_cache_stats_breakdown[GLOBAL_ACC_W][MISS] = 771
	L2_cache_stats_breakdown[GLOBAL_ACC_W][RESERVATION_FAIL] = 114
	L2_cache_stats_breakdown[LOCAL_ACC_W][HIT] = 183767
	L2_cache_stats_breakdown[LOCAL_ACC_W][HIT_RESERVED] = 4475
	L2_cache_stats_breakdown[LOCAL_ACC_W][MISS] = 2192
	L2_cache_stats_breakdown[LOCAL_ACC_W][RESERVATION_FAIL] = 110507
	L2_cache_stats_breakdown[L1_WRBK_ACC][HIT] = 4999
	L2_cache_stats_breakdown[L1_WRBK_ACC][MISS] = 702
	L2_cache_stats_breakdown[INST_ACC_R][HIT] = 271
	L2_cache_stats_breakdown[INST_ACC_R][HIT_RESERVED] = 51
	L2_cache_stats_breakdown[INST_ACC_R][MISS] = 23
	L2_cache_stats_breakdown[INST_ACC_R][RESERVATION_FAIL] = 1581
L2_cache_data_port_util = 0.244
L2_cache_fill_port_util = 0.010

icnt_total_pkts_mem_to_simt=38627287
icnt_total_pkts_simt_to_mem=8428540
LD_mem_lat_dist  0 0 0 0 0 0 0 0 0 0 0 0 0 0 0 0 0 0 0 0 0 0 0 0 0 0 0
ST_mem_lat_dist  0 0 0 0 0 0 0 0 0 0 0 0 0 0 0 0 0 0 0 0 0 0 0 0 0 0 0
----------------------------Interconnect-DETAILS--------------------------------
Class 0:
Packet latency average = 12.3833
	minimum = 6
	maximum = 80
Network latency average = 10.5885
	minimum = 6
	maximum = 57
Slowest packet = 15877116
Flit latency average = 9.44304
	minimum = 6
	maximum = 57
Slowest flit = 47050795
Fragmentation average = 0
	minimum = 0
	maximum = 0
Injected packet rate average = 0.00550896
	minimum = 0.0046723 (at node 2)
	maximum = 0.00818723 (at node 24)
Accepted packet rate average = 0.00550896
	minimum = 0.0046723 (at node 2)
	maximum = 0.00818723 (at node 24)
Injected flit rate average = 0.0163046
	minimum = 0.013031 (at node 2)
	maximum = 0.02289 (at node 15)
Accepted flit rate average= 0.0163046
	minimum = 0.014617 (at node 2)
	maximum = 0.0212182 (at node 24)
Injected packet length average = 2.95965
Accepted packet length average = 2.95965
Total in-flight flits = 0 (0 measured)
====== Overall Traffic Statistics ======
====== Traffic class 0 ======
Packet latency average = 16.2201 (2 samples)
	minimum = 6 (2 samples)
	maximum = 214.5 (2 samples)
Network latency average = 13.3798 (2 samples)
	minimum = 6 (2 samples)
	maximum = 197.5 (2 samples)
Flit latency average = 12.8937 (2 samples)
	minimum = 6 (2 samples)
	maximum = 197.5 (2 samples)
Fragmentation average = 0.000280178 (2 samples)
	minimum = 0 (2 samples)
	maximum = 152 (2 samples)
Injected packet rate average = 0.0314556 (2 samples)
	minimum = 0.0247758 (2 samples)
	maximum = 0.037559 (2 samples)
Accepted packet rate average = 0.0314556 (2 samples)
	minimum = 0.0247558 (2 samples)
	maximum = 0.0375818 (2 samples)
Injected flit rate average = 0.0932048 (2 samples)
	minimum = 0.0307359 (2 samples)
	maximum = 0.174778 (2 samples)
Accepted flit rate average = 0.0932048 (2 samples)
	minimum = 0.0403341 (2 samples)
	maximum = 0.157239 (2 samples)
Injected packet size average = 2.96306 (2 samples)
Accepted packet size average = 2.96306 (2 samples)
Hops average = 1 (2 samples)
