

        *** GPGPU-Sim Simulator Version 3.2.2  [build 0] ***


GPGPU-Sim PTX: simulation mode 0 (can change with PTX_SIM_MODE_FUNC environment variable:
               1=functional simulation only, 0=detailed performance simulator)
GPGPU-Sim: Configuration options:

-network_mode                           1 # Interconnection network mode
-inter_config_file   config_fermi_islip.icnt # Interconnection network config file
-gpgpu_ptx_use_cuobjdump                    1 # Use cuobjdump to extract ptx and sass from binaries
-gpgpu_experimental_lib_support                    0 # Try to extract code from cuda libraries [Broken because of unknown cudaGetExportTable]
-gpgpu_ptx_convert_to_ptxplus                    0 # Convert SASS (native ISA) to ptxplus and run ptxplus
-gpgpu_ptx_force_max_capability                   20 # Force maximum compute capability
-gpgpu_ptx_inst_debug_to_file                    0 # Dump executed instructions' debug information to file
-gpgpu_ptx_inst_debug_file       inst_debug.txt # Executed instructions' debug output file
-gpgpu_ptx_inst_debug_thread_uid                    1 # Thread UID for executed instructions' debug output
-gpgpu_simd_model                       1 # 1 = post-dominator
-gpgpu_shader_core_pipeline              1536:32 # shader core pipeline config, i.e., {<nthread>:<warpsize>}
-gpgpu_tex_cache:l1  4:128:24,L:R:m:N:L,F:128:4,128:2 # per-shader L1 texture cache  (READ-ONLY) config  {<nsets>:<bsize>:<assoc>,<rep>:<wr>:<alloc>:<wr_alloc>,<mshr>:<N>:<merge>,<mq>:<rf>}
-gpgpu_const_cache:l1 64:64:2,L:R:f:N:L,A:2:32,4 # per-shader L1 constant memory cache  (READ-ONLY) config  {<nsets>:<bsize>:<assoc>,<rep>:<wr>:<alloc>:<wr_alloc>,<mshr>:<N>:<merge>,<mq>} 
-gpgpu_cache:il1     4:128:4,L:R:f:N:L,A:2:32,4 # shader L1 instruction cache config  {<nsets>:<bsize>:<assoc>,<rep>:<wr>:<alloc>:<wr_alloc>,<mshr>:<N>:<merge>,<mq>} 
-gpgpu_cache:dl1     32:128:4,L:L:m:N:H,A:32:8,8:2,0,1:0:1:1:0:1,1:4:8:16:32:64,/sciclone/data10/hwang07/GPU_RESEARCH/swl/swl_outputs/RESULTS/lrr/ # per-shader L1 data cache config  {<nsets>:<bsize>:<assoc>,<rep>:<wr>:<alloc>:<wr_alloc>,<mshr>:<N>:<merge>,<mq> | none}
-gpgpu_cache:dl1PrefL1                 none # per-shader L1 data cache config  {<nsets>:<bsize>:<assoc>,<rep>:<wr>:<alloc>:<wr_alloc>,<mshr>:<N>:<merge>,<mq> | none}
-gpgpu_cache:dl1PreShared                 none # per-shader L1 data cache config  {<nsets>:<bsize>:<assoc>,<rep>:<wr>:<alloc>:<wr_alloc>,<mshr>:<N>:<merge>,<mq> | none}
-gmem_skip_L1D                          0 # global memory access skip L1D cache (implements -Xptxas -dlcm=cg, default=no skip)
-gpgpu_perfect_mem                      0 # enable perfect memory mode (no cache miss)
-n_regfile_gating_group                    4 # group of lanes that should be read/written together)
-gpgpu_clock_gated_reg_file                    0 # enable clock gated reg file for power calculations
-gpgpu_clock_gated_lanes                    0 # enable clock gated lanes for power calculations
-gpgpu_shader_registers                32768 # Number of registers per shader core. Limits number of concurrent CTAs. (default 8192)
-gpgpu_shader_cta                       8 # Maximum number of concurrent CTAs in shader (default 8)
-gpgpu_num_cta_barriers                   16 # Maximum number of named barriers per CTA (default 16)
-gpgpu_n_clusters                      15 # number of processing clusters
-gpgpu_n_cores_per_cluster                    1 # number of simd cores per cluster
-gpgpu_n_cluster_ejection_buffer_size                    8 # number of packets in ejection buffer
-gpgpu_n_ldst_response_buffer_size                    2 # number of response packets in ld/st unit ejection buffer
-gpgpu_shmem_size                   16384 # Size of shared memory per shader core (default 16kB)
-gpgpu_shmem_size                   49152 # Size of shared memory per shader core (default 16kB)
-gpgpu_shmem_size_PrefL1                16384 # Size of shared memory per shader core (default 16kB)
-gpgpu_shmem_size_PrefShared                16384 # Size of shared memory per shader core (default 16kB)
-gpgpu_shmem_num_banks                   32 # Number of banks in the shared memory in each shader core (default 16)
-gpgpu_shmem_limited_broadcast                    0 # Limit shared memory to do one broadcast per cycle (default on)
-gpgpu_shmem_warp_parts                    1 # Number of portions a warp is divided into for shared memory bank conflict check 
-gpgpu_warpdistro_shader                   -1 # Specify which shader core to collect the warp size distribution from
-gpgpu_warp_issue_shader                    0 # Specify which shader core to collect the warp issue distribution from
-gpgpu_local_mem_map                    1 # Mapping from local memory space address to simulated GPU physical address space (default = enabled)
-gpgpu_num_reg_banks                   16 # Number of register banks (default = 8)
-gpgpu_reg_bank_use_warp_id                    0 # Use warp ID in mapping registers to banks (default = off)
-gpgpu_operand_collector_num_units_sp                    6 # number of collector units (default = 4)
-gpgpu_operand_collector_num_units_sfu                    8 # number of collector units (default = 4)
-gpgpu_operand_collector_num_units_mem                    2 # number of collector units (default = 2)
-gpgpu_operand_collector_num_units_gen                    0 # number of collector units (default = 0)
-gpgpu_operand_collector_num_in_ports_sp                    2 # number of collector unit in ports (default = 1)
-gpgpu_operand_collector_num_in_ports_sfu                    1 # number of collector unit in ports (default = 1)
-gpgpu_operand_collector_num_in_ports_mem                    1 # number of collector unit in ports (default = 1)
-gpgpu_operand_collector_num_in_ports_gen                    0 # number of collector unit in ports (default = 0)
-gpgpu_operand_collector_num_out_ports_sp                    2 # number of collector unit in ports (default = 1)
-gpgpu_operand_collector_num_out_ports_sfu                    1 # number of collector unit in ports (default = 1)
-gpgpu_operand_collector_num_out_ports_mem                    1 # number of collector unit in ports (default = 1)
-gpgpu_operand_collector_num_out_ports_gen                    0 # number of collector unit in ports (default = 0)
-gpgpu_coalesce_arch                   13 # Coalescing arch (default = 13, anything else is off for now)
-gpgpu_num_sched_per_core                    2 # Number of warp schedulers per core
-gpgpu_max_insn_issue_per_warp                    1 # Max number of instructions that can be issued per warp in one cycle by scheduler
-gpgpu_simt_core_sim_order                    1 # Select the simulation order of cores in a cluster (0=Fix, 1=Round-Robin)
-gpgpu_pipeline_widths        2,1,1,2,1,1,2 # Pipeline widths ID_OC_SP,ID_OC_SFU,ID_OC_MEM,OC_EX_SP,OC_EX_SFU,OC_EX_MEM,EX_WB
-gpgpu_num_sp_units                     2 # Number of SP units (default=1)
-gpgpu_num_sfu_units                    1 # Number of SF units (default=1)
-gpgpu_num_mem_units                    1 # Number if ldst units (default=1) WARNING: not hooked up to anything
-gpgpu_scheduler                      lrr # Scheduler configuration: < lrr | gto | two_level_active > If two_level_active:<num_active_warps>:<inner_prioritization>:<outer_prioritization>For complete list of prioritization values see shader.h enum scheduler_prioritization_typeDefault: gto
-gpgpu_dram_scheduler                    1 # 0 = fifo, 1 = FR-FCFS (defaul)
-gpgpu_dram_partition_queues              8:8:8:8 # i2$:$2d:d2$:$2i
-l2_ideal                               0 # Use a ideal L2 cache that always hit
-gpgpu_cache:dl2     64:128:8,L:B:m:W:L,A:32:4,4:0,32 # unified banked L2 data cache config  {<nsets>:<bsize>:<assoc>,<rep>:<wr>:<alloc>:<wr_alloc>,<mshr>:<N>:<merge>,<mq>}
-gpgpu_cache:dl2_texture_only                    0 # L2 cache used for texture only
-gpgpu_n_mem                            6 # number of memory modules (e.g. memory controllers) in gpu
-gpgpu_n_sub_partition_per_mchannel                    2 # number of memory subpartition in each memory module
-gpgpu_n_mem_per_ctrlr                    2 # number of memory chips per memory controller
-gpgpu_memlatency_stat                   14 # track and display latency statistics 0x2 enables MC, 0x4 enables queue logs
-gpgpu_frfcfs_dram_sched_queue_size                   16 # 0 = unlimited (default); # entries per chip
-gpgpu_dram_return_queue_size                  116 # 0 = unlimited (default); # entries per chip
-gpgpu_dram_buswidth                    4 # default = 4 bytes (8 bytes per cycle at DDR)
-gpgpu_dram_burst_length                    8 # Burst length of each DRAM request (default = 4 data bus cycle)
-dram_data_command_freq_ratio                    4 # Frequency ratio between DRAM data bus and command bus (default = 2 times, i.e. DDR)
-gpgpu_dram_timing_opt nbk=16:CCD=2:RRD=6:RCD=12:RAS=28:RP=12:RC=40: CL=12:WL=4:CDLR=5:WR=12:nbkgrp=4:CCDL=3:RTPL=2 # DRAM timing parameters = {nbk:tCCD:tRRD:tRCD:tRAS:tRP:tRC:CL:WL:tCDLR:tWR:nbkgrp:tCCDL:tRTPL}
-rop_latency                          120 # ROP queue latency (default 85)
-dram_latency                         100 # DRAM latency (default 30)
-gpgpu_mem_addr_mapping dramid@8;00000000.00000000.00000000.00000000.0000RRRR.RRRRRRRR.BBBCCCCB.CCSSSSSS # mapping memory address to dram model {dramid@<start bit>;<memory address map>}
-gpgpu_mem_addr_test                    0 # run sweep test to check address mapping for aliased address
-gpgpu_mem_address_mask                    1 # 0 = old addressing mask, 1 = new addressing mask, 2 = new add. mask + flipped bank sel and chip sel bits
-gpuwattch_xml_file  gpuwattch_gtx480.xml # GPUWattch XML file
-power_simulation_enabled                    0 # Turn on power simulator (1=On, 0=Off)
-power_per_cycle_dump                    0 # Dump detailed power output each cycle
-power_trace_enabled                    0 # produce a file for the power trace (1=On, 0=Off)
-power_trace_zlevel                     6 # Compression level of the power trace output log (0=no comp, 9=highest)
-steady_power_levels_enabled                    0 # produce a file for the steady power levels (1=On, 0=Off)
-steady_state_definition                  8:4 # allowed deviation:number of samples
-gpgpu_max_cycle                        0 # terminates gpu simulation early (0 = no limit)
-gpgpu_max_insn                         0 # terminates gpu simulation early (0 = no limit)
-gpgpu_max_cta                          0 # terminates gpu simulation early (0 = no limit)
-gpgpu_runtime_stat                   500 # display runtime statistics such as dram utilization {<freq>:<flag>}
-liveness_message_freq                    1 # Minimum number of seconds between simulation liveness messages (0 = always print)
-gpgpu_flush_l1_cache                    0 # Flush L1 cache at the end of each kernel call
-gpgpu_flush_l2_cache                    0 # Flush L2 cache at the end of each kernel call
-gpgpu_deadlock_detect                    1 # Stop the simulation at deadlock (1=on (default), 0=off)
-gpgpu_ptx_instruction_classification                    0 # if enabled will classify ptx instruction types per kernel (Max 255 kernels now)
-gpgpu_ptx_sim_mode                     0 # Select between Performance (default) or Functional simulation (1)
-gpgpu_clock_domains 700.0:700.0:700.0:924.0 # Clock Domain Frequencies in MhZ {<Core Clock>:<ICNT Clock>:<L2 Clock>:<DRAM Clock>}
-gpgpu_max_concurrent_kernel                    8 # maximum kernels that can run concurrently on GPU
-gpgpu_cflog_interval                    0 # Interval between each snapshot in control flow logger
-visualizer_enabled                     0 # Turn on visualizer output (1=On, 0=Off)
-visualizer_outputfile                 NULL # Specifies the output log file for visualizer
-visualizer_zlevel                      6 # Compression level of the visualizer output log (0=no comp, 9=highest)
-trace_enabled                          0 # Turn on traces
-trace_components                    none # comma seperated list of traces to enable. Complete list found in trace_streams.tup. Default none
-trace_sampling_core                    0 # The core which is printed using CORE_DPRINTF. Default 0
-trace_sampling_memory_partition                   -1 # The memory partition which is printed using MEMPART_DPRINTF. Default -1 (i.e. all)
-enable_ptx_file_line_stats                    1 # Turn on PTX source line statistic profiling. (1 = On)
-ptx_line_stats_filename gpgpu_inst_stats.txt # Output file for PTX source line statistics.
-save_embedded_ptx                      0 # saves ptx files embedded in binary as <n>.ptx
-keep                                   0 # keep intermediate files created by GPGPU-Sim when interfacing with external programs
-gpgpu_ptx_save_converted_ptxplus                    0 # Saved converted ptxplus to a file
-ptx_opcode_latency_int         4,13,4,5,145 # Opcode latencies for integers <ADD,MAX,MUL,MAD,DIV>Default 1,1,19,25,145
-ptx_opcode_latency_fp          4,13,4,5,39 # Opcode latencies for single precision floating points <ADD,MAX,MUL,MAD,DIV>Default 1,1,1,1,30
-ptx_opcode_latency_dp         8,19,8,8,330 # Opcode latencies for double precision floating points <ADD,MAX,MUL,MAD,DIV>Default 8,8,8,8,335
-ptx_opcode_initiation_int            1,2,2,1,8 # Opcode initiation intervals for integers <ADD,MAX,MUL,MAD,DIV>Default 1,1,4,4,32
-ptx_opcode_initiation_fp            1,2,1,1,4 # Opcode initiation intervals for single precision floating points <ADD,MAX,MUL,MAD,DIV>Default 1,1,1,1,5
-ptx_opcode_initiation_dp         8,16,8,8,130 # Opcode initiation intervals for double precision floating points <ADD,MAX,MUL,MAD,DIV>Default 8,8,8,8,130
DRAM Timing Options:
nbk                                    16 # number of banks
CCD                                     2 # column to column delay
RRD                                     6 # minimal delay between activation of rows in different banks
RCD                                    12 # row to column delay
RAS                                    28 # time needed to activate row
RP                                     12 # time needed to precharge (deactivate) row
RC                                     40 # row cycle time
CDLR                                    5 # switching from write to read (changes tWTR)
WR                                     12 # last data-in to row precharge
CL                                     12 # CAS latency
WL                                      4 # Write latency
nbkgrp                                  4 # number of bank groups
CCDL                                    3 # column to column delay between accesses to different bank groups
RTPL                                    2 # read to precharge delay between accesses to different bank groups
Total number of memory sub partition = 12
addr_dec_mask[CHIP]  = 0000000000000000 	high:64 low:0
addr_dec_mask[BK]    = 000000000000e100 	high:16 low:8
addr_dec_mask[ROW]   = 000000000fff0000 	high:28 low:16
addr_dec_mask[COL]   = 0000000000001eff 	high:13 low:0
addr_dec_mask[BURST] = 000000000000003f 	high:6 low:0
sub_partition_id_mask = 0000000000000100
GPGPU-Sim uArch: clock freqs: 700000000.000000:700000000.000000:700000000.000000:924000000.000000
GPGPU-Sim uArch: clock periods: 0.00000000142857142857:0.00000000142857142857:0.00000000142857142857:0.00000000108225108225
*** Initializing Memory Statistics ***
GPGPU-Sim uArch: interconnect node map (shaderID+MemID to icntID)
GPGPU-Sim uArch: Memory nodes ID start from index: 15
GPGPU-Sim uArch:    0   1   2   3   4
GPGPU-Sim uArch:    5   6   7   8   9
GPGPU-Sim uArch:   10  11  12  13  14
GPGPU-Sim uArch:   15  16  17  18  19
GPGPU-Sim uArch:   20  21  22  23  24
GPGPU-Sim uArch:   25  26
GPGPU-Sim uArch: interconnect node reverse map (icntID to shaderID+MemID)
GPGPU-Sim uArch: Memory nodes start from ID: 15
GPGPU-Sim uArch:    0   1   2   3   4
GPGPU-Sim uArch:    5   6   7   8   9
GPGPU-Sim uArch:   10  11  12  13  14
GPGPU-Sim uArch:   15  16  17  18  19
GPGPU-Sim uArch:   20  21  22  23  24
GPGPU-Sim uArch:   25  26
2da471e6a07416e5693a12f48faeb39d  /sciclone/data10/hwang07/adwait/applications/benchmarks/rodinia/cuda/backprop/gpgpu_ptx_sim__backprop
GPGPU-Sim uArch: performance model initialization complete.
GPGPU-Sim PTX: __cudaRegisterFatBinary, fat_cubin_handle = 1, filename=backprop_cuda.cu
self exe links to: /sciclone/data10/hwang07/adwait/applications/benchmarks/rodinia/cuda/backprop/gpgpu_ptx_sim__backprop
Running md5sum using "md5sum /sciclone/data10/hwang07/adwait/applications/benchmarks/rodinia/cuda/backprop/gpgpu_ptx_sim__backprop "
Parsing file _cuobjdump_complete_output_xBfPw0
######### cuobjdump parser ########
## Adding new section ELF
Adding arch: sm_20
Adding identifier: backprop_cuda.cu
## Adding new section PTX
Adding ptx filename: _cuobjdump_1.ptx
Adding arch: sm_20
Adding identifier: backprop_cuda.cu
Done parsing!!!
GPGPU-Sim PTX: __cudaRegisterFunction _Z24bpnn_adjust_weights_cudaPfiS_iS_S_ : hostFun 0x0x402f24, fat_cubin_handle = 1
GPGPU-Sim PTX: allocating shared region for "__cuda___cuda_local_var_39781_34_non_const_input_node40" from 0x0 to 0x40 (shared memory space)
GPGPU-Sim PTX: allocating shared region for "__cuda___cuda_local_var_39782_34_non_const_weight_matrix104" from 0x80 to 0x480 (shared memory space)
GPGPU-Sim PTX: instruction assembly for function '_Z22bpnn_layerforward_CUDAPfS_S_S_ii'...   done.
GPGPU-Sim PTX: finding reconvergence points for '_Z22bpnn_layerforward_CUDAPfS_S_S_ii'...
GPGPU-Sim PTX: Finding dominators for '_Z22bpnn_layerforward_CUDAPfS_S_S_ii'...
GPGPU-Sim PTX: Finding immediate dominators for '_Z22bpnn_layerforward_CUDAPfS_S_S_ii'...
GPGPU-Sim PTX: Finding postdominators for '_Z22bpnn_layerforward_CUDAPfS_S_S_ii'...
GPGPU-Sim PTX: Finding immediate postdominators for '_Z22bpnn_layerforward_CUDAPfS_S_S_ii'...
GPGPU-Sim PTX: pre-decoding instructions for '_Z22bpnn_layerforward_CUDAPfS_S_S_ii'...
GPGPU-Sim PTX: reconvergence points for _Z22bpnn_layerforward_CUDAPfS_S_S_ii...
GPGPU-Sim PTX:  1 (potential) branch divergence @  PC=0x048 (_1.ptx:76) @!%p1 bra $Lt_0_3586;
GPGPU-Sim PTX:    immediate post dominator      @  PC=0x090 (_1.ptx:88) bar.sync 0;
GPGPU-Sim PTX:  2 (potential) branch divergence @  PC=0x190 (_1.ptx:125) @!%p2 bra $Lt_0_4098;
GPGPU-Sim PTX:    immediate post dominator      @  PC=0x290 (_1.ptx:166) ld.shared.f32 %f17, [%rd14+0];
GPGPU-Sim PTX:  3 (potential) branch divergence @  PC=0x1e8 (_1.ptx:139) @%p3 bra $Lt_0_4866;
GPGPU-Sim PTX:    immediate post dominator      @  PC=0x268 (_1.ptx:158) bar.sync 0;
GPGPU-Sim PTX:  4 (potential) branch divergence @  PC=0x288 (_1.ptx:163) @%p4 bra $Lt_0_4610;
GPGPU-Sim PTX:    immediate post dominator      @  PC=0x290 (_1.ptx:166) ld.shared.f32 %f17, [%rd14+0];
GPGPU-Sim PTX:  5 (potential) branch divergence @  PC=0x2a8 (_1.ptx:170) @!%p1 bra $Lt_0_5634;
GPGPU-Sim PTX:    immediate post dominator      @  PC=0x310 (_1.ptx:186) exit;
GPGPU-Sim PTX: ... end of reconvergence points for _Z22bpnn_layerforward_CUDAPfS_S_S_ii
GPGPU-Sim PTX: ... done pre-decoding instructions for '_Z22bpnn_layerforward_CUDAPfS_S_S_ii'.
GPGPU-Sim PTX: instruction assembly for function '_Z24bpnn_adjust_weights_cudaPfiS_iS_S_'...   done.
GPGPU-Sim PTX: finding reconvergence points for '_Z24bpnn_adjust_weights_cudaPfiS_iS_S_'...
GPGPU-Sim PTX: Finding dominators for '_Z24bpnn_adjust_weights_cudaPfiS_iS_S_'...
GPGPU-Sim PTX: Finding immediate dominators for '_Z24bpnn_adjust_weights_cudaPfiS_iS_S_'...
GPGPU-Sim PTX: Finding postdominators for '_Z24bpnn_adjust_weights_cudaPfiS_iS_S_'...
GPGPU-Sim PTX: Finding immediate postdominators for '_Z24bpnn_adjust_weights_cudaPfiS_iS_S_'...
GPGPU-Sim PTX: pre-decoding instructions for '_Z24bpnn_adjust_weights_cudaPfiS_iS_S_'...
GPGPU-Sim PTX: reconvergence points for _Z24bpnn_adjust_weights_cudaPfiS_iS_S_...
GPGPU-Sim PTX:  1 (potential) branch divergence @  PC=0x530 (_1.ptx:275) @%p1 bra $Lt_1_1282;
GPGPU-Sim PTX:    immediate post dominator      @  PC=0x600 (_1.ptx:305) exit;
GPGPU-Sim PTX: ... end of reconvergence points for _Z24bpnn_adjust_weights_cudaPfiS_iS_S_
GPGPU-Sim PTX: ... done pre-decoding instructions for '_Z24bpnn_adjust_weights_cudaPfiS_iS_S_'.
GPGPU-Sim PTX: finished parsing EMBEDDED .ptx file _1.ptx
Adding _cuobjdump_1.ptx with cubin handle 1
GPGPU-Sim PTX: extracting embedded .ptx to temporary file "_ptx_H14DGP"
Running: cat _ptx_H14DGP | sed 's/.version 1.5/.version 1.4/' | sed 's/, texmode_independent//' | sed 's/\(\.extern \.const\[1\] .b8 \w\+\)\[\]/\1\[1\]/' | sed 's/const\[.\]/const\[0\]/g' > _ptx2_8A7kSH
GPGPU-Sim PTX: generating ptxinfo using "$CUDA_INSTALL_PATH/bin/ptxas --gpu-name=sm_20 -v _ptx2_8A7kSH --output-file  /dev/null 2> _ptx_H14DGPinfo"
GPGPU-Sim PTX: Kernel '_Z24bpnn_adjust_weights_cudaPfiS_iS_S_' : regs=22, lmem=0, smem=0, cmem=80
GPGPU-Sim PTX: Kernel '_Z22bpnn_layerforward_CUDAPfS_S_S_ii' : regs=13, lmem=0, smem=1088, cmem=72
GPGPU-Sim PTX: removing ptxinfo using "rm -f _ptx_H14DGP _ptx2_8A7kSH _ptx_H14DGPinfo"
GPGPU-Sim PTX: loading globals with explicit initializers... 
GPGPU-Sim PTX: finished loading globals (0 bytes total).
GPGPU-Sim PTX: loading constants with explicit initializers...  done.
GPGPU-Sim PTX: __cudaRegisterFunction _Z22bpnn_layerforward_CUDAPfS_S_S_ii : hostFun 0x0x402dc8, fat_cubin_handle = 1
Random number generator seed: 7
Input layer size : 65536
Starting training kernel
Performing GPU computation

GPGPU-Sim PTX: cudaLaunch for 0x0x402dc8 (mode=performance simulation) on stream 0
GPGPU-Sim PTX: pushing kernel '_Z22bpnn_layerforward_CUDAPfS_S_S_ii' to stream 0, gridDim= (1,4096,1) blockDim = (16,16,1) 
kernel '_Z22bpnn_layerforward_CUDAPfS_S_S_ii' transfer to GPU hardware scheduler
GPGPU-Sim uArch: Shader 1 bind to kernel 1 '_Z22bpnn_layerforward_CUDAPfS_S_S_ii'
GPGPU-Sim uArch: CTA/core = 6, limited by: threads
GPGPU-Sim uArch: core:  1, cta: 0 initialized @(1,0)
GPGPU-Sim uArch: Shader 2 bind to kernel 1 '_Z22bpnn_layerforward_CUDAPfS_S_S_ii'
GPGPU-Sim uArch: core:  2, cta: 0 initialized @(1,0)
GPGPU-Sim uArch: Shader 3 bind to kernel 1 '_Z22bpnn_layerforward_CUDAPfS_S_S_ii'
GPGPU-Sim uArch: core:  3, cta: 0 initialized @(1,0)
GPGPU-Sim uArch: Shader 4 bind to kernel 1 '_Z22bpnn_layerforward_CUDAPfS_S_S_ii'
GPGPU-Sim uArch: core:  4, cta: 0 initialized @(1,0)
GPGPU-Sim uArch: Shader 5 bind to kernel 1 '_Z22bpnn_layerforward_CUDAPfS_S_S_ii'
GPGPU-Sim uArch: core:  5, cta: 0 initialized @(1,0)
GPGPU-Sim uArch: Shader 6 bind to kernel 1 '_Z22bpnn_layerforward_CUDAPfS_S_S_ii'
GPGPU-Sim uArch: core:  6, cta: 0 initialized @(1,0)
GPGPU-Sim uArch: Shader 7 bind to kernel 1 '_Z22bpnn_layerforward_CUDAPfS_S_S_ii'
GPGPU-Sim uArch: core:  7, cta: 0 initialized @(1,0)
GPGPU-Sim uArch: Shader 8 bind to kernel 1 '_Z22bpnn_layerforward_CUDAPfS_S_S_ii'
GPGPU-Sim uArch: core:  8, cta: 0 initialized @(1,0)
GPGPU-Sim uArch: Shader 9 bind to kernel 1 '_Z22bpnn_layerforward_CUDAPfS_S_S_ii'
GPGPU-Sim uArch: core:  9, cta: 0 initialized @(1,0)
GPGPU-Sim uArch: Shader 10 bind to kernel 1 '_Z22bpnn_layerforward_CUDAPfS_S_S_ii'
GPGPU-Sim uArch: core: 10, cta: 0 initialized @(1,0)
GPGPU-Sim uArch: Shader 11 bind to kernel 1 '_Z22bpnn_layerforward_CUDAPfS_S_S_ii'
GPGPU-Sim uArch: core: 11, cta: 0 initialized @(1,0)
GPGPU-Sim uArch: Shader 12 bind to kernel 1 '_Z22bpnn_layerforward_CUDAPfS_S_S_ii'
GPGPU-Sim uArch: core: 12, cta: 0 initialized @(1,0)
GPGPU-Sim uArch: Shader 13 bind to kernel 1 '_Z22bpnn_layerforward_CUDAPfS_S_S_ii'
GPGPU-Sim uArch: core: 13, cta: 0 initialized @(1,0)
GPGPU-Sim uArch: Shader 14 bind to kernel 1 '_Z22bpnn_layerforward_CUDAPfS_S_S_ii'
GPGPU-Sim uArch: core: 14, cta: 0 initialized @(1,0)
GPGPU-Sim uArch: Shader 0 bind to kernel 1 '_Z22bpnn_layerforward_CUDAPfS_S_S_ii'
GPGPU-Sim uArch: core:  0, cta: 0 initialized @(1,0)
GPGPU-Sim uArch: core:  1, cta: 1 initialized @(2,0)
GPGPU-Sim uArch: core:  2, cta: 1 initialized @(2,0)
GPGPU-Sim uArch: core:  3, cta: 1 initialized @(2,0)
GPGPU-Sim uArch: core:  4, cta: 1 initialized @(2,0)
GPGPU-Sim uArch: core:  5, cta: 1 initialized @(2,0)
GPGPU-Sim uArch: core:  6, cta: 1 initialized @(2,0)
GPGPU-Sim uArch: core:  7, cta: 1 initialized @(2,0)
GPGPU-Sim uArch: core:  8, cta: 1 initialized @(2,0)
GPGPU-Sim uArch: core:  9, cta: 1 initialized @(2,0)
GPGPU-Sim uArch: core: 10, cta: 1 initialized @(2,0)
GPGPU-Sim uArch: core: 11, cta: 1 initialized @(2,0)
GPGPU-Sim uArch: core: 12, cta: 1 initialized @(2,0)
GPGPU-Sim uArch: core: 13, cta: 1 initialized @(2,0)
GPGPU-Sim uArch: core: 14, cta: 1 initialized @(2,0)
GPGPU-Sim uArch: core:  0, cta: 1 initialized @(2,0)
GPGPU-Sim uArch: core:  1, cta: 2 initialized @(3,0)
GPGPU-Sim uArch: core:  2, cta: 2 initialized @(3,0)
GPGPU-Sim uArch: core:  3, cta: 2 initialized @(3,0)
GPGPU-Sim uArch: core:  4, cta: 2 initialized @(3,0)
GPGPU-Sim uArch: core:  5, cta: 2 initialized @(3,0)
GPGPU-Sim uArch: core:  6, cta: 2 initialized @(3,0)
GPGPU-Sim uArch: core:  7, cta: 2 initialized @(3,0)
GPGPU-Sim uArch: core:  8, cta: 2 initialized @(3,0)
GPGPU-Sim uArch: core:  9, cta: 2 initialized @(3,0)
GPGPU-Sim uArch: core: 10, cta: 2 initialized @(3,0)
GPGPU-Sim uArch: core: 11, cta: 2 initialized @(3,0)
GPGPU-Sim uArch: core: 12, cta: 2 initialized @(3,0)
GPGPU-Sim uArch: core: 13, cta: 2 initialized @(3,0)
GPGPU-Sim uArch: core: 14, cta: 2 initialized @(3,0)
GPGPU-Sim uArch: core:  0, cta: 2 initialized @(3,0)
GPGPU-Sim uArch: core:  1, cta: 3 initialized @(4,0)
GPGPU-Sim uArch: core:  2, cta: 3 initialized @(4,0)
GPGPU-Sim uArch: core:  3, cta: 3 initialized @(4,0)
GPGPU-Sim uArch: core:  4, cta: 3 initialized @(4,0)
GPGPU-Sim uArch: core:  5, cta: 3 initialized @(4,0)
GPGPU-Sim uArch: core:  6, cta: 3 initialized @(4,0)
GPGPU-Sim uArch: core:  7, cta: 3 initialized @(4,0)
GPGPU-Sim uArch: core:  8, cta: 3 initialized @(4,0)
GPGPU-Sim uArch: core:  9, cta: 3 initialized @(4,0)
GPGPU-Sim uArch: core: 10, cta: 3 initialized @(4,0)
GPGPU-Sim uArch: core: 11, cta: 3 initialized @(4,0)
GPGPU-Sim uArch: core: 12, cta: 3 initialized @(4,0)
GPGPU-Sim uArch: core: 13, cta: 3 initialized @(4,0)
GPGPU-Sim uArch: core: 14, cta: 3 initialized @(4,0)
GPGPU-Sim uArch: core:  0, cta: 3 initialized @(4,0)
GPGPU-Sim uArch: core:  1, cta: 4 initialized @(5,0)
GPGPU-Sim uArch: core:  2, cta: 4 initialized @(5,0)
GPGPU-Sim uArch: core:  3, cta: 4 initialized @(5,0)
GPGPU-Sim uArch: core:  4, cta: 4 initialized @(5,0)
GPGPU-Sim uArch: core:  5, cta: 4 initialized @(5,0)
GPGPU-Sim uArch: core:  6, cta: 4 initialized @(5,0)
GPGPU-Sim uArch: core:  7, cta: 4 initialized @(5,0)
GPGPU-Sim uArch: core:  8, cta: 4 initialized @(5,0)
GPGPU-Sim uArch: core:  9, cta: 4 initialized @(5,0)
GPGPU-Sim uArch: core: 10, cta: 4 initialized @(5,0)
GPGPU-Sim uArch: core: 11, cta: 4 initialized @(5,0)
GPGPU-Sim uArch: core: 12, cta: 4 initialized @(5,0)
GPGPU-Sim uArch: core: 13, cta: 4 initialized @(5,0)
GPGPU-Sim uArch: core: 14, cta: 4 initialized @(5,0)
GPGPU-Sim uArch: core:  0, cta: 4 initialized @(5,0)
GPGPU-Sim uArch: core:  1, cta: 5 initialized @(6,0)
GPGPU-Sim uArch: core:  2, cta: 5 initialized @(6,0)
GPGPU-Sim uArch: core:  3, cta: 5 initialized @(6,0)
GPGPU-Sim uArch: core:  4, cta: 5 initialized @(6,0)
GPGPU-Sim uArch: core:  5, cta: 5 initialized @(6,0)
GPGPU-Sim uArch: core:  6, cta: 5 initialized @(6,0)
GPGPU-Sim uArch: core:  7, cta: 5 initialized @(6,0)
GPGPU-Sim uArch: core:  8, cta: 5 initialized @(6,0)
GPGPU-Sim uArch: core:  9, cta: 5 initialized @(6,0)
GPGPU-Sim uArch: core: 10, cta: 5 initialized @(6,0)
GPGPU-Sim uArch: core: 11, cta: 5 initialized @(6,0)
GPGPU-Sim uArch: core: 12, cta: 5 initialized @(6,0)
GPGPU-Sim uArch: core: 13, cta: 5 initialized @(6,0)
GPGPU-Sim uArch: core: 14, cta: 5 initialized @(6,0)
GPGPU-Sim uArch: core:  0, cta: 5 initialized @(6,0)
GPGPU-Sim PTX: 100000 instructions simulated : ctaid=(0,49,0) tid=(15,11,0)
GPGPU-Sim uArch: cycles simulated: 500  inst.: 156046 (ipc=312.1) sim_rate=31209 (inst/sec) elapsed = 0:0:00:05 / Tue Mar 22 07:38:41 2016
GPGPU-Sim PTX: 200000 instructions simulated : ctaid=(0,30,0) tid=(0,5,0)
GPGPU-Sim uArch: cycles simulated: 1000  inst.: 237600 (ipc=237.6) sim_rate=39600 (inst/sec) elapsed = 0:0:00:06 / Tue Mar 22 07:38:42 2016
GPGPU-Sim PTX: 300000 instructions simulated : ctaid=(0,0,0) tid=(13,1,0)
GPGPU-Sim uArch: cycles simulated: 1500  inst.: 326764 (ipc=217.8) sim_rate=25135 (inst/sec) elapsed = 0:0:00:13 / Tue Mar 22 07:38:49 2016
GPGPU-Sim PTX: 400000 instructions simulated : ctaid=(0,72,0) tid=(15,13,0)
GPGPU-Sim PTX: 500000 instructions simulated : ctaid=(0,86,0) tid=(15,15,0)
GPGPU-Sim PTX: 600000 instructions simulated : ctaid=(0,73,0) tid=(15,15,0)
GPGPU-Sim uArch: cycles simulated: 2000  inst.: 648256 (ipc=324.1) sim_rate=46304 (inst/sec) elapsed = 0:0:00:14 / Tue Mar 22 07:38:50 2016
GPGPU-Sim PTX: 700000 instructions simulated : ctaid=(0,4,0) tid=(15,1,0)
GPGPU-Sim PTX: 800000 instructions simulated : ctaid=(0,36,0) tid=(15,15,0)
GPGPU-Sim uArch: cycles simulated: 3000  inst.: 874976 (ipc=291.7) sim_rate=58331 (inst/sec) elapsed = 0:0:00:15 / Tue Mar 22 07:38:51 2016
GPGPU-Sim PTX: 900000 instructions simulated : ctaid=(0,26,0) tid=(15,7,0)
GPGPU-Sim PTX: 1000000 instructions simulated : ctaid=(0,31,0) tid=(15,7,0)
GPGPU-Sim PTX: 1100000 instructions simulated : ctaid=(0,64,0) tid=(15,2,0)
GPGPU-Sim PTX: 1200000 instructions simulated : ctaid=(0,62,0) tid=(15,0,0)
GPGPU-Sim PTX: 1300000 instructions simulated : ctaid=(0,27,0) tid=(15,6,0)
GPGPU-Sim uArch: cycles simulated: 4000  inst.: 1278480 (ipc=319.6) sim_rate=79905 (inst/sec) elapsed = 0:0:00:16 / Tue Mar 22 07:38:52 2016
GPGPU-Sim PTX: 1400000 instructions simulated : ctaid=(0,70,0) tid=(15,11,0)
GPGPU-Sim PTX: 1500000 instructions simulated : ctaid=(0,1,0) tid=(15,10,0)
GPGPU-Sim PTX: 1600000 instructions simulated : ctaid=(0,61,0) tid=(15,12,0)
GPGPU-Sim PTX: 1700000 instructions simulated : ctaid=(0,23,0) tid=(15,0,0)
GPGPU-Sim uArch: cycles simulated: 5000  inst.: 1730832 (ipc=346.2) sim_rate=101813 (inst/sec) elapsed = 0:0:00:17 / Tue Mar 22 07:38:53 2016
GPGPU-Sim PTX: 1800000 instructions simulated : ctaid=(0,38,0) tid=(15,4,0)
GPGPU-Sim PTX: 1900000 instructions simulated : ctaid=(0,31,0) tid=(15,7,0)
GPGPU-Sim PTX: 2000000 instructions simulated : ctaid=(0,76,0) tid=(15,9,0)
GPGPU-Sim PTX: 2100000 instructions simulated : ctaid=(0,56,0) tid=(15,11,0)
GPGPU-Sim PTX: 2200000 instructions simulated : ctaid=(0,64,0) tid=(15,15,0)
GPGPU-Sim PTX: 2300000 instructions simulated : ctaid=(0,76,0) tid=(15,5,0)
GPGPU-Sim uArch: cycles simulated: 6000  inst.: 2331154 (ipc=388.5) sim_rate=129508 (inst/sec) elapsed = 0:0:00:18 / Tue Mar 22 07:38:54 2016
GPGPU-Sim PTX: 2400000 instructions simulated : ctaid=(0,89,0) tid=(11,8,0)
GPGPU-Sim PTX: 2500000 instructions simulated : ctaid=(0,60,0) tid=(7,8,0)
GPGPU-Sim PTX: 2600000 instructions simulated : ctaid=(0,59,0) tid=(15,10,0)
GPGPU-Sim uArch: Shader 14 finished CTA #3 (6967,0), 5 CTAs running
GPGPU-Sim uArch: core: 14, cta: 3 initialized @(6968,0)
GPGPU-Sim uArch: cycles simulated: 7000  inst.: 2560372 (ipc=365.8) sim_rate=134756 (inst/sec) elapsed = 0:0:00:19 / Tue Mar 22 07:38:55 2016
GPGPU-Sim uArch: Shader 14 finished CTA #4 (7016,0), 5 CTAs running
GPGPU-Sim uArch: core: 14, cta: 4 initialized @(7017,0)
GPGPU-Sim uArch: Shader 7 finished CTA #0 (7028,0), 5 CTAs running
GPGPU-Sim uArch: core:  7, cta: 0 initialized @(7029,0)
GPGPU-Sim uArch: Shader 7 finished CTA #2 (7091,0), 5 CTAs running
GPGPU-Sim uArch: core:  7, cta: 2 initialized @(7092,0)
GPGPU-Sim uArch: Shader 14 finished CTA #5 (7095,0), 5 CTAs running
GPGPU-Sim uArch: core: 14, cta: 5 initialized @(7096,0)
GPGPU-Sim uArch: Shader 14 finished CTA #1 (7134,0), 5 CTAs running
GPGPU-Sim uArch: core: 14, cta: 1 initialized @(7135,0)
GPGPU-Sim uArch: Shader 7 finished CTA #3 (7142,0), 5 CTAs running
GPGPU-Sim uArch: core:  7, cta: 3 initialized @(7143,0)
GPGPU-Sim uArch: Shader 14 finished CTA #0 (7145,0), 5 CTAs running
GPGPU-Sim uArch: core: 14, cta: 0 initialized @(7146,0)
GPGPU-Sim uArch: Shader 7 finished CTA #4 (7151,0), 5 CTAs running
GPGPU-Sim uArch: core:  7, cta: 4 initialized @(7152,0)
GPGPU-Sim uArch: Shader 5 finished CTA #2 (7156,0), 5 CTAs running
GPGPU-Sim uArch: core:  5, cta: 2 initialized @(7157,0)
GPGPU-Sim uArch: Shader 7 finished CTA #1 (7175,0), 5 CTAs running
GPGPU-Sim uArch: core:  7, cta: 1 initialized @(7176,0)
GPGPU-Sim uArch: Shader 13 finished CTA #4 (7200,0), 5 CTAs running
GPGPU-Sim uArch: core: 13, cta: 4 initialized @(7201,0)
GPGPU-Sim uArch: Shader 5 finished CTA #5 (7223,0), 5 CTAs running
GPGPU-Sim uArch: core:  5, cta: 5 initialized @(7224,0)
GPGPU-Sim uArch: Shader 13 finished CTA #5 (7233,0), 5 CTAs running
GPGPU-Sim uArch: core: 13, cta: 5 initialized @(7234,0)
GPGPU-Sim uArch: Shader 5 finished CTA #3 (7259,0), 5 CTAs running
GPGPU-Sim uArch: core:  5, cta: 3 initialized @(7260,0)
GPGPU-Sim uArch: Shader 14 finished CTA #2 (7278,0), 5 CTAs running
GPGPU-Sim uArch: core: 14, cta: 2 initialized @(7279,0)
GPGPU-Sim uArch: Shader 5 finished CTA #0 (7282,0), 5 CTAs running
GPGPU-Sim uArch: core:  5, cta: 0 initialized @(7283,0)
GPGPU-Sim uArch: Shader 13 finished CTA #0 (7289,0), 5 CTAs running
GPGPU-Sim uArch: core: 13, cta: 0 initialized @(7290,0)
GPGPU-Sim uArch: Shader 5 finished CTA #4 (7308,0), 5 CTAs running
GPGPU-Sim uArch: core:  5, cta: 4 initialized @(7309,0)
GPGPU-Sim uArch: Shader 7 finished CTA #5 (7310,0), 5 CTAs running
GPGPU-Sim uArch: core:  7, cta: 5 initialized @(7311,0)
GPGPU-Sim uArch: Shader 13 finished CTA #1 (7312,0), 5 CTAs running
GPGPU-Sim uArch: core: 13, cta: 1 initialized @(7313,0)
GPGPU-Sim uArch: Shader 11 finished CTA #2 (7314,0), 5 CTAs running
GPGPU-Sim uArch: core: 11, cta: 2 initialized @(7315,0)
GPGPU-Sim PTX: 2700000 instructions simulated : ctaid=(0,75,0) tid=(0,7,0)
GPGPU-Sim uArch: Shader 5 finished CTA #1 (7352,0), 5 CTAs running
GPGPU-Sim uArch: core:  5, cta: 1 initialized @(7353,0)
GPGPU-Sim uArch: Shader 2 finished CTA #2 (7380,0), 5 CTAs running
GPGPU-Sim uArch: core:  2, cta: 2 initialized @(7381,0)
GPGPU-Sim uArch: Shader 4 finished CTA #0 (7381,0), 5 CTAs running
GPGPU-Sim uArch: core:  4, cta: 0 initialized @(7382,0)
GPGPU-Sim uArch: Shader 13 finished CTA #2 (7384,0), 5 CTAs running
GPGPU-Sim uArch: Shader 13 finished CTA #3 (7384,0), 4 CTAs running
GPGPU-Sim uArch: core: 13, cta: 2 initialized @(7385,0)
GPGPU-Sim uArch: core: 13, cta: 3 initialized @(7386,0)
GPGPU-Sim uArch: Shader 10 finished CTA #1 (7386,0), 5 CTAs running
GPGPU-Sim uArch: core: 10, cta: 1 initialized @(7387,0)
GPGPU-Sim uArch: Shader 10 finished CTA #2 (7395,0), 5 CTAs running
GPGPU-Sim uArch: core: 10, cta: 2 initialized @(7396,0)
GPGPU-Sim uArch: Shader 6 finished CTA #0 (7408,0), 5 CTAs running
GPGPU-Sim uArch: core:  6, cta: 0 initialized @(7409,0)
GPGPU-Sim uArch: Shader 6 finished CTA #2 (7425,0), 5 CTAs running
GPGPU-Sim uArch: Shader 6 finished CTA #5 (7425,0), 4 CTAs running
GPGPU-Sim uArch: core:  6, cta: 2 initialized @(7426,0)
GPGPU-Sim uArch: core:  6, cta: 5 initialized @(7427,0)
GPGPU-Sim uArch: Shader 4 finished CTA #2 (7429,0), 5 CTAs running
GPGPU-Sim uArch: core:  4, cta: 2 initialized @(7430,0)
GPGPU-Sim uArch: Shader 10 finished CTA #3 (7443,0), 5 CTAs running
GPGPU-Sim uArch: core: 10, cta: 3 initialized @(7444,0)
GPGPU-Sim uArch: Shader 9 finished CTA #1 (7444,0), 5 CTAs running
GPGPU-Sim uArch: core:  9, cta: 1 initialized @(7445,0)
GPGPU-Sim uArch: Shader 11 finished CTA #3 (7447,0), 5 CTAs running
GPGPU-Sim uArch: core: 11, cta: 3 initialized @(7448,0)
GPGPU-Sim uArch: Shader 0 finished CTA #1 (7448,0), 5 CTAs running
GPGPU-Sim uArch: core:  0, cta: 1 initialized @(7449,0)
GPGPU-Sim uArch: Shader 4 finished CTA #5 (7455,0), 5 CTAs running
GPGPU-Sim uArch: core:  4, cta: 5 initialized @(7456,0)
GPGPU-Sim uArch: Shader 3 finished CTA #5 (7459,0), 5 CTAs running
GPGPU-Sim uArch: core:  3, cta: 5 initialized @(7460,0)
GPGPU-Sim uArch: Shader 4 finished CTA #1 (7460,0), 5 CTAs running
GPGPU-Sim uArch: core:  4, cta: 1 initialized @(7461,0)
GPGPU-Sim uArch: Shader 11 finished CTA #1 (7464,0), 5 CTAs running
GPGPU-Sim uArch: core: 11, cta: 1 initialized @(7465,0)
GPGPU-Sim uArch: Shader 9 finished CTA #4 (7478,0), 5 CTAs running
GPGPU-Sim uArch: core:  9, cta: 4 initialized @(7479,0)
GPGPU-Sim uArch: Shader 6 finished CTA #1 (7479,0), 5 CTAs running
GPGPU-Sim uArch: core:  6, cta: 1 initialized @(7480,0)
GPGPU-Sim uArch: Shader 3 finished CTA #0 (7484,0), 5 CTAs running
GPGPU-Sim uArch: Shader 10 finished CTA #5 (7484,0), 5 CTAs running
GPGPU-Sim uArch: core: 10, cta: 5 initialized @(7485,0)
GPGPU-Sim uArch: core:  3, cta: 0 initialized @(7485,0)
GPGPU-Sim uArch: Shader 6 finished CTA #4 (7487,0), 5 CTAs running
GPGPU-Sim uArch: core:  6, cta: 4 initialized @(7488,0)
GPGPU-Sim uArch: Shader 0 finished CTA #2 (7491,0), 5 CTAs running
GPGPU-Sim uArch: core:  0, cta: 2 initialized @(7492,0)
GPGPU-Sim uArch: Shader 9 finished CTA #2 (7492,0), 5 CTAs running
GPGPU-Sim uArch: Shader 9 finished CTA #3 (7492,0), 4 CTAs running
GPGPU-Sim uArch: core:  9, cta: 2 initialized @(7493,0)
GPGPU-Sim uArch: core:  9, cta: 3 initialized @(7494,0)
GPGPU-Sim uArch: Shader 4 finished CTA #3 (7499,0), 5 CTAs running
GPGPU-Sim uArch: core:  4, cta: 3 initialized @(7500,0)
GPGPU-Sim uArch: cycles simulated: 7500  inst.: 2677254 (ipc=357.0) sim_rate=133862 (inst/sec) elapsed = 0:0:00:20 / Tue Mar 22 07:38:56 2016
GPGPU-Sim uArch: Shader 3 finished CTA #1 (7500,0), 5 CTAs running
GPGPU-Sim uArch: core:  3, cta: 1 initialized @(7501,0)
GPGPU-Sim uArch: Shader 1 finished CTA #0 (7507,0), 5 CTAs running
GPGPU-Sim uArch: Shader 2 finished CTA #3 (7507,0), 5 CTAs running
GPGPU-Sim uArch: core:  1, cta: 0 initialized @(7508,0)
GPGPU-Sim uArch: core:  2, cta: 3 initialized @(7508,0)
GPGPU-Sim uArch: Shader 6 finished CTA #3 (7513,0), 5 CTAs running
GPGPU-Sim uArch: Shader 11 finished CTA #5 (7513,0), 5 CTAs running
GPGPU-Sim uArch: core:  6, cta: 3 initialized @(7514,0)
GPGPU-Sim uArch: core: 11, cta: 5 initialized @(7514,0)
GPGPU-Sim uArch: Shader 10 finished CTA #0 (7516,0), 5 CTAs running
GPGPU-Sim uArch: core: 10, cta: 0 initialized @(7517,0)
GPGPU-Sim uArch: Shader 0 finished CTA #4 (7517,0), 5 CTAs running
GPGPU-Sim uArch: Shader 0 finished CTA #5 (7517,0), 4 CTAs running
GPGPU-Sim uArch: core:  0, cta: 4 initialized @(7518,0)
GPGPU-Sim uArch: core:  0, cta: 5 initialized @(7519,0)
GPGPU-Sim uArch: Shader 3 finished CTA #3 (7519,0), 5 CTAs running
GPGPU-Sim uArch: core:  3, cta: 3 initialized @(7520,0)
GPGPU-Sim uArch: Shader 2 finished CTA #5 (7524,0), 5 CTAs running
GPGPU-Sim uArch: core:  2, cta: 5 initialized @(7525,0)
GPGPU-Sim uArch: Shader 12 finished CTA #1 (7525,0), 5 CTAs running
GPGPU-Sim uArch: core: 12, cta: 1 initialized @(7526,0)
GPGPU-Sim uArch: Shader 9 finished CTA #0 (7529,0), 5 CTAs running
GPGPU-Sim uArch: core:  9, cta: 0 initialized @(7530,0)
GPGPU-Sim uArch: Shader 0 finished CTA #3 (7531,0), 5 CTAs running
GPGPU-Sim uArch: core:  0, cta: 3 initialized @(7532,0)
GPGPU-Sim uArch: Shader 1 finished CTA #2 (7532,0), 5 CTAs running
GPGPU-Sim uArch: core:  1, cta: 2 initialized @(7533,0)
GPGPU-Sim uArch: Shader 12 finished CTA #2 (7534,0), 5 CTAs running
GPGPU-Sim uArch: core: 12, cta: 2 initialized @(7535,0)
GPGPU-Sim uArch: Shader 4 finished CTA #4 (7538,0), 5 CTAs running
GPGPU-Sim uArch: core:  4, cta: 4 initialized @(7539,0)
GPGPU-Sim uArch: Shader 2 finished CTA #0 (7540,0), 5 CTAs running
GPGPU-Sim uArch: core:  2, cta: 0 initialized @(7541,0)
GPGPU-Sim uArch: Shader 9 finished CTA #5 (7561,0), 5 CTAs running
GPGPU-Sim uArch: core:  9, cta: 5 initialized @(7562,0)
GPGPU-Sim uArch: Shader 2 finished CTA #1 (7564,0), 5 CTAs running
GPGPU-Sim uArch: core:  2, cta: 1 initialized @(7565,0)
GPGPU-Sim uArch: Shader 8 finished CTA #0 (7566,0), 5 CTAs running
GPGPU-Sim uArch: core:  8, cta: 0 initialized @(7567,0)
GPGPU-Sim uArch: Shader 1 finished CTA #1 (7567,0), 5 CTAs running
GPGPU-Sim uArch: Shader 2 finished CTA #4 (7567,0), 5 CTAs running
GPGPU-Sim uArch: core:  1, cta: 1 initialized @(7568,0)
GPGPU-Sim uArch: core:  2, cta: 4 initialized @(7568,0)
GPGPU-Sim uArch: Shader 11 finished CTA #0 (7569,0), 5 CTAs running
GPGPU-Sim uArch: core: 11, cta: 0 initialized @(7570,0)
GPGPU-Sim uArch: Shader 3 finished CTA #2 (7575,0), 5 CTAs running
GPGPU-Sim uArch: core:  3, cta: 2 initialized @(7576,0)
GPGPU-Sim uArch: Shader 10 finished CTA #4 (7577,0), 5 CTAs running
GPGPU-Sim uArch: core: 10, cta: 4 initialized @(7578,0)
GPGPU-Sim uArch: Shader 11 finished CTA #4 (7582,0), 5 CTAs running
GPGPU-Sim uArch: core: 11, cta: 4 initialized @(7583,0)
GPGPU-Sim uArch: Shader 3 finished CTA #4 (7583,0), 5 CTAs running
GPGPU-Sim uArch: core:  3, cta: 4 initialized @(7584,0)
GPGPU-Sim uArch: Shader 0 finished CTA #0 (7587,0), 5 CTAs running
GPGPU-Sim PTX: 2800000 instructions simulated : ctaid=(0,158,0) tid=(11,14,0)
GPGPU-Sim uArch: core:  0, cta: 0 initialized @(7588,0)
GPGPU-Sim uArch: Shader 8 finished CTA #4 (7591,0), 5 CTAs running
GPGPU-Sim uArch: core:  8, cta: 4 initialized @(7592,0)
GPGPU-Sim uArch: Shader 12 finished CTA #4 (7594,0), 5 CTAs running
GPGPU-Sim uArch: core: 12, cta: 4 initialized @(7595,0)
GPGPU-Sim uArch: Shader 1 finished CTA #5 (7597,0), 5 CTAs running
GPGPU-Sim uArch: core:  1, cta: 5 initialized @(7598,0)
GPGPU-Sim uArch: Shader 8 finished CTA #1 (7599,0), 5 CTAs running
GPGPU-Sim uArch: core:  8, cta: 1 initialized @(7600,0)
GPGPU-Sim uArch: Shader 12 finished CTA #5 (7612,0), 5 CTAs running
GPGPU-Sim uArch: core: 12, cta: 5 initialized @(7613,0)
GPGPU-Sim uArch: Shader 8 finished CTA #2 (7618,0), 5 CTAs running
GPGPU-Sim uArch: core:  8, cta: 2 initialized @(7619,0)
GPGPU-Sim uArch: Shader 12 finished CTA #3 (7628,0), 5 CTAs running
GPGPU-Sim uArch: core: 12, cta: 3 initialized @(7629,0)
GPGPU-Sim uArch: Shader 12 finished CTA #0 (7643,0), 5 CTAs running
GPGPU-Sim uArch: core: 12, cta: 0 initialized @(7644,0)
GPGPU-Sim uArch: Shader 1 finished CTA #3 (7649,0), 5 CTAs running
GPGPU-Sim uArch: core:  1, cta: 3 initialized @(7650,0)
GPGPU-Sim uArch: Shader 8 finished CTA #3 (7650,0), 5 CTAs running
GPGPU-Sim uArch: core:  8, cta: 3 initialized @(7651,0)
GPGPU-Sim uArch: Shader 1 finished CTA #4 (7684,0), 5 CTAs running
GPGPU-Sim uArch: core:  1, cta: 4 initialized @(7685,0)
GPGPU-Sim uArch: Shader 8 finished CTA #5 (7698,0), 5 CTAs running
GPGPU-Sim uArch: core:  8, cta: 5 initialized @(7699,0)
GPGPU-Sim PTX: 2900000 instructions simulated : ctaid=(0,178,0) tid=(7,9,0)
GPGPU-Sim PTX: 3000000 instructions simulated : ctaid=(0,141,0) tid=(15,10,0)
GPGPU-Sim PTX: 3100000 instructions simulated : ctaid=(0,162,0) tid=(11,2,0)
GPGPU-Sim PTX: 3200000 instructions simulated : ctaid=(0,115,0) tid=(5,9,0)
GPGPU-Sim PTX: 3300000 instructions simulated : ctaid=(0,159,0) tid=(3,4,0)
GPGPU-Sim uArch: cycles simulated: 8500  inst.: 3234666 (ipc=380.5) sim_rate=154031 (inst/sec) elapsed = 0:0:00:21 / Tue Mar 22 07:38:57 2016
GPGPU-Sim PTX: 3400000 instructions simulated : ctaid=(0,121,0) tid=(15,2,0)
GPGPU-Sim PTX: 3500000 instructions simulated : ctaid=(0,128,0) tid=(15,9,0)
GPGPU-Sim uArch: cycles simulated: 9000  inst.: 3499456 (ipc=388.8) sim_rate=159066 (inst/sec) elapsed = 0:0:00:22 / Tue Mar 22 07:38:58 2016
GPGPU-Sim PTX: 3600000 instructions simulated : ctaid=(0,144,0) tid=(15,15,0)
GPGPU-Sim PTX: 3700000 instructions simulated : ctaid=(0,159,0) tid=(15,6,0)
GPGPU-Sim PTX: 3800000 instructions simulated : ctaid=(0,178,0) tid=(15,0,0)
GPGPU-Sim PTX: 3900000 instructions simulated : ctaid=(0,93,0) tid=(15,15,0)
GPGPU-Sim PTX: 4000000 instructions simulated : ctaid=(0,169,0) tid=(15,7,0)
GPGPU-Sim uArch: cycles simulated: 10000  inst.: 3956224 (ipc=395.6) sim_rate=172009 (inst/sec) elapsed = 0:0:00:23 / Tue Mar 22 07:38:59 2016
GPGPU-Sim PTX: 4100000 instructions simulated : ctaid=(0,151,0) tid=(15,8,0)
GPGPU-Sim PTX: 4200000 instructions simulated : ctaid=(0,118,0) tid=(15,3,0)
GPGPU-Sim PTX: 4300000 instructions simulated : ctaid=(0,127,0) tid=(15,6,0)
GPGPU-Sim uArch: cycles simulated: 10500  inst.: 4229136 (ipc=402.8) sim_rate=176214 (inst/sec) elapsed = 0:0:00:24 / Tue Mar 22 07:39:00 2016
GPGPU-Sim PTX: 4400000 instructions simulated : ctaid=(0,156,0) tid=(1,9,0)
GPGPU-Sim PTX: 4500000 instructions simulated : ctaid=(0,148,0) tid=(7,4,0)
GPGPU-Sim PTX: 4600000 instructions simulated : ctaid=(0,146,0) tid=(3,14,0)
GPGPU-Sim uArch: Shader 4 finished CTA #0 (11067,0), 5 CTAs running
GPGPU-Sim uArch: core:  4, cta: 0 initialized @(11068,0)
GPGPU-Sim PTX: 4700000 instructions simulated : ctaid=(0,105,0) tid=(3,15,0)
GPGPU-Sim uArch: Shader 5 finished CTA #2 (11124,0), 5 CTAs running
GPGPU-Sim uArch: core:  5, cta: 2 initialized @(11125,0)
GPGPU-Sim PTX: 4800000 instructions simulated : ctaid=(0,120,0) tid=(5,6,0)
GPGPU-Sim uArch: Shader 2 finished CTA #2 (11238,0), 5 CTAs running
GPGPU-Sim uArch: core:  2, cta: 2 initialized @(11239,0)
GPGPU-Sim uArch: Shader 7 finished CTA #0 (11242,0), 5 CTAs running
GPGPU-Sim uArch: core:  7, cta: 0 initialized @(11243,0)
GPGPU-Sim uArch: Shader 7 finished CTA #2 (11253,0), 5 CTAs running
GPGPU-Sim uArch: core:  7, cta: 2 initialized @(11254,0)
GPGPU-Sim uArch: Shader 5 finished CTA #5 (11385,0), 5 CTAs running
GPGPU-Sim uArch: core:  5, cta: 5 initialized @(11386,0)
GPGPU-Sim PTX: 4900000 instructions simulated : ctaid=(0,138,0) tid=(11,0,0)
GPGPU-Sim uArch: Shader 11 finished CTA #2 (11452,0), 5 CTAs running
GPGPU-Sim uArch: core: 11, cta: 2 initialized @(11453,0)
GPGPU-Sim uArch: cycles simulated: 11500  inst.: 4842870 (ipc=421.1) sim_rate=193714 (inst/sec) elapsed = 0:0:00:25 / Tue Mar 22 07:39:01 2016
GPGPU-Sim PTX: 5000000 instructions simulated : ctaid=(0,176,0) tid=(1,2,0)
GPGPU-Sim uArch: Shader 14 finished CTA #3 (11612,0), 5 CTAs running
GPGPU-Sim uArch: core: 14, cta: 3 initialized @(11613,0)
GPGPU-Sim PTX: 5100000 instructions simulated : ctaid=(0,126,0) tid=(5,4,0)
GPGPU-Sim uArch: Shader 14 finished CTA #4 (11735,0), 5 CTAs running
GPGPU-Sim uArch: core: 14, cta: 4 initialized @(11736,0)
GPGPU-Sim uArch: Shader 11 finished CTA #3 (11918,0), 5 CTAs running
GPGPU-Sim uArch: core: 11, cta: 3 initialized @(11919,0)
GPGPU-Sim PTX: 5200000 instructions simulated : ctaid=(0,171,0) tid=(1,8,0)
GPGPU-Sim uArch: Shader 13 finished CTA #4 (11933,0), 5 CTAs running
GPGPU-Sim uArch: core: 13, cta: 4 initialized @(11934,0)
GPGPU-Sim uArch: cycles simulated: 12000  inst.: 5092942 (ipc=424.4) sim_rate=195882 (inst/sec) elapsed = 0:0:00:26 / Tue Mar 22 07:39:02 2016
GPGPU-Sim uArch: Shader 14 finished CTA #5 (12014,0), 5 CTAs running
GPGPU-Sim uArch: core: 14, cta: 5 initialized @(12015,0)
GPGPU-Sim uArch: Shader 3 finished CTA #1 (12023,0), 5 CTAs running
GPGPU-Sim uArch: core:  3, cta: 1 initialized @(12024,0)
GPGPU-Sim uArch: Shader 2 finished CTA #3 (12040,0), 5 CTAs running
GPGPU-Sim uArch: core:  2, cta: 3 initialized @(12041,0)
GPGPU-Sim uArch: Shader 14 finished CTA #0 (12057,0), 5 CTAs running
GPGPU-Sim uArch: core: 14, cta: 0 initialized @(12058,0)
GPGPU-Sim uArch: Shader 6 finished CTA #0 (12078,0), 5 CTAs running
GPGPU-Sim uArch: core:  6, cta: 0 initialized @(12079,0)
GPGPU-Sim uArch: Shader 4 finished CTA #1 (12108,0), 5 CTAs running
GPGPU-Sim uArch: core:  4, cta: 1 initialized @(12109,0)
GPGPU-Sim PTX: 5300000 instructions simulated : ctaid=(0,116,0) tid=(1,11,0)
GPGPU-Sim uArch: Shader 14 finished CTA #1 (12211,0), 5 CTAs running
GPGPU-Sim uArch: core: 14, cta: 1 initialized @(12212,0)
GPGPU-Sim uArch: Shader 4 finished CTA #2 (12229,0), 5 CTAs running
GPGPU-Sim uArch: core:  4, cta: 2 initialized @(12230,0)
GPGPU-Sim uArch: Shader 13 finished CTA #0 (12247,0), 5 CTAs running
GPGPU-Sim uArch: core: 13, cta: 0 initialized @(12248,0)
GPGPU-Sim uArch: Shader 2 finished CTA #4 (12296,0), 5 CTAs running
GPGPU-Sim uArch: core:  2, cta: 4 initialized @(12297,0)
GPGPU-Sim uArch: Shader 1 finished CTA #0 (12327,0), 5 CTAs running
GPGPU-Sim uArch: core:  1, cta: 0 initialized @(12328,0)
GPGPU-Sim uArch: Shader 7 finished CTA #3 (12389,0), 5 CTAs running
GPGPU-Sim uArch: core:  7, cta: 3 initialized @(12390,0)
GPGPU-Sim uArch: Shader 9 finished CTA #1 (12426,0), 5 CTAs running
GPGPU-Sim uArch: core:  9, cta: 1 initialized @(12427,0)
GPGPU-Sim uArch: Shader 4 finished CTA #3 (12431,0), 5 CTAs running
GPGPU-Sim uArch: core:  4, cta: 3 initialized @(12432,0)
GPGPU-Sim uArch: Shader 10 finished CTA #1 (12432,0), 5 CTAs running
GPGPU-Sim uArch: core: 10, cta: 1 initialized @(12433,0)
GPGPU-Sim uArch: Shader 11 finished CTA #1 (12440,0), 5 CTAs running
GPGPU-Sim uArch: core: 11, cta: 1 initialized @(12441,0)
GPGPU-Sim PTX: 5400000 instructions simulated : ctaid=(0,204,0) tid=(13,4,0)
GPGPU-Sim uArch: cycles simulated: 12500  inst.: 5265708 (ipc=421.3) sim_rate=195026 (inst/sec) elapsed = 0:0:00:27 / Tue Mar 22 07:39:03 2016
GPGPU-Sim uArch: Shader 13 finished CTA #5 (12503,0), 5 CTAs running
GPGPU-Sim uArch: core: 13, cta: 5 initialized @(12504,0)
GPGPU-Sim uArch: Shader 2 finished CTA #5 (12538,0), 5 CTAs running
GPGPU-Sim uArch: core:  2, cta: 5 initialized @(12539,0)
GPGPU-Sim uArch: Shader 11 finished CTA #4 (12544,0), 5 CTAs running
GPGPU-Sim uArch: Shader 14 finished CTA #2 (12544,0), 5 CTAs running
GPGPU-Sim uArch: core: 11, cta: 4 initialized @(12545,0)
GPGPU-Sim uArch: core: 14, cta: 2 initialized @(12545,0)
GPGPU-Sim uArch: Shader 5 finished CTA #1 (12556,0), 5 CTAs running
GPGPU-Sim uArch: core:  5, cta: 1 initialized @(12557,0)
GPGPU-Sim uArch: Shader 13 finished CTA #1 (12558,0), 5 CTAs running
GPGPU-Sim uArch: core: 13, cta: 1 initialized @(12559,0)
GPGPU-Sim uArch: Shader 5 finished CTA #0 (12567,0), 5 CTAs running
GPGPU-Sim uArch: core:  5, cta: 0 initialized @(12568,0)
GPGPU-Sim uArch: Shader 13 finished CTA #2 (12578,0), 5 CTAs running
GPGPU-Sim uArch: core: 13, cta: 2 initialized @(12579,0)
GPGPU-Sim uArch: Shader 11 finished CTA #0 (12581,0), 5 CTAs running
GPGPU-Sim uArch: core: 11, cta: 0 initialized @(12582,0)
GPGPU-Sim uArch: Shader 12 finished CTA #1 (12585,0), 5 CTAs running
GPGPU-Sim uArch: core: 12, cta: 1 initialized @(12586,0)
GPGPU-Sim uArch: Shader 9 finished CTA #2 (12596,0), 5 CTAs running
GPGPU-Sim uArch: core:  9, cta: 2 initialized @(12597,0)
GPGPU-Sim uArch: Shader 4 finished CTA #5 (12603,0), 5 CTAs running
GPGPU-Sim uArch: core:  4, cta: 5 initialized @(12604,0)
GPGPU-Sim uArch: Shader 10 finished CTA #2 (12635,0), 5 CTAs running
GPGPU-Sim uArch: core: 10, cta: 2 initialized @(12636,0)
GPGPU-Sim uArch: Shader 13 finished CTA #3 (12642,0), 5 CTAs running
GPGPU-Sim uArch: core: 13, cta: 3 initialized @(12643,0)
GPGPU-Sim uArch: Shader 11 finished CTA #5 (12645,0), 5 CTAs running
GPGPU-Sim uArch: core: 11, cta: 5 initialized @(12646,0)
GPGPU-Sim uArch: Shader 3 finished CTA #5 (12707,0), 5 CTAs running
GPGPU-Sim uArch: core:  3, cta: 5 initialized @(12708,0)
GPGPU-Sim uArch: Shader 5 finished CTA #4 (12717,0), 5 CTAs running
GPGPU-Sim uArch: core:  5, cta: 4 initialized @(12718,0)
GPGPU-Sim uArch: Shader 4 finished CTA #4 (12726,0), 5 CTAs running
GPGPU-Sim uArch: Shader 7 finished CTA #1 (12726,0), 5 CTAs running
GPGPU-Sim uArch: core:  7, cta: 1 initialized @(12727,0)
GPGPU-Sim uArch: core:  4, cta: 4 initialized @(12727,0)
GPGPU-Sim uArch: Shader 3 finished CTA #2 (12740,0), 5 CTAs running
GPGPU-Sim uArch: core:  3, cta: 2 initialized @(12741,0)
GPGPU-Sim uArch: Shader 3 finished CTA #0 (12741,0), 5 CTAs running
GPGPU-Sim uArch: Shader 8 finished CTA #0 (12741,0), 5 CTAs running
GPGPU-Sim uArch: core:  8, cta: 0 initialized @(12742,0)
GPGPU-Sim uArch: core:  3, cta: 0 initialized @(12742,0)
GPGPU-Sim PTX: 5500000 instructions simulated : ctaid=(0,224,0) tid=(7,9,0)
GPGPU-Sim uArch: Shader 7 finished CTA #4 (12761,0), 5 CTAs running
GPGPU-Sim uArch: core:  7, cta: 4 initialized @(12762,0)
GPGPU-Sim uArch: Shader 3 finished CTA #3 (12777,0), 5 CTAs running
GPGPU-Sim uArch: core:  3, cta: 3 initialized @(12778,0)
GPGPU-Sim uArch: Shader 2 finished CTA #0 (12785,0), 5 CTAs running
GPGPU-Sim uArch: Shader 7 finished CTA #5 (12785,0), 5 CTAs running
GPGPU-Sim uArch: core:  7, cta: 5 initialized @(12786,0)
GPGPU-Sim uArch: core:  2, cta: 0 initialized @(12786,0)
GPGPU-Sim uArch: Shader 8 finished CTA #1 (12801,0), 5 CTAs running
GPGPU-Sim uArch: core:  8, cta: 1 initialized @(12802,0)
GPGPU-Sim uArch: Shader 5 finished CTA #3 (12803,0), 5 CTAs running
GPGPU-Sim uArch: core:  5, cta: 3 initialized @(12804,0)
GPGPU-Sim uArch: Shader 6 finished CTA #4 (12844,0), 5 CTAs running
GPGPU-Sim uArch: core:  6, cta: 4 initialized @(12845,0)
GPGPU-Sim uArch: Shader 3 finished CTA #4 (12857,0), 5 CTAs running
GPGPU-Sim uArch: core:  3, cta: 4 initialized @(12858,0)
GPGPU-Sim uArch: Shader 2 finished CTA #1 (12859,0), 5 CTAs running
GPGPU-Sim uArch: core:  2, cta: 1 initialized @(12860,0)
GPGPU-Sim uArch: Shader 10 finished CTA #4 (12900,0), 5 CTAs running
GPGPU-Sim uArch: core: 10, cta: 4 initialized @(12901,0)
GPGPU-Sim uArch: Shader 9 finished CTA #4 (12911,0), 5 CTAs running
GPGPU-Sim uArch: core:  9, cta: 4 initialized @(12912,0)
GPGPU-Sim uArch: Shader 12 finished CTA #4 (12922,0), 5 CTAs running
GPGPU-Sim uArch: core: 12, cta: 4 initialized @(12923,0)
GPGPU-Sim uArch: Shader 9 finished CTA #3 (12928,0), 5 CTAs running
GPGPU-Sim uArch: core:  9, cta: 3 initialized @(12929,0)
GPGPU-Sim PTX: 5600000 instructions simulated : ctaid=(0,180,0) tid=(13,14,0)
GPGPU-Sim uArch: Shader 9 finished CTA #5 (12986,0), 5 CTAs running
GPGPU-Sim uArch: core:  9, cta: 5 initialized @(12987,0)
GPGPU-Sim uArch: Shader 1 finished CTA #2 (12991,0), 5 CTAs running
GPGPU-Sim uArch: core:  1, cta: 2 initialized @(12992,0)
GPGPU-Sim uArch: Shader 1 finished CTA #1 (12994,0), 5 CTAs running
GPGPU-Sim uArch: core:  1, cta: 1 initialized @(12995,0)
GPGPU-Sim uArch: Shader 1 finished CTA #5 (13002,0), 5 CTAs running
GPGPU-Sim uArch: core:  1, cta: 5 initialized @(13003,0)
GPGPU-Sim uArch: Shader 9 finished CTA #0 (13024,0), 5 CTAs running
GPGPU-Sim uArch: core:  9, cta: 0 initialized @(13025,0)
GPGPU-Sim uArch: Shader 6 finished CTA #5 (13037,0), 5 CTAs running
GPGPU-Sim uArch: core:  6, cta: 5 initialized @(13038,0)
GPGPU-Sim uArch: Shader 10 finished CTA #3 (13044,0), 5 CTAs running
GPGPU-Sim uArch: core: 10, cta: 3 initialized @(13045,0)
GPGPU-Sim uArch: Shader 12 finished CTA #2 (13065,0), 5 CTAs running
GPGPU-Sim uArch: core: 12, cta: 2 initialized @(13066,0)
GPGPU-Sim uArch: Shader 10 finished CTA #0 (13071,0), 5 CTAs running
GPGPU-Sim uArch: core: 10, cta: 0 initialized @(13072,0)
GPGPU-Sim uArch: Shader 6 finished CTA #3 (13074,0), 5 CTAs running
GPGPU-Sim uArch: core:  6, cta: 3 initialized @(13075,0)
GPGPU-Sim uArch: Shader 6 finished CTA #2 (13076,0), 5 CTAs running
GPGPU-Sim uArch: core:  6, cta: 2 initialized @(13077,0)
GPGPU-Sim uArch: Shader 1 finished CTA #3 (13094,0), 5 CTAs running
GPGPU-Sim uArch: core:  1, cta: 3 initialized @(13095,0)
GPGPU-Sim uArch: Shader 6 finished CTA #1 (13111,0), 5 CTAs running
GPGPU-Sim uArch: core:  6, cta: 1 initialized @(13112,0)
GPGPU-Sim uArch: Shader 10 finished CTA #5 (13115,0), 5 CTAs running
GPGPU-Sim uArch: core: 10, cta: 5 initialized @(13116,0)
GPGPU-Sim PTX: 5700000 instructions simulated : ctaid=(0,245,0) tid=(7,4,0)
GPGPU-Sim uArch: Shader 0 finished CTA #4 (13187,0), 5 CTAs running
GPGPU-Sim uArch: core:  0, cta: 4 initialized @(13188,0)
GPGPU-Sim uArch: Shader 0 finished CTA #5 (13225,0), 5 CTAs running
GPGPU-Sim uArch: core:  0, cta: 5 initialized @(13226,0)
GPGPU-Sim uArch: Shader 12 finished CTA #3 (13234,0), 5 CTAs running
GPGPU-Sim uArch: core: 12, cta: 3 initialized @(13235,0)
GPGPU-Sim uArch: Shader 1 finished CTA #4 (13238,0), 5 CTAs running
GPGPU-Sim uArch: core:  1, cta: 4 initialized @(13239,0)
GPGPU-Sim uArch: Shader 12 finished CTA #0 (13244,0), 5 CTAs running
GPGPU-Sim uArch: core: 12, cta: 0 initialized @(13245,0)
GPGPU-Sim uArch: Shader 0 finished CTA #0 (13245,0), 5 CTAs running
GPGPU-Sim uArch: core:  0, cta: 0 initialized @(13246,0)
GPGPU-Sim uArch: Shader 0 finished CTA #2 (13306,0), 5 CTAs running
GPGPU-Sim uArch: Shader 12 finished CTA #5 (13306,0), 5 CTAs running
GPGPU-Sim uArch: core: 12, cta: 5 initialized @(13307,0)
GPGPU-Sim uArch: core:  0, cta: 2 initialized @(13307,0)
GPGPU-Sim uArch: Shader 0 finished CTA #3 (13325,0), 5 CTAs running
GPGPU-Sim uArch: core:  0, cta: 3 initialized @(13326,0)
GPGPU-Sim uArch: Shader 8 finished CTA #4 (13334,0), 5 CTAs running
GPGPU-Sim uArch: core:  8, cta: 4 initialized @(13335,0)
GPGPU-Sim PTX: 5800000 instructions simulated : ctaid=(0,262,0) tid=(9,12,0)
GPGPU-Sim uArch: Shader 8 finished CTA #3 (13353,0), 5 CTAs running
GPGPU-Sim uArch: core:  8, cta: 3 initialized @(13354,0)
GPGPU-Sim uArch: Shader 0 finished CTA #1 (13382,0), 5 CTAs running
GPGPU-Sim uArch: core:  0, cta: 1 initialized @(13383,0)
GPGPU-Sim uArch: Shader 8 finished CTA #5 (13387,0), 5 CTAs running
GPGPU-Sim uArch: core:  8, cta: 5 initialized @(13388,0)
GPGPU-Sim uArch: Shader 8 finished CTA #2 (13397,0), 5 CTAs running
GPGPU-Sim uArch: core:  8, cta: 2 initialized @(13398,0)
GPGPU-Sim uArch: cycles simulated: 13500  inst.: 5731412 (ipc=424.5) sim_rate=204693 (inst/sec) elapsed = 0:0:00:28 / Tue Mar 22 07:39:04 2016
GPGPU-Sim PTX: 5900000 instructions simulated : ctaid=(0,232,0) tid=(3,7,0)
GPGPU-Sim PTX: 6000000 instructions simulated : ctaid=(0,243,0) tid=(5,7,0)
GPGPU-Sim PTX: 6100000 instructions simulated : ctaid=(0,200,0) tid=(11,10,0)
GPGPU-Sim uArch: cycles simulated: 14000  inst.: 6015922 (ipc=429.7) sim_rate=207445 (inst/sec) elapsed = 0:0:00:29 / Tue Mar 22 07:39:05 2016
GPGPU-Sim PTX: 6200000 instructions simulated : ctaid=(0,261,0) tid=(5,9,0)
GPGPU-Sim PTX: 6300000 instructions simulated : ctaid=(0,214,0) tid=(1,13,0)
GPGPU-Sim PTX: 6400000 instructions simulated : ctaid=(0,197,0) tid=(15,13,0)
GPGPU-Sim uArch: cycles simulated: 14500  inst.: 6299380 (ipc=434.4) sim_rate=209979 (inst/sec) elapsed = 0:0:00:30 / Tue Mar 22 07:39:06 2016
GPGPU-Sim PTX: 6500000 instructions simulated : ctaid=(0,260,0) tid=(3,15,0)
GPGPU-Sim PTX: 6600000 instructions simulated : ctaid=(0,257,0) tid=(15,5,0)
GPGPU-Sim uArch: Shader 4 finished CTA #0 (14859,0), 5 CTAs running
GPGPU-Sim uArch: core:  4, cta: 0 initialized @(14860,0)
GPGPU-Sim PTX: 6700000 instructions simulated : ctaid=(0,193,0) tid=(7,0,0)
GPGPU-Sim uArch: cycles simulated: 15000  inst.: 6565136 (ipc=437.7) sim_rate=211778 (inst/sec) elapsed = 0:0:00:31 / Tue Mar 22 07:39:07 2016
GPGPU-Sim uArch: Shader 2 finished CTA #2 (15013,0), 5 CTAs running
GPGPU-Sim uArch: core:  2, cta: 2 initialized @(15014,0)
GPGPU-Sim PTX: 6800000 instructions simulated : ctaid=(0,224,0) tid=(3,0,0)
GPGPU-Sim PTX: 6900000 instructions simulated : ctaid=(0,210,0) tid=(3,0,0)
GPGPU-Sim PTX: 7000000 instructions simulated : ctaid=(0,268,0) tid=(1,2,0)
GPGPU-Sim uArch: cycles simulated: 15500  inst.: 6834932 (ipc=441.0) sim_rate=213591 (inst/sec) elapsed = 0:0:00:32 / Tue Mar 22 07:39:08 2016
GPGPU-Sim uArch: Shader 5 finished CTA #2 (15557,0), 5 CTAs running
GPGPU-Sim uArch: core:  5, cta: 2 initialized @(15558,0)
GPGPU-Sim PTX: 7100000 instructions simulated : ctaid=(0,240,0) tid=(1,8,0)
GPGPU-Sim uArch: Shader 11 finished CTA #2 (15684,0), 5 CTAs running
GPGPU-Sim uArch: core: 11, cta: 2 initialized @(15685,0)
GPGPU-Sim PTX: 7200000 instructions simulated : ctaid=(0,243,0) tid=(1,7,0)
GPGPU-Sim uArch: Shader 11 finished CTA #3 (15842,0), 5 CTAs running
GPGPU-Sim uArch: core: 11, cta: 3 initialized @(15843,0)
GPGPU-Sim PTX: 7300000 instructions simulated : ctaid=(0,271,0) tid=(15,2,0)
GPGPU-Sim uArch: Shader 7 finished CTA #0 (15997,0), 5 CTAs running
GPGPU-Sim uArch: core:  7, cta: 0 initialized @(15998,0)
GPGPU-Sim uArch: Shader 7 finished CTA #2 (16078,0), 5 CTAs running
GPGPU-Sim uArch: core:  7, cta: 2 initialized @(16079,0)
GPGPU-Sim uArch: Shader 5 finished CTA #5 (16095,0), 5 CTAs running
GPGPU-Sim uArch: core:  5, cta: 5 initialized @(16096,0)
GPGPU-Sim PTX: 7400000 instructions simulated : ctaid=(0,253,0) tid=(3,0,0)
GPGPU-Sim PTX: 7500000 instructions simulated : ctaid=(0,258,0) tid=(5,6,0)
GPGPU-Sim uArch: Shader 14 finished CTA #4 (16349,0), 5 CTAs running
GPGPU-Sim uArch: core: 14, cta: 4 initialized @(16350,0)
GPGPU-Sim uArch: Shader 14 finished CTA #3 (16406,0), 5 CTAs running
GPGPU-Sim uArch: core: 14, cta: 3 initialized @(16407,0)
GPGPU-Sim PTX: 7600000 instructions simulated : ctaid=(0,210,0) tid=(15,0,0)
GPGPU-Sim uArch: cycles simulated: 16500  inst.: 7416378 (ipc=449.5) sim_rate=224738 (inst/sec) elapsed = 0:0:00:33 / Tue Mar 22 07:39:09 2016
GPGPU-Sim uArch: Shader 14 finished CTA #1 (16536,0), 5 CTAs running
GPGPU-Sim uArch: core: 14, cta: 1 initialized @(16537,0)
GPGPU-Sim uArch: Shader 14 finished CTA #5 (16642,0), 5 CTAs running
GPGPU-Sim uArch: core: 14, cta: 5 initialized @(16643,0)
GPGPU-Sim PTX: 7700000 instructions simulated : ctaid=(0,251,0) tid=(1,0,0)
GPGPU-Sim uArch: Shader 10 finished CTA #1 (16656,0), 5 CTAs running
GPGPU-Sim uArch: core: 10, cta: 1 initialized @(16657,0)
GPGPU-Sim uArch: Shader 4 finished CTA #1 (16666,0), 5 CTAs running
GPGPU-Sim uArch: core:  4, cta: 1 initialized @(16667,0)
GPGPU-Sim uArch: Shader 13 finished CTA #4 (16689,0), 5 CTAs running
GPGPU-Sim uArch: core: 13, cta: 4 initialized @(16690,0)
GPGPU-Sim uArch: Shader 2 finished CTA #4 (16785,0), 5 CTAs running
GPGPU-Sim uArch: core:  2, cta: 4 initialized @(16786,0)
GPGPU-Sim uArch: Shader 1 finished CTA #0 (16796,0), 5 CTAs running
GPGPU-Sim uArch: core:  1, cta: 0 initialized @(16797,0)
GPGPU-Sim uArch: Shader 14 finished CTA #0 (16800,0), 5 CTAs running
GPGPU-Sim uArch: core: 14, cta: 0 initialized @(16801,0)
GPGPU-Sim uArch: Shader 13 finished CTA #5 (16815,0), 5 CTAs running
GPGPU-Sim uArch: core: 13, cta: 5 initialized @(16816,0)
GPGPU-Sim PTX: 7800000 instructions simulated : ctaid=(0,210,0) tid=(11,3,0)
GPGPU-Sim uArch: Shader 2 finished CTA #5 (16841,0), 5 CTAs running
GPGPU-Sim uArch: core:  2, cta: 5 initialized @(16842,0)
GPGPU-Sim uArch: Shader 13 finished CTA #0 (16863,0), 5 CTAs running
GPGPU-Sim uArch: core: 13, cta: 0 initialized @(16864,0)
GPGPU-Sim uArch: Shader 12 finished CTA #1 (16920,0), 5 CTAs running
GPGPU-Sim uArch: core: 12, cta: 1 initialized @(16921,0)
GPGPU-Sim uArch: Shader 6 finished CTA #0 (16930,0), 5 CTAs running
GPGPU-Sim uArch: core:  6, cta: 0 initialized @(16931,0)
GPGPU-Sim uArch: cycles simulated: 17000  inst.: 7689238 (ipc=452.3) sim_rate=226154 (inst/sec) elapsed = 0:0:00:34 / Tue Mar 22 07:39:10 2016
GPGPU-Sim uArch: Shader 4 finished CTA #2 (17000,0), 5 CTAs running
GPGPU-Sim uArch: core:  4, cta: 2 initialized @(17001,0)
GPGPU-Sim PTX: 7900000 instructions simulated : ctaid=(0,292,0) tid=(9,7,0)
GPGPU-Sim uArch: Shader 3 finished CTA #1 (17036,0), 5 CTAs running
GPGPU-Sim uArch: core:  3, cta: 1 initialized @(17037,0)
GPGPU-Sim uArch: Shader 4 finished CTA #3 (17038,0), 5 CTAs running
GPGPU-Sim uArch: core:  4, cta: 3 initialized @(17039,0)
GPGPU-Sim uArch: Shader 10 finished CTA #2 (17075,0), 5 CTAs running
GPGPU-Sim uArch: core: 10, cta: 2 initialized @(17076,0)
GPGPU-Sim uArch: Shader 5 finished CTA #0 (17111,0), 5 CTAs running
GPGPU-Sim uArch: core:  5, cta: 0 initialized @(17112,0)
GPGPU-Sim uArch: Shader 13 finished CTA #1 (17114,0), 5 CTAs running
GPGPU-Sim uArch: core: 13, cta: 1 initialized @(17115,0)
GPGPU-Sim uArch: Shader 4 finished CTA #5 (17129,0), 5 CTAs running
GPGPU-Sim uArch: core:  4, cta: 5 initialized @(17130,0)
GPGPU-Sim uArch: Shader 3 finished CTA #2 (17134,0), 5 CTAs running
GPGPU-Sim uArch: core:  3, cta: 2 initialized @(17135,0)
GPGPU-Sim PTX: 8000000 instructions simulated : ctaid=(0,274,0) tid=(1,9,0)
GPGPU-Sim uArch: Shader 13 finished CTA #2 (17249,0), 5 CTAs running
GPGPU-Sim uArch: core: 13, cta: 2 initialized @(17250,0)
GPGPU-Sim uArch: Shader 2 finished CTA #3 (17257,0), 5 CTAs running
GPGPU-Sim uArch: core:  2, cta: 3 initialized @(17258,0)
GPGPU-Sim uArch: Shader 9 finished CTA #1 (17284,0), 5 CTAs running
GPGPU-Sim uArch: core:  9, cta: 1 initialized @(17285,0)
GPGPU-Sim uArch: Shader 11 finished CTA #4 (17344,0), 5 CTAs running
GPGPU-Sim uArch: core: 11, cta: 4 initialized @(17345,0)
GPGPU-Sim uArch: Shader 2 finished CTA #0 (17349,0), 5 CTAs running
GPGPU-Sim uArch: core:  2, cta: 0 initialized @(17350,0)
GPGPU-Sim uArch: Shader 9 finished CTA #2 (17350,0), 5 CTAs running
GPGPU-Sim uArch: core:  9, cta: 2 initialized @(17351,0)
GPGPU-Sim uArch: Shader 11 finished CTA #0 (17390,0), 5 CTAs running
GPGPU-Sim uArch: core: 11, cta: 0 initialized @(17391,0)
GPGPU-Sim uArch: Shader 8 finished CTA #0 (17409,0), 5 CTAs running
GPGPU-Sim uArch: core:  8, cta: 0 initialized @(17410,0)
GPGPU-Sim uArch: Shader 12 finished CTA #4 (17411,0), 5 CTAs running
GPGPU-Sim uArch: core: 12, cta: 4 initialized @(17412,0)
GPGPU-Sim PTX: 8100000 instructions simulated : ctaid=(0,290,0) tid=(13,10,0)
GPGPU-Sim uArch: Shader 10 finished CTA #3 (17444,0), 5 CTAs running
GPGPU-Sim uArch: core: 10, cta: 3 initialized @(17445,0)
GPGPU-Sim uArch: Shader 3 finished CTA #0 (17485,0), 5 CTAs running
GPGPU-Sim uArch: core:  3, cta: 0 initialized @(17486,0)
GPGPU-Sim uArch: Shader 4 finished CTA #4 (17492,0), 5 CTAs running
GPGPU-Sim uArch: core:  4, cta: 4 initialized @(17493,0)
GPGPU-Sim uArch: Shader 8 finished CTA #1 (17495,0), 5 CTAs running
GPGPU-Sim uArch: core:  8, cta: 1 initialized @(17496,0)
GPGPU-Sim uArch: Shader 11 finished CTA #5 (17497,0), 5 CTAs running
GPGPU-Sim uArch: core: 11, cta: 5 initialized @(17498,0)
GPGPU-Sim uArch: cycles simulated: 17500  inst.: 7922668 (ipc=452.7) sim_rate=226361 (inst/sec) elapsed = 0:0:00:35 / Tue Mar 22 07:39:11 2016
GPGPU-Sim uArch: Shader 3 finished CTA #5 (17502,0), 5 CTAs running
GPGPU-Sim uArch: core:  3, cta: 5 initialized @(17503,0)
GPGPU-Sim uArch: Shader 13 finished CTA #3 (17512,0), 5 CTAs running
GPGPU-Sim uArch: core: 13, cta: 3 initialized @(17513,0)
GPGPU-Sim uArch: Shader 10 finished CTA #0 (17515,0), 5 CTAs running
GPGPU-Sim uArch: core: 10, cta: 0 initialized @(17516,0)
GPGPU-Sim uArch: Shader 7 finished CTA #3 (17566,0), 5 CTAs running
GPGPU-Sim uArch: core:  7, cta: 3 initialized @(17567,0)
GPGPU-Sim uArch: Shader 12 finished CTA #2 (17576,0), 5 CTAs running
GPGPU-Sim uArch: core: 12, cta: 2 initialized @(17577,0)
GPGPU-Sim uArch: Shader 3 finished CTA #3 (17598,0), 5 CTAs running
GPGPU-Sim uArch: core:  3, cta: 3 initialized @(17599,0)
GPGPU-Sim PTX: 8200000 instructions simulated : ctaid=(0,278,0) tid=(1,8,0)
GPGPU-Sim uArch: Shader 5 finished CTA #3 (17637,0), 5 CTAs running
GPGPU-Sim uArch: core:  5, cta: 3 initialized @(17638,0)
GPGPU-Sim uArch: Shader 5 finished CTA #4 (17664,0), 5 CTAs running
GPGPU-Sim uArch: core:  5, cta: 4 initialized @(17665,0)
GPGPU-Sim uArch: Shader 2 finished CTA #1 (17665,0), 5 CTAs running
GPGPU-Sim uArch: core:  2, cta: 1 initialized @(17666,0)
GPGPU-Sim uArch: Shader 3 finished CTA #4 (17675,0), 5 CTAs running
GPGPU-Sim uArch: core:  3, cta: 4 initialized @(17676,0)
GPGPU-Sim uArch: Shader 7 finished CTA #4 (17737,0), 5 CTAs running
GPGPU-Sim uArch: core:  7, cta: 4 initialized @(17738,0)
GPGPU-Sim uArch: Shader 9 finished CTA #3 (17740,0), 5 CTAs running
GPGPU-Sim uArch: core:  9, cta: 3 initialized @(17741,0)
GPGPU-Sim uArch: Shader 12 finished CTA #3 (17754,0), 5 CTAs running
GPGPU-Sim uArch: core: 12, cta: 3 initialized @(17755,0)
GPGPU-Sim uArch: Shader 5 finished CTA #1 (17759,0), 5 CTAs running
GPGPU-Sim uArch: core:  5, cta: 1 initialized @(17760,0)
GPGPU-Sim uArch: Shader 7 finished CTA #1 (17781,0), 5 CTAs running
GPGPU-Sim uArch: core:  7, cta: 1 initialized @(17782,0)
GPGPU-Sim PTX: 8300000 instructions simulated : ctaid=(0,254,0) tid=(7,0,0)
GPGPU-Sim uArch: Shader 7 finished CTA #5 (17816,0), 5 CTAs running
GPGPU-Sim uArch: core:  7, cta: 5 initialized @(17817,0)
GPGPU-Sim uArch: Shader 11 finished CTA #1 (17921,0), 5 CTAs running
GPGPU-Sim uArch: core: 11, cta: 1 initialized @(17922,0)
GPGPU-Sim uArch: Shader 14 finished CTA #2 (17930,0), 5 CTAs running
GPGPU-Sim uArch: core: 14, cta: 2 initialized @(17931,0)
GPGPU-Sim uArch: Shader 9 finished CTA #4 (17943,0), 5 CTAs running
GPGPU-Sim uArch: core:  9, cta: 4 initialized @(17944,0)
GPGPU-Sim uArch: Shader 0 finished CTA #4 (17960,0), 5 CTAs running
GPGPU-Sim uArch: core:  0, cta: 4 initialized @(17961,0)
GPGPU-Sim uArch: Shader 9 finished CTA #5 (17965,0), 5 CTAs running
GPGPU-Sim uArch: core:  9, cta: 5 initialized @(17966,0)
GPGPU-Sim uArch: Shader 6 finished CTA #3 (17980,0), 5 CTAs running
GPGPU-Sim uArch: core:  6, cta: 3 initialized @(17981,0)
GPGPU-Sim PTX: 8400000 instructions simulated : ctaid=(0,308,0) tid=(1,10,0)
GPGPU-Sim uArch: Shader 10 finished CTA #4 (17994,0), 5 CTAs running
GPGPU-Sim uArch: core: 10, cta: 4 initialized @(17995,0)
GPGPU-Sim uArch: cycles simulated: 18000  inst.: 8183108 (ipc=454.6) sim_rate=227308 (inst/sec) elapsed = 0:0:00:36 / Tue Mar 22 07:39:12 2016
GPGPU-Sim uArch: Shader 9 finished CTA #0 (18020,0), 5 CTAs running
GPGPU-Sim uArch: core:  9, cta: 0 initialized @(18021,0)
GPGPU-Sim uArch: Shader 6 finished CTA #4 (18087,0), 5 CTAs running
GPGPU-Sim uArch: core:  6, cta: 4 initialized @(18088,0)
GPGPU-Sim uArch: Shader 10 finished CTA #5 (18130,0), 5 CTAs running
GPGPU-Sim uArch: core: 10, cta: 5 initialized @(18131,0)
GPGPU-Sim uArch: Shader 0 finished CTA #5 (18152,0), 5 CTAs running
GPGPU-Sim uArch: core:  0, cta: 5 initialized @(18153,0)
GPGPU-Sim uArch: Shader 12 finished CTA #5 (18158,0), 5 CTAs running
GPGPU-Sim uArch: core: 12, cta: 5 initialized @(18159,0)
GPGPU-Sim PTX: 8500000 instructions simulated : ctaid=(0,317,0) tid=(13,11,0)
GPGPU-Sim uArch: Shader 1 finished CTA #1 (18221,0), 5 CTAs running
GPGPU-Sim uArch: core:  1, cta: 1 initialized @(18222,0)
GPGPU-Sim uArch: Shader 1 finished CTA #2 (18256,0), 5 CTAs running
GPGPU-Sim uArch: core:  1, cta: 2 initialized @(18257,0)
GPGPU-Sim uArch: Shader 12 finished CTA #0 (18279,0), 5 CTAs running
GPGPU-Sim uArch: core: 12, cta: 0 initialized @(18280,0)
GPGPU-Sim PTX: 8600000 instructions simulated : ctaid=(0,293,0) tid=(9,5,0)
GPGPU-Sim uArch: Shader 1 finished CTA #4 (18372,0), 5 CTAs running
GPGPU-Sim uArch: core:  1, cta: 4 initialized @(18373,0)
GPGPU-Sim uArch: Shader 1 finished CTA #5 (18381,0), 5 CTAs running
GPGPU-Sim uArch: core:  1, cta: 5 initialized @(18382,0)
GPGPU-Sim uArch: Shader 0 finished CTA #0 (18391,0), 5 CTAs running
GPGPU-Sim uArch: core:  0, cta: 0 initialized @(18392,0)
GPGPU-Sim uArch: Shader 1 finished CTA #3 (18409,0), 5 CTAs running
GPGPU-Sim uArch: core:  1, cta: 3 initialized @(18410,0)
GPGPU-Sim uArch: Shader 8 finished CTA #3 (18467,0), 5 CTAs running
GPGPU-Sim uArch: core:  8, cta: 3 initialized @(18468,0)
GPGPU-Sim uArch: Shader 6 finished CTA #5 (18493,0), 5 CTAs running
GPGPU-Sim uArch: core:  6, cta: 5 initialized @(18494,0)
GPGPU-Sim uArch: cycles simulated: 18500  inst.: 8431406 (ipc=455.8) sim_rate=227875 (inst/sec) elapsed = 0:0:00:37 / Tue Mar 22 07:39:13 2016
GPGPU-Sim PTX: 8700000 instructions simulated : ctaid=(0,274,0) tid=(9,9,0)
GPGPU-Sim uArch: Shader 0 finished CTA #2 (18598,0), 5 CTAs running
GPGPU-Sim uArch: core:  0, cta: 2 initialized @(18599,0)
GPGPU-Sim uArch: Shader 8 finished CTA #4 (18640,0), 5 CTAs running
GPGPU-Sim uArch: core:  8, cta: 4 initialized @(18641,0)
GPGPU-Sim uArch: Shader 0 finished CTA #1 (18651,0), 5 CTAs running
GPGPU-Sim uArch: core:  0, cta: 1 initialized @(18652,0)
GPGPU-Sim uArch: Shader 0 finished CTA #3 (18659,0), 5 CTAs running
GPGPU-Sim uArch: core:  0, cta: 3 initialized @(18660,0)
GPGPU-Sim PTX: 8800000 instructions simulated : ctaid=(0,317,0) tid=(7,8,0)
GPGPU-Sim uArch: Shader 6 finished CTA #1 (18748,0), 5 CTAs running
GPGPU-Sim uArch: core:  6, cta: 1 initialized @(18749,0)
GPGPU-Sim uArch: Shader 8 finished CTA #2 (18780,0), 5 CTAs running
GPGPU-Sim uArch: core:  8, cta: 2 initialized @(18781,0)
GPGPU-Sim uArch: Shader 8 finished CTA #5 (18789,0), 5 CTAs running
GPGPU-Sim uArch: core:  8, cta: 5 initialized @(18790,0)
GPGPU-Sim uArch: Shader 4 finished CTA #0 (18855,0), 5 CTAs running
GPGPU-Sim uArch: core:  4, cta: 0 initialized @(18856,0)
GPGPU-Sim PTX: 8900000 instructions simulated : ctaid=(0,348,0) tid=(3,15,0)
GPGPU-Sim uArch: Shader 6 finished CTA #2 (18927,0), 5 CTAs running
GPGPU-Sim uArch: core:  6, cta: 2 initialized @(18928,0)
GPGPU-Sim uArch: cycles simulated: 19000  inst.: 8707250 (ipc=458.3) sim_rate=229138 (inst/sec) elapsed = 0:0:00:38 / Tue Mar 22 07:39:14 2016
GPGPU-Sim PTX: 9000000 instructions simulated : ctaid=(0,312,0) tid=(9,1,0)
GPGPU-Sim PTX: 9100000 instructions simulated : ctaid=(0,314,0) tid=(5,4,0)
GPGPU-Sim uArch: Shader 2 finished CTA #2 (19299,0), 5 CTAs running
GPGPU-Sim uArch: core:  2, cta: 2 initialized @(19300,0)
GPGPU-Sim PTX: 9200000 instructions simulated : ctaid=(0,303,0) tid=(11,14,0)
GPGPU-Sim uArch: cycles simulated: 19500  inst.: 8994132 (ipc=461.2) sim_rate=230618 (inst/sec) elapsed = 0:0:00:39 / Tue Mar 22 07:39:15 2016
GPGPU-Sim PTX: 9300000 instructions simulated : ctaid=(0,309,0) tid=(3,12,0)
GPGPU-Sim PTX: 9400000 instructions simulated : ctaid=(0,335,0) tid=(7,8,0)
GPGPU-Sim PTX: 9500000 instructions simulated : ctaid=(0,288,0) tid=(11,15,0)
GPGPU-Sim uArch: cycles simulated: 20000  inst.: 9286402 (ipc=464.3) sim_rate=232160 (inst/sec) elapsed = 0:0:00:40 / Tue Mar 22 07:39:16 2016
GPGPU-Sim PTX: 9600000 instructions simulated : ctaid=(0,325,0) tid=(13,7,0)
GPGPU-Sim uArch: Shader 11 finished CTA #2 (20107,0), 5 CTAs running
GPGPU-Sim uArch: core: 11, cta: 2 initialized @(20108,0)
GPGPU-Sim uArch: Shader 11 finished CTA #3 (20153,0), 5 CTAs running
GPGPU-Sim uArch: core: 11, cta: 3 initialized @(20154,0)
GPGPU-Sim PTX: 9700000 instructions simulated : ctaid=(0,354,0) tid=(13,10,0)
GPGPU-Sim uArch: Shader 5 finished CTA #2 (20301,0), 5 CTAs running
GPGPU-Sim uArch: core:  5, cta: 2 initialized @(20302,0)
GPGPU-Sim PTX: 9800000 instructions simulated : ctaid=(0,337,0) tid=(15,10,0)
GPGPU-Sim uArch: cycles simulated: 20500  inst.: 9559630 (ipc=466.3) sim_rate=233161 (inst/sec) elapsed = 0:0:00:41 / Tue Mar 22 07:39:17 2016
GPGPU-Sim uArch: Shader 13 finished CTA #4 (20561,0), 5 CTAs running
GPGPU-Sim uArch: core: 13, cta: 4 initialized @(20562,0)
GPGPU-Sim uArch: Shader 7 finished CTA #0 (20563,0), 5 CTAs running
GPGPU-Sim uArch: core:  7, cta: 0 initialized @(20564,0)
GPGPU-Sim PTX: 9900000 instructions simulated : ctaid=(0,312,0) tid=(11,8,0)
GPGPU-Sim uArch: Shader 5 finished CTA #5 (20627,0), 5 CTAs running
GPGPU-Sim uArch: core:  5, cta: 5 initialized @(20628,0)
GPGPU-Sim uArch: Shader 7 finished CTA #2 (20753,0), 5 CTAs running
GPGPU-Sim uArch: core:  7, cta: 2 initialized @(20754,0)
GPGPU-Sim PTX: 10000000 instructions simulated : ctaid=(0,319,0) tid=(9,3,0)
GPGPU-Sim uArch: Shader 4 finished CTA #1 (20887,0), 5 CTAs running
GPGPU-Sim uArch: core:  4, cta: 1 initialized @(20888,0)
GPGPU-Sim PTX: 10100000 instructions simulated : ctaid=(0,362,0) tid=(7,12,0)
GPGPU-Sim uArch: Shader 12 finished CTA #1 (21045,0), 5 CTAs running
GPGPU-Sim uArch: core: 12, cta: 1 initialized @(21046,0)
GPGPU-Sim PTX: 10200000 instructions simulated : ctaid=(0,346,0) tid=(9,10,0)
GPGPU-Sim uArch: Shader 2 finished CTA #4 (21192,0), 5 CTAs running
GPGPU-Sim uArch: core:  2, cta: 4 initialized @(21193,0)
GPGPU-Sim uArch: Shader 6 finished CTA #0 (21218,0), 5 CTAs running
GPGPU-Sim uArch: core:  6, cta: 0 initialized @(21219,0)
GPGPU-Sim uArch: Shader 10 finished CTA #1 (21240,0), 5 CTAs running
GPGPU-Sim uArch: core: 10, cta: 1 initialized @(21241,0)
GPGPU-Sim PTX: 10300000 instructions simulated : ctaid=(0,337,0) tid=(13,10,0)
GPGPU-Sim uArch: Shader 2 finished CTA #5 (21330,0), 5 CTAs running
GPGPU-Sim uArch: core:  2, cta: 5 initialized @(21331,0)
GPGPU-Sim uArch: Shader 13 finished CTA #5 (21439,0), 5 CTAs running
GPGPU-Sim uArch: core: 13, cta: 5 initialized @(21440,0)
GPGPU-Sim PTX: 10400000 instructions simulated : ctaid=(0,361,0) tid=(11,15,0)
GPGPU-Sim uArch: Shader 12 finished CTA #4 (21463,0), 5 CTAs running
GPGPU-Sim uArch: core: 12, cta: 4 initialized @(21464,0)
GPGPU-Sim uArch: cycles simulated: 21500  inst.: 10145956 (ipc=471.9) sim_rate=241570 (inst/sec) elapsed = 0:0:00:42 / Tue Mar 22 07:39:18 2016
GPGPU-Sim uArch: Shader 5 finished CTA #0 (21566,0), 5 CTAs running
GPGPU-Sim uArch: core:  5, cta: 0 initialized @(21567,0)
GPGPU-Sim uArch: Shader 14 finished CTA #4 (21596,0), 5 CTAs running
GPGPU-Sim uArch: core: 14, cta: 4 initialized @(21597,0)
GPGPU-Sim PTX: 10500000 instructions simulated : ctaid=(0,333,0) tid=(11,8,0)
GPGPU-Sim uArch: Shader 10 finished CTA #2 (21670,0), 5 CTAs running
GPGPU-Sim uArch: core: 10, cta: 2 initialized @(21671,0)
GPGPU-Sim uArch: Shader 14 finished CTA #5 (21702,0), 5 CTAs running
GPGPU-Sim uArch: core: 14, cta: 5 initialized @(21703,0)
GPGPU-Sim uArch: Shader 14 finished CTA #3 (21758,0), 5 CTAs running
GPGPU-Sim uArch: core: 14, cta: 3 initialized @(21759,0)
GPGPU-Sim uArch: Shader 1 finished CTA #0 (21759,0), 5 CTAs running
GPGPU-Sim uArch: core:  1, cta: 0 initialized @(21760,0)
GPGPU-Sim uArch: Shader 10 finished CTA #3 (21762,0), 5 CTAs running
GPGPU-Sim uArch: core: 10, cta: 3 initialized @(21763,0)
GPGPU-Sim uArch: Shader 14 finished CTA #0 (21765,0), 5 CTAs running
GPGPU-Sim uArch: core: 14, cta: 0 initialized @(21766,0)
GPGPU-Sim uArch: Shader 4 finished CTA #2 (21771,0), 5 CTAs running
GPGPU-Sim uArch: core:  4, cta: 2 initialized @(21772,0)
GPGPU-Sim uArch: Shader 2 finished CTA #0 (21837,0), 5 CTAs running
GPGPU-Sim uArch: core:  2, cta: 0 initialized @(21838,0)
GPGPU-Sim uArch: Shader 2 finished CTA #3 (21852,0), 5 CTAs running
GPGPU-Sim uArch: core:  2, cta: 3 initialized @(21853,0)
GPGPU-Sim PTX: 10600000 instructions simulated : ctaid=(0,322,0) tid=(3,11,0)
GPGPU-Sim uArch: Shader 14 finished CTA #1 (21854,0), 5 CTAs running
GPGPU-Sim uArch: core: 14, cta: 1 initialized @(21855,0)
GPGPU-Sim uArch: Shader 8 finished CTA #1 (21856,0), 5 CTAs running
GPGPU-Sim uArch: core:  8, cta: 1 initialized @(21857,0)
GPGPU-Sim uArch: Shader 4 finished CTA #4 (21897,0), 5 CTAs running
GPGPU-Sim uArch: core:  4, cta: 4 initialized @(21898,0)
GPGPU-Sim uArch: Shader 4 finished CTA #3 (21957,0), 5 CTAs running
GPGPU-Sim uArch: core:  4, cta: 3 initialized @(21958,0)
GPGPU-Sim uArch: Shader 7 finished CTA #3 (21986,0), 5 CTAs running
GPGPU-Sim uArch: core:  7, cta: 3 initialized @(21987,0)
GPGPU-Sim uArch: Shader 13 finished CTA #0 (21988,0), 5 CTAs running
GPGPU-Sim uArch: core: 13, cta: 0 initialized @(21989,0)
GPGPU-Sim uArch: Shader 8 finished CTA #0 (21999,0), 5 CTAs running
GPGPU-Sim uArch: core:  8, cta: 0 initialized @(22000,0)
GPGPU-Sim uArch: cycles simulated: 22000  inst.: 10399466 (ipc=472.7) sim_rate=241848 (inst/sec) elapsed = 0:0:00:43 / Tue Mar 22 07:39:19 2016
GPGPU-Sim PTX: 10700000 instructions simulated : ctaid=(0,393,0) tid=(9,14,0)
GPGPU-Sim uArch: Shader 4 finished CTA #5 (22042,0), 5 CTAs running
GPGPU-Sim uArch: core:  4, cta: 5 initialized @(22043,0)
GPGPU-Sim uArch: Shader 9 finished CTA #1 (22049,0), 5 CTAs running
GPGPU-Sim uArch: core:  9, cta: 1 initialized @(22050,0)
GPGPU-Sim uArch: Shader 13 finished CTA #1 (22053,0), 5 CTAs running
GPGPU-Sim uArch: core: 13, cta: 1 initialized @(22054,0)
GPGPU-Sim uArch: Shader 13 finished CTA #2 (22066,0), 5 CTAs running
GPGPU-Sim uArch: core: 13, cta: 2 initialized @(22067,0)
GPGPU-Sim uArch: Shader 3 finished CTA #1 (22081,0), 5 CTAs running
GPGPU-Sim uArch: core:  3, cta: 1 initialized @(22082,0)
GPGPU-Sim uArch: Shader 3 finished CTA #2 (22109,0), 5 CTAs running
GPGPU-Sim uArch: core:  3, cta: 2 initialized @(22110,0)
GPGPU-Sim uArch: Shader 9 finished CTA #2 (22121,0), 5 CTAs running
GPGPU-Sim uArch: core:  9, cta: 2 initialized @(22122,0)
GPGPU-Sim uArch: Shader 9 finished CTA #3 (22144,0), 5 CTAs running
GPGPU-Sim uArch: core:  9, cta: 3 initialized @(22145,0)
GPGPU-Sim uArch: Shader 10 finished CTA #0 (22146,0), 5 CTAs running
GPGPU-Sim uArch: core: 10, cta: 0 initialized @(22147,0)
[...]
traffic_breakdown_coretomem[CONST_ACC_R] = 120 {8:15,}
traffic_breakdown_coretomem[GLOBAL_ACC_R] = 1085768 {8:135721,}
traffic_breakdown_coretomem[GLOBAL_ACC_W] = 20185360 {40:81920,72:49152,136:98306,}
traffic_breakdown_coretomem[INST_ACC_R] = 1448 {8:181,}
traffic_breakdown_memtocore[CONST_ACC_R] = 1080 {72:15,}
traffic_breakdown_memtocore[GLOBAL_ACC_R] = 18458056 {136:135721,}
traffic_breakdown_memtocore[GLOBAL_ACC_W] = 1835024 {8:229378,}
traffic_breakdown_memtocore[INST_ACC_R] = 24616 {136:181,}
maxmrqlatency = 397 
maxdqlatency = 0 
maxmflatency = 1003 
averagemflatency = 254 
max_icnt2mem_latency = 389 
max_icnt2sh_latency = 362894 
mrq_lat_table:53034 	4978 	6140 	14811 	34388 	41896 	45039 	18796 	147 	0 	0 	0 	0 	0 	0 	0 	0 	0 	0 	0 	0 	0 	0 	0 	0 	0 	0 	0 	0 	0 	0 	0 	
dq_lat_table:0 	0 	0 	0 	0 	0 	0 	0 	0 	0 	0 	0 	0 	0 	0 	0 	0 	0 	0 	0 	0 	0 	0 	0 	0 	0 	0 	0 	0 	0 	0 	0 	
mf_lat_table:0 	0 	0 	0 	0 	0 	0 	219251 	138476 	7387 	0 	0 	0 	0 	0 	0 	0 	0 	0 	0 	0 	0 	0 	0 	0 	0 	0 	0 	0 	0 	0 	0 	
icnt2mem_lat_table:0 	0 	0 	115969 	72042 	91326 	80267 	5336 	355 	0 	0 	0 	0 	0 	0 	0 	0 	0 	0 	0 	0 	0 	0 	0 	
icnt2sh_lat_table:0 	0 	0 	38414 	65766 	29958 	1593 	5 	0 	0 	0 	0 	2160 	2506 	8195 	15462 	31065 	78597 	91393 	0 	0 	0 	0 	0 	
mf_lat_pw_table:0 	0 	0 	0 	0 	0 	0 	481 	227 	6 	0 	0 	0 	0 	0 	0 	0 	0 	0 	0 	0 	0 	0 	0 	0 	0 	0 	0 	0 	0 	0 	0 	
maximum concurrent accesses to same row:
dram[0]:        32        32        32        32        32        32        32        32        32        32        32        32        32        32        32        32 
dram[1]:        32        32        32        32        32        32        32        32        32        32        32        32        32        32        32        32 
dram[2]:        32        32        32        32        32        32        32        32        32        32        32        32        32        32        32        32 
dram[3]:        32        32        32        32        32        32        32        32        32        32        32        32        32        32        32        32 
dram[4]:        32        32        32        32        32        32        32        32        32        32        32        32        32        32        32        32 
dram[5]:        32        32        32        32        32        32        32        32        32        32        32        32        32        32        32        32 
maximum service time to same row:
dram[0]:     18088     18945     21222     21192     16461     16444     12341     14519     18331     18150     18953     19109     18739     18435     18750     18787 
dram[1]:     18139     18983     21220     21165     16486     16514     13088     14530     18207     18168     18934     19131     18708     18379     18785     18791 
dram[2]:     17615     19010     21280     21193     16279     16478     13294     14716     18194     18213     19098     19122     18712     18387     18737     18797 
dram[3]:     17019     19000     21280     21188     16482     16697     13130     14844     18206     18223     19036     19056     18525     18317     18746     19105 
dram[4]:     18760     19063     21287     21198     16270     16480     13297     15310     17840     18229     19022     19060     18444     18278     18709     18931 
dram[5]:     18953     19048     21354     21194     16472     16903     13703     15118     17822     18207     19040     19196     18436     18259     18704     18907 
average row accesses per activate:
dram[0]:  3.258345  3.643903  3.745819  3.985765  3.393393  3.680782  3.482707  3.658228  3.297568  3.480363  3.491654  3.764321  3.343977  3.566563  3.685897  3.830283 
dram[1]:  3.336309  3.752094  3.684211  3.978686  3.498452  3.598726  3.522070  3.779772  3.268085  3.373353  3.464662  3.886824  3.252825  3.554869  3.738636  3.962134 
dram[2]:  3.284672  3.489097  3.771044  4.171322  3.460949  3.742149  3.472264  3.840796  3.268085  3.367496  3.657143  3.591264  3.188366  3.486364  3.438806  3.852843 
dram[3]:  3.194009  3.527559  3.790186  4.110092  3.546311  3.760797  3.590698  3.599379  3.226891  3.393225  3.459460  3.692308  3.368421  3.460150  3.545455  3.933219 
dram[4]:  3.253991  3.612903  3.727121  4.117647  3.482280  3.671545  3.514416  3.876254  3.262040  3.403250  3.512195  3.877104  3.339130  3.469880  3.574534  3.714516 
dram[5]:  3.371428  3.555556  3.678161  4.117647  3.518692  3.663974  3.535878  3.714286  3.249647  3.364035  3.449102  3.629338  3.435821  3.368421  3.537634  3.745928 
average row locality = 219229/61500 = 3.564699
number of total memory accesses made:
dram[0]:         0         0         0         0         0         0         0         0         0         0         0         0         0         0         0         0 
dram[1]:         0         0         0         0         0         0         0         0         0         0         0         0         0         0         0         0 
dram[2]:         0         0         0         0         0         0         0         0         0         0         0         0         0         0         0         0 
dram[3]:         0         0         0         0         0         0         0         0         0         0         0         0         0         0         0         0 
dram[4]:         0         0         0         0         0         0         0         0         0         0         0         0         0         0         0         0 
dram[5]:         0         0         0         0         0         0         0         0         0         0         0         0         0         0         0         0 
total accesses: 0
min_bank_accesses = 0!
min_chip_accesses = 0!
number of total read accesses:
dram[0]:      1153      1153      1152      1152      1153      1152      1152      1152      1152      1152      1152      1152      1152      1152      1152      1152 
dram[1]:      1150      1152      1152      1152      1152      1152      1152      1152      1152      1152      1152      1152      1152      1152      1152      1152 
dram[2]:      1154      1152      1152      1152      1152      1156      1152      1152      1152      1152      1152      1152      1152      1152      1152      1152 
dram[3]:      1153      1152      1152      1152      1152      1156      1152      1152      1152      1152      1152      1152      1152      1152      1152      1152 
dram[4]:      1154      1152      1152      1152      1152      1154      1152      1152      1152      1152      1152      1152      1152      1152      1152      1152 
dram[5]:      1154      1152      1152      1152      1152      1154      1152      1152      1152      1152      1152      1152      1152      1152      1152      1152 
total reads: 110612
bank skew: 1156/1150 = 1.01
chip skew: 18438/18430 = 1.00
number of total write accesses:
dram[0]:      1092      1088      1088      1088      1107      1108      1164      1160      1153      1152      1149      1148      1152      1152      1148      1150 
dram[1]:      1092      1088      1088      1088      1108      1108      1162      1165      1152      1152      1152      1149      1151      1148      1151      1150 
dram[2]:      1096      1088      1088      1088      1108      1108      1164      1164      1152      1148      1152      1150      1150      1149      1152      1152 
dram[3]:      1086      1088      1088      1088      1107      1108      1164      1166      1152      1152      1152      1152      1152      1149      1149      1145 
dram[4]:      1088      1088      1088      1088      1108      1104      1164      1166      1151      1152      1152      1151      1152      1152      1150      1151 
dram[5]:      1088      1088      1088      1088      1107      1114      1164      1162      1152      1149      1152      1149      1150      1152      1151      1148 
total reads: 108617
bank skew: 1166/1086 = 1.07
chip skew: 18109/18098 = 1.00
average mf latency per bank:
dram[0]:        398       405       409       413       409       415       428       432       421       431       430       437       420       427       420       429
dram[1]:        401       405       412       419       414       420       427       428       426       430       426       431       426       430       428       441
dram[2]:        402       410       406       419       409       420       422       427       420       429       425       430       435       432       428       445
dram[3]:        415       418       416       418       413       424       429       426       430       430       433       429       425       428       436       443
dram[4]:        398       410       417       416       411       419       427       426       425       431       422       429       429       425       426       435
dram[5]:        405       406       411       415       410       413       424       429       423       432       430       435       430       432       425       429
maximum mf latency per bank:
dram[0]:        837       837       902       890       770       860       711       780       749       887       688       702       649       680       644       697
dram[1]:        751       815       824       922       770       857       732       840       798       877       640       737       658       692       685       784
dram[2]:        763       818       819       816       795       797       725       771       611       863       797       652       723       781       703       765
dram[3]:        805       833       824       896      1003       923       762       767       683       780       775       697       649       748       689       739
dram[4]:        764       783       829       818       876       799       797       787       695       824       659       698       646       767       655       708
dram[5]:        753       766       839       799       789       764       753       712       679       792       706       656       667       783       649       629

Number of Memory Banks Accessed per Memory Operation per Warp (from 0):
0	0	0	0	0	0	0	0	0	0	0	0	0	0	0	0	0	0	0	0	0	0	0	0	0	0	0	0	0	0	0	0	0	0	0	0	0	0	0	0	0	0	0	0	0	0	0	0	0	0	0	0	0	0	0	0	0	0	0	0	0	0	0	0	0	0	0	0	0	0	0	0	0	0	0	0	0	0	0	0	0	0	0	0	0	0	0	0	0	0	0	0	0	0	0	0	
Average # of Memory Banks Accessed per Memory Operation per Warp=-nan

position of mrq chosen
0	0	0	0	0	0	0	0	0	0	0	0	0	0	0	0	

average position of mrq chosen = -nan
Memory Partition 0: 
Cache L2_bank_000:
MSHR contents

Cache L2_bank_001:
MSHR contents

In Dram Latency Queue (total = 0): 
DRAM[0]: 16 bks, busW=4 BL=8 CL=12, tRRD=2 tCCD=6, tRCD=12 tRAS=28 tRP=12 tRC=40
n_cmd=479020 n_nop=386853 n_act=10232 n_pre=10216 n_req=36534 n_rd=36870 n_write=34849 bw_util=0.2994
n_activity=352606 dram_eff=0.4068
bk0: 2306a 435863i bk1: 2306a 435838i bk2: 2304a 435360i bk3: 2304a 433764i bk4: 2306a 435842i bk5: 2304a 434807i bk6: 2304a 434798i bk7: 2304a 435291i bk8: 2304a 435555i bk9: 2304a 434683i bk10: 2304a 433568i bk11: 2304a 433261i bk12: 2304a 432829i bk13: 2304a 433260i bk14: 2304a 434764i bk15: 2304a 434825i 
dram_util_bins: 0 0 0 0 0 0 0 0 0 0
dram_eff_bins: 0 0 0 0 0 0 0 0 0 0
mrqq: max=16 avg=4.63158
Memory Partition 1: 
Cache L2_bank_002:
MSHR contents

Cache L2_bank_003:
MSHR contents

In Dram Latency Queue (total = 0): 
DRAM[1]: 16 bks, busW=4 BL=8 CL=12, tRRD=2 tCCD=6, tRCD=12 tRAS=28 tRP=12 tRC=40
n_cmd=479020 n_nop=386961 n_act=10181 n_pre=10165 n_req=36534 n_rd=36860 n_write=34853 bw_util=0.2994
n_activity=351121 dram_eff=0.4085
bk0: 2300a 436584i bk1: 2304a 436078i bk2: 2304a 436198i bk3: 2304a 434832i bk4: 2304a 436917i bk5: 2304a 435390i bk6: 2304a 435093i bk7: 2304a 435529i bk8: 2304a 435688i bk9: 2304a 434282i bk10: 2304a 434706i bk11: 2304a 434289i bk12: 2304a 432663i bk13: 2304a 433169i bk14: 2304a 435357i bk15: 2304a 434127i 
dram_util_bins: 0 0 0 0 0 0 0 0 0 0
dram_eff_bins: 0 0 0 0 0 0 0 0 0 0
mrqq: max=16 avg=4.6005
Memory Partition 2: 
Cache L2_bank_004:
MSHR contents

Cache L2_bank_005:
MSHR contents

In Dram Latency Queue (total = 0): 
DRAM[2]: 16 bks, busW=4 BL=8 CL=12, tRRD=2 tCCD=6, tRCD=12 tRAS=28 tRP=12 tRC=40
n_cmd=479020 n_nop=386708 n_act=10295 n_pre=10279 n_req=36547 n_rd=36876 n_write=34862 bw_util=0.2995
n_activity=352754 dram_eff=0.4067
bk0: 2308a 435480i bk1: 2304a 434885i bk2: 2304a 436819i bk3: 2304a 435502i bk4: 2304a 435888i bk5: 2312a 435886i bk6: 2304a 435495i bk7: 2304a 436432i bk8: 2304a 435656i bk9: 2304a 434253i bk10: 2304a 434994i bk11: 2304a 434409i bk12: 2304a 432428i bk13: 2304a 432832i bk14: 2304a 433611i bk15: 2304a 434313i 
dram_util_bins: 0 0 0 0 0 0 0 0 0 0
dram_eff_bins: 0 0 0 0 0 0 0 0 0 0
mrqq: max=16 avg=4.53284
Memory Partition 3: 
Cache L2_bank_006:
MSHR contents

Cache L2_bank_007:
MSHR contents

In Dram Latency Queue (total = 0): 
DRAM[3]: 16 bks, busW=4 BL=8 CL=12, tRRD=2 tCCD=6, tRCD=12 tRAS=28 tRP=12 tRC=40
n_cmd=479020 n_nop=386781 n_act=10265 n_pre=10249 n_req=36535 n_rd=36874 n_write=34851 bw_util=0.2995
n_activity=351686 dram_eff=0.4079
bk0: 2306a 434977i bk1: 2304a 434192i bk2: 2304a 436046i bk3: 2304a 435521i bk4: 2304a 436469i bk5: 2312a 435895i bk6: 2304a 436085i bk7: 2304a 434755i bk8: 2304a 434909i bk9: 2304a 433776i bk10: 2304a 434443i bk11: 2304a 433944i bk12: 2304a 433167i bk13: 2304a 432882i bk14: 2304a 434678i bk15: 2304a 434472i 
dram_util_bins: 0 0 0 0 0 0 0 0 0 0
dram_eff_bins: 0 0 0 0 0 0 0 0 0 0
mrqq: max=16 avg=4.62891
Memory Partition 4: 
Cache L2_bank_008:
MSHR contents

Cache L2_bank_009:
MSHR contents

In Dram Latency Queue (total = 0): 
DRAM[4]: 16 bks, busW=4 BL=8 CL=12, tRRD=2 tCCD=6, tRCD=12 tRAS=28 tRP=12 tRC=40
n_cmd=479020 n_nop=386855 n_act=10226 n_pre=10210 n_req=36541 n_rd=36872 n_write=34857 bw_util=0.2995
n_activity=353835 dram_eff=0.4054
bk0: 2308a 435820i bk1: 2304a 435732i bk2: 2304a 435212i bk3: 2304a 435719i bk4: 2304a 436332i bk5: 2308a 435537i bk6: 2304a 435710i bk7: 2304a 436062i bk8: 2304a 435831i bk9: 2304a 434714i bk10: 2304a 434974i bk11: 2304a 434481i bk12: 2304a 433236i bk13: 2304a 432971i bk14: 2304a 435020i bk15: 2304a 433340i 
dram_util_bins: 0 0 0 0 0 0 0 0 0 0
dram_eff_bins: 0 0 0 0 0 0 0 0 0 0
mrqq: max=16 avg=4.57057
Memory Partition 5: 
Cache L2_bank_010:
MSHR contents

Cache L2_bank_011:
MSHR contents

In Dram Latency Queue (total = 0): 
DRAM[5]: 16 bks, busW=4 BL=8 CL=12, tRRD=2 tCCD=6, tRCD=12 tRAS=28 tRP=12 tRC=40
n_cmd=479020 n_nop=386708 n_act=10301 n_pre=10285 n_req=36538 n_rd=36872 n_write=34854 bw_util=0.2995
n_activity=351735 dram_eff=0.4078
bk0: 2308a 436154i bk1: 2304a 435787i bk2: 2304a 434651i bk3: 2304a 435551i bk4: 2304a 436297i bk5: 2308a 434335i bk6: 2304a 435199i bk7: 2304a 434947i bk8: 2304a 435210i bk9: 2304a 434240i bk10: 2304a 434118i bk11: 2304a 433034i bk12: 2304a 433253i bk13: 2304a 431194i bk14: 2304a 434900i bk15: 2304a 433304i 
dram_util_bins: 0 0 0 0 0 0 0 0 0 0
dram_eff_bins: 0 0 0 0 0 0 0 0 0 0
mrqq: max=16 avg=4.584

========= L2 cache stats =========
L2_cache_bank[0]: Access = 30437, Miss = 9218, Miss_rate = 0.303, Pending_hits = 1234, Reservation_fails = 14315
L2_cache_bank[1]: Access = 30444, Miss = 9217, Miss_rate = 0.303, Pending_hits = 1217, Reservation_fails = 13813
L2_cache_bank[2]: Access = 30381, Miss = 9214, Miss_rate = 0.303, Pending_hits = 1251, Reservation_fails = 14834
L2_cache_bank[3]: Access = 30430, Miss = 9216, Miss_rate = 0.303, Pending_hits = 1235, Reservation_fails = 13299
L2_cache_bank[4]: Access = 30393, Miss = 9218, Miss_rate = 0.303, Pending_hits = 1248, Reservation_fails = 13455
L2_cache_bank[5]: Access = 30471, Miss = 9220, Miss_rate = 0.303, Pending_hits = 1241, Reservation_fails = 15139
L2_cache_bank[6]: Access = 30531, Miss = 9217, Miss_rate = 0.302, Pending_hits = 1258, Reservation_fails = 13440
L2_cache_bank[7]: Access = 30448, Miss = 9220, Miss_rate = 0.303, Pending_hits = 1267, Reservation_fails = 13400
L2_cache_bank[8]: Access = 30445, Miss = 9218, Miss_rate = 0.303, Pending_hits = 1243, Reservation_fails = 13874
L2_cache_bank[9]: Access = 30460, Miss = 9218, Miss_rate = 0.303, Pending_hits = 1248, Reservation_fails = 12892
L2_cache_bank[10]: Access = 30416, Miss = 9218, Miss_rate = 0.303, Pending_hits = 1234, Reservation_fails = 13749
L2_cache_bank[11]: Access = 30439, Miss = 9218, Miss_rate = 0.303, Pending_hits = 1256, Reservation_fails = 13456
L2_total_cache_accesses = 365295
L2_total_cache_misses = 110612
L2_total_cache_miss_rate = 0.3028
L2_total_cache_pending_hits = 14932
L2_total_cache_reservation_fails = 165666
L2_total_cache_breakdown:
	L2_cache_stats_breakdown[GLOBAL_ACC_R][HIT] = 18333
	L2_cache_stats_breakdown[GLOBAL_ACC_R][HIT_RESERVED] = 8838
	L2_cache_stats_breakdown[GLOBAL_ACC_R][MISS] = 108550
	L2_cache_stats_breakdown[GLOBAL_ACC_R][RESERVATION_FAIL] = 3415
	L2_cache_stats_breakdown[CONST_ACC_R][HIT] = 11
	L2_cache_stats_breakdown[CONST_ACC_R][HIT_RESERVED] = 3
	L2_cache_stats_breakdown[CONST_ACC_R][MISS] = 1
	L2_cache_stats_breakdown[CONST_ACC_R][RESERVATION_FAIL] = 112
	L2_cache_stats_breakdown[GLOBAL_ACC_W][HIT] = 221270
	L2_cache_stats_breakdown[GLOBAL_ACC_W][HIT_RESERVED] = 6060
	L2_cache_stats_breakdown[GLOBAL_ACC_W][MISS] = 2048
	L2_cache_stats_breakdown[GLOBAL_ACC_W][RESERVATION_FAIL] = 161272
	L2_cache_stats_breakdown[INST_ACC_R][HIT] = 137
	L2_cache_stats_breakdown[INST_ACC_R][HIT_RESERVED] = 31
	L2_cache_stats_breakdown[INST_ACC_R][MISS] = 13
	L2_cache_stats_breakdown[INST_ACC_R][RESERVATION_FAIL] = 867
L2_cache_data_port_util = 0.237
L2_cache_fill_port_util = 0.102

icnt_total_pkts_mem_to_simt=908933
icnt_total_pkts_simt_to_mem=938743
LD_mem_lat_dist  0 0 0 0 0 0 0 0 0 0 0 0 0 0 0 0 0 0 0 0 0 0 0 0 0 0 0
ST_mem_lat_dist  0 0 0 0 0 0 0 0 0 0 0 0 0 0 0 0 0 0 0 0 0 0 0 0 0 0 0
----------------------------Interconnect-DETAILS--------------------------------
Class 0:
Packet latency average = 22.8008
	minimum = 6
	maximum = 249
Network latency average = 16.5532
	minimum = 6
	maximum = 234
Slowest packet = 332277
Flit latency average = 14.6041
	minimum = 6
	maximum = 232
Slowest flit = 799829
Fragmentation average = 0.00770263
	minimum = 0
	maximum = 149
Injected packet rate average = 0.109277
	minimum = 0.0937802 (at node 7)
	maximum = 0.123528 (at node 21)
Accepted packet rate average = 0.109277
	minimum = 0.0937802 (at node 7)
	maximum = 0.123528 (at node 21)
Injected flit rate average = 0.287635
	minimum = 0.245651 (at node 7)
	maximum = 0.328231 (at node 21)
Accepted flit rate average= 0.287635
	minimum = 0.24846 (at node 7)
	maximum = 0.322468 (at node 21)
Injected packet length average = 2.63218
Accepted packet length average = 2.63218
Total in-flight flits = 0 (0 measured)
====== Overall Traffic Statistics ======
====== Traffic class 0 ======
Packet latency average = 19.3163 (2 samples)
	minimum = 6 (2 samples)
	maximum = 274.5 (2 samples)
Network latency average = 14.6736 (2 samples)
	minimum = 6 (2 samples)
	maximum = 261 (2 samples)
Flit latency average = 13.1561 (2 samples)
	minimum = 6 (2 samples)
	maximum = 260 (2 samples)
Fragmentation average = 0.0237491 (2 samples)
	minimum = 0 (2 samples)
	maximum = 192 (2 samples)
Injected packet rate average = 0.0795561 (2 samples)
	minimum = 0.0689262 (2 samples)
	maximum = 0.0898942 (2 samples)
Accepted packet rate average = 0.0795561 (2 samples)
	minimum = 0.0689262 (2 samples)
	maximum = 0.0898942 (2 samples)
Injected flit rate average = 0.20282 (2 samples)
	minimum = 0.177871 (2 samples)
	maximum = 0.227216 (2 samples)
Accepted flit rate average = 0.20282 (2 samples)
	minimum = 0.173479 (2 samples)
	maximum = 0.231282 (2 samples)
Injected packet size average = 2.5494 (2 samples)
Accepted packet size average = 2.5494 (2 samples)
Hops average = 1 (2 samples)
