

        *** GPGPU-Sim Simulator Version 3.2.2  [build 0] ***


GPGPU-Sim PTX: simulation mode 0 (can change with PTX_SIM_MODE_FUNC environment variable:
               1=functional simulation only, 0=detailed performance simulator)
GPGPU-Sim: Configuration options:

-network_mode                           1 # Interconnection network mode
-inter_config_file   config_fermi_islip.icnt # Interconnection network config file
-gpgpu_ptx_use_cuobjdump                    1 # Use cuobjdump to extract ptx and sass from binaries
-gpgpu_experimental_lib_support                    0 # Try to extract code from cuda libraries [Broken because of unknown cudaGetExportTable]
-gpgpu_ptx_convert_to_ptxplus                    0 # Convert SASS (native ISA) to ptxplus and run ptxplus
-gpgpu_ptx_force_max_capability                   20 # Force maximum compute capability
-gpgpu_ptx_inst_debug_to_file                    0 # Dump executed instructions' debug information to file
-gpgpu_ptx_inst_debug_file       inst_debug.txt # Executed instructions' debug output file
-gpgpu_ptx_inst_debug_thread_uid                    1 # Thread UID for executed instructions' debug output
-gpgpu_simd_model                       1 # 1 = post-dominator
-gpgpu_shader_core_pipeline              1536:32 # shader core pipeline config, i.e., {<nthread>:<warpsize>}
-gpgpu_tex_cache:l1  4:128:24,L:R:m:N:L,F:128:4,128:2 # per-shader L1 texture cache  (READ-ONLY) config  {<nsets>:<bsize>:<assoc>,<rep>:<wr>:<alloc>:<wr_alloc>,<mshr>:<N>:<merge>,<mq>:<rf>}
-gpgpu_const_cache:l1 64:64:2,L:R:f:N:L,A:2:32,4 # per-shader L1 constant memory cache  (READ-ONLY) config  {<nsets>:<bsize>:<assoc>,<rep>:<wr>:<alloc>:<wr_alloc>,<mshr>:<N>:<merge>,<mq>} 
-gpgpu_cache:il1     4:128:4,L:R:f:N:L,A:2:32,4 # shader L1 instruction cache config  {<nsets>:<bsize>:<assoc>,<rep>:<wr>:<alloc>:<wr_alloc>,<mshr>:<N>:<merge>,<mq>} 
-gpgpu_cache:dl1     32:128:4,L:L:m:N:H,A:32:8,8:2,0,1:0:1:1:0:1,1:4:8:16:32:64,/sciclone/data10/hwang07/GPU_RESEARCH/swl/swl_outputs/RESULTS/swl2/ # per-shader L1 data cache config  {<nsets>:<bsize>:<assoc>,<rep>:<wr>:<alloc>:<wr_alloc>,<mshr>:<N>:<merge>,<mq> | none}
-gpgpu_cache:dl1PrefL1                 none # per-shader L1 data cache config  {<nsets>:<bsize>:<assoc>,<rep>:<wr>:<alloc>:<wr_alloc>,<mshr>:<N>:<merge>,<mq> | none}
-gpgpu_cache:dl1PreShared                 none # per-shader L1 data cache config  {<nsets>:<bsize>:<assoc>,<rep>:<wr>:<alloc>:<wr_alloc>,<mshr>:<N>:<merge>,<mq> | none}
-gmem_skip_L1D                          0 # global memory access skip L1D cache (implements -Xptxas -dlcm=cg, default=no skip)
-gpgpu_perfect_mem                      0 # enable perfect memory mode (no cache miss)
-n_regfile_gating_group                    4 # group of lanes that should be read/written together)
-gpgpu_clock_gated_reg_file                    0 # enable clock gated reg file for power calculations
-gpgpu_clock_gated_lanes                    0 # enable clock gated lanes for power calculations
-gpgpu_shader_registers                32768 # Number of registers per shader core. Limits number of concurrent CTAs. (default 8192)
-gpgpu_shader_cta                       8 # Maximum number of concurrent CTAs in shader (default 8)
-gpgpu_num_cta_barriers                   16 # Maximum number of named barriers per CTA (default 16)
-gpgpu_n_clusters                      15 # number of processing clusters
-gpgpu_n_cores_per_cluster                    1 # number of simd cores per cluster
-gpgpu_n_cluster_ejection_buffer_size                    8 # number of packets in ejection buffer
-gpgpu_n_ldst_response_buffer_size                    2 # number of response packets in ld/st unit ejection buffer
-gpgpu_shmem_size                   16384 # Size of shared memory per shader core (default 16kB)
-gpgpu_shmem_size                   49152 # Size of shared memory per shader core (default 16kB)
-gpgpu_shmem_size_PrefL1                16384 # Size of shared memory per shader core (default 16kB)
-gpgpu_shmem_size_PrefShared                16384 # Size of shared memory per shader core (default 16kB)
-gpgpu_shmem_num_banks                   32 # Number of banks in the shared memory in each shader core (default 16)
-gpgpu_shmem_limited_broadcast                    0 # Limit shared memory to do one broadcast per cycle (default on)
-gpgpu_shmem_warp_parts                    1 # Number of portions a warp is divided into for shared memory bank conflict check 
-gpgpu_warpdistro_shader                   -1 # Specify which shader core to collect the warp size distribution from
-gpgpu_warp_issue_shader                    0 # Specify which shader core to collect the warp issue distribution from
-gpgpu_local_mem_map                    1 # Mapping from local memory space address to simulated GPU physical address space (default = enabled)
-gpgpu_num_reg_banks                   16 # Number of register banks (default = 8)
-gpgpu_reg_bank_use_warp_id                    0 # Use warp ID in mapping registers to banks (default = off)
-gpgpu_operand_collector_num_units_sp                    6 # number of collector units (default = 4)
-gpgpu_operand_collector_num_units_sfu                    8 # number of collector units (default = 4)
-gpgpu_operand_collector_num_units_mem                    2 # number of collector units (default = 2)
-gpgpu_operand_collector_num_units_gen                    0 # number of collector units (default = 0)
-gpgpu_operand_collector_num_in_ports_sp                    2 # number of collector unit in ports (default = 1)
-gpgpu_operand_collector_num_in_ports_sfu                    1 # number of collector unit in ports (default = 1)
-gpgpu_operand_collector_num_in_ports_mem                    1 # number of collector unit in ports (default = 1)
-gpgpu_operand_collector_num_in_ports_gen                    0 # number of collector unit in ports (default = 0)
-gpgpu_operand_collector_num_out_ports_sp                    2 # number of collector unit in ports (default = 1)
-gpgpu_operand_collector_num_out_ports_sfu                    1 # number of collector unit in ports (default = 1)
-gpgpu_operand_collector_num_out_ports_mem                    1 # number of collector unit in ports (default = 1)
-gpgpu_operand_collector_num_out_ports_gen                    0 # number of collector unit in ports (default = 0)
-gpgpu_coalesce_arch                   13 # Coalescing arch (default = 13, anything else is off for now)
-gpgpu_num_sched_per_core                    2 # Number of warp schedulers per core
-gpgpu_max_insn_issue_per_warp                    1 # Max number of instructions that can be issued per warp in one cycle by scheduler
-gpgpu_simt_core_sim_order                    1 # Select the simulation order of cores in a cluster (0=Fix, 1=Round-Robin)
-gpgpu_pipeline_widths        2,1,1,2,1,1,2 # Pipeline widths ID_OC_SP,ID_OC_SFU,ID_OC_MEM,OC_EX_SP,OC_EX_SFU,OC_EX_MEM,EX_WB
-gpgpu_num_sp_units                     2 # Number of SP units (default=1)
-gpgpu_num_sfu_units                    1 # Number of SF units (default=1)
-gpgpu_num_mem_units                    1 # Number if ldst units (default=1) WARNING: not hooked up to anything
-gpgpu_scheduler        warp_limiting:2:2 # Scheduler configuration: < lrr | gto | two_level_active > If two_level_active:<num_active_warps>:<inner_prioritization>:<outer_prioritization>For complete list of prioritization values see shader.h enum scheduler_prioritization_typeDefault: gto
-gpgpu_dram_scheduler                    1 # 0 = fifo, 1 = FR-FCFS (defaul)
-gpgpu_dram_partition_queues              8:8:8:8 # i2$:$2d:d2$:$2i
-l2_ideal                               0 # Use a ideal L2 cache that always hit
-gpgpu_cache:dl2     64:128:8,L:B:m:W:L,A:32:4,4:0,32 # unified banked L2 data cache config  {<nsets>:<bsize>:<assoc>,<rep>:<wr>:<alloc>:<wr_alloc>,<mshr>:<N>:<merge>,<mq>}
-gpgpu_cache:dl2_texture_only                    0 # L2 cache used for texture only
-gpgpu_n_mem                            6 # number of memory modules (e.g. memory controllers) in gpu
-gpgpu_n_sub_partition_per_mchannel                    2 # number of memory subpartition in each memory module
-gpgpu_n_mem_per_ctrlr                    2 # number of memory chips per memory controller
-gpgpu_memlatency_stat                   14 # track and display latency statistics 0x2 enables MC, 0x4 enables queue logs
-gpgpu_frfcfs_dram_sched_queue_size                   16 # 0 = unlimited (default); # entries per chip
-gpgpu_dram_return_queue_size                  116 # 0 = unlimited (default); # entries per chip
-gpgpu_dram_buswidth                    4 # default = 4 bytes (8 bytes per cycle at DDR)
-gpgpu_dram_burst_length                    8 # Burst length of each DRAM request (default = 4 data bus cycle)
-dram_data_command_freq_ratio                    4 # Frequency ratio between DRAM data bus and command bus (default = 2 times, i.e. DDR)
-gpgpu_dram_timing_opt nbk=16:CCD=2:RRD=6:RCD=12:RAS=28:RP=12:RC=40: CL=12:WL=4:CDLR=5:WR=12:nbkgrp=4:CCDL=3:RTPL=2 # DRAM timing parameters = {nbk:tCCD:tRRD:tRCD:tRAS:tRP:tRC:CL:WL:tCDLR:tWR:nbkgrp:tCCDL:tRTPL}
-rop_latency                          120 # ROP queue latency (default 85)
-dram_latency                         100 # DRAM latency (default 30)
-gpgpu_mem_addr_mapping dramid@8;00000000.00000000.00000000.00000000.0000RRRR.RRRRRRRR.BBBCCCCB.CCSSSSSS # mapping memory address to dram model {dramid@<start bit>;<memory address map>}
-gpgpu_mem_addr_test                    0 # run sweep test to check address mapping for aliased address
-gpgpu_mem_address_mask                    1 # 0 = old addressing mask, 1 = new addressing mask, 2 = new add. mask + flipped bank sel and chip sel bits
-gpuwattch_xml_file  gpuwattch_gtx480.xml # GPUWattch XML file
-power_simulation_enabled                    0 # Turn on power simulator (1=On, 0=Off)
-power_per_cycle_dump                    0 # Dump detailed power output each cycle
-power_trace_enabled                    0 # produce a file for the power trace (1=On, 0=Off)
-power_trace_zlevel                     6 # Compression level of the power trace output log (0=no comp, 9=highest)
-steady_power_levels_enabled                    0 # produce a file for the steady power levels (1=On, 0=Off)
-steady_state_definition                  8:4 # allowed deviation:number of samples
-gpgpu_max_cycle                        0 # terminates gpu simulation early (0 = no limit)
-gpgpu_max_insn                         0 # terminates gpu simulation early (0 = no limit)
-gpgpu_max_cta                          0 # terminates gpu simulation early (0 = no limit)
-gpgpu_runtime_stat                   500 # display runtime statistics such as dram utilization {<freq>:<flag>}
-liveness_message_freq                    1 # Minimum number of seconds between simulation liveness messages (0 = always print)
-gpgpu_flush_l1_cache                    0 # Flush L1 cache at the end of each kernel call
-gpgpu_flush_l2_cache                    0 # Flush L2 cache at the end of each kernel call
-gpgpu_deadlock_detect                    1 # Stop the simulation at deadlock (1=on (default), 0=off)
-gpgpu_ptx_instruction_classification                    0 # if enabled will classify ptx instruction types per kernel (Max 255 kernels now)
-gpgpu_ptx_sim_mode                     0 # Select between Performance (default) or Functional simulation (1)
-gpgpu_clock_domains 700.0:700.0:700.0:924.0 # Clock Domain Frequencies in MhZ {<Core Clock>:<ICNT Clock>:<L2 Clock>:<DRAM Clock>}
-gpgpu_max_concurrent_kernel                    8 # maximum kernels that can run concurrently on GPU
-gpgpu_cflog_interval                    0 # Interval between each snapshot in control flow logger
-visualizer_enabled                     0 # Turn on visualizer output (1=On, 0=Off)
-visualizer_outputfile                 NULL # Specifies the output log file for visualizer
-visualizer_zlevel                      6 # Compression level of the visualizer output log (0=no comp, 9=highest)
-trace_enabled                          0 # Turn on traces
-trace_components                    none # comma seperated list of traces to enable. Complete list found in trace_streams.tup. Default none
-trace_sampling_core                    0 # The core which is printed using CORE_DPRINTF. Default 0
-trace_sampling_memory_partition                   -1 # The memory partition which is printed using MEMPART_DPRINTF. Default -1 (i.e. all)
-enable_ptx_file_line_stats                    1 # Turn on PTX source line statistic profiling. (1 = On)
-ptx_line_stats_filename gpgpu_inst_stats.txt # Output file for PTX source line statistics.
-save_embedded_ptx                      0 # saves ptx files embedded in binary as <n>.ptx
-keep                                   0 # keep intermediate files created by GPGPU-Sim when interfacing with external programs
-gpgpu_ptx_save_converted_ptxplus                    0 # Saved converted ptxplus to a file
-ptx_opcode_latency_int         4,13,4,5,145 # Opcode latencies for integers <ADD,MAX,MUL,MAD,DIV>Default 1,1,19,25,145
-ptx_opcode_latency_fp          4,13,4,5,39 # Opcode latencies for single precision floating points <ADD,MAX,MUL,MAD,DIV>Default 1,1,1,1,30
-ptx_opcode_latency_dp         8,19,8,8,330 # Opcode latencies for double precision floating points <ADD,MAX,MUL,MAD,DIV>Default 8,8,8,8,335
-ptx_opcode_initiation_int            1,2,2,1,8 # Opcode initiation intervals for integers <ADD,MAX,MUL,MAD,DIV>Default 1,1,4,4,32
-ptx_opcode_initiation_fp            1,2,1,1,4 # Opcode initiation intervals for single precision floating points <ADD,MAX,MUL,MAD,DIV>Default 1,1,1,1,5
-ptx_opcode_initiation_dp         8,16,8,8,130 # Opcode initiation intervals for double precision floating points <ADD,MAX,MUL,MAD,DIV>Default 8,8,8,8,130
DRAM Timing Options:
nbk                                    16 # number of banks
CCD                                     2 # column to column delay
RRD                                     6 # minimal delay between activation of rows in different banks
RCD                                    12 # row to column delay
RAS                                    28 # time needed to activate row
RP                                     12 # time needed to precharge (deactivate) row
RC                                     40 # row cycle time
CDLR                                    5 # switching from write to read (changes tWTR)
WR                                     12 # last data-in to row precharge
CL                                     12 # CAS latency
WL                                      4 # Write latency
nbkgrp                                  4 # number of bank groups
CCDL                                    3 # column to column delay between accesses to different bank groups
RTPL                                    2 # read to precharge delay between accesses to different bank groups
Total number of memory sub partition = 12
addr_dec_mask[CHIP]  = 0000000000000000 	high:64 low:0
addr_dec_mask[BK]    = 000000000000e100 	high:16 low:8
addr_dec_mask[ROW]   = 000000000fff0000 	high:28 low:16
addr_dec_mask[COL]   = 0000000000001eff 	high:13 low:0
addr_dec_mask[BURST] = 000000000000003f 	high:6 low:0
sub_partition_id_mask = 0000000000000100
GPGPU-Sim uArch: clock freqs: 700000000.000000:700000000.000000:700000000.000000:924000000.000000
GPGPU-Sim uArch: clock periods: 0.00000000142857142857:0.00000000142857142857:0.00000000142857142857:0.00000000108225108225
*** Initializing Memory Statistics ***
GPGPU-Sim uArch: interconnect node map (shaderID+MemID to icntID)
GPGPU-Sim uArch: Memory nodes ID start from index: 15
GPGPU-Sim uArch:    0   1   2   3   4
GPGPU-Sim uArch:    5   6   7   8   9
GPGPU-Sim uArch:   10  11  12  13  14
GPGPU-Sim uArch:   15  16  17  18  19
GPGPU-Sim uArch:   20  21  22  23  24
GPGPU-Sim uArch:   25  26
GPGPU-Sim uArch: interconnect node reverse map (icntID to shaderID+MemID)
GPGPU-Sim uArch: Memory nodes start from ID: 15
GPGPU-Sim uArch:    0   1   2   3   4
GPGPU-Sim uArch:    5   6   7   8   9
GPGPU-Sim uArch:   10  11  12  13  14
GPGPU-Sim uArch:   15  16  17  18  19
GPGPU-Sim uArch:   20  21  22  23  24
GPGPU-Sim uArch:   25  26
401c1b8a3e5a334cce6183153c85d25d  /sciclone/data10/hwang07/adwait/applications/benchmarks/rodinia/cuda/cfd/gpgpu_ptx_sim__cfd
GPGPU-Sim uArch: performance model initialization complete.
GPGPU-Sim PTX: __cudaRegisterFatBinary, fat_cubin_handle = 1, filename=euler3d.cu
self exe links to: /sciclone/data10/hwang07/adwait/applications/benchmarks/rodinia/cuda/cfd/gpgpu_ptx_sim__cfd
Running md5sum using "md5sum /sciclone/data10/hwang07/adwait/applications/benchmarks/rodinia/cuda/cfd/gpgpu_ptx_sim__cfd "
Parsing file _cuobjdump_complete_output_1dogcF
######### cuobjdump parser ########
## Adding new section ELF
Adding arch: sm_20
Adding identifier: euler3d.cu
## Adding new section PTX
Adding ptx filename: _cuobjdump_1.ptx
Adding arch: sm_20
Adding identifier: euler3d.cu
Done parsing!!!
GPGPU-Sim PTX: __cudaRegisterFunction _Z14cuda_time_stepiiPfS_S_S_ : hostFun 0x0x406564, fat_cubin_handle = 1
GPGPU-Sim PTX: allocating constant region for "ff_variable" from 0x100 to 0x114 (global memory space) 1
GPGPU-Sim PTX: instruction assembly for function '_Z25cuda_initialize_variablesiPf'...   done.
GPGPU-Sim PTX: finding reconvergence points for '_Z25cuda_initialize_variablesiPf'...
GPGPU-Sim PTX: Finding dominators for '_Z25cuda_initialize_variablesiPf'...
GPGPU-Sim PTX: Finding immediate dominators for '_Z25cuda_initialize_variablesiPf'...
GPGPU-Sim PTX: Finding postdominators for '_Z25cuda_initialize_variablesiPf'...
GPGPU-Sim PTX: Finding immediate postdominators for '_Z25cuda_initialize_variablesiPf'...
GPGPU-Sim PTX: pre-decoding instructions for '_Z25cuda_initialize_variablesiPf'...
GPGPU-Sim PTX: reconvergence points for _Z25cuda_initialize_variablesiPf...
GPGPU-Sim PTX: ... end of reconvergence points for _Z25cuda_initialize_variablesiPf
GPGPU-Sim PTX: ... done pre-decoding instructions for '_Z25cuda_initialize_variablesiPf'.
GPGPU-Sim PTX: instruction assembly for function '_Z24cuda_compute_step_factoriPfS_S_'...   done.
GPGPU-Sim PTX: finding reconvergence points for '_Z24cuda_compute_step_factoriPfS_S_'...
GPGPU-Sim PTX: Finding dominators for '_Z24cuda_compute_step_factoriPfS_S_'...
GPGPU-Sim PTX: Finding immediate dominators for '_Z24cuda_compute_step_factoriPfS_S_'...
GPGPU-Sim PTX: Finding postdominators for '_Z24cuda_compute_step_factoriPfS_S_'...
GPGPU-Sim PTX: Finding immediate postdominators for '_Z24cuda_compute_step_factoriPfS_S_'...
GPGPU-Sim PTX: pre-decoding instructions for '_Z24cuda_compute_step_factoriPfS_S_'...
GPGPU-Sim PTX: reconvergence points for _Z24cuda_compute_step_factoriPfS_S_...
GPGPU-Sim PTX: ... end of reconvergence points for _Z24cuda_compute_step_factoriPfS_S_
GPGPU-Sim PTX: ... done pre-decoding instructions for '_Z24cuda_compute_step_factoriPfS_S_'.
GPGPU-Sim PTX: allocating constant region for "ff_flux_contribution_momentum_x" from 0x180 to 0x18c (global memory space) 2
GPGPU-Sim PTX: allocating constant region for "ff_flux_contribution_momentum_y" from 0x200 to 0x20c (global memory space) 3
GPGPU-Sim PTX: allocating constant region for "ff_flux_contribution_momentum_z" from 0x280 to 0x28c (global memory space) 4
GPGPU-Sim PTX: allocating constant region for "ff_flux_contribution_density_energy" from 0x300 to 0x30c (global memory space) 5
GPGPU-Sim PTX: instruction assembly for function '_Z17cuda_compute_fluxiPiPfS0_S0_'...   done.
GPGPU-Sim PTX: finding reconvergence points for '_Z17cuda_compute_fluxiPiPfS0_S0_'...
GPGPU-Sim PTX: Finding dominators for '_Z17cuda_compute_fluxiPiPfS0_S0_'...
GPGPU-Sim PTX: Finding immediate dominators for '_Z17cuda_compute_fluxiPiPfS0_S0_'...
GPGPU-Sim PTX: Finding postdominators for '_Z17cuda_compute_fluxiPiPfS0_S0_'...
GPGPU-Sim PTX: Finding immediate postdominators for '_Z17cuda_compute_fluxiPiPfS0_S0_'...
GPGPU-Sim PTX: pre-decoding instructions for '_Z17cuda_compute_fluxiPiPfS0_S0_'...
GPGPU-Sim PTX: reconvergence points for _Z17cuda_compute_fluxiPiPfS0_S0_...
GPGPU-Sim PTX:  1 (potential) branch divergence @  PC=0x4c8 (_1.ptx:266) @%p1 bra $Lt_2_3842;
GPGPU-Sim PTX:    immediate post dominator      @  PC=0xc78 (_1.ptx:538) add.u64 %rd40, %rd6, %rd17;
GPGPU-Sim PTX:  2 (potential) branch divergence @  PC=0x910 (_1.ptx:414) bra.uni $Lt_2_3586;
GPGPU-Sim PTX:    immediate post dominator      @  PC=0xc78 (_1.ptx:538) add.u64 %rd40, %rd6, %rd17;
GPGPU-Sim PTX:  3 (potential) branch divergence @  PC=0x928 (_1.ptx:418) @%p2 bra $Lt_2_4354;
GPGPU-Sim PTX:    immediate post dominator      @  PC=0xc78 (_1.ptx:538) add.u64 %rd40, %rd6, %rd17;
GPGPU-Sim PTX:  4 (potential) branch divergence @  PC=0x9d0 (_1.ptx:442) bra.uni $Lt_2_4098;
GPGPU-Sim PTX:    immediate post dominator      @  PC=0xc78 (_1.ptx:538) add.u64 %rd40, %rd6, %rd17;
GPGPU-Sim PTX:  5 (potential) branch divergence @  PC=0x9e8 (_1.ptx:446) @%p3 bra $Lt_2_4866;
GPGPU-Sim PTX:    immediate post dominator      @  PC=0xc78 (_1.ptx:538) add.u64 %rd40, %rd6, %rd17;
GPGPU-Sim PTX:  6 (potential) branch divergence @  PC=0xc48 (_1.ptx:527) bra.uni $Lt_2_4610;
GPGPU-Sim PTX:    immediate post dominator      @  PC=0xc78 (_1.ptx:538) add.u64 %rd40, %rd6, %rd17;
GPGPU-Sim PTX:  7 (potential) branch divergence @  PC=0xd08 (_1.ptx:559) @%p4 bra $Lt_2_5378;
GPGPU-Sim PTX:    immediate post dominator      @  PC=0x1410 (_1.ptx:834) add.u64 %rd63, %rd9, %rd17;
GPGPU-Sim PTX:  8 (potential) branch divergence @  PC=0x1128 (_1.ptx:717) bra.uni $Lt_2_5122;
GPGPU-Sim PTX:    immediate post dominator      @  PC=0x1410 (_1.ptx:834) add.u64 %rd63, %rd9, %rd17;
GPGPU-Sim PTX:  9 (potential) branch divergence @  PC=0x1140 (_1.ptx:721) @%p5 bra $Lt_2_5890;
GPGPU-Sim PTX:    immediate post dominator      @  PC=0x1410 (_1.ptx:834) add.u64 %rd63, %rd9, %rd17;
GPGPU-Sim PTX: 10 (potential) branch divergence @  PC=0x11c0 (_1.ptx:740) bra.uni $Lt_2_5634;
GPGPU-Sim PTX:    immediate post dominator      @  PC=0x1410 (_1.ptx:834) add.u64 %rd63, %rd9, %rd17;
GPGPU-Sim PTX: 11 (potential) branch divergence @  PC=0x11d8 (_1.ptx:744) @%p6 bra $Lt_2_6146;
GPGPU-Sim PTX:    immediate post dominator      @  PC=0x1410 (_1.ptx:834) add.u64 %rd63, %rd9, %rd17;
GPGPU-Sim PTX: 12 (potential) branch divergence @  PC=0x14a0 (_1.ptx:855) @%p7 bra $Lt_2_6914;
GPGPU-Sim PTX:    immediate post dominator      @  PC=0x1ba8 (_1.ptx:1130) add.u64 %rd86, %rd12, %rd17;
GPGPU-Sim PTX: 13 (potential) branch divergence @  PC=0x18c0 (_1.ptx:1013) bra.uni $Lt_2_6658;
GPGPU-Sim PTX:    immediate post dominator      @  PC=0x1ba8 (_1.ptx:1130) add.u64 %rd86, %rd12, %rd17;
GPGPU-Sim PTX: 14 (potential) branch divergence @  PC=0x18d8 (_1.ptx:1017) @%p8 bra $Lt_2_7426;
GPGPU-Sim PTX:    immediate post dominator      @  PC=0x1ba8 (_1.ptx:1130) add.u64 %rd86, %rd12, %rd17;
GPGPU-Sim PTX: 15 (potential) branch divergence @  PC=0x1958 (_1.ptx:1036) bra.uni $Lt_2_7170;
GPGPU-Sim PTX:    immediate post dominator      @  PC=0x1ba8 (_1.ptx:1130) add.u64 %rd86, %rd12, %rd17;
GPGPU-Sim PTX: 16 (potential) branch divergence @  PC=0x1970 (_1.ptx:1040) @%p9 bra $Lt_2_7682;
GPGPU-Sim PTX:    immediate post dominator      @  PC=0x1ba8 (_1.ptx:1130) add.u64 %rd86, %rd12, %rd17;
GPGPU-Sim PTX: 17 (potential) branch divergence @  PC=0x1c38 (_1.ptx:1151) @%p10 bra $Lt_2_8450;
GPGPU-Sim PTX:    immediate post dominator      @  PC=0x2340 (_1.ptx:1426) ld.param.u64 %rd109, [__cudaparm__Z17cuda_compute_fluxiPiPfS0_S0__fluxes];
GPGPU-Sim PTX: 18 (potential) branch divergence @  PC=0x2058 (_1.ptx:1309) bra.uni $Lt_2_8194;
GPGPU-Sim PTX:    immediate post dominator      @  PC=0x2340 (_1.ptx:1426) ld.param.u64 %rd109, [__cudaparm__Z17cuda_compute_fluxiPiPfS0_S0__fluxes];
GPGPU-Sim PTX: 19 (potential) branch divergence @  PC=0x2070 (_1.ptx:1313) @%p11 bra $Lt_2_8962;
GPGPU-Sim PTX:    immediate post dominator      @  PC=0x2340 (_1.ptx:1426) ld.param.u64 %rd109, [__cudaparm__Z17cuda_compute_fluxiPiPfS0_S0__fluxes];
GPGPU-Sim PTX: 20 (potential) branch divergence @  PC=0x20f0 (_1.ptx:1332) bra.uni $Lt_2_8706;
GPGPU-Sim PTX:    immediate post dominator      @  PC=0x2340 (_1.ptx:1426) ld.param.u64 %rd109, [__cudaparm__Z17cuda_compute_fluxiPiPfS0_S0__fluxes];
GPGPU-Sim PTX: 21 (potential) branch divergence @  PC=0x2108 (_1.ptx:1336) @%p12 bra $Lt_2_9218;
GPGPU-Sim PTX:    immediate post dominator      @  PC=0x2340 (_1.ptx:1426) ld.param.u64 %rd109, [__cudaparm__Z17cuda_compute_fluxiPiPfS0_S0__fluxes];
GPGPU-Sim PTX: ... end of reconvergence points for _Z17cuda_compute_fluxiPiPfS0_S0_
GPGPU-Sim PTX: ... done pre-decoding instructions for '_Z17cuda_compute_fluxiPiPfS0_S0_'.
GPGPU-Sim PTX: instruction assembly for function '_Z14cuda_time_stepiiPfS_S_S_'...   done.
GPGPU-Sim PTX: finding reconvergence points for '_Z14cuda_time_stepiiPfS_S_S_'...
GPGPU-Sim PTX: Finding dominators for '_Z14cuda_time_stepiiPfS_S_S_'...
GPGPU-Sim PTX: Finding immediate dominators for '_Z14cuda_time_stepiiPfS_S_S_'...
GPGPU-Sim PTX: Finding postdominators for '_Z14cuda_time_stepiiPfS_S_S_'...
GPGPU-Sim PTX: Finding immediate postdominators for '_Z14cuda_time_stepiiPfS_S_S_'...
GPGPU-Sim PTX: pre-decoding instructions for '_Z14cuda_time_stepiiPfS_S_S_'...
GPGPU-Sim PTX: reconvergence points for _Z14cuda_time_stepiiPfS_S_S_...
GPGPU-Sim PTX: ... end of reconvergence points for _Z14cuda_time_stepiiPfS_S_S_
GPGPU-Sim PTX: ... done pre-decoding instructions for '_Z14cuda_time_stepiiPfS_S_S_'.
GPGPU-Sim PTX: finished parsing EMBEDDED .ptx file _1.ptx
Adding _cuobjdump_1.ptx with cubin handle 1
GPGPU-Sim PTX: extracting embedded .ptx to temporary file "_ptx_ap9cuH"
Running: cat _ptx_ap9cuH | sed 's/.version 1.5/.version 1.4/' | sed 's/, texmode_independent//' | sed 's/\(\.extern \.const\[1\] .b8 \w\+\)\[\]/\1\[1\]/' | sed 's/const\[.\]/const\[0\]/g' > _ptx2_9zQ8mK
GPGPU-Sim PTX: generating ptxinfo using "$CUDA_INSTALL_PATH/bin/ptxas --gpu-name=sm_20 -v _ptx2_9zQ8mK --output-file  /dev/null 2> _ptx_ap9cuHinfo"
GPGPU-Sim PTX: Kernel '_Z14cuda_time_stepiiPfS_S_S_' : regs=17, lmem=0, smem=0, cmem=152
GPGPU-Sim PTX: Kernel '_Z17cuda_compute_fluxiPiPfS0_S0_' : regs=50, lmem=0, smem=0, cmem=160
GPGPU-Sim PTX: Kernel '_Z24cuda_compute_step_factoriPfS_S_' : regs=16, lmem=0, smem=0, cmem=152
GPGPU-Sim PTX: Kernel '_Z25cuda_initialize_variablesiPf' : regs=17, lmem=0, smem=0, cmem=116
GPGPU-Sim PTX: removing ptxinfo using "rm -f _ptx_ap9cuH _ptx2_9zQ8mK _ptx_ap9cuHinfo"
GPGPU-Sim PTX: loading globals with explicit initializers... 
GPGPU-Sim PTX: finished loading globals (0 bytes total).
GPGPU-Sim PTX: loading constants with explicit initializers...  done.
GPGPU-Sim PTX: __cudaRegisterFunction _Z17cuda_compute_fluxiPiPfS0_S0_ : hostFun 0x0x406414, fat_cubin_handle = 1
GPGPU-Sim PTX: __cudaRegisterFunction _Z24cuda_compute_step_factoriPfS_S_ : hostFun 0x0x4062f8, fat_cubin_handle = 1
GPGPU-Sim PTX: __cudaRegisterFunction _Z25cuda_initialize_variablesiPf : hostFun 0x0x40621c, fat_cubin_handle = 1
GPGPU-Sim PTX: __cudaRegisterVar: hostVar = 0x629a80; deviceAddress = ff_variable; deviceName = ff_variable
GPGPU-Sim PTX: __cudaRegisterVar: Registering const memory space of 20 bytes
GPGPU-Sim PTX registering constant ff_variable (20 bytes) to name mapping
GPGPU-Sim PTX: __cudaRegisterVar: hostVar = 0x629a94; deviceAddress = ff_flux_contribution_momentum_x; deviceName = ff_flux_contribution_momentum_x
GPGPU-Sim PTX: __cudaRegisterVar: Registering const memory space of 12 bytes
GPGPU-Sim PTX registering constant ff_flux_contribution_momentum_x (12 bytes) to name mapping
GPGPU-Sim PTX: __cudaRegisterVar: hostVar = 0x629aa0; deviceAddress = ff_flux_contribution_momentum_y; deviceName = ff_flux_contribution_momentum_y
GPGPU-Sim PTX: __cudaRegisterVar: Registering const memory space of 12 bytes
GPGPU-Sim PTX registering constant ff_flux_contribution_momentum_y (12 bytes) to name mapping
GPGPU-Sim PTX: __cudaRegisterVar: hostVar = 0x629aac; deviceAddress = ff_flux_contribution_momentum_z; deviceName = ff_flux_contribution_momentum_z
GPGPU-Sim PTX: __cudaRegisterVar: Registering const memory space of 12 bytes
GPGPU-Sim PTX registering constant ff_flux_contribution_momentum_z (12 bytes) to name mapping
GPGPU-Sim PTX: __cudaRegisterVar: hostVar = 0x629ab8; deviceAddress = ff_flux_contribution_density_energy; deviceName = ff_flux_contribution_density_energy
GPGPU-Sim PTX: __cudaRegisterVar: Registering const memory space of 12 bytes
GPGPU-Sim PTX registering constant ff_flux_contribution_density_energy (12 bytes) to name mapping
Name:                     GPGPU-Sim_vGPGPU-Sim Simulator Version 3.2.2 
GPGPU-Sim PTX: cudaMemcpyToSymbol: symbol = 0x629a80
GPGPU-Sim PTX: starting gpgpu_ptx_sim_memcpy_symbol with hostVar 0x0x629a80
GPGPU-Sim PTX: gpgpu_ptx_sim_memcpy_symbol: Found PTX symbol w/ hostVar=0x629a80
GPGPU-Sim PTX: gpgpu_ptx_sim_memcpy_symbol: copying const memory 20 bytes  to  symbol ff_variable+0 @0x100 ...
GPGPU-Sim PTX: cudaMemcpyToSymbol: symbol = 0x629a94
GPGPU-Sim PTX: starting gpgpu_ptx_sim_memcpy_symbol with hostVar 0x0x629a94
GPGPU-Sim PTX: gpgpu_ptx_sim_memcpy_symbol: Found PTX symbol w/ hostVar=0x629a94
GPGPU-Sim PTX: gpgpu_ptx_sim_memcpy_symbol: copying const memory 12 bytes  to  symbol ff_flux_contribution_momentum_x+0 @0x180 ...
GPGPU-Sim PTX: cudaMemcpyToSymbol: symbol = 0x629aa0
GPGPU-Sim PTX: starting gpgpu_ptx_sim_memcpy_symbol with hostVar 0x0x629aa0
GPGPU-Sim PTX: gpgpu_ptx_sim_memcpy_symbol: Found PTX symbol w/ hostVar=0x629aa0
GPGPU-Sim PTX: gpgpu_ptx_sim_memcpy_symbol: copying const memory 12 bytes  to  symbol ff_flux_contribution_momentum_y+0 @0x200 ...
GPGPU-Sim PTX: cudaMemcpyToSymbol: symbol = 0x629aac
GPGPU-Sim PTX: starting gpgpu_ptx_sim_memcpy_symbol with hostVar 0x0x629aac
GPGPU-Sim PTX: gpgpu_ptx_sim_memcpy_symbol: Found PTX symbol w/ hostVar=0x629aac
GPGPU-Sim PTX: gpgpu_ptx_sim_memcpy_symbol: copying const memory 12 bytes  to  symbol ff_flux_contribution_momentum_z+0 @0x280 ...
GPGPU-Sim PTX: cudaMemcpyToSymbol: symbol = 0x629ab8
GPGPU-Sim PTX: starting gpgpu_ptx_sim_memcpy_symbol with hostVar 0x0x629ab8
GPGPU-Sim PTX: gpgpu_ptx_sim_memcpy_symbol: Found PTX symbol w/ hostVar=0x629ab8
GPGPU-Sim PTX: gpgpu_ptx_sim_memcpy_symbol: copying const memory 12 bytes  to  symbol ff_flux_contribution_density_energy+0 @0x300 ...

GPGPU-Sim PTX: cudaLaunch for 0x0x40621c (mode=performance simulation) on stream 0
GPGPU-Sim PTX: pushing kernel '_Z25cuda_initialize_variablesiPf' to stream 0, gridDim= (1008,1,1) blockDim = (192,1,1) 
kernel '_Z25cuda_initialize_variablesiPf' transfer to GPU hardware scheduler
GPGPU-Sim uArch: Shader 1 bind to kernel 1 '_Z25cuda_initialize_variablesiPf'
GPGPU-Sim uArch: CTA/core = 8, limited by: threads regs cta_limit
GPGPU-Sim uArch: core:  1, cta: 0 initialized @(1,0)
GPGPU-Sim uArch: Shader 2 bind to kernel 1 '_Z25cuda_initialize_variablesiPf'
GPGPU-Sim uArch: core:  2, cta: 0 initialized @(1,0)
GPGPU-Sim uArch: Shader 3 bind to kernel 1 '_Z25cuda_initialize_variablesiPf'
GPGPU-Sim uArch: core:  3, cta: 0 initialized @(1,0)
GPGPU-Sim uArch: Shader 4 bind to kernel 1 '_Z25cuda_initialize_variablesiPf'
GPGPU-Sim uArch: core:  4, cta: 0 initialized @(1,0)
GPGPU-Sim uArch: Shader 5 bind to kernel 1 '_Z25cuda_initialize_variablesiPf'
GPGPU-Sim uArch: core:  5, cta: 0 initialized @(1,0)
GPGPU-Sim uArch: Shader 6 bind to kernel 1 '_Z25cuda_initialize_variablesiPf'
GPGPU-Sim uArch: core:  6, cta: 0 initialized @(1,0)
GPGPU-Sim uArch: Shader 7 bind to kernel 1 '_Z25cuda_initialize_variablesiPf'
GPGPU-Sim uArch: core:  7, cta: 0 initialized @(1,0)
GPGPU-Sim uArch: Shader 8 bind to kernel 1 '_Z25cuda_initialize_variablesiPf'
GPGPU-Sim uArch: core:  8, cta: 0 initialized @(1,0)
GPGPU-Sim uArch: Shader 9 bind to kernel 1 '_Z25cuda_initialize_variablesiPf'
GPGPU-Sim uArch: core:  9, cta: 0 initialized @(1,0)
GPGPU-Sim uArch: Shader 10 bind to kernel 1 '_Z25cuda_initialize_variablesiPf'
GPGPU-Sim uArch: core: 10, cta: 0 initialized @(1,0)
GPGPU-Sim uArch: Shader 11 bind to kernel 1 '_Z25cuda_initialize_variablesiPf'
GPGPU-Sim uArch: core: 11, cta: 0 initialized @(1,0)
GPGPU-Sim uArch: Shader 12 bind to kernel 1 '_Z25cuda_initialize_variablesiPf'
GPGPU-Sim uArch: core: 12, cta: 0 initialized @(1,0)
GPGPU-Sim uArch: Shader 13 bind to kernel 1 '_Z25cuda_initialize_variablesiPf'
GPGPU-Sim uArch: core: 13, cta: 0 initialized @(1,0)
GPGPU-Sim uArch: Shader 14 bind to kernel 1 '_Z25cuda_initialize_variablesiPf'
GPGPU-Sim uArch: core: 14, cta: 0 initialized @(1,0)
GPGPU-Sim uArch: Shader 0 bind to kernel 1 '_Z25cuda_initialize_variablesiPf'
GPGPU-Sim uArch: core:  0, cta: 0 initialized @(1,0)
GPGPU-Sim uArch: core:  1, cta: 1 initialized @(2,0)
GPGPU-Sim uArch: core:  2, cta: 1 initialized @(2,0)
GPGPU-Sim uArch: core:  3, cta: 1 initialized @(2,0)
GPGPU-Sim uArch: core:  4, cta: 1 initialized @(2,0)
GPGPU-Sim uArch: core:  5, cta: 1 initialized @(2,0)
GPGPU-Sim uArch: core:  6, cta: 1 initialized @(2,0)
GPGPU-Sim uArch: core:  7, cta: 1 initialized @(2,0)
GPGPU-Sim uArch: core:  8, cta: 1 initialized @(2,0)
GPGPU-Sim uArch: core:  9, cta: 1 initialized @(2,0)
GPGPU-Sim uArch: core: 10, cta: 1 initialized @(2,0)
GPGPU-Sim uArch: core: 11, cta: 1 initialized @(2,0)
GPGPU-Sim uArch: core: 12, cta: 1 initialized @(2,0)
GPGPU-Sim uArch: core: 13, cta: 1 initialized @(2,0)
GPGPU-Sim uArch: core: 14, cta: 1 initialized @(2,0)
GPGPU-Sim uArch: core:  0, cta: 1 initialized @(2,0)
GPGPU-Sim uArch: core:  1, cta: 2 initialized @(3,0)
GPGPU-Sim uArch: core:  2, cta: 2 initialized @(3,0)
GPGPU-Sim uArch: core:  3, cta: 2 initialized @(3,0)
GPGPU-Sim uArch: core:  4, cta: 2 initialized @(3,0)
GPGPU-Sim uArch: core:  5, cta: 2 initialized @(3,0)
GPGPU-Sim uArch: core:  6, cta: 2 initialized @(3,0)
GPGPU-Sim uArch: core:  7, cta: 2 initialized @(3,0)
GPGPU-Sim uArch: core:  8, cta: 2 initialized @(3,0)
GPGPU-Sim uArch: core:  9, cta: 2 initialized @(3,0)
GPGPU-Sim uArch: core: 10, cta: 2 initialized @(3,0)
GPGPU-Sim uArch: core: 11, cta: 2 initialized @(3,0)
GPGPU-Sim uArch: core: 12, cta: 2 initialized @(3,0)
GPGPU-Sim uArch: core: 13, cta: 2 initialized @(3,0)
GPGPU-Sim uArch: core: 14, cta: 2 initialized @(3,0)
GPGPU-Sim uArch: core:  0, cta: 2 initialized @(3,0)
GPGPU-Sim uArch: core:  1, cta: 3 initialized @(4,0)
GPGPU-Sim uArch: core:  2, cta: 3 initialized @(4,0)
GPGPU-Sim uArch: core:  3, cta: 3 initialized @(4,0)
GPGPU-Sim uArch: core:  4, cta: 3 initialized @(4,0)
GPGPU-Sim uArch: core:  5, cta: 3 initialized @(4,0)
GPGPU-Sim uArch: core:  6, cta: 3 initialized @(4,0)
GPGPU-Sim uArch: core:  7, cta: 3 initialized @(4,0)
GPGPU-Sim uArch: core:  8, cta: 3 initialized @(4,0)
GPGPU-Sim uArch: core:  9, cta: 3 initialized @(4,0)
GPGPU-Sim uArch: core: 10, cta: 3 initialized @(4,0)
GPGPU-Sim uArch: core: 11, cta: 3 initialized @(4,0)
GPGPU-Sim uArch: core: 12, cta: 3 initialized @(4,0)
GPGPU-Sim uArch: core: 13, cta: 3 initialized @(4,0)
GPGPU-Sim uArch: core: 14, cta: 3 initialized @(4,0)
GPGPU-Sim uArch: core:  0, cta: 3 initialized @(4,0)
GPGPU-Sim uArch: core:  1, cta: 4 initialized @(5,0)
GPGPU-Sim uArch: core:  2, cta: 4 initialized @(5,0)
GPGPU-Sim uArch: core:  3, cta: 4 initialized @(5,0)
GPGPU-Sim uArch: core:  4, cta: 4 initialized @(5,0)
GPGPU-Sim uArch: core:  5, cta: 4 initialized @(5,0)
GPGPU-Sim uArch: core:  6, cta: 4 initialized @(5,0)
GPGPU-Sim uArch: core:  7, cta: 4 initialized @(5,0)
GPGPU-Sim uArch: core:  8, cta: 4 initialized @(5,0)
GPGPU-Sim uArch: core:  9, cta: 4 initialized @(5,0)
GPGPU-Sim uArch: core: 10, cta: 4 initialized @(5,0)
GPGPU-Sim uArch: core: 11, cta: 4 initialized @(5,0)
GPGPU-Sim uArch: core: 12, cta: 4 initialized @(5,0)
GPGPU-Sim uArch: core: 13, cta: 4 initialized @(5,0)
GPGPU-Sim uArch: core: 14, cta: 4 initialized @(5,0)
GPGPU-Sim uArch: core:  0, cta: 4 initialized @(5,0)
GPGPU-Sim uArch: core:  1, cta: 5 initialized @(6,0)
GPGPU-Sim uArch: core:  2, cta: 5 initialized @(6,0)
GPGPU-Sim uArch: core:  3, cta: 5 initialized @(6,0)
GPGPU-Sim uArch: core:  4, cta: 5 initialized @(6,0)
GPGPU-Sim uArch: core:  5, cta: 5 initialized @(6,0)
GPGPU-Sim uArch: core:  6, cta: 5 initialized @(6,0)
GPGPU-Sim uArch: core:  7, cta: 5 initialized @(6,0)
GPGPU-Sim uArch: core:  8, cta: 5 initialized @(6,0)
GPGPU-Sim uArch: core:  9, cta: 5 initialized @(6,0)
GPGPU-Sim uArch: core: 10, cta: 5 initialized @(6,0)
GPGPU-Sim uArch: core: 11, cta: 5 initialized @(6,0)
GPGPU-Sim uArch: core: 12, cta: 5 initialized @(6,0)
GPGPU-Sim uArch: core: 13, cta: 5 initialized @(6,0)
GPGPU-Sim uArch: core: 14, cta: 5 initialized @(6,0)
GPGPU-Sim uArch: core:  0, cta: 5 initialized @(6,0)
GPGPU-Sim uArch: core:  1, cta: 6 initialized @(7,0)
GPGPU-Sim uArch: core:  2, cta: 6 initialized @(7,0)
GPGPU-Sim uArch: core:  3, cta: 6 initialized @(7,0)
GPGPU-Sim uArch: core:  4, cta: 6 initialized @(7,0)
GPGPU-Sim uArch: core:  5, cta: 6 initialized @(7,0)
GPGPU-Sim uArch: core:  6, cta: 6 initialized @(7,0)
GPGPU-Sim uArch: core:  7, cta: 6 initialized @(7,0)
GPGPU-Sim uArch: core:  8, cta: 6 initialized @(7,0)
GPGPU-Sim uArch: core:  9, cta: 6 initialized @(7,0)
GPGPU-Sim uArch: core: 10, cta: 6 initialized @(7,0)
GPGPU-Sim uArch: core: 11, cta: 6 initialized @(7,0)
GPGPU-Sim uArch: core: 12, cta: 6 initialized @(7,0)
GPGPU-Sim uArch: core: 13, cta: 6 initialized @(7,0)
GPGPU-Sim uArch: core: 14, cta: 6 initialized @(7,0)
GPGPU-Sim uArch: core:  0, cta: 6 initialized @(7,0)
GPGPU-Sim uArch: core:  1, cta: 7 initialized @(8,0)
GPGPU-Sim uArch: core:  2, cta: 7 initialized @(8,0)
GPGPU-Sim uArch: core:  3, cta: 7 initialized @(8,0)
GPGPU-Sim uArch: core:  4, cta: 7 initialized @(8,0)
GPGPU-Sim uArch: core:  5, cta: 7 initialized @(8,0)
GPGPU-Sim uArch: core:  6, cta: 7 initialized @(8,0)
GPGPU-Sim uArch: core:  7, cta: 7 initialized @(8,0)
GPGPU-Sim uArch: core:  8, cta: 7 initialized @(8,0)
GPGPU-Sim uArch: core:  9, cta: 7 initialized @(8,0)
GPGPU-Sim uArch: core: 10, cta: 7 initialized @(8,0)
GPGPU-Sim uArch: core: 11, cta: 7 initialized @(8,0)
GPGPU-Sim uArch: core: 12, cta: 7 initialized @(8,0)
GPGPU-Sim uArch: core: 13, cta: 7 initialized @(8,0)
GPGPU-Sim uArch: core: 14, cta: 7 initialized @(8,0)
GPGPU-Sim uArch: core:  0, cta: 7 initialized @(8,0)
GPGPU-Sim uArch: cycles simulated: 500  inst.: 13440 (ipc=26.9) sim_rate=1221 (inst/sec) elapsed = 0:0:00:11 / Tue Mar 22 12:44:20 2016
GPGPU-Sim uArch: cycles simulated: 1000  inst.: 35392 (ipc=35.4) sim_rate=2949 (inst/sec) elapsed = 0:0:00:12 / Tue Mar 22 12:44:21 2016
GPGPU-Sim PTX: 100000 instructions simulated : ctaid=(15,0,0) tid=(31,0,0)
GPGPU-Sim PTX: 200000 instructions simulated : ctaid=(24,0,0) tid=(127,0,0)
GPGPU-Sim uArch: Shader 4 finished CTA #0 (2350,0), 7 CTAs running
GPGPU-Sim uArch: core:  4, cta: 0 initialized @(2351,0)
GPGPU-Sim uArch: Shader 8 finished CTA #0 (2446,0), 7 CTAs running
GPGPU-Sim uArch: core:  8, cta: 0 initialized @(2447,0)
GPGPU-Sim PTX: 300000 instructions simulated : ctaid=(34,0,0) tid=(95,0,0)
GPGPU-Sim uArch: cycles simulated: 2500  inst.: 302016 (ipc=120.8) sim_rate=23232 (inst/sec) elapsed = 0:0:00:13 / Tue Mar 22 12:44:22 2016
GPGPU-Sim uArch: Shader 12 finished CTA #0 (2544,0), 7 CTAs running
GPGPU-Sim uArch: core: 12, cta: 0 initialized @(2545,0)
GPGPU-Sim uArch: Shader 1 finished CTA #0 (2588,0), 7 CTAs running
GPGPU-Sim uArch: core:  1, cta: 0 initialized @(2589,0)
GPGPU-Sim uArch: Shader 0 finished CTA #0 (2679,0), 7 CTAs running
GPGPU-Sim uArch: core:  0, cta: 0 initialized @(2680,0)
GPGPU-Sim uArch: Shader 2 finished CTA #0 (2729,0), 7 CTAs running
GPGPU-Sim uArch: core:  2, cta: 0 initialized @(2730,0)
GPGPU-Sim uArch: Shader 5 finished CTA #0 (2731,0), 7 CTAs running
GPGPU-Sim uArch: core:  5, cta: 0 initialized @(2732,0)
GPGPU-Sim uArch: Shader 1 finished CTA #1 (2732,0), 7 CTAs running
GPGPU-Sim uArch: core:  1, cta: 1 initialized @(2733,0)
GPGPU-Sim uArch: Shader 9 finished CTA #0 (2767,0), 7 CTAs running
GPGPU-Sim uArch: core:  9, cta: 0 initialized @(2768,0)
GPGPU-Sim uArch: Shader 6 finished CTA #0 (2781,0), 7 CTAs running
GPGPU-Sim uArch: core:  6, cta: 0 initialized @(2782,0)
GPGPU-Sim uArch: Shader 10 finished CTA #0 (2930,0), 7 CTAs running
GPGPU-Sim uArch: core: 10, cta: 0 initialized @(2931,0)
GPGPU-Sim uArch: Shader 14 finished CTA #0 (2978,0), 7 CTAs running
GPGPU-Sim uArch: core: 14, cta: 0 initialized @(2979,0)
GPGPU-Sim uArch: Shader 2 finished CTA #1 (3233,0), 7 CTAs running
GPGPU-Sim uArch: core:  2, cta: 1 initialized @(3234,0)
GPGPU-Sim uArch: Shader 3 finished CTA #0 (3238,0), 7 CTAs running
GPGPU-Sim uArch: core:  3, cta: 0 initialized @(3239,0)
GPGPU-Sim uArch: Shader 6 finished CTA #1 (3287,0), 7 CTAs running
GPGPU-Sim uArch: core:  6, cta: 1 initialized @(3288,0)
GPGPU-Sim uArch: Shader 0 finished CTA #1 (3322,0), 7 CTAs running
GPGPU-Sim uArch: core:  0, cta: 1 initialized @(3323,0)
GPGPU-Sim uArch: Shader 7 finished CTA #0 (3336,0), 7 CTAs running
GPGPU-Sim uArch: core:  7, cta: 0 initialized @(3337,0)
GPGPU-Sim uArch: Shader 13 finished CTA #0 (3341,0), 7 CTAs running
GPGPU-Sim uArch: core: 13, cta: 0 initialized @(3342,0)
GPGPU-Sim uArch: Shader 11 finished CTA #0 (3381,0), 7 CTAs running
GPGPU-Sim uArch: core: 11, cta: 0 initialized @(3382,0)
GPGPU-Sim uArch: Shader 5 finished CTA #1 (3407,0), 7 CTAs running
GPGPU-Sim uArch: core:  5, cta: 1 initialized @(3408,0)
GPGPU-Sim uArch: Shader 4 finished CTA #1 (3421,0), 7 CTAs running
GPGPU-Sim uArch: core:  4, cta: 1 initialized @(3422,0)
GPGPU-Sim PTX: 400000 instructions simulated : ctaid=(47,0,0) tid=(159,0,0)
GPGPU-Sim uArch: cycles simulated: 3500  inst.: 401248 (ipc=114.6) sim_rate=28660 (inst/sec) elapsed = 0:0:00:14 / Tue Mar 22 12:44:23 2016
GPGPU-Sim uArch: Shader 8 finished CTA #1 (3541,0), 7 CTAs running
GPGPU-Sim uArch: core:  8, cta: 1 initialized @(3542,0)
GPGPU-Sim uArch: Shader 12 finished CTA #1 (3586,0), 7 CTAs running
GPGPU-Sim uArch: core: 12, cta: 1 initialized @(3587,0)
GPGPU-Sim uArch: Shader 9 finished CTA #1 (3667,0), 7 CTAs running
GPGPU-Sim uArch: core:  9, cta: 1 initialized @(3668,0)
GPGPU-Sim uArch: Shader 3 finished CTA #1 (3676,0), 7 CTAs running
GPGPU-Sim uArch: core:  3, cta: 1 initialized @(3677,0)
GPGPU-Sim uArch: Shader 13 finished CTA #1 (3788,0), 7 CTAs running
GPGPU-Sim uArch: core: 13, cta: 1 initialized @(3789,0)
GPGPU-Sim uArch: Shader 1 finished CTA #2 (3837,0), 7 CTAs running
GPGPU-Sim uArch: core:  1, cta: 2 initialized @(3838,0)
GPGPU-Sim uArch: Shader 10 finished CTA #1 (3841,0), 7 CTAs running
GPGPU-Sim uArch: core: 10, cta: 1 initialized @(3842,0)
GPGPU-Sim uArch: Shader 14 finished CTA #1 (3868,0), 7 CTAs running
GPGPU-Sim uArch: core: 14, cta: 1 initialized @(3869,0)
GPGPU-Sim uArch: Shader 7 finished CTA #1 (3946,0), 7 CTAs running
GPGPU-Sim uArch: core:  7, cta: 1 initialized @(3947,0)
GPGPU-Sim uArch: Shader 11 finished CTA #1 (4022,0), 7 CTAs running
GPGPU-Sim uArch: core: 11, cta: 1 initialized @(4023,0)
GPGPU-Sim uArch: Shader 6 finished CTA #2 (4148,0), 7 CTAs running
GPGPU-Sim uArch: core:  6, cta: 2 initialized @(4149,0)
GPGPU-Sim uArch: Shader 0 finished CTA #2 (4215,0), 7 CTAs running
GPGPU-Sim uArch: core:  0, cta: 2 initialized @(4216,0)
GPGPU-Sim uArch: Shader 9 finished CTA #2 (4246,0), 7 CTAs running
GPGPU-Sim uArch: core:  9, cta: 2 initialized @(4247,0)
GPGPU-Sim uArch: Shader 2 finished CTA #2 (4300,0), 7 CTAs running
GPGPU-Sim uArch: core:  2, cta: 2 initialized @(4301,0)
GPGPU-Sim PTX: 500000 instructions simulated : ctaid=(68,0,0) tid=(127,0,0)
GPGPU-Sim uArch: Shader 5 finished CTA #2 (4622,0), 7 CTAs running
GPGPU-Sim uArch: core:  5, cta: 2 initialized @(4623,0)
GPGPU-Sim uArch: Shader 1 finished CTA #3 (4684,0), 7 CTAs running
GPGPU-Sim uArch: core:  1, cta: 3 initialized @(4685,0)
GPGPU-Sim uArch: Shader 3 finished CTA #2 (4738,0), 7 CTAs running
GPGPU-Sim uArch: core:  3, cta: 2 initialized @(4739,0)
GPGPU-Sim uArch: Shader 0 finished CTA #3 (4782,0), 7 CTAs running
GPGPU-Sim uArch: core:  0, cta: 3 initialized @(4783,0)
GPGPU-Sim uArch: Shader 7 finished CTA #2 (4924,0), 7 CTAs running
GPGPU-Sim uArch: core:  7, cta: 2 initialized @(4925,0)
GPGPU-Sim uArch: cycles simulated: 5000  inst.: 585056 (ipc=117.0) sim_rate=39003 (inst/sec) elapsed = 0:0:00:15 / Tue Mar 22 12:44:24 2016
GPGPU-Sim uArch: Shader 4 finished CTA #2 (5023,0), 7 CTAs running
GPGPU-Sim uArch: core:  4, cta: 2 initialized @(5024,0)
GPGPU-Sim PTX: 600000 instructions simulated : ctaid=(85,0,0) tid=(63,0,0)
GPGPU-Sim uArch: Shader 9 finished CTA #3 (5116,0), 7 CTAs running
GPGPU-Sim uArch: core:  9, cta: 3 initialized @(5117,0)
GPGPU-Sim uArch: Shader 13 finished CTA #2 (5173,0), 7 CTAs running
GPGPU-Sim uArch: core: 13, cta: 2 initialized @(5174,0)
GPGPU-Sim uArch: Shader 8 finished CTA #2 (5233,0), 7 CTAs running
GPGPU-Sim uArch: core:  8, cta: 2 initialized @(5234,0)
GPGPU-Sim uArch: Shader 11 finished CTA #2 (5289,0), 7 CTAs running
GPGPU-Sim uArch: core: 11, cta: 2 initialized @(5290,0)
GPGPU-Sim uArch: Shader 6 finished CTA #3 (5303,0), 7 CTAs running
GPGPU-Sim uArch: core:  6, cta: 3 initialized @(5304,0)
GPGPU-Sim uArch: Shader 2 finished CTA #3 (5343,0), 7 CTAs running
GPGPU-Sim uArch: core:  2, cta: 3 initialized @(5344,0)
GPGPU-Sim uArch: Shader 14 finished CTA #2 (5435,0), 7 CTAs running
GPGPU-Sim uArch: core: 14, cta: 2 initialized @(5436,0)
GPGPU-Sim uArch: Shader 10 finished CTA #2 (5516,0), 7 CTAs running
GPGPU-Sim uArch: core: 10, cta: 2 initialized @(5517,0)
GPGPU-Sim uArch: Shader 12 finished CTA #2 (5520,0), 7 CTAs running
GPGPU-Sim uArch: core: 12, cta: 2 initialized @(5521,0)
GPGPU-Sim uArch: Shader 3 finished CTA #3 (5548,0), 7 CTAs running
GPGPU-Sim uArch: core:  3, cta: 3 initialized @(5549,0)
GPGPU-Sim uArch: Shader 4 finished CTA #3 (5678,0), 7 CTAs running
GPGPU-Sim uArch: core:  4, cta: 3 initialized @(5679,0)
GPGPU-Sim uArch: Shader 7 finished CTA #3 (5741,0), 7 CTAs running
GPGPU-Sim uArch: core:  7, cta: 3 initialized @(5742,0)
GPGPU-Sim uArch: Shader 14 finished CTA #3 (5772,0), 7 CTAs running
GPGPU-Sim uArch: core: 14, cta: 3 initialized @(5773,0)
GPGPU-Sim uArch: Shader 10 finished CTA #3 (5862,0), 7 CTAs running
GPGPU-Sim uArch: core: 10, cta: 3 initialized @(5863,0)
GPGPU-Sim uArch: cycles simulated: 6000  inst.: 688672 (ipc=114.8) sim_rate=43042 (inst/sec) elapsed = 0:0:00:16 / Tue Mar 22 12:44:25 2016
GPGPU-Sim uArch: Shader 11 finished CTA #3 (6009,0), 7 CTAs running
GPGPU-Sim uArch: core: 11, cta: 3 initialized @(6010,0)
GPGPU-Sim PTX: 700000 instructions simulated : ctaid=(71,0,0) tid=(191,0,0)
GPGPU-Sim uArch: Shader 1 finished CTA #4 (6059,0), 7 CTAs running
GPGPU-Sim uArch: core:  1, cta: 4 initialized @(6060,0)
GPGPU-Sim uArch: Shader 8 finished CTA #3 (6130,0), 7 CTAs running
GPGPU-Sim uArch: core:  8, cta: 3 initialized @(6131,0)
GPGPU-Sim uArch: Shader 5 finished CTA #3 (6168,0), 7 CTAs running
GPGPU-Sim uArch: core:  5, cta: 3 initialized @(6169,0)
GPGPU-Sim uArch: Shader 13 finished CTA #3 (6258,0), 7 CTAs running
GPGPU-Sim uArch: core: 13, cta: 3 initialized @(6259,0)
GPGPU-Sim uArch: Shader 1 finished CTA #5 (6288,0), 7 CTAs running
GPGPU-Sim uArch: core:  1, cta: 5 initialized @(6289,0)
GPGPU-Sim uArch: Shader 6 finished CTA #4 (6319,0), 7 CTAs running
GPGPU-Sim uArch: core:  6, cta: 4 initialized @(6320,0)
GPGPU-Sim uArch: Shader 4 finished CTA #4 (6324,0), 7 CTAs running
GPGPU-Sim uArch: core:  4, cta: 4 initialized @(6325,0)
GPGPU-Sim uArch: Shader 11 finished CTA #4 (6365,0), 7 CTAs running
GPGPU-Sim uArch: core: 11, cta: 4 initialized @(6366,0)
GPGPU-Sim uArch: Shader 2 finished CTA #4 (6472,0), 7 CTAs running
GPGPU-Sim uArch: core:  2, cta: 4 initialized @(6473,0)
GPGPU-Sim uArch: Shader 0 finished CTA #4 (6509,0), 7 CTAs running
GPGPU-Sim uArch: core:  0, cta: 4 initialized @(6510,0)
GPGPU-Sim uArch: Shader 9 finished CTA #4 (6514,0), 7 CTAs running
GPGPU-Sim uArch: core:  9, cta: 4 initialized @(6515,0)
GPGPU-Sim uArch: Shader 12 finished CTA #3 (6559,0), 7 CTAs running
GPGPU-Sim uArch: core: 12, cta: 3 initialized @(6560,0)
GPGPU-Sim uArch: Shader 9 finished CTA #5 (6725,0), 7 CTAs running
GPGPU-Sim uArch: core:  9, cta: 5 initialized @(6726,0)
GPGPU-Sim uArch: Shader 5 finished CTA #4 (6832,0), 7 CTAs running
GPGPU-Sim uArch: core:  5, cta: 4 initialized @(6833,0)
GPGPU-Sim uArch: Shader 8 finished CTA #4 (6843,0), 7 CTAs running
GPGPU-Sim uArch: core:  8, cta: 4 initialized @(6844,0)
GPGPU-Sim PTX: 800000 instructions simulated : ctaid=(103,0,0) tid=(31,0,0)
GPGPU-Sim uArch: Shader 7 finished CTA #4 (6926,0), 7 CTAs running
GPGPU-Sim uArch: core:  7, cta: 4 initialized @(6927,0)
GPGPU-Sim uArch: Shader 5 finished CTA #5 (6946,0), 7 CTAs running
GPGPU-Sim uArch: core:  5, cta: 5 initialized @(6947,0)
GPGPU-Sim uArch: Shader 4 finished CTA #5 (7186,0), 7 CTAs running
GPGPU-Sim uArch: core:  4, cta: 5 initialized @(7187,0)
GPGPU-Sim uArch: Shader 2 finished CTA #5 (7249,0), 7 CTAs running
GPGPU-Sim uArch: core:  2, cta: 5 initialized @(7250,0)
GPGPU-Sim uArch: Shader 6 finished CTA #5 (7285,0), 7 CTAs running
GPGPU-Sim uArch: core:  6, cta: 5 initialized @(7286,0)
GPGPU-Sim uArch: Shader 13 finished CTA #4 (7378,0), 7 CTAs running
GPGPU-Sim uArch: core: 13, cta: 4 initialized @(7379,0)
GPGPU-Sim uArch: cycles simulated: 7500  inst.: 871392 (ipc=116.2) sim_rate=51258 (inst/sec) elapsed = 0:0:00:17 / Tue Mar 22 12:44:26 2016
GPGPU-Sim uArch: Shader 1 finished CTA #6 (7575,0), 7 CTAs running
GPGPU-Sim uArch: core:  1, cta: 6 initialized @(7576,0)
GPGPU-Sim uArch: Shader 7 finished CTA #5 (7697,0), 7 CTAs running
GPGPU-Sim uArch: core:  7, cta: 5 initialized @(7698,0)
GPGPU-Sim uArch: Shader 11 finished CTA #5 (7703,0), 7 CTAs running
GPGPU-Sim uArch: core: 11, cta: 5 initialized @(7704,0)
GPGPU-Sim PTX: 900000 instructions simulated : ctaid=(128,0,0) tid=(95,0,0)
GPGPU-Sim uArch: Shader 14 finished CTA #4 (7739,0), 7 CTAs running
GPGPU-Sim uArch: core: 14, cta: 4 initialized @(7740,0)
GPGPU-Sim uArch: Shader 12 finished CTA #4 (7744,0), 7 CTAs running
GPGPU-Sim uArch: core: 12, cta: 4 initialized @(7745,0)
GPGPU-Sim uArch: Shader 0 finished CTA #5 (7748,0), 7 CTAs running
GPGPU-Sim uArch: core:  0, cta: 5 initialized @(7749,0)
GPGPU-Sim uArch: Shader 10 finished CTA #4 (7832,0), 7 CTAs running
GPGPU-Sim uArch: core: 10, cta: 4 initialized @(7833,0)
GPGPU-Sim uArch: Shader 6 finished CTA #6 (7845,0), 7 CTAs running
GPGPU-Sim uArch: core:  6, cta: 6 initialized @(7846,0)
GPGPU-Sim uArch: Shader 3 finished CTA #4 (7885,0), 7 CTAs running
GPGPU-Sim uArch: core:  3, cta: 4 initialized @(7886,0)
GPGPU-Sim uArch: Shader 5 finished CTA #6 (7992,0), 7 CTAs running
GPGPU-Sim uArch: core:  5, cta: 6 initialized @(7993,0)
GPGPU-Sim uArch: Shader 2 finished CTA #6 (8086,0), 7 CTAs running
GPGPU-Sim uArch: core:  2, cta: 6 initialized @(8087,0)
GPGPU-Sim uArch: Shader 13 finished CTA #5 (8132,0), 7 CTAs running
GPGPU-Sim uArch: core: 13, cta: 5 initialized @(8133,0)
GPGPU-Sim uArch: Shader 9 finished CTA #6 (8140,0), 7 CTAs running
GPGPU-Sim uArch: core:  9, cta: 6 initialized @(8141,0)
GPGPU-Sim uArch: Shader 11 finished CTA #6 (8303,0), 7 CTAs running
GPGPU-Sim uArch: core: 11, cta: 6 initialized @(8304,0)
GPGPU-Sim uArch: Shader 10 finished CTA #5 (8372,0), 7 CTAs running
GPGPU-Sim uArch: core: 10, cta: 5 initialized @(8373,0)
GPGPU-Sim uArch: Shader 14 finished CTA #5 (8413,0), 7 CTAs running
GPGPU-Sim uArch: core: 14, cta: 5 initialized @(8414,0)
GPGPU-Sim uArch: Shader 11 finished CTA #7 (8531,0), 7 CTAs running
GPGPU-Sim uArch: core: 11, cta: 7 initialized @(8532,0)
GPGPU-Sim uArch: Shader 8 finished CTA #5 (8572,0), 7 CTAs running
GPGPU-Sim uArch: core:  8, cta: 5 initialized @(8573,0)
GPGPU-Sim PTX: 1000000 instructions simulated : ctaid=(134,0,0) tid=(159,0,0)
GPGPU-Sim uArch: Shader 7 finished CTA #6 (8618,0), 7 CTAs running
GPGPU-Sim uArch: core:  7, cta: 6 initialized @(8619,0)
GPGPU-Sim uArch: Shader 0 finished CTA #6 (8687,0), 7 CTAs running
GPGPU-Sim uArch: core:  0, cta: 6 initialized @(8688,0)
GPGPU-Sim uArch: Shader 12 finished CTA #5 (8837,0), 7 CTAs running
GPGPU-Sim uArch: core: 12, cta: 5 initialized @(8838,0)
GPGPU-Sim uArch: Shader 1 finished CTA #7 (8922,0), 7 CTAs running
GPGPU-Sim uArch: core:  1, cta: 7 initialized @(8923,0)
GPGPU-Sim uArch: Shader 2 finished CTA #7 (8943,0), 7 CTAs running
GPGPU-Sim uArch: core:  2, cta: 7 initialized @(8944,0)
GPGPU-Sim uArch: cycles simulated: 9000  inst.: 1055328 (ipc=117.3) sim_rate=58629 (inst/sec) elapsed = 0:0:00:18 / Tue Mar 22 12:44:27 2016
GPGPU-Sim uArch: Shader 6 finished CTA #7 (9027,0), 7 CTAs running
GPGPU-Sim uArch: core:  6, cta: 7 initialized @(9028,0)
GPGPU-Sim uArch: Shader 3 finished CTA #5 (9042,0), 7 CTAs running
GPGPU-Sim uArch: core:  3, cta: 5 initialized @(9043,0)
GPGPU-Sim uArch: Shader 7 finished CTA #7 (9136,0), 7 CTAs running
GPGPU-Sim uArch: core:  7, cta: 7 initialized @(9137,0)
GPGPU-Sim uArch: Shader 0 finished CTA #7 (9169,0), 7 CTAs running
GPGPU-Sim uArch: core:  0, cta: 7 initialized @(9170,0)
GPGPU-Sim uArch: Shader 11 finished CTA #0 (9174,0), 7 CTAs running
GPGPU-Sim uArch: core: 11, cta: 0 initialized @(9175,0)
GPGPU-Sim PTX: 1100000 instructions simulated : ctaid=(148,0,0) tid=(31,0,0)
GPGPU-Sim uArch: Shader 0 finished CTA #0 (9381,0), 7 CTAs running
GPGPU-Sim uArch: core:  0, cta: 0 initialized @(9382,0)
GPGPU-Sim uArch: Shader 4 finished CTA #6 (9431,0), 7 CTAs running
GPGPU-Sim uArch: core:  4, cta: 6 initialized @(9432,0)
GPGPU-Sim uArch: Shader 11 finished CTA #1 (9492,0), 7 CTAs running
GPGPU-Sim uArch: core: 11, cta: 1 initialized @(9493,0)
GPGPU-Sim uArch: Shader 3 finished CTA #6 (9567,0), 7 CTAs running
GPGPU-Sim uArch: core:  3, cta: 6 initialized @(9568,0)
GPGPU-Sim uArch: Shader 9 finished CTA #7 (9575,0), 7 CTAs running
GPGPU-Sim uArch: core:  9, cta: 7 initialized @(9576,0)
GPGPU-Sim uArch: Shader 8 finished CTA #6 (9720,0), 7 CTAs running
GPGPU-Sim uArch: core:  8, cta: 6 initialized @(9721,0)
GPGPU-Sim uArch: Shader 5 finished CTA #7 (9757,0), 7 CTAs running
GPGPU-Sim uArch: core:  5, cta: 7 initialized @(9758,0)
GPGPU-Sim uArch: Shader 10 finished CTA #6 (9763,0), 7 CTAs running
GPGPU-Sim uArch: core: 10, cta: 6 initialized @(9764,0)
GPGPU-Sim uArch: Shader 1 finished CTA #0 (9806,0), 7 CTAs running
GPGPU-Sim uArch: core:  1, cta: 0 initialized @(9807,0)
GPGPU-Sim uArch: Shader 14 finished CTA #6 (9841,0), 7 CTAs running
GPGPU-Sim uArch: core: 14, cta: 6 initialized @(9842,0)
GPGPU-Sim uArch: Shader 13 finished CTA #6 (9915,0), 7 CTAs running
GPGPU-Sim uArch: core: 13, cta: 6 initialized @(9916,0)
GPGPU-Sim PTX: 1200000 instructions simulated : ctaid=(162,0,0) tid=(159,0,0)
GPGPU-Sim uArch: Shader 12 finished CTA #6 (10159,0), 7 CTAs running
GPGPU-Sim uArch: core: 12, cta: 6 initialized @(10160,0)
GPGPU-Sim uArch: Shader 10 finished CTA #7 (10165,0), 7 CTAs running
GPGPU-Sim uArch: core: 10, cta: 7 initialized @(10166,0)
GPGPU-Sim uArch: Shader 4 finished CTA #7 (10168,0), 7 CTAs running
GPGPU-Sim uArch: core:  4, cta: 7 initialized @(10169,0)
GPGPU-Sim uArch: Shader 14 finished CTA #7 (10203,0), 7 CTAs running
GPGPU-Sim uArch: core: 14, cta: 7 initialized @(10204,0)
GPGPU-Sim uArch: Shader 7 finished CTA #0 (10245,0), 7 CTAs running
GPGPU-Sim uArch: core:  7, cta: 0 initialized @(10246,0)
GPGPU-Sim uArch: Shader 5 finished CTA #0 (10275,0), 7 CTAs running
GPGPU-Sim uArch: core:  5, cta: 0 initialized @(10276,0)
GPGPU-Sim uArch: Shader 9 finished CTA #0 (10398,0), 7 CTAs running
GPGPU-Sim uArch: core:  9, cta: 0 initialized @(10399,0)
GPGPU-Sim uArch: Shader 13 finished CTA #7 (10445,0), 7 CTAs running
GPGPU-Sim uArch: core: 13, cta: 7 initialized @(10446,0)
GPGPU-Sim uArch: cycles simulated: 10500  inst.: 1270240 (ipc=121.0) sim_rate=66854 (inst/sec) elapsed = 0:0:00:19 / Tue Mar 22 12:44:28 2016
GPGPU-Sim uArch: Shader 6 finished CTA #0 (10533,0), 7 CTAs running
GPGPU-Sim uArch: core:  6, cta: 0 initialized @(10534,0)
GPGPU-Sim uArch: Shader 0 finished CTA #1 (10540,0), 7 CTAs running
GPGPU-Sim uArch: core:  0, cta: 1 initialized @(10541,0)
GPGPU-Sim uArch: Shader 1 finished CTA #1 (10578,0), 7 CTAs running
GPGPU-Sim uArch: core:  1, cta: 1 initialized @(10579,0)
GPGPU-Sim uArch: Shader 4 finished CTA #0 (10591,0), 7 CTAs running
GPGPU-Sim uArch: core:  4, cta: 0 initialized @(10592,0)
GPGPU-Sim uArch: Shader 1 finished CTA #2 (10632,0), 7 CTAs running
GPGPU-Sim uArch: Shader 11 finished CTA #2 (10632,0), 7 CTAs running
GPGPU-Sim uArch: core: 11, cta: 2 initialized @(10633,0)
GPGPU-Sim uArch: core:  1, cta: 2 initialized @(10633,0)
GPGPU-Sim uArch: Shader 3 finished CTA #7 (10655,0), 7 CTAs running
GPGPU-Sim uArch: core:  3, cta: 7 initialized @(10656,0)
GPGPU-Sim PTX: 1300000 instructions simulated : ctaid=(189,0,0) tid=(95,0,0)
GPGPU-Sim uArch: Shader 9 finished CTA #1 (10737,0), 7 CTAs running
GPGPU-Sim uArch: core:  9, cta: 1 initialized @(10738,0)
GPGPU-Sim uArch: Shader 13 finished CTA #0 (10808,0), 7 CTAs running
GPGPU-Sim uArch: core: 13, cta: 0 initialized @(10809,0)
GPGPU-Sim uArch: Shader 10 finished CTA #0 (10823,0), 7 CTAs running
GPGPU-Sim uArch: core: 10, cta: 0 initialized @(10824,0)
GPGPU-Sim uArch: Shader 2 finished CTA #0 (10852,0), 7 CTAs running
GPGPU-Sim uArch: core:  2, cta: 0 initialized @(10853,0)
GPGPU-Sim uArch: Shader 12 finished CTA #7 (10898,0), 7 CTAs running
GPGPU-Sim uArch: core: 12, cta: 7 initialized @(10899,0)
GPGPU-Sim uArch: Shader 13 finished CTA #1 (10974,0), 7 CTAs running
GPGPU-Sim uArch: core: 13, cta: 1 initialized @(10975,0)
GPGPU-Sim uArch: Shader 5 finished CTA #1 (11085,0), 7 CTAs running
GPGPU-Sim uArch: core:  5, cta: 1 initialized @(11086,0)
GPGPU-Sim uArch: Shader 6 finished CTA #1 (11150,0), 7 CTAs running
GPGPU-Sim uArch: core:  6, cta: 1 initialized @(11151,0)
GPGPU-Sim uArch: Shader 12 finished CTA #0 (11318,0), 7 CTAs running
GPGPU-Sim uArch: core: 12, cta: 0 initialized @(11319,0)
GPGPU-Sim uArch: Shader 8 finished CTA #7 (11319,0), 7 CTAs running
GPGPU-Sim uArch: core:  8, cta: 7 initialized @(11320,0)
GPGPU-Sim uArch: Shader 0 finished CTA #2 (11398,0), 7 CTAs running
GPGPU-Sim uArch: core:  0, cta: 2 initialized @(11399,0)
GPGPU-Sim PTX: 1400000 instructions simulated : ctaid=(181,0,0) tid=(31,0,0)
GPGPU-Sim uArch: Shader 4 finished CTA #1 (11481,0), 7 CTAs running
GPGPU-Sim uArch: core:  4, cta: 1 initialized @(11482,0)
GPGPU-Sim uArch: Shader 14 finished CTA #0 (11535,0), 7 CTAs running
GPGPU-Sim uArch: core: 14, cta: 0 initialized @(11536,0)
GPGPU-Sim uArch: Shader 2 finished CTA #1 (11553,0), 7 CTAs running
GPGPU-Sim uArch: core:  2, cta: 1 initialized @(11554,0)
GPGPU-Sim uArch: Shader 7 finished CTA #1 (11574,0), 7 CTAs running
GPGPU-Sim uArch: core:  7, cta: 1 initialized @(11575,0)
GPGPU-Sim uArch: Shader 11 finished CTA #3 (11647,0), 7 CTAs running
GPGPU-Sim uArch: core: 11, cta: 3 initialized @(11648,0)
GPGPU-Sim uArch: Shader 8 finished CTA #0 (11650,0), 7 CTAs running
GPGPU-Sim uArch: core:  8, cta: 0 initialized @(11651,0)
GPGPU-Sim uArch: Shader 3 finished CTA #0 (11694,0), 7 CTAs running
GPGPU-Sim uArch: core:  3, cta: 0 initialized @(11695,0)
GPGPU-Sim uArch: Shader 0 finished CTA #3 (11719,0), 7 CTAs running
GPGPU-Sim uArch: core:  0, cta: 3 initialized @(11720,0)
GPGPU-Sim uArch: Shader 9 finished CTA #2 (11759,0), 7 CTAs running
GPGPU-Sim uArch: core:  9, cta: 2 initialized @(11760,0)
GPGPU-Sim uArch: cycles simulated: 12000  inst.: 1469856 (ipc=122.5) sim_rate=73492 (inst/sec) elapsed = 0:0:00:20 / Tue Mar 22 12:44:29 2016
GPGPU-Sim uArch: Shader 10 finished CTA #1 (12048,0), 7 CTAs running
GPGPU-Sim uArch: core: 10, cta: 1 initialized @(12049,0)
GPGPU-Sim uArch: Shader 9 finished CTA #3 (12066,0), 7 CTAs running
GPGPU-Sim uArch: core:  9, cta: 3 initialized @(12067,0)
GPGPU-Sim uArch: Shader 5 finished CTA #2 (12106,0), 7 CTAs running
GPGPU-Sim uArch: core:  5, cta: 2 initialized @(12107,0)
GPGPU-Sim uArch: Shader 2 finished CTA #2 (12225,0), 7 CTAs running
GPGPU-Sim uArch: core:  2, cta: 2 initialized @(12226,0)
GPGPU-Sim uArch: Shader 1 finished CTA #3 (12303,0), 7 CTAs running
GPGPU-Sim uArch: core:  1, cta: 3 initialized @(12304,0)
GPGPU-Sim uArch: Shader 13 finished CTA #2 (12334,0), 7 CTAs running
GPGPU-Sim uArch: core: 13, cta: 2 initialized @(12335,0)
GPGPU-Sim PTX: 1500000 instructions simulated : ctaid=(173,0,0) tid=(63,0,0)
GPGPU-Sim uArch: Shader 12 finished CTA #1 (12488,0), 7 CTAs running
GPGPU-Sim uArch: core: 12, cta: 1 initialized @(12489,0)
GPGPU-Sim uArch: Shader 4 finished CTA #2 (12531,0), 7 CTAs running
GPGPU-Sim uArch: core:  4, cta: 2 initialized @(12532,0)
GPGPU-Sim uArch: Shader 6 finished CTA #2 (12709,0), 7 CTAs running
GPGPU-Sim uArch: core:  6, cta: 2 initialized @(12710,0)
GPGPU-Sim uArch: Shader 3 finished CTA #1 (12714,0), 7 CTAs running
GPGPU-Sim uArch: core:  3, cta: 1 initialized @(12715,0)
GPGPU-Sim uArch: Shader 14 finished CTA #1 (12716,0), 7 CTAs running
GPGPU-Sim uArch: core: 14, cta: 1 initialized @(12717,0)
GPGPU-Sim uArch: Shader 2 finished CTA #3 (12719,0), 7 CTAs running
GPGPU-Sim uArch: core:  2, cta: 3 initialized @(12720,0)
GPGPU-Sim uArch: Shader 11 finished CTA #4 (12956,0), 7 CTAs running
GPGPU-Sim uArch: core: 11, cta: 4 initialized @(12957,0)
GPGPU-Sim uArch: Shader 0 finished CTA #4 (13064,0), 7 CTAs running
GPGPU-Sim uArch: core:  0, cta: 4 initialized @(13065,0)
GPGPU-Sim uArch: Shader 7 finished CTA #2 (13068,0), 7 CTAs running
GPGPU-Sim uArch: core:  7, cta: 2 initialized @(13069,0)
GPGPU-Sim PTX: 1600000 instructions simulated : ctaid=(211,0,0) tid=(31,0,0)
GPGPU-Sim uArch: Shader 12 finished CTA #2 (13125,0), 7 CTAs running
GPGPU-Sim uArch: core: 12, cta: 2 initialized @(13126,0)
GPGPU-Sim uArch: Shader 3 finished CTA #2 (13150,0), 7 CTAs running
GPGPU-Sim uArch: core:  3, cta: 2 initialized @(13151,0)
GPGPU-Sim uArch: Shader 6 finished CTA #3 (13200,0), 7 CTAs running
GPGPU-Sim uArch: core:  6, cta: 3 initialized @(13201,0)
GPGPU-Sim uArch: Shader 1 finished CTA #4 (13213,0), 7 CTAs running
GPGPU-Sim uArch: core:  1, cta: 4 initialized @(13214,0)
GPGPU-Sim uArch: Shader 8 finished CTA #1 (13331,0), 7 CTAs running
GPGPU-Sim uArch: core:  8, cta: 1 initialized @(13332,0)
GPGPU-Sim uArch: Shader 11 finished CTA #5 (13476,0), 7 CTAs running
GPGPU-Sim uArch: core: 11, cta: 5 initialized @(13477,0)
GPGPU-Sim uArch: cycles simulated: 13500  inst.: 1625696 (ipc=120.4) sim_rate=77414 (inst/sec) elapsed = 0:0:00:21 / Tue Mar 22 12:44:30 2016
GPGPU-Sim uArch: Shader 9 finished CTA #4 (13597,0), 7 CTAs running
GPGPU-Sim uArch: core:  9, cta: 4 initialized @(13598,0)
GPGPU-Sim uArch: Shader 2 finished CTA #4 (13601,0), 7 CTAs running
GPGPU-Sim uArch: core:  2, cta: 4 initialized @(13602,0)
GPGPU-Sim uArch: Shader 13 finished CTA #3 (13628,0), 7 CTAs running
GPGPU-Sim uArch: core: 13, cta: 3 initialized @(13629,0)
GPGPU-Sim uArch: Shader 4 finished CTA #3 (13673,0), 7 CTAs running
GPGPU-Sim uArch: core:  4, cta: 3 initialized @(13674,0)
GPGPU-Sim uArch: Shader 5 finished CTA #3 (13728,0), 7 CTAs running
GPGPU-Sim uArch: core:  5, cta: 3 initialized @(13729,0)
GPGPU-Sim uArch: Shader 4 finished CTA #4 (13767,0), 7 CTAs running
GPGPU-Sim uArch: core:  4, cta: 4 initialized @(13768,0)
GPGPU-Sim uArch: Shader 0 finished CTA #5 (13821,0), 7 CTAs running
GPGPU-Sim uArch: core:  0, cta: 5 initialized @(13822,0)
GPGPU-Sim uArch: Shader 10 finished CTA #2 (13825,0), 7 CTAs running
GPGPU-Sim uArch: core: 10, cta: 2 initialized @(13826,0)
GPGPU-Sim uArch: Shader 8 finished CTA #2 (13903,0), 7 CTAs running
GPGPU-Sim uArch: core:  8, cta: 2 initialized @(13904,0)
GPGPU-Sim uArch: Shader 7 finished CTA #3 (13924,0), 7 CTAs running
GPGPU-Sim uArch: core:  7, cta: 3 initialized @(13925,0)
GPGPU-Sim PTX: 1700000 instructions simulated : ctaid=(220,0,0) tid=(127,0,0)
GPGPU-Sim uArch: Shader 6 finished CTA #4 (14135,0), 7 CTAs running
GPGPU-Sim uArch: core:  6, cta: 4 initialized @(14136,0)
GPGPU-Sim uArch: Shader 2 finished CTA #5 (14254,0), 7 CTAs running
GPGPU-Sim uArch: core:  2, cta: 5 initialized @(14255,0)
GPGPU-Sim uArch: Shader 10 finished CTA #3 (14285,0), 7 CTAs running
GPGPU-Sim uArch: core: 10, cta: 3 initialized @(14286,0)
GPGPU-Sim uArch: Shader 11 finished CTA #6 (14323,0), 7 CTAs running
GPGPU-Sim uArch: core: 11, cta: 6 initialized @(14324,0)
GPGPU-Sim uArch: Shader 14 finished CTA #2 (14360,0), 7 CTAs running
GPGPU-Sim uArch: core: 14, cta: 2 initialized @(14361,0)
GPGPU-Sim uArch: Shader 1 finished CTA #5 (14372,0), 7 CTAs running
GPGPU-Sim uArch: core:  1, cta: 5 initialized @(14373,0)
GPGPU-Sim uArch: cycles simulated: 14500  inst.: 1761024 (ipc=121.4) sim_rate=80046 (inst/sec) elapsed = 0:0:00:22 / Tue Mar 22 12:44:31 2016
GPGPU-Sim uArch: Shader 9 finished CTA #5 (14625,0), 7 CTAs running
GPGPU-Sim uArch: core:  9, cta: 5 initialized @(14626,0)
GPGPU-Sim uArch: Shader 13 finished CTA #4 (14665,0), 7 CTAs running
GPGPU-Sim uArch: core: 13, cta: 4 initialized @(14666,0)
GPGPU-Sim uArch: Shader 12 finished CTA #3 (14694,0), 7 CTAs running
GPGPU-Sim uArch: core: 12, cta: 3 initialized @(14695,0)
GPGPU-Sim uArch: Shader 6 finished CTA #5 (14738,0), 7 CTAs running
GPGPU-Sim uArch: core:  6, cta: 5 initialized @(14739,0)
GPGPU-Sim uArch: Shader 4 finished CTA #5 (14829,0), 7 CTAs running
GPGPU-Sim uArch: core:  4, cta: 5 initialized @(14830,0)
GPGPU-Sim uArch: Shader 8 finished CTA #3 (14874,0), 7 CTAs running
GPGPU-Sim uArch: core:  8, cta: 3 initialized @(14875,0)
GPGPU-Sim PTX: 1800000 instructions simulated : ctaid=(198,0,0) tid=(191,0,0)
GPGPU-Sim uArch: Shader 5 finished CTA #4 (14914,0), 7 CTAs running
GPGPU-Sim uArch: core:  5, cta: 4 initialized @(14915,0)
GPGPU-Sim uArch: Shader 11 finished CTA #7 (15022,0), 7 CTAs running
GPGPU-Sim uArch: core: 11, cta: 7 initialized @(15023,0)
GPGPU-Sim uArch: Shader 2 finished CTA #6 (15057,0), 7 CTAs running
GPGPU-Sim uArch: core:  2, cta: 6 initialized @(15058,0)
GPGPU-Sim uArch: Shader 5 finished CTA #5 (15172,0), 7 CTAs running
GPGPU-Sim uArch: core:  5, cta: 5 initialized @(15173,0)
GPGPU-Sim uArch: Shader 8 finished CTA #4 (15213,0), 7 CTAs running
GPGPU-Sim uArch: core:  8, cta: 4 initialized @(15214,0)
GPGPU-Sim uArch: Shader 6 finished CTA #6 (15218,0), 7 CTAs running
GPGPU-Sim uArch: core:  6, cta: 6 initialized @(15219,0)
GPGPU-Sim uArch: Shader 14 finished CTA #3 (15345,0), 7 CTAs running
GPGPU-Sim uArch: core: 14, cta: 3 initialized @(15346,0)
GPGPU-Sim uArch: Shader 4 finished CTA #6 (15350,0), 7 CTAs running
GPGPU-Sim uArch: core:  4, cta: 6 initialized @(15351,0)
GPGPU-Sim uArch: Shader 3 finished CTA #3 (15439,0), 7 CTAs running
GPGPU-Sim uArch: core:  3, cta: 3 initialized @(15440,0)
GPGPU-Sim uArch: Shader 1 finished CTA #6 (15525,0), 7 CTAs running
GPGPU-Sim uArch: core:  1, cta: 6 initialized @(15526,0)
GPGPU-Sim uArch: Shader 7 finished CTA #4 (15528,0), 7 CTAs running
GPGPU-Sim uArch: core:  7, cta: 4 initialized @(15529,0)
GPGPU-Sim uArch: Shader 10 finished CTA #4 (15635,0), 7 CTAs running
GPGPU-Sim uArch: core: 10, cta: 4 initialized @(15636,0)
GPGPU-Sim uArch: Shader 13 finished CTA #5 (15637,0), 7 CTAs running
GPGPU-Sim uArch: core: 13, cta: 5 initialized @(15638,0)
GPGPU-Sim uArch: Shader 0 finished CTA #6 (15646,0), 7 CTAs running
GPGPU-Sim uArch: core:  0, cta: 6 initialized @(15647,0)
GPGPU-Sim uArch: Shader 8 finished CTA #5 (15687,0), 7 CTAs running
GPGPU-Sim uArch: core:  8, cta: 5 initialized @(15688,0)
GPGPU-Sim PTX: 1900000 instructions simulated : ctaid=(260,0,0) tid=(191,0,0)
GPGPU-Sim uArch: Shader 9 finished CTA #6 (15832,0), 7 CTAs running
GPGPU-Sim uArch: core:  9, cta: 6 initialized @(15833,0)
GPGPU-Sim uArch: cycles simulated: 16000  inst.: 1936192 (ipc=121.0) sim_rate=84182 (inst/sec) elapsed = 0:0:00:23 / Tue Mar 22 12:44:32 2016
GPGPU-Sim uArch: Shader 7 finished CTA #5 (16066,0), 7 CTAs running
GPGPU-Sim uArch: core:  7, cta: 5 initialized @(16067,0)
GPGPU-Sim uArch: Shader 10 finished CTA #5 (16069,0), 7 CTAs running
GPGPU-Sim uArch: core: 10, cta: 5 initialized @(16070,0)
GPGPU-Sim uArch: Shader 11 finished CTA #0 (16071,0), 7 CTAs running
GPGPU-Sim uArch: core: 11, cta: 0 initialized @(16072,0)
GPGPU-Sim uArch: Shader 3 finished CTA #4 (16085,0), 7 CTAs running
GPGPU-Sim uArch: core:  3, cta: 4 initialized @(16086,0)
GPGPU-Sim uArch: Shader 5 finished CTA #6 (16431,0), 7 CTAs running
GPGPU-Sim uArch: core:  5, cta: 6 initialized @(16432,0)
GPGPU-Sim uArch: Shader 8 finished CTA #6 (16499,0), 7 CTAs running
GPGPU-Sim uArch: core:  8, cta: 6 initialized @(16500,0)
GPGPU-Sim uArch: Shader 12 finished CTA #4 (16538,0), 7 CTAs running
GPGPU-Sim uArch: core: 12, cta: 4 initialized @(16539,0)
GPGPU-Sim PTX: 2000000 instructions simulated : ctaid=(255,0,0) tid=(63,0,0)
GPGPU-Sim uArch: Shader 0 finished CTA #7 (16670,0), 7 CTAs running
GPGPU-Sim uArch: core:  0, cta: 7 initialized @(16671,0)
GPGPU-Sim uArch: Shader 9 finished CTA #7 (16700,0), 7 CTAs running
GPGPU-Sim uArch: core:  9, cta: 7 initialized @(16701,0)
GPGPU-Sim uArch: Shader 1 finished CTA #7 (16764,0), 7 CTAs running
GPGPU-Sim uArch: core:  1, cta: 7 initialized @(16765,0)
GPGPU-Sim uArch: Shader 11 finished CTA #1 (16827,0), 7 CTAs running
GPGPU-Sim uArch: core: 11, cta: 1 initialized @(16828,0)
GPGPU-Sim uArch: Shader 4 finished CTA #7 (16875,0), 7 CTAs running
GPGPU-Sim uArch: core:  4, cta: 7 initialized @(16876,0)
GPGPU-Sim uArch: Shader 7 finished CTA #6 (16954,0), 7 CTAs running
GPGPU-Sim uArch: core:  7, cta: 6 initialized @(16955,0)
GPGPU-Sim uArch: Shader 6 finished CTA #7 (17075,0), 7 CTAs running
GPGPU-Sim uArch: core:  6, cta: 7 initialized @(17076,0)
GPGPU-Sim uArch: Shader 13 finished CTA #6 (17081,0), 7 CTAs running
GPGPU-Sim uArch: core: 13, cta: 6 initialized @(17082,0)
GPGPU-Sim uArch: Shader 12 finished CTA #5 (17186,0), 7 CTAs running
GPGPU-Sim uArch: core: 12, cta: 5 initialized @(17187,0)
GPGPU-Sim uArch: Shader 2 finished CTA #7 (17191,0), 7 CTAs running
GPGPU-Sim uArch: core:  2, cta: 7 initialized @(17192,0)
GPGPU-Sim uArch: Shader 5 finished CTA #7 (17234,0), 7 CTAs running
GPGPU-Sim uArch: Shader 10 finished CTA #6 (17234,0), 7 CTAs running
GPGPU-Sim uArch: core:  5, cta: 7 initialized @(17235,0)
GPGPU-Sim uArch: core: 10, cta: 6 initialized @(17235,0)
GPGPU-Sim uArch: Shader 14 finished CTA #4 (17408,0), 7 CTAs running
GPGPU-Sim uArch: core: 14, cta: 4 initialized @(17409,0)
GPGPU-Sim uArch: Shader 2 finished CTA #0 (17453,0), 7 CTAs running
GPGPU-Sim uArch: core:  2, cta: 0 initialized @(17454,0)
GPGPU-Sim uArch: Shader 0 finished CTA #0 (17483,0), 7 CTAs running
GPGPU-Sim uArch: core:  0, cta: 0 initialized @(17484,0)
GPGPU-Sim uArch: Shader 9 finished CTA #0 (17493,0), 7 CTAs running
GPGPU-Sim uArch: core:  9, cta: 0 initialized @(17494,0)
GPGPU-Sim uArch: cycles simulated: 17500  inst.: 2093056 (ipc=119.6) sim_rate=87210 (inst/sec) elapsed = 0:0:00:24 / Tue Mar 22 12:44:33 2016
GPGPU-Sim PTX: 2100000 instructions simulated : ctaid=(282,0,0) tid=(159,0,0)
GPGPU-Sim uArch: Shader 3 finished CTA #5 (17536,0), 7 CTAs running
GPGPU-Sim uArch: core:  3, cta: 5 initialized @(17537,0)
GPGPU-Sim uArch: Shader 6 finished CTA #0 (17640,0), 7 CTAs running
GPGPU-Sim uArch: core:  6, cta: 0 initialized @(17641,0)
GPGPU-Sim uArch: Shader 4 finished CTA #0 (17837,0), 7 CTAs running
GPGPU-Sim uArch: core:  4, cta: 0 initialized @(17838,0)
GPGPU-Sim uArch: Shader 8 finished CTA #7 (17908,0), 7 CTAs running
GPGPU-Sim uArch: core:  8, cta: 7 initialized @(17909,0)
GPGPU-Sim uArch: Shader 10 finished CTA #7 (17915,0), 7 CTAs running
GPGPU-Sim uArch: core: 10, cta: 7 initialized @(17916,0)
GPGPU-Sim uArch: Shader 12 finished CTA #6 (17970,0), 7 CTAs running
GPGPU-Sim uArch: core: 12, cta: 6 initialized @(17971,0)
GPGPU-Sim uArch: Shader 13 finished CTA #7 (18145,0), 7 CTAs running
GPGPU-Sim uArch: core: 13, cta: 7 initialized @(18146,0)
GPGPU-Sim uArch: Shader 9 finished CTA #1 (18190,0), 7 CTAs running
GPGPU-Sim uArch: core:  9, cta: 1 initialized @(18191,0)
GPGPU-Sim uArch: Shader 3 finished CTA #6 (18221,0), 7 CTAs running
GPGPU-Sim uArch: core:  3, cta: 6 initialized @(18222,0)
GPGPU-Sim uArch: Shader 7 finished CTA #7 (18269,0), 7 CTAs running
GPGPU-Sim uArch: core:  7, cta: 7 initialized @(18270,0)
GPGPU-Sim uArch: Shader 8 finished CTA #0 (18388,0), 7 CTAs running
GPGPU-Sim uArch: core:  8, cta: 0 initialized @(18389,0)
GPGPU-Sim PTX: 2200000 instructions simulated : ctaid=(293,0,0) tid=(159,0,0)
GPGPU-Sim uArch: Shader 13 finished CTA #0 (18446,0), 7 CTAs running
GPGPU-Sim uArch: core: 13, cta: 0 initialized @(18447,0)
GPGPU-Sim uArch: Shader 12 finished CTA #7 (18545,0), 7 CTAs running
GPGPU-Sim uArch: core: 12, cta: 7 initialized @(18546,0)
GPGPU-Sim uArch: Shader 6 finished CTA #1 (18612,0), 7 CTAs running
GPGPU-Sim uArch: core:  6, cta: 1 initialized @(18613,0)
GPGPU-Sim uArch: Shader 10 finished CTA #0 (18679,0), 7 CTAs running
GPGPU-Sim uArch: core: 10, cta: 0 initialized @(18680,0)
GPGPU-Sim uArch: Shader 1 finished CTA #0 (18711,0), 7 CTAs running
GPGPU-Sim uArch: core:  1, cta: 0 initialized @(18712,0)
GPGPU-Sim uArch: Shader 0 finished CTA #1 (18763,0), 7 CTAs running
GPGPU-Sim uArch: core:  0, cta: 1 initialized @(18764,0)
GPGPU-Sim uArch: Shader 10 finished CTA #1 (18767,0), 7 CTAs running
GPGPU-Sim uArch: core: 10, cta: 1 initialized @(18768,0)
GPGPU-Sim uArch: Shader 7 finished CTA #0 (18837,0), 7 CTAs running
GPGPU-Sim uArch: core:  7, cta: 0 initialized @(18838,0)
GPGPU-Sim uArch: Shader 2 finished CTA #1 (18886,0), 7 CTAs running
GPGPU-Sim uArch: core:  2, cta: 1 initialized @(18887,0)
GPGPU-Sim uArch: cycles simulated: 19000  inst.: 2278656 (ipc=119.9) sim_rate=91146 (inst/sec) elapsed = 0:0:00:25 / Tue Mar 22 12:44:34 2016
GPGPU-Sim uArch: Shader 7 finished CTA #1 (19111,0), 7 CTAs running
GPGPU-Sim uArch: core:  7, cta: 1 initialized @(19112,0)
GPGPU-Sim uArch: Shader 5 finished CTA #0 (19151,0), 7 CTAs running
GPGPU-Sim uArch: core:  5, cta: 0 initialized @(19152,0)
GPGPU-Sim uArch: Shader 0 finished CTA #2 (19156,0), 7 CTAs running
GPGPU-Sim uArch: core:  0, cta: 2 initialized @(19157,0)
GPGPU-Sim uArch: Shader 10 finished CTA #2 (19157,0), 7 CTAs running
GPGPU-Sim uArch: core: 10, cta: 2 initialized @(19158,0)
GPGPU-Sim uArch: Shader 14 finished CTA #5 (19161,0), 7 CTAs running
GPGPU-Sim uArch: core: 14, cta: 5 initialized @(19162,0)
GPGPU-Sim uArch: Shader 4 finished CTA #1 (19169,0), 7 CTAs running
GPGPU-Sim uArch: core:  4, cta: 1 initialized @(19170,0)
GPGPU-Sim PTX: 2300000 instructions simulated : ctaid=(275,0,0) tid=(63,0,0)
GPGPU-Sim uArch: Shader 11 finished CTA #2 (19309,0), 7 CTAs running
GPGPU-Sim uArch: core: 11, cta: 2 initialized @(19310,0)
GPGPU-Sim uArch: Shader 2 finished CTA #2 (19344,0), 7 CTAs running
GPGPU-Sim uArch: core:  2, cta: 2 initialized @(19345,0)
GPGPU-Sim uArch: Shader 6 finished CTA #2 (19432,0), 7 CTAs running
GPGPU-Sim uArch: core:  6, cta: 2 initialized @(19433,0)
GPGPU-Sim uArch: Shader 5 finished CTA #1 (19678,0), 7 CTAs running
GPGPU-Sim uArch: core:  5, cta: 1 initialized @(19679,0)
GPGPU-Sim uArch: Shader 13 finished CTA #1 (19766,0), 7 CTAs running
GPGPU-Sim uArch: core: 13, cta: 1 initialized @(19767,0)
GPGPU-Sim uArch: Shader 8 finished CTA #1 (19888,0), 7 CTAs running
GPGPU-Sim uArch: core:  8, cta: 1 initialized @(19889,0)
GPGPU-Sim uArch: Shader 10 finished CTA #3 (19971,0), 7 CTAs running
GPGPU-Sim uArch: core: 10, cta: 3 initialized @(19972,0)
GPGPU-Sim PTX: 2400000 instructions simulated : ctaid=(319,0,0) tid=(95,0,0)
GPGPU-Sim uArch: Shader 4 finished CTA #2 (20096,0), 7 CTAs running
GPGPU-Sim uArch: core:  4, cta: 2 initialized @(20097,0)
GPGPU-Sim uArch: Shader 14 finished CTA #7 (20220,0), 7 CTAs running
GPGPU-Sim uArch: core: 14, cta: 7 initialized @(20221,0)
GPGPU-Sim uArch: Shader 13 finished CTA #2 (20316,0), 7 CTAs running
GPGPU-Sim uArch: core: 13, cta: 2 initialized @(20317,0)
GPGPU-Sim uArch: Shader 11 finished CTA #3 (20413,0), 7 CTAs running
GPGPU-Sim uArch: core: 11, cta: 3 initialized @(20414,0)
GPGPU-Sim uArch: Shader 1 finished CTA #2 (20426,0), 7 CTAs running
GPGPU-Sim uArch: core:  1, cta: 2 initialized @(20427,0)
GPGPU-Sim uArch: Shader 14 finished CTA #6 (20460,0), 7 CTAs running
GPGPU-Sim uArch: core: 14, cta: 6 initialized @(20461,0)
GPGPU-Sim uArch: Shader 12 finished CTA #0 (20478,0), 7 CTAs running
GPGPU-Sim uArch: core: 12, cta: 0 initialized @(20479,0)
GPGPU-Sim uArch: cycles simulated: 20500  inst.: 2451008 (ipc=119.6) sim_rate=94269 (inst/sec) elapsed = 0:0:00:26 / Tue Mar 22 12:44:35 2016
GPGPU-Sim uArch: Shader 1 finished CTA #1 (20509,0), 7 CTAs running
GPGPU-Sim uArch: core:  1, cta: 1 initialized @(20510,0)
GPGPU-Sim uArch: Shader 7 finished CTA #2 (20528,0), 7 CTAs running
GPGPU-Sim uArch: core:  7, cta: 2 initialized @(20529,0)
GPGPU-Sim uArch: Shader 4 finished CTA #3 (20674,0), 7 CTAs running
GPGPU-Sim uArch: core:  4, cta: 3 initialized @(20675,0)
GPGPU-Sim uArch: Shader 9 finished CTA #2 (20760,0), 7 CTAs running
GPGPU-Sim uArch: core:  9, cta: 2 initialized @(20761,0)
GPGPU-Sim uArch: Shader 6 finished CTA #3 (20765,0), 7 CTAs running
GPGPU-Sim uArch: core:  6, cta: 3 initialized @(20766,0)
GPGPU-Sim uArch: Shader 14 finished CTA #0 (20784,0), 7 CTAs running
GPGPU-Sim uArch: core: 14, cta: 0 initialized @(20785,0)
GPGPU-Sim PTX: 2500000 instructions simulated : ctaid=(312,0,0) tid=(191,0,0)
GPGPU-Sim uArch: Shader 0 finished CTA #3 (20991,0), 7 CTAs running
GPGPU-Sim uArch: core:  0, cta: 3 initialized @(20992,0)
GPGPU-Sim uArch: Shader 9 finished CTA #3 (21019,0), 7 CTAs running
GPGPU-Sim uArch: core:  9, cta: 3 initialized @(21020,0)
GPGPU-Sim uArch: Shader 3 finished CTA #7 (21122,0), 7 CTAs running
GPGPU-Sim uArch: core:  3, cta: 7 initialized @(21123,0)
GPGPU-Sim uArch: Shader 0 finished CTA #4 (21269,0), 7 CTAs running
GPGPU-Sim uArch: core:  0, cta: 4 initialized @(21270,0)
GPGPU-Sim uArch: Shader 3 finished CTA #0 (21297,0), 7 CTAs running
GPGPU-Sim uArch: core:  3, cta: 0 initialized @(21298,0)
GPGPU-Sim uArch: Shader 1 finished CTA #3 (21313,0), 7 CTAs running
GPGPU-Sim uArch: core:  1, cta: 3 initialized @(21314,0)
GPGPU-Sim uArch: Shader 10 finished CTA #4 (21362,0), 7 CTAs running
GPGPU-Sim uArch: core: 10, cta: 4 initialized @(21363,0)
GPGPU-Sim uArch: Shader 4 finished CTA #4 (21398,0), 7 CTAs running
GPGPU-Sim uArch: core:  4, cta: 4 initialized @(21399,0)
GPGPU-Sim uArch: Shader 8 finished CTA #2 (21431,0), 7 CTAs running
GPGPU-Sim uArch: core:  8, cta: 2 initialized @(21432,0)
GPGPU-Sim uArch: Shader 7 finished CTA #3 (21443,0), 7 CTAs running
GPGPU-Sim uArch: core:  7, cta: 3 initialized @(21444,0)
GPGPU-Sim uArch: Shader 12 finished CTA #1 (21468,0), 7 CTAs running
GPGPU-Sim uArch: core: 12, cta: 1 initialized @(21469,0)
GPGPU-Sim uArch: Shader 11 finished CTA #4 (21478,0), 7 CTAs running
GPGPU-Sim uArch: core: 11, cta: 4 initialized @(21479,0)
GPGPU-Sim uArch: cycles simulated: 21500  inst.: 2563616 (ipc=119.2) sim_rate=94948 (inst/sec) elapsed = 0:0:00:27 / Tue Mar 22 12:44:36 2016
GPGPU-Sim uArch: Shader 6 finished CTA #4 (21729,0), 7 CTAs running
GPGPU-Sim uArch: core:  6, cta: 4 initialized @(21730,0)
GPGPU-Sim uArch: Shader 2 finished CTA #3 (21767,0), 7 CTAs running
GPGPU-Sim uArch: core:  2, cta: 3 initialized @(21768,0)
GPGPU-Sim uArch: Shader 9 finished CTA #4 (21776,0), 7 CTAs running
GPGPU-Sim uArch: core:  9, cta: 4 initialized @(21777,0)
GPGPU-Sim uArch: Shader 11 finished CTA #5 (21803,0), 7 CTAs running
GPGPU-Sim uArch: core: 11, cta: 5 initialized @(21804,0)
GPGPU-Sim uArch: Shader 0 finished CTA #5 (21821,0), 7 CTAs running
GPGPU-Sim uArch: core:  0, cta: 5 initialized @(21822,0)
GPGPU-Sim PTX: 2600000 instructions simulated : ctaid=(352,0,0) tid=(159,0,0)
GPGPU-Sim uArch: Shader 10 finished CTA #5 (22071,0), 7 CTAs running
GPGPU-Sim uArch: core: 10, cta: 5 initialized @(22072,0)
GPGPU-Sim uArch: Shader 7 finished CTA #4 (22222,0), 7 CTAs running
GPGPU-Sim uArch: core:  7, cta: 4 initialized @(22223,0)
GPGPU-Sim uArch: Shader 9 finished CTA #5 (22258,0), 7 CTAs running
GPGPU-Sim uArch: core:  9, cta: 5 initialized @(22259,0)
GPGPU-Sim uArch: Shader 8 finished CTA #3 (22343,0), 7 CTAs running
GPGPU-Sim uArch: core:  8, cta: 3 initialized @(22344,0)
GPGPU-Sim uArch: Shader 0 finished CTA #6 (22400,0), 7 CTAs running
[...]
traffic_breakdown_coretomem[CONST_ACC_R] = 720 {8:90,}
traffic_breakdown_coretomem[GLOBAL_ACC_R] = 10832880 {8:1354110,}
traffic_breakdown_coretomem[GLOBAL_ACC_W] = 17273088 {136:127008,}
traffic_breakdown_coretomem[INST_ACC_R] = 573200 {8:71650,}
traffic_breakdown_memtocore[CONST_ACC_R] = 6480 {72:90,}
traffic_breakdown_memtocore[GLOBAL_ACC_R] = 184158960 {136:1354110,}
traffic_breakdown_memtocore[GLOBAL_ACC_W] = 1016064 {8:127008,}
traffic_breakdown_memtocore[INST_ACC_R] = 9744400 {136:71650,}
maxmrqlatency = 813 
maxdqlatency = 0 
maxmflatency = 3037 
averagemflatency = 316 
max_icnt2mem_latency = 1865 
max_icnt2sh_latency = 2022827 
mrq_lat_table:151994 	7047 	7002 	25200 	85597 	58763 	51572 	39532 	14936 	449 	0 	0 	0 	0 	0 	0 	0 	0 	0 	0 	0 	0 	0 	0 	0 	0 	0 	0 	0 	0 	0 	0 	
dq_lat_table:0 	0 	0 	0 	0 	0 	0 	0 	0 	0 	0 	0 	0 	0 	0 	0 	0 	0 	0 	0 	0 	0 	0 	0 	0 	0 	0 	0 	0 	0 	0 	0 	
mf_lat_table:0 	0 	0 	0 	0 	0 	0 	742688 	613722 	67813 	56543 	442 	0 	0 	0 	0 	0 	0 	0 	0 	0 	0 	0 	0 	0 	0 	0 	0 	0 	0 	0 	0 	
icnt2mem_lat_table:0 	0 	0 	1145830 	129642 	76035 	75121 	62921 	40981 	21000 	1328 	0 	0 	0 	0 	0 	0 	0 	0 	0 	0 	0 	0 	0 	
icnt2sh_lat_table:0 	0 	0 	122231 	524417 	609399 	97622 	531 	0 	36 	318 	875 	1864 	3980 	7865 	16018 	31676 	31310 	6426 	9180 	17460 	0 	0 	0 	
mf_lat_pw_table:0 	0 	0 	0 	0 	0 	0 	1779 	1883 	40 	333 	0 	0 	0 	0 	0 	0 	0 	0 	0 	0 	0 	0 	0 	0 	0 	0 	0 	0 	0 	0 	0 	
maximum concurrent accesses to same row:
dram[0]:        18        16        18        16        16        16        20        24        20        32        20        20        16        20        20        16 
dram[1]:        20        16        20        16        16        16        20        16        20        24        20        20        16        18        16        18 
dram[2]:        22        16        16        20        20        16        20        20        24        24        20        24        20        16        24        18 
dram[3]:        18        16        20        20        20        16        20        18        24        16        20        24        20        16        20        16 
dram[4]:        16        16        20        18        20        20        16        20        24        20        30        26        16        16        24        16 
dram[5]:        16        18        20        16        16        16        16        20        24        24        22        20        18        16        16        16 
maximum service time to same row:
dram[0]:     66416     28788     70586     48434     54193     38165     60041     45097     50237     43544     82669     66883     38511     72196     50168     70411 
dram[1]:     36097     66807     56203     71877     42876     47068     42090     46440     42054     34712     30894     65213     28983     50683     45963     52210 
dram[2]:     26722     31644     52292     50916     53930     38224     34253     54531     36235     28875     43985     66377     34856     35515     26685     34897 
dram[3]:     39359     28752     78651     51943     47122     72349     39418     29443     28300     28271     40510     53802     38674     38301     49659     31380 
dram[4]:     36270     32207     51287     66599     70650     50194     42394     46886     29091     54488     64803     83094     27038     42813     38303     47422 
dram[5]:     35205     34371     51198     49888     73675     73783     63793     36510     28331     80422     83396     29212     45223     36753     30044     28790 
average row accesses per activate:
dram[0]:  2.716981  2.573771  2.603564  2.527165  2.554230  2.504026  2.779714  2.762259  2.697113  2.838244  2.803258  2.686941  2.728733  2.763190  2.679062  2.611634 
dram[1]:  2.634754  2.625911  2.595173  2.615169  2.536585  2.572607  2.716878  2.678657  2.718731  2.688419  2.636203  2.798624  2.665703  2.736623  2.663117  2.579924 
dram[2]:  2.639076  2.680961  2.594043  2.708693  2.555135  2.652841  2.838978  2.787555  2.768479  2.922215  2.721142  2.788450  2.661494  2.916828  2.615128  2.765410 
dram[3]:  2.645598  2.611416  2.614134  2.639482  2.577218  2.616156  2.801129  2.668040  2.700000  2.715815  2.677553  2.787616  2.794264  2.859137  2.697057  2.665174 
dram[4]:  2.691085  2.764392  2.693023  2.665521  2.603333  2.694994  2.701143  2.813131  2.693262  2.732121  2.691439  2.697675  2.681447  2.659782  2.685665  2.672758 
dram[5]:  2.688979  2.584202  2.599109  2.678141  2.525161  2.577090  2.664671  2.823271  2.775295  2.800617  2.704918  2.804008  2.851172  2.631013  2.656036  2.635504 
average row locality = 442092/164681 = 2.684536
number of total memory accesses made:
dram[0]:         0         0         0         0         0         0         0         0         0         0         0         0         0         0         0         0 
dram[1]:         0         0         0         0         0         0         0         0         0         0         0         0         0         0         0         0 
dram[2]:         0         0         0         0         0         0         0         0         0         0         0         0         0         0         0         0 
dram[3]:         0         0         0         0         0         0         0         0         0         0         0         0         0         0         0         0 
dram[4]:         0         0         0         0         0         0         0         0         0         0         0         0         0         0         0         0 
dram[5]:         0         0         0         0         0         0         0         0         0         0         0         0         0         0         0         0 
total accesses: 0
min_bank_accesses = 0!
min_chip_accesses = 0!
number of total read accesses:
dram[0]:      3264      3366      3332      3354      3394      3349      3185      3168      3265      3215      3162      3194      3257      3279      3339      3370 
dram[1]:      3417      3338      3387      3311      3468      3361      3209      3186      3231      3261      3159      3163      3279      3273      3407      3385 
dram[2]:      3343      3345      3359      3361      3411      3357      3161      3151      3220      3121      3167      3130      3301      3192      3358      3277 
dram[3]:      3344      3414      3317      3349      3390      3384      3183      3249      3251      3256      3197      3190      3152      3174      3330      3416 
dram[4]:      3395      3314      3288      3310      3370      3318      3210      3172      3245      3196      3215      3212      3266      3304      3321      3336 
dram[5]:      3316      3367      3324      3324      3401      3435      3168      3205      3159      3225      3143      3166      3172      3317      3320      3392 
total reads: 315084
bank skew: 3468/3121 = 1.11
chip skew: 52835/52254 = 1.01
number of total write accesses:
dram[0]:      1344      1344      1344      1344      1316      1316      1282      1282      1312      1312      1312      1312      1330      1330      1344      1344 
dram[1]:      1344      1344      1344      1344      1316      1316      1282      1282      1312      1312      1312      1312      1330      1330      1344      1344 
dram[2]:      1344      1344      1344      1344      1316      1312      1282      1284      1312      1312      1312      1312      1330      1332      1344      1344 
dram[3]:      1344      1344      1344      1344      1316      1312      1282      1284      1312      1312      1312      1312      1330      1332      1344      1344 
dram[4]:      1344      1344      1344      1344      1316      1312      1282      1284      1312      1312      1312      1312      1330      1332      1344      1344 
dram[5]:      1344      1344      1344      1344      1316      1312      1282      1284      1312      1312      1312      1312      1330      1332      1344      1344 
total reads: 127008
bank skew: 1344/1282 = 1.05
chip skew: 21168/21168 = 1.00
average mf latency per bank:
dram[0]:       1076      1140      1093      1144      1098      1177      1094      1148      1032      1157       911       947       956       988      1041      1072
dram[1]:       1057      1062      1101      1109      1088      1101      1080      1122      1078      1067       916       913       921       976      1042      1045
dram[2]:       1043      1084      1113      1151      1133      1175      1161      1164      1129      1132       931       955       951       984      1035      1046
dram[3]:       1038       996      1075      1089      1075      1097      1059      1083      1004      1064       901       869       937       920      1017       956
dram[4]:       1081      1097      1130      1126      1170      1053      1157      1051      1166      1042       949       891       972       930      1097      1023
dram[5]:       1178      1094      1174      1163      1163      1128      1182      1108      1221      1064      1015       905      1084       967      1145      1038
maximum mf latency per bank:
dram[0]:       2336      2305      2318      2261      2408      2246      2203      2460      1988      2171      2511      2237      2310      2064      2374      2239
dram[1]:       2334      1814      2105      2224      2327      2001      2024      2056      1959      2677      2338      2115      2008      2213      2351      2186
dram[2]:       2049      2476      2610      2555      2341      2498      2215      2296      2389      2242      2425      2816      2363      2590      2478      2408
dram[3]:       1907      2237      2528      2087      2159      2147      1975      2209      2080      1966      2115      2548      2309      2425      1928      2124
dram[4]:       2209      2251      2403      2326      2533      2455      2412      2063      2133      1972      2324      1993      2413      2128      2218      2468
dram[5]:       2039      2267      2579      2357      2581      3037      2203      2674      2131      2557      2343      2580      2259      2258      2360      2269

Number of Memory Banks Accessed per Memory Operation per Warp (from 0):
0	0	0	0	0	0	0	0	0	0	0	0	0	0	0	0	0	0	0	0	0	0	0	0	0	0	0	0	0	0	0	0	0	0	0	0	0	0	0	0	0	0	0	0	0	0	0	0	0	0	0	0	0	0	0	0	0	0	0	0	0	0	0	0	0	0	0	0	0	0	0	0	0	0	0	0	0	0	0	0	0	0	0	0	0	0	0	0	0	0	0	0	0	0	0	0	
Average # of Memory Banks Accessed per Memory Operation per Warp=-nan

position of mrq chosen
0	0	0	0	0	0	0	0	0	0	0	0	0	0	0	0	

average position of mrq chosen = -nan
Memory Partition 0: 
Cache L2_bank_000:
MSHR contents

Cache L2_bank_001:
MSHR contents

In Dram Latency Queue (total = 0): 
DRAM[0]: 16 bks, busW=4 BL=8 CL=12, tRRD=2 tCCD=6, tRCD=12 tRAS=28 tRP=12 tRC=40
n_cmd=2670128 n_nop=2467676 n_act=27573 n_pre=27557 n_req=73661 n_rd=104986 n_write=42336 bw_util=0.1103
n_activity=1074820 dram_eff=0.2741
bk0: 6528a 2564312i bk1: 6732a 2559503i bk2: 6664a 2555672i bk3: 6708a 2553715i bk4: 6788a 2554212i bk5: 6698a 2553920i bk6: 6370a 2566419i bk7: 6336a 2565840i bk8: 6530a 2566065i bk9: 6430a 2567938i bk10: 6324a 2564837i bk11: 6388a 2563325i bk12: 6514a 2562462i bk13: 6558a 2561571i bk14: 6678a 2562184i bk15: 6740a 2559664i 
dram_util_bins: 0 0 0 0 0 0 0 0 0 0
dram_eff_bins: 0 0 0 0 0 0 0 0 0 0
mrqq: max=16 avg=1.78327
Memory Partition 1: 
Cache L2_bank_002:
MSHR contents

Cache L2_bank_003:
MSHR contents

In Dram Latency Queue (total = 0): 
DRAM[1]: 16 bks, busW=4 BL=8 CL=12, tRRD=2 tCCD=6, tRCD=12 tRAS=28 tRP=12 tRC=40
n_cmd=2670128 n_nop=2466310 n_act=27914 n_pre=27898 n_req=74003 n_rd=105670 n_write=42336 bw_util=0.1109
n_activity=1086335 dram_eff=0.2725
bk0: 6834a 2560211i bk1: 6676a 2561828i bk2: 6774a 2554004i bk3: 6622a 2556817i bk4: 6936a 2552705i bk5: 6722a 2555246i bk6: 6418a 2565037i bk7: 6372a 2564285i bk8: 6462a 2566548i bk9: 6522a 2565388i bk10: 6318a 2563997i bk11: 6326a 2563883i bk12: 6558a 2560763i bk13: 6546a 2561238i bk14: 6814a 2560381i bk15: 6770a 2560844i 
dram_util_bins: 0 0 0 0 0 0 0 0 0 0
dram_eff_bins: 0 0 0 0 0 0 0 0 0 0
mrqq: max=16 avg=1.77738
Memory Partition 2: 
Cache L2_bank_004:
MSHR contents

Cache L2_bank_005:
MSHR contents

In Dram Latency Queue (total = 0): 
DRAM[2]: 16 bks, busW=4 BL=8 CL=12, tRRD=2 tCCD=6, tRCD=12 tRAS=28 tRP=12 tRC=40
n_cmd=2670128 n_nop=2469312 n_act=26994 n_pre=26978 n_req=73422 n_rd=104508 n_write=42336 bw_util=0.11
n_activity=1059156 dram_eff=0.2773
bk0: 6686a 2563150i bk1: 6690a 2562041i bk2: 6718a 2555958i bk3: 6722a 2555445i bk4: 6822a 2554785i bk5: 6714a 2555791i bk6: 6322a 2567015i bk7: 6302a 2567261i bk8: 6440a 2568152i bk9: 6242a 2569429i bk10: 6334a 2564076i bk11: 6260a 2564711i bk12: 6602a 2560357i bk13: 6384a 2563532i bk14: 6716a 2560959i bk15: 6554a 2562677i 
dram_util_bins: 0 0 0 0 0 0 0 0 0 0
dram_eff_bins: 0 0 0 0 0 0 0 0 0 0
mrqq: max=16 avg=1.7828
Memory Partition 3: 
Cache L2_bank_006:
MSHR contents

Cache L2_bank_007:
MSHR contents

In Dram Latency Queue (total = 0): 
DRAM[3]: 16 bks, busW=4 BL=8 CL=12, tRRD=2 tCCD=6, tRCD=12 tRAS=28 tRP=12 tRC=40
n_cmd=2670128 n_nop=2467738 n_act=27439 n_pre=27423 n_req=73764 n_rd=105192 n_write=42336 bw_util=0.1105
n_activity=1070766 dram_eff=0.2756
bk0: 6688a 2563026i bk1: 6828a 2558726i bk2: 6634a 2555767i bk3: 6698a 2554436i bk4: 6780a 2555983i bk5: 6768a 2555438i bk6: 6366a 2565097i bk7: 6498a 2563653i bk8: 6502a 2566508i bk9: 6512a 2565298i bk10: 6394a 2562900i bk11: 6380a 2563393i bk12: 6304a 2564757i bk13: 6348a 2563665i bk14: 6660a 2562512i bk15: 6832a 2558480i 
dram_util_bins: 0 0 0 0 0 0 0 0 0 0
dram_eff_bins: 0 0 0 0 0 0 0 0 0 0
mrqq: max=16 avg=1.79608
Memory Partition 4: 
Cache L2_bank_008:
MSHR contents

Cache L2_bank_009:
MSHR contents
MSHR: tag=0x8179f680, atomic=0 1 entries : 0x7f0a59bd6e60 :  mf: uid=14100185, sid10:w05, part=4, addr=0x8179f680, load , size=128, unknown  status = IN_PARTITION_DRAM (2022825), 

In Dram Latency Queue (total = 0): 
DRAM[4]: 16 bks, busW=4 BL=8 CL=12, tRRD=2 tCCD=6, tRCD=12 tRAS=28 tRP=12 tRC=40
n_cmd=2670128 n_nop=2468218 n_act=27323 n_pre=27307 n_req=73640 n_rd=104944 n_write=42336 bw_util=0.1103
n_activity=1075580 dram_eff=0.2739
bk0: 6790a 2561722i bk1: 6628a 2564039i bk2: 6576a 2559009i bk3: 6620a 2557555i bk4: 6740a 2556906i bk5: 6636a 2557438i bk6: 6420a 2564927i bk7: 6344a 2567467i bk8: 6490a 2566764i bk9: 6392a 2567427i bk10: 6430a 2562000i bk11: 6424a 2562808i bk12: 6532a 2561539i bk13: 6608a 2559771i bk14: 6642a 2562666i bk15: 6672a 2561894i 
dram_util_bins: 0 0 0 0 0 0 0 0 0 0
dram_eff_bins: 0 0 0 0 0 0 0 0 0 0
mrqq: max=16 avg=1.78744
Memory Partition 5: 
Cache L2_bank_010:
MSHR contents

Cache L2_bank_011:
MSHR contents

In Dram Latency Queue (total = 0): 
DRAM[5]: 16 bks, busW=4 BL=8 CL=12, tRRD=2 tCCD=6, tRCD=12 tRAS=28 tRP=12 tRC=40
n_cmd=2670128 n_nop=2468062 n_act=27439 n_pre=27423 n_req=73602 n_rd=104868 n_write=42336 bw_util=0.1103
n_activity=1064630 dram_eff=0.2765
bk0: 6632a 2562779i bk1: 6734a 2559938i bk2: 6648a 2556407i bk3: 6648a 2556636i bk4: 6802a 2554372i bk5: 6870a 2553477i bk6: 6336a 2565091i bk7: 6410a 2563557i bk8: 6318a 2568792i bk9: 6450a 2566054i bk10: 6286a 2565499i bk11: 6332a 2564047i bk12: 6344a 2563516i bk13: 6634a 2559017i bk14: 6640a 2562242i bk15: 6784a 2560288i 
dram_util_bins: 0 0 0 0 0 0 0 0 0 0
dram_eff_bins: 0 0 0 0 0 0 0 0 0 0
mrqq: max=16 avg=1.77598

========= L2 cache stats =========
L2_cache_bank[0]: Access = 129254, Miss = 26198, Miss_rate = 0.203, Pending_hits = 87, Reservation_fails = 774
L2_cache_bank[1]: Access = 128995, Miss = 26295, Miss_rate = 0.204, Pending_hits = 99, Reservation_fails = 240
L2_cache_bank[2]: Access = 126416, Miss = 26557, Miss_rate = 0.210, Pending_hits = 136, Reservation_fails = 690
L2_cache_bank[3]: Access = 130072, Miss = 26278, Miss_rate = 0.202, Pending_hits = 97, Reservation_fails = 434
L2_cache_bank[4]: Access = 126896, Miss = 26320, Miss_rate = 0.207, Pending_hits = 86, Reservation_fails = 696
L2_cache_bank[5]: Access = 130870, Miss = 25934, Miss_rate = 0.198, Pending_hits = 72, Reservation_fails = 772
L2_cache_bank[6]: Access = 130112, Miss = 26164, Miss_rate = 0.201, Pending_hits = 94, Reservation_fails = 1082
L2_cache_bank[7]: Access = 128476, Miss = 26432, Miss_rate = 0.206, Pending_hits = 91, Reservation_fails = 498
L2_cache_bank[8]: Access = 133112, Miss = 26310, Miss_rate = 0.198, Pending_hits = 139, Reservation_fails = 1059
L2_cache_bank[9]: Access = 126636, Miss = 26162, Miss_rate = 0.207, Pending_hits = 99, Reservation_fails = 463
L2_cache_bank[10]: Access = 131958, Miss = 26003, Miss_rate = 0.197, Pending_hits = 62, Reservation_fails = 348
L2_cache_bank[11]: Access = 130061, Miss = 26431, Miss_rate = 0.203, Pending_hits = 78, Reservation_fails = 662
L2_total_cache_accesses = 1552858
L2_total_cache_misses = 315084
L2_total_cache_miss_rate = 0.2029
L2_total_cache_pending_hits = 1140
L2_total_cache_reservation_fails = 7718
L2_total_cache_breakdown:
	L2_cache_stats_breakdown[GLOBAL_ACC_R][HIT] = 1165193
	L2_cache_stats_breakdown[GLOBAL_ACC_R][HIT_RESERVED] = 947
	L2_cache_stats_breakdown[GLOBAL_ACC_R][MISS] = 187970
	L2_cache_stats_breakdown[GLOBAL_ACC_R][RESERVATION_FAIL] = 362
	L2_cache_stats_breakdown[CONST_ACC_R][HIT] = 62
	L2_cache_stats_breakdown[CONST_ACC_R][HIT_RESERVED] = 18
	L2_cache_stats_breakdown[CONST_ACC_R][MISS] = 10
	L2_cache_stats_breakdown[CONST_ACC_R][RESERVATION_FAIL] = 622
	L2_cache_stats_breakdown[GLOBAL_ACC_W][MISS] = 127008
	L2_cache_stats_breakdown[GLOBAL_ACC_W][RESERVATION_FAIL] = 1036
	L2_cache_stats_breakdown[INST_ACC_R][HIT] = 71379
	L2_cache_stats_breakdown[INST_ACC_R][HIT_RESERVED] = 175
	L2_cache_stats_breakdown[INST_ACC_R][MISS] = 96
	L2_cache_stats_breakdown[INST_ACC_R][RESERVATION_FAIL] = 5698
L2_cache_data_port_util = 0.204
L2_cache_fill_port_util = 0.052

icnt_total_pkts_mem_to_simt=7256078
icnt_total_pkts_simt_to_mem=2060890
LD_mem_lat_dist  0 0 0 0 0 0 0 0 0 0 0 0 0 0 0 0 0 0 0 0 0 0 0 0 0 0 0
ST_mem_lat_dist  0 0 0 0 0 0 0 0 0 0 0 0 0 0 0 0 0 0 0 0 0 0 0 0 0 0 0
----------------------------Interconnect-DETAILS--------------------------------
Class 0:
Packet latency average = 22.9721
	minimum = 6
	maximum = 485
Network latency average = 18.0476
	minimum = 6
	maximum = 480
Slowest packet = 2908160
Flit latency average = 17.5741
	minimum = 6
	maximum = 476
Slowest flit = 8723834
Fragmentation average = 0.00673855
	minimum = 0
	maximum = 462
Injected packet rate average = 0.0619749
	minimum = 0.0549892 (at node 2)
	maximum = 0.0719132 (at node 23)
Accepted packet rate average = 0.0619749
	minimum = 0.0549892 (at node 2)
	maximum = 0.0719132 (at node 23)
Injected flit rate average = 0.185922
	minimum = 0.0597275 (at node 2)
	maximum = 0.353625 (at node 23)
Accepted flit rate average= 0.185922
	minimum = 0.073881 (at node 17)
	maximum = 0.279093 (at node 11)
Injected packet length average = 2.99996
Accepted packet length average = 2.99996
Total in-flight flits = 0 (0 measured)
====== Overall Traffic Statistics ======
====== Traffic class 0 ======
Packet latency average = 39.4336 (5 samples)
	minimum = 6 (5 samples)
	maximum = 689.8 (5 samples)
Network latency average = 29.8296 (5 samples)
	minimum = 6 (5 samples)
	maximum = 640 (5 samples)
Flit latency average = 35.0563 (5 samples)
	minimum = 6 (5 samples)
	maximum = 636.8 (5 samples)
Fragmentation average = 2.01055 (5 samples)
	minimum = 0 (5 samples)
	maximum = 427.4 (5 samples)
Injected packet rate average = 0.0383533 (5 samples)
	minimum = 0.0328609 (5 samples)
	maximum = 0.0437445 (5 samples)
Accepted packet rate average = 0.0383533 (5 samples)
	minimum = 0.0328609 (5 samples)
	maximum = 0.0437445 (5 samples)
Injected flit rate average = 0.115052 (5 samples)
	minimum = 0.0424298 (5 samples)
	maximum = 0.196254 (5 samples)
Accepted flit rate average = 0.115052 (5 samples)
	minimum = 0.0406611 (5 samples)
	maximum = 0.194598 (5 samples)
Injected packet size average = 2.9998 (5 samples)
Accepted packet size average = 2.9998 (5 samples)
Hops average = 1 (5 samples)
