

        *** GPGPU-Sim Simulator Version 3.2.2  [build 0] ***


GPGPU-Sim PTX: simulation mode 0 (can change with PTX_SIM_MODE_FUNC environment variable:
               1=functional simulation only, 0=detailed performance simulator)
GPGPU-Sim: Configuration options:

-network_mode                           1 # Interconnection network mode
-inter_config_file   config_fermi_islip.icnt # Interconnection network config file
-gpgpu_ptx_use_cuobjdump                    1 # Use cuobjdump to extract ptx and sass from binaries
-gpgpu_experimental_lib_support                    0 # Try to extract code from cuda libraries [Broken because of unknown cudaGetExportTable]
-gpgpu_ptx_convert_to_ptxplus                    0 # Convert SASS (native ISA) to ptxplus and run ptxplus
-gpgpu_ptx_force_max_capability                   20 # Force maximum compute capability
-gpgpu_ptx_inst_debug_to_file                    0 # Dump executed instructions' debug information to file
-gpgpu_ptx_inst_debug_file       inst_debug.txt # Executed instructions' debug output file
-gpgpu_ptx_inst_debug_thread_uid                    1 # Thread UID for executed instructions' debug output
-gpgpu_simd_model                       1 # 1 = post-dominator
-gpgpu_shader_core_pipeline              1536:32 # shader core pipeline config, i.e., {<nthread>:<warpsize>}
-gpgpu_tex_cache:l1  4:128:24,L:R:m:N:L,F:128:4,128:2 # per-shader L1 texture cache  (READ-ONLY) config  {<nsets>:<bsize>:<assoc>,<rep>:<wr>:<alloc>:<wr_alloc>,<mshr>:<N>:<merge>,<mq>:<rf>}
-gpgpu_const_cache:l1 64:64:2,L:R:f:N:L,A:2:32,4 # per-shader L1 constant memory cache  (READ-ONLY) config  {<nsets>:<bsize>:<assoc>,<rep>:<wr>:<alloc>:<wr_alloc>,<mshr>:<N>:<merge>,<mq>} 
-gpgpu_cache:il1     4:128:4,L:R:f:N:L,A:2:32,4 # shader L1 instruction cache config  {<nsets>:<bsize>:<assoc>,<rep>:<wr>:<alloc>:<wr_alloc>,<mshr>:<N>:<merge>,<mq>} 
-gpgpu_cache:dl1     32:128:4,L:L:m:N:H,A:32:8,8:2,0,1:0:1:1:0:1,1:4:8:16:32:64,/sciclone/data10/hwang07/GPU_RESEARCH/swl/swl_outputs/RESULTS/twolevel601/ # per-shader L1 data cache config  {<nsets>:<bsize>:<assoc>,<rep>:<wr>:<alloc>:<wr_alloc>,<mshr>:<N>:<merge>,<mq> | none}
-gpgpu_cache:dl1PrefL1                 none # per-shader L1 data cache config  {<nsets>:<bsize>:<assoc>,<rep>:<wr>:<alloc>:<wr_alloc>,<mshr>:<N>:<merge>,<mq> | none}
-gpgpu_cache:dl1PreShared                 none # per-shader L1 data cache config  {<nsets>:<bsize>:<assoc>,<rep>:<wr>:<alloc>:<wr_alloc>,<mshr>:<N>:<merge>,<mq> | none}
-gmem_skip_L1D                          0 # global memory access skip L1D cache (implements -Xptxas -dlcm=cg, default=no skip)
-gpgpu_perfect_mem                      0 # enable perfect memory mode (no cache miss)
-n_regfile_gating_group                    4 # group of lanes that should be read/written together)
-gpgpu_clock_gated_reg_file                    0 # enable clock gated reg file for power calculations
-gpgpu_clock_gated_lanes                    0 # enable clock gated lanes for power calculations
-gpgpu_shader_registers                32768 # Number of registers per shader core. Limits number of concurrent CTAs. (default 8192)
-gpgpu_shader_cta                       8 # Maximum number of concurrent CTAs in shader (default 8)
-gpgpu_num_cta_barriers                   16 # Maximum number of named barriers per CTA (default 16)
-gpgpu_n_clusters                      15 # number of processing clusters
-gpgpu_n_cores_per_cluster                    1 # number of simd cores per cluster
-gpgpu_n_cluster_ejection_buffer_size                    8 # number of packets in ejection buffer
-gpgpu_n_ldst_response_buffer_size                    2 # number of response packets in ld/st unit ejection buffer
-gpgpu_shmem_size                   16384 # Size of shared memory per shader core (default 16kB)
-gpgpu_shmem_size                   49152 # Size of shared memory per shader core (default 16kB)
-gpgpu_shmem_size_PrefL1                16384 # Size of shared memory per shader core (default 16kB)
-gpgpu_shmem_size_PrefShared                16384 # Size of shared memory per shader core (default 16kB)
-gpgpu_shmem_num_banks                   32 # Number of banks in the shared memory in each shader core (default 16)
-gpgpu_shmem_limited_broadcast                    0 # Limit shared memory to do one broadcast per cycle (default on)
-gpgpu_shmem_warp_parts                    1 # Number of portions a warp is divided into for shared memory bank conflict check 
-gpgpu_warpdistro_shader                   -1 # Specify which shader core to collect the warp size distribution from
-gpgpu_warp_issue_shader                    0 # Specify which shader core to collect the warp issue distribution from
-gpgpu_local_mem_map                    1 # Mapping from local memory space address to simulated GPU physical address space (default = enabled)
-gpgpu_num_reg_banks                   16 # Number of register banks (default = 8)
-gpgpu_reg_bank_use_warp_id                    0 # Use warp ID in mapping registers to banks (default = off)
-gpgpu_operand_collector_num_units_sp                    6 # number of collector units (default = 4)
-gpgpu_operand_collector_num_units_sfu                    8 # number of collector units (default = 4)
-gpgpu_operand_collector_num_units_mem                    2 # number of collector units (default = 2)
-gpgpu_operand_collector_num_units_gen                    0 # number of collector units (default = 0)
-gpgpu_operand_collector_num_in_ports_sp                    2 # number of collector unit in ports (default = 1)
-gpgpu_operand_collector_num_in_ports_sfu                    1 # number of collector unit in ports (default = 1)
-gpgpu_operand_collector_num_in_ports_mem                    1 # number of collector unit in ports (default = 1)
-gpgpu_operand_collector_num_in_ports_gen                    0 # number of collector unit in ports (default = 0)
-gpgpu_operand_collector_num_out_ports_sp                    2 # number of collector unit in ports (default = 1)
-gpgpu_operand_collector_num_out_ports_sfu                    1 # number of collector unit in ports (default = 1)
-gpgpu_operand_collector_num_out_ports_mem                    1 # number of collector unit in ports (default = 1)
-gpgpu_operand_collector_num_out_ports_gen                    0 # number of collector unit in ports (default = 0)
-gpgpu_coalesce_arch                   13 # Coalescing arch (default = 13, anything else is off for now)
-gpgpu_num_sched_per_core                    2 # Number of warp schedulers per core
-gpgpu_max_insn_issue_per_warp                    1 # Max number of instructions that can be issued per warp in one cycle by scheduler
-gpgpu_simt_core_sim_order                    1 # Select the simulation order of cores in a cluster (0=Fix, 1=Round-Robin)
-gpgpu_pipeline_widths        2,1,1,2,1,1,2 # Pipeline widths ID_OC_SP,ID_OC_SFU,ID_OC_MEM,OC_EX_SP,OC_EX_SFU,OC_EX_MEM,EX_WB
-gpgpu_num_sp_units                     2 # Number of SP units (default=1)
-gpgpu_num_sfu_units                    1 # Number of SF units (default=1)
-gpgpu_num_mem_units                    1 # Number if ldst units (default=1) WARNING: not hooked up to anything
-gpgpu_scheduler     two_level_active:6:0:1 # Scheduler configuration: < lrr | gto | two_level_active > If two_level_active:<num_active_warps>:<inner_prioritization>:<outer_prioritization>For complete list of prioritization values see shader.h enum scheduler_prioritization_typeDefault: gto
-gpgpu_dram_scheduler                    1 # 0 = fifo, 1 = FR-FCFS (defaul)
-gpgpu_dram_partition_queues              8:8:8:8 # i2$:$2d:d2$:$2i
-l2_ideal                               0 # Use a ideal L2 cache that always hit
-gpgpu_cache:dl2     64:128:8,L:B:m:W:L,A:32:4,4:0,32 # unified banked L2 data cache config  {<nsets>:<bsize>:<assoc>,<rep>:<wr>:<alloc>:<wr_alloc>,<mshr>:<N>:<merge>,<mq>}
-gpgpu_cache:dl2_texture_only                    0 # L2 cache used for texture only
-gpgpu_n_mem                            6 # number of memory modules (e.g. memory controllers) in gpu
-gpgpu_n_sub_partition_per_mchannel                    2 # number of memory subpartition in each memory module
-gpgpu_n_mem_per_ctrlr                    2 # number of memory chips per memory controller
-gpgpu_memlatency_stat                   14 # track and display latency statistics 0x2 enables MC, 0x4 enables queue logs
-gpgpu_frfcfs_dram_sched_queue_size                   16 # 0 = unlimited (default); # entries per chip
-gpgpu_dram_return_queue_size                  116 # 0 = unlimited (default); # entries per chip
-gpgpu_dram_buswidth                    4 # default = 4 bytes (8 bytes per cycle at DDR)
-gpgpu_dram_burst_length                    8 # Burst length of each DRAM request (default = 4 data bus cycle)
-dram_data_command_freq_ratio                    4 # Frequency ratio between DRAM data bus and command bus (default = 2 times, i.e. DDR)
-gpgpu_dram_timing_opt nbk=16:CCD=2:RRD=6:RCD=12:RAS=28:RP=12:RC=40: CL=12:WL=4:CDLR=5:WR=12:nbkgrp=4:CCDL=3:RTPL=2 # DRAM timing parameters = {nbk:tCCD:tRRD:tRCD:tRAS:tRP:tRC:CL:WL:tCDLR:tWR:nbkgrp:tCCDL:tRTPL}
-rop_latency                          120 # ROP queue latency (default 85)
-dram_latency                         100 # DRAM latency (default 30)
-gpgpu_mem_addr_mapping dramid@8;00000000.00000000.00000000.00000000.0000RRRR.RRRRRRRR.BBBCCCCB.CCSSSSSS # mapping memory address to dram model {dramid@<start bit>;<memory address map>}
-gpgpu_mem_addr_test                    0 # run sweep test to check address mapping for aliased address
-gpgpu_mem_address_mask                    1 # 0 = old addressing mask, 1 = new addressing mask, 2 = new add. mask + flipped bank sel and chip sel bits
-gpuwattch_xml_file  gpuwattch_gtx480.xml # GPUWattch XML file
-power_simulation_enabled                    0 # Turn on power simulator (1=On, 0=Off)
-power_per_cycle_dump                    0 # Dump detailed power output each cycle
-power_trace_enabled                    0 # produce a file for the power trace (1=On, 0=Off)
-power_trace_zlevel                     6 # Compression level of the power trace output log (0=no comp, 9=highest)
-steady_power_levels_enabled                    0 # produce a file for the steady power levels (1=On, 0=Off)
-steady_state_definition                  8:4 # allowed deviation:number of samples
-gpgpu_max_cycle                        0 # terminates gpu simulation early (0 = no limit)
-gpgpu_max_insn                         0 # terminates gpu simulation early (0 = no limit)
-gpgpu_max_cta                          0 # terminates gpu simulation early (0 = no limit)
-gpgpu_runtime_stat                   500 # display runtime statistics such as dram utilization {<freq>:<flag>}
-liveness_message_freq                    1 # Minimum number of seconds between simulation liveness messages (0 = always print)
-gpgpu_flush_l1_cache                    0 # Flush L1 cache at the end of each kernel call
-gpgpu_flush_l2_cache                    0 # Flush L2 cache at the end of each kernel call
-gpgpu_deadlock_detect                    1 # Stop the simulation at deadlock (1=on (default), 0=off)
-gpgpu_ptx_instruction_classification                    0 # if enabled will classify ptx instruction types per kernel (Max 255 kernels now)
-gpgpu_ptx_sim_mode                     0 # Select between Performance (default) or Functional simulation (1)
-gpgpu_clock_domains 700.0:700.0:700.0:924.0 # Clock Domain Frequencies in MhZ {<Core Clock>:<ICNT Clock>:<L2 Clock>:<DRAM Clock>}
-gpgpu_max_concurrent_kernel                    8 # maximum kernels that can run concurrently on GPU
-gpgpu_cflog_interval                    0 # Interval between each snapshot in control flow logger
-visualizer_enabled                     0 # Turn on visualizer output (1=On, 0=Off)
-visualizer_outputfile                 NULL # Specifies the output log file for visualizer
-visualizer_zlevel                      6 # Compression level of the visualizer output log (0=no comp, 9=highest)
-trace_enabled                          0 # Turn on traces
-trace_components                    none # comma seperated list of traces to enable. Complete list found in trace_streams.tup. Default none
-trace_sampling_core                    0 # The core which is printed using CORE_DPRINTF. Default 0
-trace_sampling_memory_partition                   -1 # The memory partition which is printed using MEMPART_DPRINTF. Default -1 (i.e. all)
-enable_ptx_file_line_stats                    1 # Turn on PTX source line statistic profiling. (1 = On)
-ptx_line_stats_filename gpgpu_inst_stats.txt # Output file for PTX source line statistics.
-save_embedded_ptx                      0 # saves ptx files embedded in binary as <n>.ptx
-keep                                   0 # keep intermediate files created by GPGPU-Sim when interfacing with external programs
-gpgpu_ptx_save_converted_ptxplus                    0 # Saved converted ptxplus to a file
-ptx_opcode_latency_int         4,13,4,5,145 # Opcode latencies for integers <ADD,MAX,MUL,MAD,DIV>Default 1,1,19,25,145
-ptx_opcode_latency_fp          4,13,4,5,39 # Opcode latencies for single precision floating points <ADD,MAX,MUL,MAD,DIV>Default 1,1,1,1,30
-ptx_opcode_latency_dp         8,19,8,8,330 # Opcode latencies for double precision floating points <ADD,MAX,MUL,MAD,DIV>Default 8,8,8,8,335
-ptx_opcode_initiation_int            1,2,2,1,8 # Opcode initiation intervals for integers <ADD,MAX,MUL,MAD,DIV>Default 1,1,4,4,32
-ptx_opcode_initiation_fp            1,2,1,1,4 # Opcode initiation intervals for single precision floating points <ADD,MAX,MUL,MAD,DIV>Default 1,1,1,1,5
-ptx_opcode_initiation_dp         8,16,8,8,130 # Opcode initiation intervals for double precision floating points <ADD,MAX,MUL,MAD,DIV>Default 8,8,8,8,130
DRAM Timing Options:
nbk                                    16 # number of banks
CCD                                     2 # column to column delay
RRD                                     6 # minimal delay between activation of rows in different banks
RCD                                    12 # row to column delay
RAS                                    28 # time needed to activate row
RP                                     12 # time needed to precharge (deactivate) row
RC                                     40 # row cycle time
CDLR                                    5 # switching from write to read (changes tWTR)
WR                                     12 # last data-in to row precharge
CL                                     12 # CAS latency
WL                                      4 # Write latency
nbkgrp                                  4 # number of bank groups
CCDL                                    3 # column to column delay between accesses to different bank groups
RTPL                                    2 # read to precharge delay between accesses to different bank groups
Total number of memory sub partition = 12
addr_dec_mask[CHIP]  = 0000000000000000 	high:64 low:0
addr_dec_mask[BK]    = 000000000000e100 	high:16 low:8
addr_dec_mask[ROW]   = 000000000fff0000 	high:28 low:16
addr_dec_mask[COL]   = 0000000000001eff 	high:13 low:0
addr_dec_mask[BURST] = 000000000000003f 	high:6 low:0
sub_partition_id_mask = 0000000000000100
GPGPU-Sim uArch: clock freqs: 700000000.000000:700000000.000000:700000000.000000:924000000.000000
GPGPU-Sim uArch: clock periods: 0.00000000142857142857:0.00000000142857142857:0.00000000142857142857:0.00000000108225108225
*** Initializing Memory Statistics ***
GPGPU-Sim uArch: interconnect node map (shaderID+MemID to icntID)
GPGPU-Sim uArch: Memory nodes ID start from index: 15
GPGPU-Sim uArch:    0   1   2   3   4
GPGPU-Sim uArch:    5   6   7   8   9
GPGPU-Sim uArch:   10  11  12  13  14
GPGPU-Sim uArch:   15  16  17  18  19
GPGPU-Sim uArch:   20  21  22  23  24
GPGPU-Sim uArch:   25  26
GPGPU-Sim uArch: interconnect node reverse map (icntID to shaderID+MemID)
GPGPU-Sim uArch: Memory nodes start from ID: 15
GPGPU-Sim uArch:    0   1   2   3   4
GPGPU-Sim uArch:    5   6   7   8   9
GPGPU-Sim uArch:   10  11  12  13  14
GPGPU-Sim uArch:   15  16  17  18  19
GPGPU-Sim uArch:   20  21  22  23  24
GPGPU-Sim uArch:   25  26
916227844eacf47b27f90dc95594571e  /sciclone/data10/hwang07/adwait/applications/benchmarks/CUDA/kmeans/gpgpu_ptx_sim__kmeans
GPGPU-Sim uArch: performance model initialization complete.
GPGPU-Sim PTX: __cudaRegisterFatBinary, fat_cubin_handle = 1, filename=kmeans_cuda.cu
self exe links to: /sciclone/data10/hwang07/adwait/applications/benchmarks/CUDA/kmeans/gpgpu_ptx_sim__kmeans
Running md5sum using "md5sum /sciclone/data10/hwang07/adwait/applications/benchmarks/CUDA/kmeans/gpgpu_ptx_sim__kmeans "
Parsing file _cuobjdump_complete_output_dyCppF
######### cuobjdump parser ########
## Adding new section ELF
Adding arch: sm_20
Adding identifier: kmeans_cuda.cu
## Adding new section PTX
Adding ptx filename: _cuobjdump_1.ptx
Adding arch: sm_20
Adding identifier: kmeans_cuda.cu
Done parsing!!!
GPGPU-Sim PTX: __cudaRegisterFunction _Z11kmeansPointPfiiiPiS_S_S0_ : hostFun 0x0x402e47, fat_cubin_handle = 1
GPGPU-Sim PTX: instruction assembly for function '_Z14invert_mappingPfS_ii'...   done.
GPGPU-Sim PTX: finding reconvergence points for '_Z14invert_mappingPfS_ii'...
GPGPU-Sim PTX: Finding dominators for '_Z14invert_mappingPfS_ii'...
GPGPU-Sim PTX: Finding immediate dominators for '_Z14invert_mappingPfS_ii'...
GPGPU-Sim PTX: Finding postdominators for '_Z14invert_mappingPfS_ii'...
GPGPU-Sim PTX: Finding immediate postdominators for '_Z14invert_mappingPfS_ii'...
GPGPU-Sim PTX: pre-decoding instructions for '_Z14invert_mappingPfS_ii'...
GPGPU-Sim PTX: reconvergence points for _Z14invert_mappingPfS_ii...
GPGPU-Sim PTX:  1 (potential) branch divergence @  PC=0x038 (_1.ptx:70) @%p1 bra $Lt_0_2050;
GPGPU-Sim PTX:    immediate post dominator      @  PC=0x110 (_1.ptx:103) exit;
GPGPU-Sim PTX:  2 (potential) branch divergence @  PC=0x058 (_1.ptx:74) @%p2 bra $Lt_0_2562;
GPGPU-Sim PTX:    immediate post dominator      @  PC=0x110 (_1.ptx:103) exit;
GPGPU-Sim PTX:  3 (potential) branch divergence @  PC=0x108 (_1.ptx:99) @%p3 bra $Lt_0_3074;
GPGPU-Sim PTX:    immediate post dominator      @  PC=0x110 (_1.ptx:103) exit;
GPGPU-Sim PTX: ... end of reconvergence points for _Z14invert_mappingPfS_ii
GPGPU-Sim PTX: ... done pre-decoding instructions for '_Z14invert_mappingPfS_ii'.
GPGPU-Sim PTX: allocating global region for "t_features" from 0x100 to 0x104 (global memory space)
GPGPU-Sim PTX: allocating constant region for "c_clusters" from 0x180 to 0x1280 (global memory space) 1
GPGPU-Sim PTX: instruction assembly for function '_Z11kmeansPointPfiiiPiS_S_S0_'...   done.
GPGPU-Sim PTX: finding reconvergence points for '_Z11kmeansPointPfiiiPiS_S_S0_'...
GPGPU-Sim PTX: Finding dominators for '_Z11kmeansPointPfiiiPiS_S_S0_'...
GPGPU-Sim PTX: Finding immediate dominators for '_Z11kmeansPointPfiiiPiS_S_S0_'...
GPGPU-Sim PTX: Finding postdominators for '_Z11kmeansPointPfiiiPiS_S_S0_'...
GPGPU-Sim PTX: Finding immediate postdominators for '_Z11kmeansPointPfiiiPiS_S_S0_'...
GPGPU-Sim PTX: pre-decoding instructions for '_Z11kmeansPointPfiiiPiS_S_S0_'...
GPGPU-Sim PTX: reconvergence points for _Z11kmeansPointPfiiiPiS_S_S0_...
GPGPU-Sim PTX:  1 (potential) branch divergence @  PC=0x180 (_1.ptx:138) @!%p1 bra $Lt_1_4866;
GPGPU-Sim PTX:    immediate post dominator      @  PC=0x338 (_1.ptx:207) @!%p1 bra $Lt_1_7682;
GPGPU-Sim PTX:  2 (potential) branch divergence @  PC=0x1a0 (_1.ptx:142) @%p2 bra $Lt_1_8194;
GPGPU-Sim PTX:    immediate post dominator      @  PC=0x338 (_1.ptx:207) @!%p1 bra $Lt_1_7682;
GPGPU-Sim PTX:  3 (potential) branch divergence @  PC=0x1f0 (_1.ptx:154) @!%p3 bra $Lt_1_8450;
GPGPU-Sim PTX:    immediate post dominator      @  PC=0x2e0 (_1.ptx:190) setp.lt.f32 %p5, %f2, %f1;
GPGPU-Sim PTX:  4 (potential) branch divergence @  PC=0x2c8 (_1.ptx:185) @%p4 bra $Lt_1_6402;
GPGPU-Sim PTX:    immediate post dominator      @  PC=0x2d0 (_1.ptx:186) bra.uni $Lt_1_5890;
GPGPU-Sim PTX:  5 (potential) branch divergence @  PC=0x2d0 (_1.ptx:186) bra.uni $Lt_1_5890;
GPGPU-Sim PTX:    immediate post dominator      @  PC=0x2e0 (_1.ptx:190) setp.lt.f32 %p5, %f2, %f1;
GPGPU-Sim PTX:  6 (potential) branch divergence @  PC=0x2e8 (_1.ptx:191) @!%p5 bra $Lt_1_6914;
GPGPU-Sim PTX:    immediate post dominator      @  PC=0x300 (_1.ptx:197) add.s32 %r18, %r18, 1;
GPGPU-Sim PTX:  7 (potential) branch divergence @  PC=0x310 (_1.ptx:199) @%p6 bra $Lt_1_5634;
GPGPU-Sim PTX:    immediate post dominator      @  PC=0x318 (_1.ptx:200) bra.uni $Lt_1_4610;
GPGPU-Sim PTX:  8 (potential) branch divergence @  PC=0x318 (_1.ptx:200) bra.uni $Lt_1_4610;
GPGPU-Sim PTX:    immediate post dominator      @  PC=0x338 (_1.ptx:207) @!%p1 bra $Lt_1_7682;
GPGPU-Sim PTX:  9 (potential) branch divergence @  PC=0x328 (_1.ptx:203) bra.uni $Lt_1_4610;
GPGPU-Sim PTX:    immediate post dominator      @  PC=0x338 (_1.ptx:207) @!%p1 bra $Lt_1_7682;
GPGPU-Sim PTX: 10 (potential) branch divergence @  PC=0x338 (_1.ptx:207) @!%p1 bra $Lt_1_7682;
GPGPU-Sim PTX:    immediate post dominator      @  PC=0x368 (_1.ptx:216) exit;
GPGPU-Sim PTX: ... end of reconvergence points for _Z11kmeansPointPfiiiPiS_S_S0_
GPGPU-Sim PTX: ... done pre-decoding instructions for '_Z11kmeansPointPfiiiPiS_S_S0_'.
GPGPU-Sim PTX: allocating global region for "t_features_flipped" from 0x1280 to 0x1284 (global memory space)
GPGPU-Sim PTX: allocating global region for "t_clusters" from 0x1284 to 0x1288 (global memory space)
GPGPU-Sim PTX: finished parsing EMBEDDED .ptx file _1.ptx
Adding _cuobjdump_1.ptx with cubin handle 1
GPGPU-Sim PTX: extracting embedded .ptx to temporary file "_ptx_WuWPBa"
Running: cat _ptx_WuWPBa | sed 's/.version 1.5/.version 1.4/' | sed 's/, texmode_independent//' | sed 's/\(\.extern \.const\[1\] .b8 \w\+\)\[\]/\1\[1\]/' | sed 's/const\[.\]/const\[0\]/g' > _ptx2_3Mfs6H
GPGPU-Sim PTX: generating ptxinfo using "$CUDA_INSTALL_PATH/bin/ptxas --gpu-name=sm_20 -v _ptx2_3Mfs6H --output-file  /dev/null 2> _ptx_WuWPBainfo"
GPGPU-Sim PTX: Kernel '_Z11kmeansPointPfiiiPiS_S_S0_' : regs=12, lmem=0, smem=0, cmem=4440
GPGPU-Sim PTX: Kernel '_Z14invert_mappingPfS_ii' : regs=10, lmem=0, smem=0, cmem=4408
GPGPU-Sim PTX: removing ptxinfo using "rm -f _ptx_WuWPBa _ptx2_3Mfs6H _ptx_WuWPBainfo"
GPGPU-Sim PTX: loading globals with explicit initializers... 
GPGPU-Sim PTX: finished loading globals (0 bytes total).
GPGPU-Sim PTX: loading constants with explicit initializers...  done.
GPGPU-Sim PTX: __cudaRegisterFunction _Z14invert_mappingPfS_ii : hostFun 0x0x402cb7, fat_cubin_handle = 1
GPGPU-Sim PTX: in __cudaRegisterTexture:
GPGPU-Sim PTX:   int dim = 1
GPGPU-Sim PTX:   int norm = 0
GPGPU-Sim PTX:   int ext = 0
GPGPU-Sim PTX:   Execution warning: Not finished implementing "void __cudaRegisterTexture(void**, const textureReference*, const void**, const char*, int, int, int)"
GPGPU-Sim PTX: in __cudaRegisterTexture:
GPGPU-Sim PTX:   int dim = 1
GPGPU-Sim PTX:   int norm = 0
GPGPU-Sim PTX:   int ext = 0
GPGPU-Sim PTX:   Execution warning: Not finished implementing "void __cudaRegisterTexture(void**, const textureReference*, const void**, const char*, int, int, int)"
GPGPU-Sim PTX: in __cudaRegisterTexture:
GPGPU-Sim PTX:   int dim = 1
GPGPU-Sim PTX:   int norm = 0
GPGPU-Sim PTX:   int ext = 0
GPGPU-Sim PTX:   Execution warning: Not finished implementing "void __cudaRegisterTexture(void**, const textureReference*, const void**, const char*, int, int, int)"
GPGPU-Sim PTX: __cudaRegisterVar: hostVar = 0x6085e0; deviceAddress = c_clusters; deviceName = c_clusters
GPGPU-Sim PTX: __cudaRegisterVar: Registering const memory space of 4352 bytes
GPGPU-Sim PTX registering constant c_clusters (4352 bytes) to name mapping

I/O completed

Number of objects: 204800
Number of features: 34

GPGPU-Sim PTX: cudaLaunch for 0x0x402cb7 (mode=performance simulation) on stream 0
GPGPU-Sim PTX: pushing kernel '_Z14invert_mappingPfS_ii' to stream 0, gridDim= (841,1,1) blockDim = (256,1,1) 
kernel '_Z14invert_mappingPfS_ii' transfer to GPU hardware scheduler
GPGPU-Sim uArch: Shader 1 bind to kernel 1 '_Z14invert_mappingPfS_ii'
GPGPU-Sim uArch: CTA/core = 6, limited by: threads
GPGPU-Sim uArch: core:  1, cta: 0 initialized @(1,0)
GPGPU-Sim uArch: Shader 2 bind to kernel 1 '_Z14invert_mappingPfS_ii'
GPGPU-Sim uArch: core:  2, cta: 0 initialized @(1,0)
GPGPU-Sim uArch: Shader 3 bind to kernel 1 '_Z14invert_mappingPfS_ii'
GPGPU-Sim uArch: core:  3, cta: 0 initialized @(1,0)
GPGPU-Sim uArch: Shader 4 bind to kernel 1 '_Z14invert_mappingPfS_ii'
GPGPU-Sim uArch: core:  4, cta: 0 initialized @(1,0)
GPGPU-Sim uArch: Shader 5 bind to kernel 1 '_Z14invert_mappingPfS_ii'
GPGPU-Sim uArch: core:  5, cta: 0 initialized @(1,0)
GPGPU-Sim uArch: Shader 6 bind to kernel 1 '_Z14invert_mappingPfS_ii'
GPGPU-Sim uArch: core:  6, cta: 0 initialized @(1,0)
GPGPU-Sim uArch: Shader 7 bind to kernel 1 '_Z14invert_mappingPfS_ii'
GPGPU-Sim uArch: core:  7, cta: 0 initialized @(1,0)
GPGPU-Sim uArch: Shader 8 bind to kernel 1 '_Z14invert_mappingPfS_ii'
GPGPU-Sim uArch: core:  8, cta: 0 initialized @(1,0)
GPGPU-Sim uArch: Shader 9 bind to kernel 1 '_Z14invert_mappingPfS_ii'
GPGPU-Sim uArch: core:  9, cta: 0 initialized @(1,0)
GPGPU-Sim uArch: Shader 10 bind to kernel 1 '_Z14invert_mappingPfS_ii'
GPGPU-Sim uArch: core: 10, cta: 0 initialized @(1,0)
GPGPU-Sim uArch: Shader 11 bind to kernel 1 '_Z14invert_mappingPfS_ii'
GPGPU-Sim uArch: core: 11, cta: 0 initialized @(1,0)
GPGPU-Sim uArch: Shader 12 bind to kernel 1 '_Z14invert_mappingPfS_ii'
GPGPU-Sim uArch: core: 12, cta: 0 initialized @(1,0)
GPGPU-Sim uArch: Shader 13 bind to kernel 1 '_Z14invert_mappingPfS_ii'
GPGPU-Sim uArch: core: 13, cta: 0 initialized @(1,0)
GPGPU-Sim uArch: Shader 14 bind to kernel 1 '_Z14invert_mappingPfS_ii'
GPGPU-Sim uArch: core: 14, cta: 0 initialized @(1,0)
GPGPU-Sim uArch: Shader 0 bind to kernel 1 '_Z14invert_mappingPfS_ii'
GPGPU-Sim uArch: core:  0, cta: 0 initialized @(1,0)
GPGPU-Sim uArch: core:  1, cta: 1 initialized @(2,0)
GPGPU-Sim uArch: core:  2, cta: 1 initialized @(2,0)
GPGPU-Sim uArch: core:  3, cta: 1 initialized @(2,0)
GPGPU-Sim uArch: core:  4, cta: 1 initialized @(2,0)
GPGPU-Sim uArch: core:  5, cta: 1 initialized @(2,0)
GPGPU-Sim uArch: core:  6, cta: 1 initialized @(2,0)
GPGPU-Sim uArch: core:  7, cta: 1 initialized @(2,0)
GPGPU-Sim uArch: core:  8, cta: 1 initialized @(2,0)
GPGPU-Sim uArch: core:  9, cta: 1 initialized @(2,0)
GPGPU-Sim uArch: core: 10, cta: 1 initialized @(2,0)
GPGPU-Sim uArch: core: 11, cta: 1 initialized @(2,0)
GPGPU-Sim uArch: core: 12, cta: 1 initialized @(2,0)
GPGPU-Sim uArch: core: 13, cta: 1 initialized @(2,0)
GPGPU-Sim uArch: core: 14, cta: 1 initialized @(2,0)
GPGPU-Sim uArch: core:  0, cta: 1 initialized @(2,0)
GPGPU-Sim uArch: core:  1, cta: 2 initialized @(3,0)
GPGPU-Sim uArch: core:  2, cta: 2 initialized @(3,0)
GPGPU-Sim uArch: core:  3, cta: 2 initialized @(3,0)
GPGPU-Sim uArch: core:  4, cta: 2 initialized @(3,0)
GPGPU-Sim uArch: core:  5, cta: 2 initialized @(3,0)
GPGPU-Sim uArch: core:  6, cta: 2 initialized @(3,0)
GPGPU-Sim uArch: core:  7, cta: 2 initialized @(3,0)
GPGPU-Sim uArch: core:  8, cta: 2 initialized @(3,0)
GPGPU-Sim uArch: core:  9, cta: 2 initialized @(3,0)
GPGPU-Sim uArch: core: 10, cta: 2 initialized @(3,0)
GPGPU-Sim uArch: core: 11, cta: 2 initialized @(3,0)
GPGPU-Sim uArch: core: 12, cta: 2 initialized @(3,0)
GPGPU-Sim uArch: core: 13, cta: 2 initialized @(3,0)
GPGPU-Sim uArch: core: 14, cta: 2 initialized @(3,0)
GPGPU-Sim uArch: core:  0, cta: 2 initialized @(3,0)
GPGPU-Sim uArch: core:  1, cta: 3 initialized @(4,0)
GPGPU-Sim uArch: core:  2, cta: 3 initialized @(4,0)
GPGPU-Sim uArch: core:  3, cta: 3 initialized @(4,0)
GPGPU-Sim uArch: core:  4, cta: 3 initialized @(4,0)
GPGPU-Sim uArch: core:  5, cta: 3 initialized @(4,0)
GPGPU-Sim uArch: core:  6, cta: 3 initialized @(4,0)
GPGPU-Sim uArch: core:  7, cta: 3 initialized @(4,0)
GPGPU-Sim uArch: core:  8, cta: 3 initialized @(4,0)
GPGPU-Sim uArch: core:  9, cta: 3 initialized @(4,0)
GPGPU-Sim uArch: core: 10, cta: 3 initialized @(4,0)
GPGPU-Sim uArch: core: 11, cta: 3 initialized @(4,0)
GPGPU-Sim uArch: core: 12, cta: 3 initialized @(4,0)
GPGPU-Sim uArch: core: 13, cta: 3 initialized @(4,0)
GPGPU-Sim uArch: core: 14, cta: 3 initialized @(4,0)
GPGPU-Sim uArch: core:  0, cta: 3 initialized @(4,0)
GPGPU-Sim uArch: core:  1, cta: 4 initialized @(5,0)
GPGPU-Sim uArch: core:  2, cta: 4 initialized @(5,0)
GPGPU-Sim uArch: core:  3, cta: 4 initialized @(5,0)
GPGPU-Sim uArch: core:  4, cta: 4 initialized @(5,0)
GPGPU-Sim uArch: core:  5, cta: 4 initialized @(5,0)
GPGPU-Sim uArch: core:  6, cta: 4 initialized @(5,0)
GPGPU-Sim uArch: core:  7, cta: 4 initialized @(5,0)
GPGPU-Sim uArch: core:  8, cta: 4 initialized @(5,0)
GPGPU-Sim uArch: core:  9, cta: 4 initialized @(5,0)
GPGPU-Sim uArch: core: 10, cta: 4 initialized @(5,0)
GPGPU-Sim uArch: core: 11, cta: 4 initialized @(5,0)
GPGPU-Sim uArch: core: 12, cta: 4 initialized @(5,0)
GPGPU-Sim uArch: core: 13, cta: 4 initialized @(5,0)
GPGPU-Sim uArch: core: 14, cta: 4 initialized @(5,0)
GPGPU-Sim uArch: core:  0, cta: 4 initialized @(5,0)
GPGPU-Sim uArch: core:  1, cta: 5 initialized @(6,0)
GPGPU-Sim uArch: core:  2, cta: 5 initialized @(6,0)
GPGPU-Sim uArch: core:  3, cta: 5 initialized @(6,0)
GPGPU-Sim uArch: core:  4, cta: 5 initialized @(6,0)
GPGPU-Sim uArch: core:  5, cta: 5 initialized @(6,0)
GPGPU-Sim uArch: core:  6, cta: 5 initialized @(6,0)
GPGPU-Sim uArch: core:  7, cta: 5 initialized @(6,0)
GPGPU-Sim uArch: core:  8, cta: 5 initialized @(6,0)
GPGPU-Sim uArch: core:  9, cta: 5 initialized @(6,0)
GPGPU-Sim uArch: core: 10, cta: 5 initialized @(6,0)
GPGPU-Sim uArch: core: 11, cta: 5 initialized @(6,0)
GPGPU-Sim uArch: core: 12, cta: 5 initialized @(6,0)
GPGPU-Sim uArch: core: 13, cta: 5 initialized @(6,0)
GPGPU-Sim uArch: core: 14, cta: 5 initialized @(6,0)
GPGPU-Sim uArch: core:  0, cta: 5 initialized @(6,0)
GPGPU-Sim PTX: 100000 instructions simulated : ctaid=(64,0,0) tid=(223,0,0)
GPGPU-Sim uArch: cycles simulated: 500  inst.: 104768 (ipc=209.5) sim_rate=26192 (inst/sec) elapsed = 0:0:00:04 / Tue Mar 22 13:14:04 2016
GPGPU-Sim PTX: 200000 instructions simulated : ctaid=(78,0,0) tid=(191,0,0)
GPGPU-Sim uArch: cycles simulated: 1500  inst.: 250848 (ipc=167.2) sim_rate=41808 (inst/sec) elapsed = 0:0:00:06 / Tue Mar 22 13:14:06 2016
GPGPU-Sim uArch: cycles simulated: 3000  inst.: 254784 (ipc=84.9) sim_rate=36397 (inst/sec) elapsed = 0:0:00:07 / Tue Mar 22 13:14:07 2016
GPGPU-Sim PTX: 300000 instructions simulated : ctaid=(40,0,0) tid=(63,0,0)
GPGPU-Sim uArch: cycles simulated: 4500  inst.: 302656 (ipc=67.3) sim_rate=37832 (inst/sec) elapsed = 0:0:00:08 / Tue Mar 22 13:14:08 2016
GPGPU-Sim PTX: 400000 instructions simulated : ctaid=(46,0,0) tid=(63,0,0)
GPGPU-Sim uArch: cycles simulated: 6500  inst.: 398272 (ipc=61.3) sim_rate=44252 (inst/sec) elapsed = 0:0:00:09 / Tue Mar 22 13:14:09 2016
GPGPU-Sim uArch: cycles simulated: 8000  inst.: 423808 (ipc=53.0) sim_rate=42380 (inst/sec) elapsed = 0:0:00:10 / Tue Mar 22 13:14:10 2016
GPGPU-Sim PTX: 500000 instructions simulated : ctaid=(69,0,0) tid=(191,0,0)
GPGPU-Sim uArch: cycles simulated: 9500  inst.: 462208 (ipc=48.7) sim_rate=42018 (inst/sec) elapsed = 0:0:00:11 / Tue Mar 22 13:14:11 2016
GPGPU-Sim uArch: cycles simulated: 11000  inst.: 473504 (ipc=43.0) sim_rate=39458 (inst/sec) elapsed = 0:0:00:12 / Tue Mar 22 13:14:12 2016
GPGPU-Sim uArch: cycles simulated: 12500  inst.: 488192 (ipc=39.1) sim_rate=37553 (inst/sec) elapsed = 0:0:00:13 / Tue Mar 22 13:14:13 2016
GPGPU-Sim uArch: cycles simulated: 14000  inst.: 503968 (ipc=36.0) sim_rate=35997 (inst/sec) elapsed = 0:0:00:14 / Tue Mar 22 13:14:14 2016
GPGPU-Sim uArch: cycles simulated: 15500  inst.: 519712 (ipc=33.5) sim_rate=34647 (inst/sec) elapsed = 0:0:00:15 / Tue Mar 22 13:14:15 2016
GPGPU-Sim uArch: cycles simulated: 17000  inst.: 537216 (ipc=31.6) sim_rate=33576 (inst/sec) elapsed = 0:0:00:16 / Tue Mar 22 13:14:16 2016
GPGPU-Sim PTX: 600000 instructions simulated : ctaid=(41,0,0) tid=(127,0,0)
GPGPU-Sim uArch: cycles simulated: 18500  inst.: 554336 (ipc=30.0) sim_rate=32608 (inst/sec) elapsed = 0:0:00:17 / Tue Mar 22 13:14:17 2016
GPGPU-Sim uArch: cycles simulated: 20000  inst.: 572672 (ipc=28.6) sim_rate=31815 (inst/sec) elapsed = 0:0:00:18 / Tue Mar 22 13:14:18 2016
GPGPU-Sim uArch: cycles simulated: 21500  inst.: 589920 (ipc=27.4) sim_rate=31048 (inst/sec) elapsed = 0:0:00:19 / Tue Mar 22 13:14:19 2016
GPGPU-Sim uArch: cycles simulated: 23000  inst.: 605440 (ipc=26.3) sim_rate=30272 (inst/sec) elapsed = 0:0:00:20 / Tue Mar 22 13:14:20 2016
GPGPU-Sim uArch: cycles simulated: 24500  inst.: 622400 (ipc=25.4) sim_rate=29638 (inst/sec) elapsed = 0:0:00:21 / Tue Mar 22 13:14:21 2016
GPGPU-Sim uArch: cycles simulated: 26000  inst.: 640096 (ipc=24.6) sim_rate=29095 (inst/sec) elapsed = 0:0:00:22 / Tue Mar 22 13:14:22 2016
GPGPU-Sim PTX: 700000 instructions simulated : ctaid=(53,0,0) tid=(95,0,0)
GPGPU-Sim uArch: cycles simulated: 28000  inst.: 662336 (ipc=23.7) sim_rate=28797 (inst/sec) elapsed = 0:0:00:23 / Tue Mar 22 13:14:23 2016
GPGPU-Sim uArch: cycles simulated: 29500  inst.: 676288 (ipc=22.9) sim_rate=28178 (inst/sec) elapsed = 0:0:00:24 / Tue Mar 22 13:14:24 2016
GPGPU-Sim uArch: cycles simulated: 31000  inst.: 692224 (ipc=22.3) sim_rate=27688 (inst/sec) elapsed = 0:0:00:25 / Tue Mar 22 13:14:25 2016
GPGPU-Sim uArch: cycles simulated: 32500  inst.: 708416 (ipc=21.8) sim_rate=27246 (inst/sec) elapsed = 0:0:00:26 / Tue Mar 22 13:14:26 2016
GPGPU-Sim uArch: cycles simulated: 34000  inst.: 723584 (ipc=21.3) sim_rate=26799 (inst/sec) elapsed = 0:0:00:27 / Tue Mar 22 13:14:27 2016
GPGPU-Sim uArch: cycles simulated: 35500  inst.: 737248 (ipc=20.8) sim_rate=26330 (inst/sec) elapsed = 0:0:00:28 / Tue Mar 22 13:14:28 2016
GPGPU-Sim PTX: 800000 instructions simulated : ctaid=(47,0,0) tid=(191,0,0)
GPGPU-Sim uArch: cycles simulated: 37000  inst.: 751552 (ipc=20.3) sim_rate=25915 (inst/sec) elapsed = 0:0:00:29 / Tue Mar 22 13:14:29 2016
GPGPU-Sim uArch: cycles simulated: 39000  inst.: 770848 (ipc=19.8) sim_rate=25694 (inst/sec) elapsed = 0:0:00:30 / Tue Mar 22 13:14:30 2016
GPGPU-Sim uArch: cycles simulated: 40500  inst.: 784640 (ipc=19.4) sim_rate=25310 (inst/sec) elapsed = 0:0:00:31 / Tue Mar 22 13:14:31 2016
GPGPU-Sim uArch: cycles simulated: 42500  inst.: 803424 (ipc=18.9) sim_rate=25107 (inst/sec) elapsed = 0:0:00:32 / Tue Mar 22 13:14:32 2016
GPGPU-Sim uArch: cycles simulated: 44000  inst.: 817920 (ipc=18.6) sim_rate=24785 (inst/sec) elapsed = 0:0:00:33 / Tue Mar 22 13:14:33 2016
GPGPU-Sim uArch: cycles simulated: 45500  inst.: 831744 (ipc=18.3) sim_rate=24463 (inst/sec) elapsed = 0:0:00:34 / Tue Mar 22 13:14:34 2016
GPGPU-Sim uArch: cycles simulated: 47500  inst.: 848128 (ipc=17.9) sim_rate=24232 (inst/sec) elapsed = 0:0:00:35 / Tue Mar 22 13:14:35 2016
GPGPU-Sim PTX: 900000 instructions simulated : ctaid=(55,0,0) tid=(159,0,0)
GPGPU-Sim uArch: cycles simulated: 49000  inst.: 860960 (ipc=17.6) sim_rate=23915 (inst/sec) elapsed = 0:0:00:36 / Tue Mar 22 13:14:36 2016
GPGPU-Sim uArch: cycles simulated: 51000  inst.: 878624 (ipc=17.2) sim_rate=23746 (inst/sec) elapsed = 0:0:00:37 / Tue Mar 22 13:14:37 2016
GPGPU-Sim uArch: cycles simulated: 52500  inst.: 890880 (ipc=17.0) sim_rate=23444 (inst/sec) elapsed = 0:0:00:38 / Tue Mar 22 13:14:38 2016
GPGPU-Sim uArch: cycles simulated: 54000  inst.: 903520 (ipc=16.7) sim_rate=23167 (inst/sec) elapsed = 0:0:00:39 / Tue Mar 22 13:14:39 2016
GPGPU-Sim uArch: cycles simulated: 56000  inst.: 919456 (ipc=16.4) sim_rate=22986 (inst/sec) elapsed = 0:0:00:40 / Tue Mar 22 13:14:40 2016
GPGPU-Sim uArch: cycles simulated: 57500  inst.: 932192 (ipc=16.2) sim_rate=22736 (inst/sec) elapsed = 0:0:00:41 / Tue Mar 22 13:14:41 2016
GPGPU-Sim uArch: cycles simulated: 59000  inst.: 945120 (ipc=16.0) sim_rate=22502 (inst/sec) elapsed = 0:0:00:42 / Tue Mar 22 13:14:42 2016
GPGPU-Sim PTX: 1000000 instructions simulated : ctaid=(55,0,0) tid=(223,0,0)
GPGPU-Sim uArch: cycles simulated: 60500  inst.: 957632 (ipc=15.8) sim_rate=22270 (inst/sec) elapsed = 0:0:00:43 / Tue Mar 22 13:14:43 2016
GPGPU-Sim uArch: cycles simulated: 62000  inst.: 970144 (ipc=15.6) sim_rate=22048 (inst/sec) elapsed = 0:0:00:44 / Tue Mar 22 13:14:44 2016
GPGPU-Sim uArch: cycles simulated: 63500  inst.: 982752 (ipc=15.5) sim_rate=21838 (inst/sec) elapsed = 0:0:00:45 / Tue Mar 22 13:14:45 2016
GPGPU-Sim uArch: cycles simulated: 65000  inst.: 994560 (ipc=15.3) sim_rate=21620 (inst/sec) elapsed = 0:0:00:46 / Tue Mar 22 13:14:46 2016
GPGPU-Sim uArch: cycles simulated: 66000  inst.: 1001600 (ipc=15.2) sim_rate=21310 (inst/sec) elapsed = 0:0:00:47 / Tue Mar 22 13:14:47 2016
GPGPU-Sim uArch: cycles simulated: 67500  inst.: 1013216 (ipc=15.0) sim_rate=21108 (inst/sec) elapsed = 0:0:00:48 / Tue Mar 22 13:14:48 2016
GPGPU-Sim uArch: cycles simulated: 69000  inst.: 1024320 (ipc=14.8) sim_rate=20904 (inst/sec) elapsed = 0:0:00:49 / Tue Mar 22 13:14:49 2016
GPGPU-Sim uArch: cycles simulated: 70500  inst.: 1035840 (ipc=14.7) sim_rate=20716 (inst/sec) elapsed = 0:0:00:50 / Tue Mar 22 13:14:50 2016
GPGPU-Sim uArch: cycles simulated: 72000  inst.: 1045632 (ipc=14.5) sim_rate=20502 (inst/sec) elapsed = 0:0:00:51 / Tue Mar 22 13:14:51 2016
GPGPU-Sim PTX: 1100000 instructions simulated : ctaid=(57,0,0) tid=(95,0,0)
GPGPU-Sim uArch: cycles simulated: 73000  inst.: 1053088 (ipc=14.4) sim_rate=20251 (inst/sec) elapsed = 0:0:00:52 / Tue Mar 22 13:14:52 2016
GPGPU-Sim uArch: cycles simulated: 74500  inst.: 1064352 (ipc=14.3) sim_rate=20082 (inst/sec) elapsed = 0:0:00:53 / Tue Mar 22 13:14:53 2016
GPGPU-Sim uArch: cycles simulated: 76000  inst.: 1074208 (ipc=14.1) sim_rate=19892 (inst/sec) elapsed = 0:0:00:54 / Tue Mar 22 13:14:54 2016
GPGPU-Sim uArch: cycles simulated: 77500  inst.: 1085376 (ipc=14.0) sim_rate=19734 (inst/sec) elapsed = 0:0:00:55 / Tue Mar 22 13:14:55 2016
GPGPU-Sim uArch: cycles simulated: 79000  inst.: 1097888 (ipc=13.9) sim_rate=19605 (inst/sec) elapsed = 0:0:00:56 / Tue Mar 22 13:14:56 2016
GPGPU-Sim uArch: cycles simulated: 80000  inst.: 1104672 (ipc=13.8) sim_rate=19380 (inst/sec) elapsed = 0:0:00:57 / Tue Mar 22 13:14:57 2016
GPGPU-Sim uArch: cycles simulated: 81500  inst.: 1118400 (ipc=13.7) sim_rate=19282 (inst/sec) elapsed = 0:0:00:58 / Tue Mar 22 13:14:58 2016
GPGPU-Sim uArch: cycles simulated: 83000  inst.: 1130976 (ipc=13.6) sim_rate=19169 (inst/sec) elapsed = 0:0:00:59 / Tue Mar 22 13:14:59 2016
GPGPU-Sim uArch: cycles simulated: 84500  inst.: 1141952 (ipc=13.5) sim_rate=19032 (inst/sec) elapsed = 0:0:01:00 / Tue Mar 22 13:15:00 2016
GPGPU-Sim uArch: cycles simulated: 85500  inst.: 1149984 (ipc=13.5) sim_rate=18852 (inst/sec) elapsed = 0:0:01:01 / Tue Mar 22 13:15:01 2016
GPGPU-Sim PTX: 1200000 instructions simulated : ctaid=(1,0,0) tid=(159,0,0)
GPGPU-Sim uArch: cycles simulated: 87000  inst.: 1161536 (ipc=13.4) sim_rate=18734 (inst/sec) elapsed = 0:0:01:02 / Tue Mar 22 13:15:02 2016
GPGPU-Sim uArch: cycles simulated: 88500  inst.: 1174528 (ipc=13.3) sim_rate=18643 (inst/sec) elapsed = 0:0:01:03 / Tue Mar 22 13:15:03 2016
GPGPU-Sim uArch: cycles simulated: 90000  inst.: 1186272 (ipc=13.2) sim_rate=18535 (inst/sec) elapsed = 0:0:01:04 / Tue Mar 22 13:15:04 2016
GPGPU-Sim uArch: cycles simulated: 92000  inst.: 1203808 (ipc=13.1) sim_rate=18520 (inst/sec) elapsed = 0:0:01:05 / Tue Mar 22 13:15:05 2016
GPGPU-Sim uArch: cycles simulated: 93500  inst.: 1216128 (ipc=13.0) sim_rate=18426 (inst/sec) elapsed = 0:0:01:06 / Tue Mar 22 13:15:06 2016
GPGPU-Sim uArch: cycles simulated: 95500  inst.: 1233728 (ipc=12.9) sim_rate=18413 (inst/sec) elapsed = 0:0:01:07 / Tue Mar 22 13:15:07 2016
GPGPU-Sim uArch: cycles simulated: 97500  inst.: 1250848 (ipc=12.8) sim_rate=18394 (inst/sec) elapsed = 0:0:01:08 / Tue Mar 22 13:15:08 2016
GPGPU-Sim PTX: 1300000 instructions simulated : ctaid=(25,0,0) tid=(95,0,0)
GPGPU-Sim uArch: cycles simulated: 99000  inst.: 1262464 (ipc=12.8) sim_rate=18296 (inst/sec) elapsed = 0:0:01:09 / Tue Mar 22 13:15:09 2016
GPGPU-Sim uArch: cycles simulated: 100000  inst.: 1270880 (ipc=12.7) sim_rate=18155 (inst/sec) elapsed = 0:0:01:10 / Tue Mar 22 13:15:10 2016
GPGPU-Sim uArch: cycles simulated: 101500  inst.: 1284640 (ipc=12.7) sim_rate=18093 (inst/sec) elapsed = 0:0:01:11 / Tue Mar 22 13:15:11 2016
GPGPU-Sim uArch: cycles simulated: 103000  inst.: 1297472 (ipc=12.6) sim_rate=18020 (inst/sec) elapsed = 0:0:01:12 / Tue Mar 22 13:15:12 2016
GPGPU-Sim uArch: cycles simulated: 104500  inst.: 1309408 (ipc=12.5) sim_rate=17937 (inst/sec) elapsed = 0:0:01:13 / Tue Mar 22 13:15:13 2016
GPGPU-Sim uArch: cycles simulated: 106000  inst.: 1323008 (ipc=12.5) sim_rate=17878 (inst/sec) elapsed = 0:0:01:14 / Tue Mar 22 13:15:14 2016
GPGPU-Sim uArch: cycles simulated: 107000  inst.: 1330464 (ipc=12.4) sim_rate=17739 (inst/sec) elapsed = 0:0:01:15 / Tue Mar 22 13:15:15 2016
GPGPU-Sim uArch: cycles simulated: 108500  inst.: 1344096 (ipc=12.4) sim_rate=17685 (inst/sec) elapsed = 0:0:01:16 / Tue Mar 22 13:15:16 2016
GPGPU-Sim PTX: 1400000 instructions simulated : ctaid=(58,0,0) tid=(95,0,0)
GPGPU-Sim uArch: cycles simulated: 110000  inst.: 1354944 (ipc=12.3) sim_rate=17596 (inst/sec) elapsed = 0:0:01:17 / Tue Mar 22 13:15:17 2016
GPGPU-Sim uArch: cycles simulated: 111500  inst.: 1368864 (ipc=12.3) sim_rate=17549 (inst/sec) elapsed = 0:0:01:18 / Tue Mar 22 13:15:18 2016
GPGPU-Sim uArch: cycles simulated: 113000  inst.: 1380608 (ipc=12.2) sim_rate=17476 (inst/sec) elapsed = 0:0:01:19 / Tue Mar 22 13:15:19 2016
GPGPU-Sim uArch: cycles simulated: 114500  inst.: 1394656 (ipc=12.2) sim_rate=17433 (inst/sec) elapsed = 0:0:01:20 / Tue Mar 22 13:15:20 2016
GPGPU-Sim uArch: cycles simulated: 116000  inst.: 1405824 (ipc=12.1) sim_rate=17355 (inst/sec) elapsed = 0:0:01:21 / Tue Mar 22 13:15:21 2016
GPGPU-Sim uArch: cycles simulated: 117500  inst.: 1419488 (ipc=12.1) sim_rate=17310 (inst/sec) elapsed = 0:0:01:22 / Tue Mar 22 13:15:22 2016
GPGPU-Sim uArch: cycles simulated: 119000  inst.: 1430880 (ipc=12.0) sim_rate=17239 (inst/sec) elapsed = 0:0:01:23 / Tue Mar 22 13:15:23 2016
GPGPU-Sim uArch: cycles simulated: 120500  inst.: 1444000 (ipc=12.0) sim_rate=17190 (inst/sec) elapsed = 0:0:01:24 / Tue Mar 22 13:15:24 2016
GPGPU-Sim PTX: 1500000 instructions simulated : ctaid=(73,0,0) tid=(223,0,0)
GPGPU-Sim uArch: cycles simulated: 122000  inst.: 1456928 (ipc=11.9) sim_rate=17140 (inst/sec) elapsed = 0:0:01:25 / Tue Mar 22 13:15:25 2016
GPGPU-Sim uArch: cycles simulated: 124000  inst.: 1474112 (ipc=11.9) sim_rate=17140 (inst/sec) elapsed = 0:0:01:26 / Tue Mar 22 13:15:26 2016
GPGPU-Sim uArch: cycles simulated: 125500  inst.: 1486144 (ipc=11.8) sim_rate=17082 (inst/sec) elapsed = 0:0:01:27 / Tue Mar 22 13:15:27 2016
GPGPU-Sim uArch: cycles simulated: 127000  inst.: 1498784 (ipc=11.8) sim_rate=17031 (inst/sec) elapsed = 0:0:01:28 / Tue Mar 22 13:15:28 2016
GPGPU-Sim uArch: cycles simulated: 128000  inst.: 1506688 (ipc=11.8) sim_rate=16929 (inst/sec) elapsed = 0:0:01:29 / Tue Mar 22 13:15:29 2016
GPGPU-Sim uArch: cycles simulated: 129500  inst.: 1518720 (ipc=11.7) sim_rate=16874 (inst/sec) elapsed = 0:0:01:30 / Tue Mar 22 13:15:30 2016
GPGPU-Sim uArch: cycles simulated: 131000  inst.: 1532160 (ipc=11.7) sim_rate=16836 (inst/sec) elapsed = 0:0:01:31 / Tue Mar 22 13:15:31 2016
GPGPU-Sim uArch: cycles simulated: 132500  inst.: 1543520 (ipc=11.6) sim_rate=16777 (inst/sec) elapsed = 0:0:01:32 / Tue Mar 22 13:15:32 2016
GPGPU-Sim PTX: 1600000 instructions simulated : ctaid=(68,0,0) tid=(31,0,0)
GPGPU-Sim uArch: cycles simulated: 134000  inst.: 1556192 (ipc=11.6) sim_rate=16733 (inst/sec) elapsed = 0:0:01:33 / Tue Mar 22 13:15:33 2016
GPGPU-Sim uArch: cycles simulated: 135500  inst.: 1568608 (ipc=11.6) sim_rate=16687 (inst/sec) elapsed = 0:0:01:34 / Tue Mar 22 13:15:34 2016
GPGPU-Sim uArch: cycles simulated: 137500  inst.: 1584928 (ipc=11.5) sim_rate=16683 (inst/sec) elapsed = 0:0:01:35 / Tue Mar 22 13:15:35 2016
GPGPU-Sim uArch: cycles simulated: 139000  inst.: 1597376 (ipc=11.5) sim_rate=16639 (inst/sec) elapsed = 0:0:01:36 / Tue Mar 22 13:15:36 2016
GPGPU-Sim uArch: cycles simulated: 140500  inst.: 1608320 (ipc=11.4) sim_rate=16580 (inst/sec) elapsed = 0:0:01:37 / Tue Mar 22 13:15:37 2016
GPGPU-Sim uArch: cycles simulated: 142500  inst.: 1626944 (ipc=11.4) sim_rate=16601 (inst/sec) elapsed = 0:0:01:38 / Tue Mar 22 13:15:38 2016
GPGPU-Sim uArch: cycles simulated: 144000  inst.: 1638176 (ipc=11.4) sim_rate=16547 (inst/sec) elapsed = 0:0:01:39 / Tue Mar 22 13:15:39 2016
GPGPU-Sim PTX: 1700000 instructions simulated : ctaid=(76,0,0) tid=(95,0,0)
GPGPU-Sim uArch: cycles simulated: 145500  inst.: 1651040 (ipc=11.3) sim_rate=16510 (inst/sec) elapsed = 0:0:01:40 / Tue Mar 22 13:15:40 2016
GPGPU-Sim uArch: cycles simulated: 147000  inst.: 1664320 (ipc=11.3) sim_rate=16478 (inst/sec) elapsed = 0:0:01:41 / Tue Mar 22 13:15:41 2016
GPGPU-Sim uArch: cycles simulated: 149000  inst.: 1680608 (ipc=11.3) sim_rate=16476 (inst/sec) elapsed = 0:0:01:42 / Tue Mar 22 13:15:42 2016
GPGPU-Sim uArch: cycles simulated: 150500  inst.: 1692832 (ipc=11.2) sim_rate=16435 (inst/sec) elapsed = 0:0:01:43 / Tue Mar 22 13:15:43 2016
GPGPU-Sim uArch: cycles simulated: 152000  inst.: 1706624 (ipc=11.2) sim_rate=16409 (inst/sec) elapsed = 0:0:01:44 / Tue Mar 22 13:15:44 2016
GPGPU-Sim uArch: cycles simulated: 153500  inst.: 1719872 (ipc=11.2) sim_rate=16379 (inst/sec) elapsed = 0:0:01:45 / Tue Mar 22 13:15:45 2016
GPGPU-Sim uArch: cycles simulated: 155500  inst.: 1734496 (ipc=11.2) sim_rate=16363 (inst/sec) elapsed = 0:0:01:46 / Tue Mar 22 13:15:46 2016
GPGPU-Sim uArch: cycles simulated: 157000  inst.: 1747328 (ipc=11.1) sim_rate=16330 (inst/sec) elapsed = 0:0:01:47 / Tue Mar 22 13:15:47 2016
GPGPU-Sim PTX: 1800000 instructions simulated : ctaid=(0,0,0) tid=(31,0,0)
GPGPU-Sim uArch: cycles simulated: 158500  inst.: 1761088 (ipc=11.1) sim_rate=16306 (inst/sec) elapsed = 0:0:01:48 / Tue Mar 22 13:15:48 2016
GPGPU-Sim uArch: cycles simulated: 160000  inst.: 1773632 (ipc=11.1) sim_rate=16271 (inst/sec) elapsed = 0:0:01:49 / Tue Mar 22 13:15:49 2016
GPGPU-Sim uArch: cycles simulated: 162000  inst.: 1789728 (ipc=11.0) sim_rate=16270 (inst/sec) elapsed = 0:0:01:50 / Tue Mar 22 13:15:50 2016
GPGPU-Sim uArch: cycles simulated: 163500  inst.: 1801216 (ipc=11.0) sim_rate=16227 (inst/sec) elapsed = 0:0:01:51 / Tue Mar 22 13:15:51 2016
GPGPU-Sim uArch: cycles simulated: 165000  inst.: 1813728 (ipc=11.0) sim_rate=16194 (inst/sec) elapsed = 0:0:01:52 / Tue Mar 22 13:15:52 2016
GPGPU-Sim uArch: cycles simulated: 167000  inst.: 1829408 (ipc=11.0) sim_rate=16189 (inst/sec) elapsed = 0:0:01:53 / Tue Mar 22 13:15:53 2016
GPGPU-Sim uArch: cycles simulated: 168500  inst.: 1842368 (ipc=10.9) sim_rate=16161 (inst/sec) elapsed = 0:0:01:54 / Tue Mar 22 13:15:54 2016
GPGPU-Sim PTX: 1900000 instructions simulated : ctaid=(20,0,0) tid=(31,0,0)
GPGPU-Sim uArch: cycles simulated: 170000  inst.: 1855680 (ipc=10.9) sim_rate=16136 (inst/sec) elapsed = 0:0:01:55 / Tue Mar 22 13:15:55 2016
GPGPU-Sim uArch: cycles simulated: 171500  inst.: 1868160 (ipc=10.9) sim_rate=16104 (inst/sec) elapsed = 0:0:01:56 / Tue Mar 22 13:15:56 2016
GPGPU-Sim uArch: cycles simulated: 173500  inst.: 1885280 (ipc=10.9) sim_rate=16113 (inst/sec) elapsed = 0:0:01:57 / Tue Mar 22 13:15:57 2016
GPGPU-Sim uArch: cycles simulated: 175000  inst.: 1895808 (ipc=10.8) sim_rate=16066 (inst/sec) elapsed = 0:0:01:58 / Tue Mar 22 13:15:58 2016
GPGPU-Sim uArch: cycles simulated: 176500  inst.: 1908736 (ipc=10.8) sim_rate=16039 (inst/sec) elapsed = 0:0:01:59 / Tue Mar 22 13:15:59 2016
GPGPU-Sim uArch: cycles simulated: 178000  inst.: 1919872 (ipc=10.8) sim_rate=15998 (inst/sec) elapsed = 0:0:02:00 / Tue Mar 22 13:16:00 2016
GPGPU-Sim uArch: cycles simulated: 180000  inst.: 1938240 (ipc=10.8) sim_rate=16018 (inst/sec) elapsed = 0:0:02:01 / Tue Mar 22 13:16:01 2016
GPGPU-Sim uArch: cycles simulated: 181500  inst.: 1949984 (ipc=10.7) sim_rate=15983 (inst/sec) elapsed = 0:0:02:02 / Tue Mar 22 13:16:02 2016
GPGPU-Sim PTX: 2000000 instructions simulated : ctaid=(21,0,0) tid=(159,0,0)
GPGPU-Sim uArch: cycles simulated: 183000  inst.: 1963008 (ipc=10.7) sim_rate=15959 (inst/sec) elapsed = 0:0:02:03 / Tue Mar 22 13:16:03 2016
GPGPU-Sim uArch: cycles simulated: 185000  inst.: 1979040 (ipc=10.7) sim_rate=15960 (inst/sec) elapsed = 0:0:02:04 / Tue Mar 22 13:16:04 2016
GPGPU-Sim uArch: cycles simulated: 186500  inst.: 1993056 (ipc=10.7) sim_rate=15944 (inst/sec) elapsed = 0:0:02:05 / Tue Mar 22 13:16:05 2016
GPGPU-Sim uArch: cycles simulated: 188000  inst.: 2004384 (ipc=10.7) sim_rate=15907 (inst/sec) elapsed = 0:0:02:06 / Tue Mar 22 13:16:06 2016
GPGPU-Sim uArch: cycles simulated: 189500  inst.: 2017088 (ipc=10.6) sim_rate=15882 (inst/sec) elapsed = 0:0:02:07 / Tue Mar 22 13:16:07 2016
GPGPU-Sim uArch: cycles simulated: 191500  inst.: 2033344 (ipc=10.6) sim_rate=15885 (inst/sec) elapsed = 0:0:02:08 / Tue Mar 22 13:16:08 2016
GPGPU-Sim uArch: cycles simulated: 193000  inst.: 2046912 (ipc=10.6) sim_rate=15867 (inst/sec) elapsed = 0:0:02:09 / Tue Mar 22 13:16:09 2016
GPGPU-Sim PTX: 2100000 instructions simulated : ctaid=(69,0,0) tid=(31,0,0)
GPGPU-Sim uArch: cycles simulated: 194500  inst.: 2058944 (ipc=10.6) sim_rate=15838 (inst/sec) elapsed = 0:0:02:10 / Tue Mar 22 13:16:10 2016
GPGPU-Sim uArch: cycles simulated: 196000  inst.: 2072416 (ipc=10.6) sim_rate=15819 (inst/sec) elapsed = 0:0:02:11 / Tue Mar 22 13:16:11 2016
GPGPU-Sim uArch: cycles simulated: 198000  inst.: 2088768 (ipc=10.5) sim_rate=15824 (inst/sec) elapsed = 0:0:02:12 / Tue Mar 22 13:16:12 2016
GPGPU-Sim uArch: cycles simulated: 199500  inst.: 2101888 (ipc=10.5) sim_rate=15803 (inst/sec) elapsed = 0:0:02:13 / Tue Mar 22 13:16:13 2016
GPGPU-Sim uArch: cycles simulated: 201000  inst.: 2112512 (ipc=10.5) sim_rate=15765 (inst/sec) elapsed = 0:0:02:14 / Tue Mar 22 13:16:14 2016
GPGPU-Sim uArch: cycles simulated: 202500  inst.: 2125664 (ipc=10.5) sim_rate=15745 (inst/sec) elapsed = 0:0:02:15 / Tue Mar 22 13:16:15 2016
GPGPU-Sim uArch: cycles simulated: 204500  inst.: 2143072 (ipc=10.5) sim_rate=15757 (inst/sec) elapsed = 0:0:02:16 / Tue Mar 22 13:16:16 2016
GPGPU-Sim PTX: 2200000 instructions simulated : ctaid=(77,0,0) tid=(159,0,0)
GPGPU-Sim uArch: cycles simulated: 206000  inst.: 2155424 (ipc=10.5) sim_rate=15733 (inst/sec) elapsed = 0:0:02:17 / Tue Mar 22 13:16:17 2016
GPGPU-Sim uArch: cycles simulated: 207500  inst.: 2168320 (ipc=10.4) sim_rate=15712 (inst/sec) elapsed = 0:0:02:18 / Tue Mar 22 13:16:18 2016
GPGPU-Sim uArch: cycles simulated: 209000  inst.: 2180224 (ipc=10.4) sim_rate=15685 (inst/sec) elapsed = 0:0:02:19 / Tue Mar 22 13:16:19 2016
GPGPU-Sim uArch: cycles simulated: 211000  inst.: 2198720 (ipc=10.4) sim_rate=15705 (inst/sec) elapsed = 0:0:02:20 / Tue Mar 22 13:16:20 2016
GPGPU-Sim uArch: cycles simulated: 212500  inst.: 2210528 (ipc=10.4) sim_rate=15677 (inst/sec) elapsed = 0:0:02:21 / Tue Mar 22 13:16:21 2016
GPGPU-Sim uArch: cycles simulated: 214000  inst.: 2222880 (ipc=10.4) sim_rate=15654 (inst/sec) elapsed = 0:0:02:22 / Tue Mar 22 13:16:22 2016
GPGPU-Sim uArch: cycles simulated: 215500  inst.: 2235264 (ipc=10.4) sim_rate=15631 (inst/sec) elapsed = 0:0:02:23 / Tue Mar 22 13:16:23 2016
GPGPU-Sim PTX: 2300000 instructions simulated : ctaid=(10,0,0) tid=(95,0,0)
GPGPU-Sim uArch: cycles simulated: 217500  inst.: 2251872 (ipc=10.4) sim_rate=15638 (inst/sec) elapsed = 0:0:02:24 / Tue Mar 22 13:16:24 2016
GPGPU-Sim uArch: cycles simulated: 219000  inst.: 2265280 (ipc=10.3) sim_rate=15622 (inst/sec) elapsed = 0:0:02:25 / Tue Mar 22 13:16:25 2016
GPGPU-Sim uArch: cycles simulated: 220500  inst.: 2276512 (ipc=10.3) sim_rate=15592 (inst/sec) elapsed = 0:0:02:26 / Tue Mar 22 13:16:26 2016
GPGPU-Sim uArch: cycles simulated: 222500  inst.: 2293472 (ipc=10.3) sim_rate=15601 (inst/sec) elapsed = 0:0:02:27 / Tue Mar 22 13:16:27 2016
GPGPU-Sim uArch: cycles simulated: 224000  inst.: 2305696 (ipc=10.3) sim_rate=15579 (inst/sec) elapsed = 0:0:02:28 / Tue Mar 22 13:16:28 2016
GPGPU-Sim uArch: cycles simulated: 225500  inst.: 2317664 (ipc=10.3) sim_rate=15554 (inst/sec) elapsed = 0:0:02:29 / Tue Mar 22 13:16:29 2016
GPGPU-Sim uArch: cycles simulated: 227000  inst.: 2330624 (ipc=10.3) sim_rate=15537 (inst/sec) elapsed = 0:0:02:30 / Tue Mar 22 13:16:30 2016
GPGPU-Sim uArch: cycles simulated: 229000  inst.: 2348320 (ipc=10.3) sim_rate=15551 (inst/sec) elapsed = 0:0:02:31 / Tue Mar 22 13:16:31 2016
GPGPU-Sim PTX: 2400000 instructions simulated : ctaid=(67,0,0) tid=(31,0,0)
GPGPU-Sim uArch: cycles simulated: 230500  inst.: 2361024 (ipc=10.2) sim_rate=15533 (inst/sec) elapsed = 0:0:02:32 / Tue Mar 22 13:16:32 2016
GPGPU-Sim uArch: cycles simulated: 232000  inst.: 2372736 (ipc=10.2) sim_rate=15508 (inst/sec) elapsed = 0:0:02:33 / Tue Mar 22 13:16:33 2016
GPGPU-Sim uArch: cycles simulated: 233500  inst.: 2384896 (ipc=10.2) sim_rate=15486 (inst/sec) elapsed = 0:0:02:34 / Tue Mar 22 13:16:34 2016
GPGPU-Sim uArch: cycles simulated: 235500  inst.: 2401952 (ipc=10.2) sim_rate=15496 (inst/sec) elapsed = 0:0:02:35 / Tue Mar 22 13:16:35 2016
GPGPU-Sim uArch: cycles simulated: 237000  inst.: 2412672 (ipc=10.2) sim_rate=15465 (inst/sec) elapsed = 0:0:02:36 / Tue Mar 22 13:16:36 2016
GPGPU-Sim uArch: cycles simulated: 238500  inst.: 2427296 (ipc=10.2) sim_rate=15460 (inst/sec) elapsed = 0:0:02:37 / Tue Mar 22 13:16:37 2016
GPGPU-Sim uArch: cycles simulated: 240000  inst.: 2438016 (ipc=10.2) sim_rate=15430 (inst/sec) elapsed = 0:0:02:38 / Tue Mar 22 13:16:38 2016
GPGPU-Sim PTX: 2500000 instructions simulated : ctaid=(16,0,0) tid=(31,0,0)
GPGPU-Sim uArch: cycles simulated: 242000  inst.: 2456608 (ipc=10.2) sim_rate=15450 (inst/sec) elapsed = 0:0:02:39 / Tue Mar 22 13:16:39 2016
GPGPU-Sim uArch: cycles simulated: 243500  inst.: 2468704 (ipc=10.1) sim_rate=15429 (inst/sec) elapsed = 0:0:02:40 / Tue Mar 22 13:16:40 2016
GPGPU-Sim uArch: cycles simulated: 245000  inst.: 2480640 (ipc=10.1) sim_rate=15407 (inst/sec) elapsed = 0:0:02:41 / Tue Mar 22 13:16:41 2016
GPGPU-Sim uArch: cycles simulated: 247000  inst.: 2498240 (ipc=10.1) sim_rate=15421 (inst/sec) elapsed = 0:0:02:42 / Tue Mar 22 13:16:42 2016
GPGPU-Sim uArch: cycles simulated: 248500  inst.: 2509728 (ipc=10.1) sim_rate=15397 (inst/sec) elapsed = 0:0:02:43 / Tue Mar 22 13:16:43 2016
GPGPU-Sim uArch: cycles simulated: 250000  inst.: 2523104 (ipc=10.1) sim_rate=15384 (inst/sec) elapsed = 0:0:02:44 / Tue Mar 22 13:16:44 2016
GPGPU-Sim uArch: cycles simulated: 251500  inst.: 2535264 (ipc=10.1) sim_rate=15365 (inst/sec) elapsed = 0:0:02:45 / Tue Mar 22 13:16:45 2016
GPGPU-Sim uArch: cycles simulated: 253000  inst.: 2548704 (ipc=10.1) sim_rate=15353 (inst/sec) elapsed = 0:0:02:46 / Tue Mar 22 13:16:46 2016
GPGPU-Sim PTX: 2600000 instructions simulated : ctaid=(78,0,0) tid=(159,0,0)
GPGPU-Sim uArch: cycles simulated: 254500  inst.: 2560832 (ipc=10.1) sim_rate=15334 (inst/sec) elapsed = 0:0:02:47 / Tue Mar 22 13:16:47 2016
GPGPU-Sim uArch: cycles simulated: 256000  inst.: 2573440 (ipc=10.1) sim_rate=15318 (inst/sec) elapsed = 0:0:02:48 / Tue Mar 22 13:16:48 2016
GPGPU-Sim uArch: cycles simulated: 257500  inst.: 2587488 (ipc=10.0) sim_rate=15310 (inst/sec) elapsed = 0:0:02:49 / Tue Mar 22 13:16:49 2016
GPGPU-Sim uArch: cycles simulated: 258500  inst.: 2594912 (ipc=10.0) sim_rate=15264 (inst/sec) elapsed = 0:0:02:50 / Tue Mar 22 13:16:50 2016
GPGPU-Sim uArch: cycles simulated: 260000  inst.: 2608928 (ipc=10.0) sim_rate=15256 (inst/sec) elapsed = 0:0:02:51 / Tue Mar 22 13:16:51 2016
GPGPU-Sim uArch: cycles simulated: 261500  inst.: 2620992 (ipc=10.0) sim_rate=15238 (inst/sec) elapsed = 0:0:02:52 / Tue Mar 22 13:16:52 2016
GPGPU-Sim uArch: cycles simulated: 262500  inst.: 2629344 (ipc=10.0) sim_rate=15198 (inst/sec) elapsed = 0:0:02:53 / Tue Mar 22 13:16:53 2016
GPGPU-Sim uArch: cycles simulated: 264000  inst.: 2641984 (ipc=10.0) sim_rate=15183 (inst/sec) elapsed = 0:0:02:54 / Tue Mar 22 13:16:54 2016
GPGPU-Sim PTX: 2700000 instructions simulated : ctaid=(8,0,0) tid=(223,0,0)
GPGPU-Sim uArch: cycles simulated: 265500  inst.: 2655424 (ipc=10.0) sim_rate=15173 (inst/sec) elapsed = 0:0:02:55 / Tue Mar 22 13:16:55 2016
GPGPU-Sim uArch: cycles simulated: 266500  inst.: 2663456 (ipc=10.0) sim_rate=15133 (inst/sec) elapsed = 0:0:02:56 / Tue Mar 22 13:16:56 2016
GPGPU-Sim uArch: cycles simulated: 268000  inst.: 2675232 (ipc=10.0) sim_rate=15114 (inst/sec) elapsed = 0:0:02:57 / Tue Mar 22 13:16:57 2016
GPGPU-Sim uArch: cycles simulated: 269500  inst.: 2688512 (ipc=10.0) sim_rate=15104 (inst/sec) elapsed = 0:0:02:58 / Tue Mar 22 13:16:58 2016
GPGPU-Sim uArch: cycles simulated: 270500  inst.: 2697504 (ipc=10.0) sim_rate=15069 (inst/sec) elapsed = 0:0:02:59 / Tue Mar 22 13:16:59 2016
GPGPU-Sim uArch: cycles simulated: 272000  inst.: 2709984 (ipc=10.0) sim_rate=15055 (inst/sec) elapsed = 0:0:03:00 / Tue Mar 22 13:17:00 2016
GPGPU-Sim uArch: cycles simulated: 273500  inst.: 2720544 (ipc= 9.9) sim_rate=15030 (inst/sec) elapsed = 0:0:03:01 / Tue Mar 22 13:17:01 2016
GPGPU-Sim uArch: cycles simulated: 274500  inst.: 2730048 (ipc= 9.9) sim_rate=15000 (inst/sec) elapsed = 0:0:03:02 / Tue Mar 22 13:17:02 2016
GPGPU-Sim uArch: cycles simulated: 276000  inst.: 2742176 (ipc= 9.9) sim_rate=14984 (inst/sec) elapsed = 0:0:03:03 / Tue Mar 22 13:17:03 2016
GPGPU-Sim PTX: 2800000 instructions simulated : ctaid=(39,0,0) tid=(223,0,0)
GPGPU-Sim uArch: cycles simulated: 277500  inst.: 2756640 (ipc= 9.9) sim_rate=14981 (inst/sec) elapsed = 0:0:03:04 / Tue Mar 22 13:17:04 2016
GPGPU-Sim uArch: cycles simulated: 278500  inst.: 2764128 (ipc= 9.9) sim_rate=14941 (inst/sec) elapsed = 0:0:03:05 / Tue Mar 22 13:17:05 2016
GPGPU-Sim uArch: cycles simulated: 280000  inst.: 2777248 (ipc= 9.9) sim_rate=14931 (inst/sec) elapsed = 0:0:03:06 / Tue Mar 22 13:17:06 2016
GPGPU-Sim uArch: cycles simulated: 281500  inst.: 2788864 (ipc= 9.9) sim_rate=14913 (inst/sec) elapsed = 0:0:03:07 / Tue Mar 22 13:17:07 2016
GPGPU-Sim uArch: cycles simulated: 283000  inst.: 2802016 (ipc= 9.9) sim_rate=14904 (inst/sec) elapsed = 0:0:03:08 / Tue Mar 22 13:17:08 2016
GPGPU-Sim uArch: cycles simulated: 284000  inst.: 2810368 (ipc= 9.9) sim_rate=14869 (inst/sec) elapsed = 0:0:03:09 / Tue Mar 22 13:17:09 2016
GPGPU-Sim uArch: cycles simulated: 285500  inst.: 2822400 (ipc= 9.9) sim_rate=14854 (inst/sec) elapsed = 0:0:03:10 / Tue Mar 22 13:17:10 2016
GPGPU-Sim uArch: cycles simulated: 287000  inst.: 2835936 (ipc= 9.9) sim_rate=14847 (inst/sec) elapsed = 0:0:03:11 / Tue Mar 22 13:17:11 2016
GPGPU-Sim uArch: cycles simulated: 288500  inst.: 2847840 (ipc= 9.9) sim_rate=14832 (inst/sec) elapsed = 0:0:03:12 / Tue Mar 22 13:17:12 2016
GPGPU-Sim PTX: 2900000 instructions simulated : ctaid=(6,0,0) tid=(95,0,0)
GPGPU-Sim uArch: cycles simulated: 290000  inst.: 2861024 (ipc= 9.9) sim_rate=14823 (inst/sec) elapsed = 0:0:03:13 / Tue Mar 22 13:17:13 2016
GPGPU-Sim uArch: cycles simulated: 291500  inst.: 2874112 (ipc= 9.9) sim_rate=14815 (inst/sec) elapsed = 0:0:03:14 / Tue Mar 22 13:17:14 2016
GPGPU-Sim uArch: cycles simulated: 293000  inst.: 2887232 (ipc= 9.9) sim_rate=14806 (inst/sec) elapsed = 0:0:03:15 / Tue Mar 22 13:17:15 2016
GPGPU-Sim uArch: cycles simulated: 294500  inst.: 2900960 (ipc= 9.9) sim_rate=14800 (inst/sec) elapsed = 0:0:03:16 / Tue Mar 22 13:17:16 2016
GPGPU-Sim uArch: cycles simulated: 296000  inst.: 2912864 (ipc= 9.8) sim_rate=14786 (inst/sec) elapsed = 0:0:03:17 / Tue Mar 22 13:17:17 2016
GPGPU-Sim uArch: cycles simulated: 297500  inst.: 2926048 (ipc= 9.8) sim_rate=14778 (inst/sec) elapsed = 0:0:03:18 / Tue Mar 22 13:17:18 2016
GPGPU-Sim uArch: cycles simulated: 299000  inst.: 2937856 (ipc= 9.8) sim_rate=14763 (inst/sec) elapsed = 0:0:03:19 / Tue Mar 22 13:17:19 2016
GPGPU-Sim uArch: cycles simulated: 300500  inst.: 2950336 (ipc= 9.8) sim_rate=14751 (inst/sec) elapsed = 0:0:03:20 / Tue Mar 22 13:17:20 2016
GPGPU-Sim PTX: 3000000 instructions simulated : ctaid=(51,0,0) tid=(159,0,0)
GPGPU-Sim uArch: cycles simulated: 302000  inst.: 2962432 (ipc= 9.8) sim_rate=14738 (inst/sec) elapsed = 0:0:03:21 / Tue Mar 22 13:17:21 2016
GPGPU-Sim uArch: cycles simulated: 303500  inst.: 2977504 (ipc= 9.8) sim_rate=14740 (inst/sec) elapsed = 0:0:03:22 / Tue Mar 22 13:17:22 2016
GPGPU-Sim uArch: cycles simulated: 305000  inst.: 2988640 (ipc= 9.8) sim_rate=14722 (inst/sec) elapsed = 0:0:03:23 / Tue Mar 22 13:17:23 2016
GPGPU-Sim uArch: cycles simulated: 306500  inst.: 3002688 (ipc= 9.8) sim_rate=14719 (inst/sec) elapsed = 0:0:03:24 / Tue Mar 22 13:17:24 2016
GPGPU-Sim uArch: cycles simulated: 308000  inst.: 3013536 (ipc= 9.8) sim_rate=14700 (inst/sec) elapsed = 0:0:03:25 / Tue Mar 22 13:17:25 2016
GPGPU-Sim uArch: cycles simulated: 309500  inst.: 3027968 (ipc= 9.8) sim_rate=14698 (inst/sec) elapsed = 0:0:03:26 / Tue Mar 22 13:17:26 2016
GPGPU-Sim uArch: cycles simulated: 311000  inst.: 3039616 (ipc= 9.8) sim_rate=14684 (inst/sec) elapsed = 0:0:03:27 / Tue Mar 22 13:17:27 2016
GPGPU-Sim PTX: 3100000 instructions simulated : ctaid=(80,0,0) tid=(31,0,0)
GPGPU-Sim uArch: cycles simulated: 312500  inst.: 3053280 (ipc= 9.8) sim_rate=14679 (inst/sec) elapsed = 0:0:03:28 / Tue Mar 22 13:17:28 2016
GPGPU-Sim uArch: cycles simulated: 314500  inst.: 3070400 (ipc= 9.8) sim_rate=14690 (inst/sec) elapsed = 0:0:03:29 / Tue Mar 22 13:17:29 2016
GPGPU-Sim uArch: cycles simulated: 316000  inst.: 3083648 (ipc= 9.8) sim_rate=14684 (inst/sec) elapsed = 0:0:03:30 / Tue Mar 22 13:17:30 2016
GPGPU-Sim uArch: cycles simulated: 318000  inst.: 3099680 (ipc= 9.7) sim_rate=14690 (inst/sec) elapsed = 0:0:03:31 / Tue Mar 22 13:17:31 2016
GPGPU-Sim uArch: cycles simulated: 319500  inst.: 3113696 (ipc= 9.7) sim_rate=14687 (inst/sec) elapsed = 0:0:03:32 / Tue Mar 22 13:17:32 2016
GPGPU-Sim uArch: cycles simulated: 321000  inst.: 3125888 (ipc= 9.7) sim_rate=14675 (inst/sec) elapsed = 0:0:03:33 / Tue Mar 22 13:17:33 2016
GPGPU-Sim uArch: cycles simulated: 323000  inst.: 3143392 (ipc= 9.7) sim_rate=14688 (inst/sec) elapsed = 0:0:03:34 / Tue Mar 22 13:17:34 2016
GPGPU-Sim PTX: 3200000 instructions simulated : ctaid=(4,0,0) tid=(95,0,0)
GPGPU-Sim uArch: cycles simulated: 324500  inst.: 3156000 (ipc= 9.7) sim_rate=14679 (inst/sec) elapsed = 0:0:03:35 / Tue Mar 22 13:17:35 2016
GPGPU-Sim uArch: cycles simulated: 326000  inst.: 3170048 (ipc= 9.7) sim_rate=14676 (inst/sec) elapsed = 0:0:03:36 / Tue Mar 22 13:17:36 2016
GPGPU-Sim uArch: cycles simulated: 327500  inst.: 3182560 (ipc= 9.7) sim_rate=14666 (inst/sec) elapsed = 0:0:03:37 / Tue Mar 22 13:17:37 2016
GPGPU-Sim uArch: cycles simulated: 329500  inst.: 3199360 (ipc= 9.7) sim_rate=14675 (inst/sec) elapsed = 0:0:03:38 / Tue Mar 22 13:17:38 2016
GPGPU-Sim uArch: cycles simulated: 331000  inst.: 3211968 (ipc= 9.7) sim_rate=14666 (inst/sec) elapsed = 0:0:03:39 / Tue Mar 22 13:17:39 2016
GPGPU-Sim uArch: cycles simulated: 332500  inst.: 3226464 (ipc= 9.7) sim_rate=14665 (inst/sec) elapsed = 0:0:03:40 / Tue Mar 22 13:17:40 2016
GPGPU-Sim uArch: cycles simulated: 334500  inst.: 3244480 (ipc= 9.7) sim_rate=14680 (inst/sec) elapsed = 0:0:03:41 / Tue Mar 22 13:17:41 2016
GPGPU-Sim PTX: 3300000 instructions simulated : ctaid=(87,0,0) tid=(95,0,0)
GPGPU-Sim uArch: cycles simulated: 335500  inst.: 3254592 (ipc= 9.7) sim_rate=14660 (inst/sec) elapsed = 0:0:03:42 / Tue Mar 22 13:17:42 2016
GPGPU-Sim uArch: cycles simulated: 337000  inst.: 3267008 (ipc= 9.7) sim_rate=14650 (inst/sec) elapsed = 0:0:03:43 / Tue Mar 22 13:17:43 2016
GPGPU-Sim uArch: cycles simulated: 338500  inst.: 3279744 (ipc= 9.7) sim_rate=14641 (inst/sec) elapsed = 0:0:03:44 / Tue Mar 22 13:17:44 2016
GPGPU-Sim uArch: cycles simulated: 340000  inst.: 3292896 (ipc= 9.7) sim_rate=14635 (inst/sec) elapsed = 0:0:03:45 / Tue Mar 22 13:17:45 2016
GPGPU-Sim uArch: cycles simulated: 342000  inst.: 3310048 (ipc= 9.7) sim_rate=14646 (inst/sec) elapsed = 0:0:03:46 / Tue Mar 22 13:17:46 2016
GPGPU-Sim uArch: cycles simulated: 343500  inst.: 3324352 (ipc= 9.7) sim_rate=14644 (inst/sec) elapsed = 0:0:03:47 / Tue Mar 22 13:17:47 2016
GPGPU-Sim uArch: cycles simulated: 345500  inst.: 3342816 (ipc= 9.7) sim_rate=14661 (inst/sec) elapsed = 0:0:03:48 / Tue Mar 22 13:17:48 2016
GPGPU-Sim PTX: 3400000 instructions simulated : ctaid=(40,0,0) tid=(223,0,0)
GPGPU-Sim uArch: cycles simulated: 347500  inst.: 3361344 (ipc= 9.7) sim_rate=14678 (inst/sec) elapsed = 0:0:03:49 / Tue Mar 22 13:17:49 2016
GPGPU-Sim uArch: cycles simulated: 349500  inst.: 3379904 (ipc= 9.7) sim_rate=14695 (inst/sec) elapsed = 0:0:03:50 / Tue Mar 22 13:17:50 2016
GPGPU-Sim uArch: cycles simulated: 351000  inst.: 3393536 (ipc= 9.7) sim_rate=14690 (inst/sec) elapsed = 0:0:03:51 / Tue Mar 22 13:17:51 2016
GPGPU-Sim uArch: cycles simulated: 353000  inst.: 3412160 (ipc= 9.7) sim_rate=14707 (inst/sec) elapsed = 0:0:03:52 / Tue Mar 22 13:17:52 2016
GPGPU-Sim uArch: cycles simulated: 355000  inst.: 3430528 (ipc= 9.7) sim_rate=14723 (inst/sec) elapsed = 0:0:03:53 / Tue Mar 22 13:17:53 2016
GPGPU-Sim uArch: cycles simulated: 356500  inst.: 3445600 (ipc= 9.7) sim_rate=14724 (inst/sec) elapsed = 0:0:03:54 / Tue Mar 22 13:17:54 2016
GPGPU-Sim PTX: 3500000 instructions simulated : ctaid=(77,0,0) tid=(223,0,0)
GPGPU-Sim uArch: cycles simulated: 358000  inst.: 3460000 (ipc= 9.7) sim_rate=14723 (inst/sec) elapsed = 0:0:03:55 / Tue Mar 22 13:17:55 2016
GPGPU-Sim uArch: cycles simulated: 359000  inst.: 3470240 (ipc= 9.7) sim_rate=14704 (inst/sec) elapsed = 0:0:03:56 / Tue Mar 22 13:17:56 2016
GPGPU-Sim uArch: cycles simulated: 360500  inst.: 3483008 (ipc= 9.7) sim_rate=14696 (inst/sec) elapsed = 0:0:03:57 / Tue Mar 22 13:17:57 2016
GPGPU-Sim uArch: cycles simulated: 362000  inst.: 3498240 (ipc= 9.7) sim_rate=14698 (inst/sec) elapsed = 0:0:03:58 / Tue Mar 22 13:17:58 2016
GPGPU-Sim uArch: cycles simulated: 363500  inst.: 3512384 (ipc= 9.7) sim_rate=14696 (inst/sec) elapsed = 0:0:03:59 / Tue Mar 22 13:17:59 2016
GPGPU-Sim uArch: cycles simulated: 364500  inst.: 3522464 (ipc= 9.7) sim_rate=14676 (inst/sec) elapsed = 0:0:04:00 / Tue Mar 22 13:18:00 2016
GPGPU-Sim uArch: cycles simulated: 366000  inst.: 3536288 (ipc= 9.7) sim_rate=14673 (inst/sec) elapsed = 0:0:04:01 / Tue Mar 22 13:18:01 2016
GPGPU-Sim PTX: 3600000 instructions simulated : ctaid=(25,0,0) tid=(159,0,0)
GPGPU-Sim uArch: cycles simulated: 367500  inst.: 3551584 (ipc= 9.7) sim_rate=14675 (inst/sec) elapsed = 0:0:04:02 / Tue Mar 22 13:18:02 2016
GPGPU-Sim uArch: cycles simulated: 369000  inst.: 3564864 (ipc= 9.7) sim_rate=14670 (inst/sec) elapsed = 0:0:04:03 / Tue Mar 22 13:18:03 2016
GPGPU-Sim uArch: cycles simulated: 370500  inst.: 3579264 (ipc= 9.7) sim_rate=14669 (inst/sec) elapsed = 0:0:04:04 / Tue Mar 22 13:18:04 2016
GPGPU-Sim uArch: cycles simulated: 371500  inst.: 3591264 (ipc= 9.7) sim_rate=14658 (inst/sec) elapsed = 0:0:04:05 / Tue Mar 22 13:18:05 2016
GPGPU-Sim uArch: cycles simulated: 373500  inst.: 3609280 (ipc= 9.7) sim_rate=14671 (inst/sec) elapsed = 0:0:04:06 / Tue Mar 22 13:18:06 2016
GPGPU-Sim uArch: cycles simulated: 375500  inst.: 3630112 (ipc= 9.7) sim_rate=14696 (inst/sec) elapsed = 0:0:04:07 / Tue Mar 22 13:18:07 2016
GPGPU-Sim PTX: 3700000 instructions simulated : ctaid=(89,0,0) tid=(159,0,0)
GPGPU-Sim uArch: cycles simulated: 377500  inst.: 3649024 (ipc= 9.7) sim_rate=14713 (inst/sec) elapsed = 0:0:04:08 / Tue Mar 22 13:18:08 2016
GPGPU-Sim uArch: cycles simulated: 379000  inst.: 3663200 (ipc= 9.7) sim_rate=14711 (inst/sec) elapsed = 0:0:04:09 / Tue Mar 22 13:18:09 2016
GPGPU-Sim uArch: cycles simulated: 381000  inst.: 3680800 (ipc= 9.7) sim_rate=14723 (inst/sec) elapsed = 0:0:04:10 / Tue Mar 22 13:18:10 2016
GPGPU-Sim uArch: cycles simulated: 383000  inst.: 3702272 (ipc= 9.7) sim_rate=14750 (inst/sec) elapsed = 0:0:04:11 / Tue Mar 22 13:18:11 2016
GPGPU-Sim uArch: cycles simulated: 385000  inst.: 3722400 (ipc= 9.7) sim_rate=14771 (inst/sec) elapsed = 0:0:04:12 / Tue Mar 22 13:18:12 2016
GPGPU-Sim PTX: 3800000 instructions simulated : ctaid=(19,0,0) tid=(63,0,0)
GPGPU-Sim uArch: cycles simulated: 387000  inst.: 3741952 (ipc= 9.7) sim_rate=14790 (inst/sec) elapsed = 0:0:04:13 / Tue Mar 22 13:18:13 2016
GPGPU-Sim uArch: cycles simulated: 389000  inst.: 3760576 (ipc= 9.7) sim_rate=14805 (inst/sec) elapsed = 0:0:04:14 / Tue Mar 22 13:18:14 2016
GPGPU-Sim uArch: cycles simulated: 391000  inst.: 3779392 (ipc= 9.7) sim_rate=14821 (inst/sec) elapsed = 0:0:04:15 / Tue Mar 22 13:18:15 2016
GPGPU-Sim uArch: cycles simulated: 393000  inst.: 3797408 (ipc= 9.7) sim_rate=14833 (inst/sec) elapsed = 0:0:04:16 / Tue Mar 22 13:18:16 2016
GPGPU-Sim uArch: cycles simulated: 395000  inst.: 3813248 (ipc= 9.7) sim_rate=14837 (inst/sec) elapsed = 0:0:04:17 / Tue Mar 22 13:18:17 2016
GPGPU-Sim uArch: cycles simulated: 397000  inst.: 3829760 (ipc= 9.6) sim_rate=14844 (inst/sec) elapsed = 0:0:04:18 / Tue Mar 22 13:18:18 2016
GPGPU-Sim PTX: 3900000 instructions simulated : ctaid=(53,0,0) tid=(127,0,0)
GPGPU-Sim uArch: cycles simulated: 399000  inst.: 3845952 (ipc= 9.6) sim_rate=14849 (inst/sec) elapsed = 0:0:04:19 / Tue Mar 22 13:18:19 2016
GPGPU-Sim uArch: cycles simulated: 401000  inst.: 3862656 (ipc= 9.6) sim_rate=14856 (inst/sec) elapsed = 0:0:04:20 / Tue Mar 22 13:18:20 2016
GPGPU-Sim uArch: cycles simulated: 402500  inst.: 3877056 (ipc= 9.6) sim_rate=14854 (inst/sec) elapsed = 0:0:04:21 / Tue Mar 22 13:18:21 2016
GPGPU-Sim uArch: cycles simulated: 404000  inst.: 3888960 (ipc= 9.6) sim_rate=14843 (inst/sec) elapsed = 0:0:04:22 / Tue Mar 22 13:18:22 2016
GPGPU-Sim uArch: cycles simulated: 406000  inst.: 3906176 (ipc= 9.6) sim_rate=14852 (inst/sec) elapsed = 0:0:04:23 / Tue Mar 22 13:18:23 2016
GPGPU-Sim uArch: cycles simulated: 407500  inst.: 3918144 (ipc= 9.6) sim_rate=14841 (inst/sec) elapsed = 0:0:04:24 / Tue Mar 22 13:18:24 2016
GPGPU-Sim uArch: cycles simulated: 409500  inst.: 3935104 (ipc= 9.6) sim_rate=14849 (inst/sec) elapsed = 0:0:04:25 / Tue Mar 22 13:18:25 2016
GPGPU-Sim PTX: 4000000 instructions simulated : ctaid=(68,0,0) tid=(63,0,0)
GPGPU-Sim uArch: cycles simulated: 411000  inst.: 3948224 (ipc= 9.6) sim_rate=14842 (inst/sec) elapsed = 0:0:04:26 / Tue Mar 22 13:18:26 2016
GPGPU-Sim uArch: cycles simulated: 413000  inst.: 3964608 (ipc= 9.6) sim_rate=14848 (inst/sec) elapsed = 0:0:04:27 / Tue Mar 22 13:18:27 2016
GPGPU-Sim uArch: cycles simulated: 415000  inst.: 3980192 (ipc= 9.6) sim_rate=14851 (inst/sec) elapsed = 0:0:04:28 / Tue Mar 22 13:18:28 2016
GPGPU-Sim uArch: cycles simulated: 416500  inst.: 3993312 (ipc= 9.6) sim_rate=14845 (inst/sec) elapsed = 0:0:04:29 / Tue Mar 22 13:18:29 2016
GPGPU-Sim uArch: cycles simulated: 418500  inst.: 4011072 (ipc= 9.6) sim_rate=14855 (inst/sec) elapsed = 0:0:04:30 / Tue Mar 22 13:18:30 2016
GPGPU-Sim uArch: cycles simulated: 420500  inst.: 4026976 (ipc= 9.6) sim_rate=14859 (inst/sec) elapsed = 0:0:04:31 / Tue Mar 22 13:18:31 2016
GPGPU-Sim PTX: 4100000 instructions simulated : ctaid=(17,0,0) tid=(255,0,0)
GPGPU-Sim uArch: cycles simulated: 422500  inst.: 4044416 (ipc= 9.6) sim_rate=14869 (inst/sec) elapsed = 0:0:04:32 / Tue Mar 22 13:18:32 2016
GPGPU-Sim uArch: cycles simulated: 424000  inst.: 4057600 (ipc= 9.6) sim_rate=14863 (inst/sec) elapsed = 0:0:04:33 / Tue Mar 22 13:18:33 2016
GPGPU-Sim uArch: cycles simulated: 426000  inst.: 4073184 (ipc= 9.6) sim_rate=14865 (inst/sec) elapsed = 0:0:04:34 / Tue Mar 22 13:18:34 2016
GPGPU-Sim uArch: cycles simulated: 428000  inst.: 4089696 (ipc= 9.6) sim_rate=14871 (inst/sec) elapsed = 0:0:04:35 / Tue Mar 22 13:18:35 2016
GPGPU-Sim uArch: cycles simulated: 429500  inst.: 4102592 (ipc= 9.6) sim_rate=14864 (inst/sec) elapsed = 0:0:04:36 / Tue Mar 22 13:18:36 2016
GPGPU-Sim uArch: cycles simulated: 431500  inst.: 4118880 (ipc= 9.5) sim_rate=14869 (inst/sec) elapsed = 0:0:04:37 / Tue Mar 22 13:18:37 2016
GPGPU-Sim uArch: cycles simulated: 433500  inst.: 4135936 (ipc= 9.5) sim_rate=14877 (inst/sec) elapsed = 0:0:04:38 / Tue Mar 22 13:18:38 2016
GPGPU-Sim PTX: 4200000 instructions simulated : ctaid=(66,0,0) tid=(127,0,0)
GPGPU-Sim uArch: cycles simulated: 435500  inst.: 4153952 (ipc= 9.5) sim_rate=14888 (inst/sec) elapsed = 0:0:04:39 / Tue Mar 22 13:18:39 2016
GPGPU-Sim uArch: cycles simulated: 437500  inst.: 4170912 (ipc= 9.5) sim_rate=14896 (inst/sec) elapsed = 0:0:04:40 / Tue Mar 22 13:18:40 2016
GPGPU-Sim uArch: cycles simulated: 439500  inst.: 4187616 (ipc= 9.5) sim_rate=14902 (inst/sec) elapsed = 0:0:04:41 / Tue Mar 22 13:18:41 2016
GPGPU-Sim uArch: cycles simulated: 441500  inst.: 4204480 (ipc= 9.5) sim_rate=14909 (inst/sec) elapsed = 0:0:04:42 / Tue Mar 22 13:18:42 2016
GPGPU-Sim uArch: cycles simulated: 443000  inst.: 4216864 (ipc= 9.5) sim_rate=14900 (inst/sec) elapsed = 0:0:04:43 / Tue Mar 22 13:18:43 2016
GPGPU-Sim uArch: cycles simulated: 445000  inst.: 4235552 (ipc= 9.5) sim_rate=14913 (inst/sec) elapsed = 0:0:04:44 / Tue Mar 22 13:18:44 2016
GPGPU-Sim PTX: 4300000 instructions simulated : ctaid=(67,0,0) tid=(127,0,0)
GPGPU-Sim uArch: cycles simulated: 447000  inst.: 4251392 (ipc= 9.5) sim_rate=14917 (inst/sec) elapsed = 0:0:04:45 / Tue Mar 22 13:18:45 2016
GPGPU-Sim uArch: cycles simulated: 448500  inst.: 4263808 (ipc= 9.5) sim_rate=14908 (inst/sec) elapsed = 0:0:04:46 / Tue Mar 22 13:18:46 2016
GPGPU-Sim uArch: cycles simulated: 450500  inst.: 4279392 (ipc= 9.5) sim_rate=14910 (inst/sec) elapsed = 0:0:04:47 / Tue Mar 22 13:18:47 2016
GPGPU-Sim uArch: cycles simulated: 452500  inst.: 4296608 (ipc= 9.5) sim_rate=14918 (inst/sec) elapsed = 0:0:04:48 / Tue Mar 22 13:18:48 2016
GPGPU-Sim uArch: cycles simulated: 454500  inst.: 4313536 (ipc= 9.5) sim_rate=14925 (inst/sec) elapsed = 0:0:04:49 / Tue Mar 22 13:18:49 2016
GPGPU-Sim uArch: cycles simulated: 456500  inst.: 4330272 (ipc= 9.5) sim_rate=14931 (inst/sec) elapsed = 0:0:04:50 / Tue Mar 22 13:18:50 2016
GPGPU-Sim PTX: 4400000 instructions simulated : ctaid=(89,0,0) tid=(255,0,0)
GPGPU-Sim uArch: cycles simulated: 458500  inst.: 4347360 (ipc= 9.5) sim_rate=14939 (inst/sec) elapsed = 0:0:04:51 / Tue Mar 22 13:18:51 2016
GPGPU-Sim uArch: cycles simulated: 460500  inst.: 4364064 (ipc= 9.5) sim_rate=14945 (inst/sec) elapsed = 0:0:04:52 / Tue Mar 22 13:18:52 2016
GPGPU-Sim uArch: cycles simulated: 462500  inst.: 4380800 (ipc= 9.5) sim_rate=14951 (inst/sec) elapsed = 0:0:04:53 / Tue Mar 22 13:18:53 2016
GPGPU-Sim uArch: cycles simulated: 464500  inst.: 4398048 (ipc= 9.5) sim_rate=14959 (inst/sec) elapsed = 0:0:04:54 / Tue Mar 22 13:18:54 2016
GPGPU-Sim uArch: cycles simulated: 466000  inst.: 4411040 (ipc= 9.5) sim_rate=14952 (inst/sec) elapsed = 0:0:04:55 / Tue Mar 22 13:18:55 2016
GPGPU-Sim uArch: cycles simulated: 467500  inst.: 4422336 (ipc= 9.5) sim_rate=14940 (inst/sec) elapsed = 0:0:04:56 / Tue Mar 22 13:18:56 2016
GPGPU-Sim uArch: cycles simulated: 469000  inst.: 4433888 (ipc= 9.5) sim_rate=14928 (inst/sec) elapsed = 0:0:04:57 / Tue Mar 22 13:18:57 2016
GPGPU-Sim PTX: 4500000 instructions simulated : ctaid=(79,0,0) tid=(255,0,0)
GPGPU-Sim uArch: cycles simulated: 471000  inst.: 4450432 (ipc= 9.4) sim_rate=14934 (inst/sec) elapsed = 0:0:04:58 / Tue Mar 22 13:18:58 2016
GPGPU-Sim uArch: cycles simulated: 472500  inst.: 4463168 (ipc= 9.4) sim_rate=14926 (inst/sec) elapsed = 0:0:04:59 / Tue Mar 22 13:18:59 2016
GPGPU-Sim uArch: cycles simulated: 474500  inst.: 4479168 (ipc= 9.4) sim_rate=14930 (inst/sec) elapsed = 0:0:05:00 / Tue Mar 22 13:19:00 2016
GPGPU-Sim uArch: cycles simulated: 476000  inst.: 4490784 (ipc= 9.4) sim_rate=14919 (inst/sec) elapsed = 0:0:05:01 / Tue Mar 22 13:19:01 2016
GPGPU-Sim uArch: cycles simulated: 477500  inst.: 4502816 (ipc= 9.4) sim_rate=14909 (inst/sec) elapsed = 0:0:05:02 / Tue Mar 22 13:19:02 2016
GPGPU-Sim uArch: cycles simulated: 479500  inst.: 4519776 (ipc= 9.4) sim_rate=14916 (inst/sec) elapsed = 0:0:05:03 / Tue Mar 22 13:19:03 2016
GPGPU-Sim uArch: cycles simulated: 481500  inst.: 4536448 (ipc= 9.4) sim_rate=14922 (inst/sec) elapsed = 0:0:05:04 / Tue Mar 22 13:19:04 2016
GPGPU-Sim PTX: 4600000 instructions simulated : ctaid=(20,0,0) tid=(127,0,0)
GPGPU-Sim uArch: cycles simulated: 483000  inst.: 4548864 (ipc= 9.4) sim_rate=14914 (inst/sec) elapsed = 0:0:05:05 / Tue Mar 22 13:19:05 2016
GPGPU-Sim uArch: cycles simulated: 485000  inst.: 4565600 (ipc= 9.4) sim_rate=14920 (inst/sec) elapsed = 0:0:05:06 / Tue Mar 22 13:19:06 2016
GPGPU-Sim uArch: cycles simulated: 486500  inst.: 4580512 (ipc= 9.4) sim_rate=14920 (inst/sec) elapsed = 0:0:05:07 / Tue Mar 22 13:19:07 2016
GPGPU-Sim uArch: cycles simulated: 488000  inst.: 4590976 (ipc= 9.4) sim_rate=14905 (inst/sec) elapsed = 0:0:05:08 / Tue Mar 22 13:19:08 2016
GPGPU-Sim uArch: cycles simulated: 489500  inst.: 4604096 (ipc= 9.4) sim_rate=14899 (inst/sec) elapsed = 0:0:05:09 / Tue Mar 22 13:19:09 2016
GPGPU-Sim uArch: cycles simulated: 491500  inst.: 4620224 (ipc= 9.4) sim_rate=14903 (inst/sec) elapsed = 0:0:05:10 / Tue Mar 22 13:19:10 2016
GPGPU-Sim uArch: cycles simulated: 493500  inst.: 4635840 (ipc= 9.4) sim_rate=14906 (inst/sec) elapsed = 0:0:05:11 / Tue Mar 22 13:19:11 2016
GPGPU-Sim PTX: 4700000 instructions simulated : ctaid=(67,0,0) tid=(127,0,0)
GPGPU-Sim uArch: cycles simulated: 495000  inst.: 4649504 (ipc= 9.4) sim_rate=14902 (inst/sec) elapsed = 0:0:05:12 / Tue Mar 22 13:19:12 2016
GPGPU-Sim uArch: cycles simulated: 497000  inst.: 4666272 (ipc= 9.4) sim_rate=14908 (inst/sec) elapsed = 0:0:05:13 / Tue Mar 22 13:19:13 2016
GPGPU-Sim uArch: cycles simulated: 499000  inst.: 4683296 (ipc= 9.4) sim_rate=14914 (inst/sec) elapsed = 0:0:05:14 / Tue Mar 22 13:19:14 2016
GPGPU-Sim uArch: cycles simulated: 500500  inst.: 4696416 (ipc= 9.4) sim_rate=14909 (inst/sec) elapsed = 0:0:05:15 / Tue Mar 22 13:19:15 2016
GPGPU-Sim uArch: cycles simulated: 501500  inst.: 4705088 (ipc= 9.4) sim_rate=14889 (inst/sec) elapsed = 0:0:05:16 / Tue Mar 22 13:19:16 2016
GPGPU-Sim uArch: cycles simulated: 503000  inst.: 4717920 (ipc= 9.4) sim_rate=14883 (inst/sec) elapsed = 0:0:05:17 / Tue Mar 22 13:19:17 2016
GPGPU-Sim uArch: cycles simulated: 505000  inst.: 4734752 (ipc= 9.4) sim_rate=14889 (inst/sec) elapsed = 0:0:05:18 / Tue Mar 22 13:19:18 2016
GPGPU-Sim PTX: 4800000 instructions simulated : ctaid=(11,0,0) tid=(63,0,0)
GPGPU-Sim uArch: cycles simulated: 506500  inst.: 4745888 (ipc= 9.4) sim_rate=14877 (inst/sec) elapsed = 0:0:05:19 / Tue Mar 22 13:19:19 2016
GPGPU-Sim uArch: cycles simulated: 508000  inst.: 4759712 (ipc= 9.4) sim_rate=14874 (inst/sec) elapsed = 0:0:05:20 / Tue Mar 22 13:19:20 2016
GPGPU-Sim uArch: cycles simulated: 509500  inst.: 4772704 (ipc= 9.4) sim_rate=14868 (inst/sec) elapsed = 0:0:05:21 / Tue Mar 22 13:19:21 2016
GPGPU-Sim uArch: cycles simulated: 511000  inst.: 4785600 (ipc= 9.4) sim_rate=14862 (inst/sec) elapsed = 0:0:05:22 / Tue Mar 22 13:19:22 2016
GPGPU-Sim uArch: cycles simulated: 512500  inst.: 4796288 (ipc= 9.4) sim_rate=14849 (inst/sec) elapsed = 0:0:05:23 / Tue Mar 22 13:19:23 2016
GPGPU-Sim uArch: cycles simulated: 514500  inst.: 4813664 (ipc= 9.4) sim_rate=14856 (inst/sec) elapsed = 0:0:05:24 / Tue Mar 22 13:19:24 2016
GPGPU-Sim uArch: cycles simulated: 516000  inst.: 4828512 (ipc= 9.4) sim_rate=14856 (inst/sec) elapsed = 0:0:05:25 / Tue Mar 22 13:19:25 2016
GPGPU-Sim PTX: 4900000 instructions simulated : ctaid=(86,0,0) tid=(255,0,0)
GPGPU-Sim uArch: cycles simulated: 517500  inst.: 4840928 (ipc= 9.4) sim_rate=14849 (inst/sec) elapsed = 0:0:05:26 / Tue Mar 22 13:19:26 2016
GPGPU-Sim uArch: cycles simulated: 519000  inst.: 4852800 (ipc= 9.4) sim_rate=14840 (inst/sec) elapsed = 0:0:05:27 / Tue Mar 22 13:19:27 2016
GPGPU-Sim uArch: cycles simulated: 520500  inst.: 4865984 (ipc= 9.3) sim_rate=14835 (inst/sec) elapsed = 0:0:05:28 / Tue Mar 22 13:19:28 2016
GPGPU-Sim uArch: cycles simulated: 522500  inst.: 4881760 (ipc= 9.3) sim_rate=14838 (inst/sec) elapsed = 0:0:05:29 / Tue Mar 22 13:19:29 2016
GPGPU-Sim uArch: cycles simulated: 524500  inst.: 4896576 (ipc= 9.3) sim_rate=14838 (inst/sec) elapsed = 0:0:05:30 / Tue Mar 22 13:19:30 2016
GPGPU-Sim uArch: cycles simulated: 526000  inst.: 4910496 (ipc= 9.3) sim_rate=14835 (inst/sec) elapsed = 0:0:05:31 / Tue Mar 22 13:19:31 2016
[...]
traffic_breakdown_memtocore[GLOBAL_ACC_R] = 936681640 {136:6887365,}
traffic_breakdown_memtocore[GLOBAL_ACC_W] = 1792000 {8:224000,}
traffic_breakdown_memtocore[INST_ACC_R] = 14280 {136:105,}
traffic_breakdown_memtocore[TEXTURE_ACC_R] = 147968000 {136:1088000,}
maxmrqlatency = 1029 
maxdqlatency = 0 
maxmflatency = 1318 
averagemflatency = 374 
max_icnt2mem_latency = 761 
max_icnt2sh_latency = 6585207 
mrq_lat_table:2584899 	126379 	130630 	277251 	992869 	496321 	204875 	41214 	3204 	239 	1 	0 	0 	0 	0 	0 	0 	0 	0 	0 	0 	0 	0 	0 	0 	0 	0 	0 	0 	0 	0 	0 	
dq_lat_table:0 	0 	0 	0 	0 	0 	0 	0 	0 	0 	0 	0 	0 	0 	0 	0 	0 	0 	0 	0 	0 	0 	0 	0 	0 	0 	0 	0 	0 	0 	0 	0 	
mf_lat_table:0 	0 	0 	0 	0 	0 	0 	1993366 	4713706 	1492131 	342 	0 	0 	0 	0 	0 	0 	0 	0 	0 	0 	0 	0 	0 	0 	0 	0 	0 	0 	0 	0 	0 	
icnt2mem_lat_table:0 	0 	0 	4431713 	543128 	748964 	1129456 	1099757 	245581 	1051 	0 	0 	0 	0 	0 	0 	0 	0 	0 	0 	0 	0 	0 	0 	
icnt2sh_lat_table:0 	0 	0 	342243 	4532700 	2981792 	118715 	95 	0 	0 	0 	0 	16 	87 	595 	1074 	2361 	4881 	10184 	19884 	40059 	80919 	63940 	0 	
mf_lat_pw_table:0 	0 	0 	0 	0 	0 	0 	1459 	11703 	6 	0 	0 	0 	0 	0 	0 	0 	0 	0 	0 	0 	0 	0 	0 	0 	0 	0 	0 	0 	0 	0 	0 	
maximum concurrent accesses to same row:
dram[0]:        16        19        22        30        32        32        26        28        20        27        22        24        20        28        20        20 
dram[1]:        14        13        21        30        31        32        20        36        18        25        16        22        20        24        18        24 
dram[2]:        20        14        29        26        31        32        27        28        19        17        24        28        22        25        19        23 
dram[3]:        12        18        30        29        32        32        26        28        31        21        22        18        20        18        19        19 
dram[4]:        13        14        30        28        32        32        28        28        17        17        17        26        18        22        25        20 
dram[5]:        12        12        29        24        32        32        24        28        20        25        18        27        17        27        20        25 
maximum service time to same row:
dram[0]:     14755      9465     14588     13178     15385     12766     13050     10594     13098     11703     11325      7122      6347      8045     10955     10624 
dram[1]:     19268      8150     10739      7317      9721      7619     11395     12936     10394      7473      8784     12522     11063      8422      6815     14619 
dram[2]:     14100      7525      7657     31022     12794     12265      8947     22993     13004     12067     15433     13760     12806     11280      7968     16297 
dram[3]:     11520     14558      6450     17871     10109      9063      5670     18066     15364     15946      5338     13931     10241      8704     20950     13205 
dram[4]:     28013      5888      9055     15340      6753     19355     13294     12349     19138     24412      9220     12048      8072     12062     13656     12771 
dram[5]:      6863     22610      7894     14109      7174     16151     10878     11841      7491      5458      8101      9956      9913      7572     10137     10120 
average row accesses per activate:
dram[0]:  1.872433  1.870574  1.878718  1.882266  1.879398  1.879660  1.880959  1.888521  1.873777  1.871413  1.865696  1.869943  1.888431  1.888044  1.890775  1.902048 
dram[1]:  1.902224  1.898842  1.900553  1.910112  1.904137  1.897104  1.901344  1.915772  1.907976  1.890474  1.890664  1.905983  1.907924  1.902068  1.908309  1.923424 
dram[2]:  1.879360  1.872821  1.867852  1.884717  1.886646  1.873384  1.876518  1.894405  1.872790  1.874844  1.861467  1.873830  1.874231  1.886323  1.881440  1.895205 
dram[3]:  1.909152  1.915337  1.896297  1.912705  1.902643  1.917281  1.909111  1.928059  1.900571  1.897617  1.890633  1.905862  1.916451  1.923156  1.914667  1.935809 
dram[4]:  1.870447  1.886209  1.888635  1.887443  1.876179  1.881926  1.889291  1.904619  1.871815  1.874618  1.880074  1.887483  1.882525  1.893517  1.897600  1.909063 
dram[5]:  1.906758  1.906396  1.911565  1.904788  1.899072  1.909500  1.913024  1.920295  1.896440  1.897222  1.905770  1.895677  1.908481  1.913650  1.929353  1.919087 
average row locality = 4857882/2563593 = 1.894951
number of total memory accesses made:
dram[0]:         0         0         0         0         0         0         0         0         0         0         0         0         0         0         0         0 
dram[1]:         0         0         0         0         0         0         0         0         0         0         0         0         0         0         0         0 
dram[2]:         0         0         0         0         0         0         0         0         0         0         0         0         0         0         0         0 
dram[3]:         0         0         0         0         0         0         0         0         0         0         0         0         0         0         0         0 
dram[4]:         0         0         0         0         0         0         0         0         0         0         0         0         0         0         0         0 
dram[5]:         0         0         0         0         0         0         0         0         0         0         0         0         0         0         0         0 
total accesses: 0
min_bank_accesses = 0!
min_chip_accesses = 0!
number of total read accesses:
dram[0]:     46640     46597     46440     46180     47344     47225     47342     47249     47276     47365     47396     47167     47105     47346     46567     46714 
dram[1]:     49327     49163     48894     49014     49944     49804     49738     49750     49767     49739     49731     49623     49550     49910     49133     49256 
dram[2]:     46870     46669     46214     46409     47379     47378     47281     47305     47233     47353     47287     47313     47005     47412     46414     46674 
dram[3]:     49223     49166     48785     48967     49707     49908     49798     49845     49599     49913     49698     49715     49573     49820     49136     49172 
dram[4]:     46560     46857     46346     46404     47379     47424     47307     47186     47254     47362     47313     47486     47229     47348     46605     46599 
dram[5]:     49248     49244     48881     49189     49860     49801     49792     49752     49708     49904     49682     49979     49714     49677     49143     49132 
total reads: 4633882
bank skew: 49979/46180 = 1.08
chip skew: 792706/751953 = 1.05
number of total write accesses:
dram[0]:      2326      2326      2324      2326      2336      2336      2336      2336      2336      2336      2336      2336      2336      2336      2336      2336 
dram[1]:      2326      2326      2324      2326      2336      2336      2336      2336      2336      2336      2336      2336      2336      2336      2336      2336 
dram[2]:      2326      2324      2324      2326      2336      2336      2336      2336      2336      2336      2336      2336      2336      2336      2336      2336 
dram[3]:      2326      2324      2324      2326      2336      2336      2336      2336      2336      2336      2336      2336      2336      2336      2336      2336 
dram[4]:      2326      2324      2326      2326      2336      2336      2336      2336      2336      2336      2336      2336      2336      2336      2336      2336 
dram[5]:      2326      2324      2326      2326      2336      2336      2336      2336      2336      2336      2336      2336      2336      2336      2336      2336 
total reads: 224000
bank skew: 2336/2324 = 1.01
chip skew: 37334/37332 = 1.00
average mf latency per bank:
dram[0]:        655       649       653       651       650       646       656       653       651       646       650       649       654       649       662       655
dram[1]:        609       606       608       604       602       601       610       605       603       599       605       603       610       603       614       609
dram[2]:        641       654       644       654       636       651       646       658       641       651       642       654       645       650       653       662
dram[3]:        615       618       616       616       609       613       615       617       608       609       612       614       615       614       621       625
dram[4]:        658       657       656       659       650       655       659       665       653       655       654       655       656       661       663       668
dram[5]:        611       611       611       606       608       604       613       612       606       601       607       605       609       609       618       616
maximum mf latency per bank:
dram[0]:       1053      1072      1137       989      1076      1011       997      1059      1103      1035      1080      1068      1049      1041      1034      1147
dram[1]:       1073      1086      1075      1099      1089      1069      1109      1056      1043      1060       990      1067      1058      1104      1056      1062
dram[2]:        990      1137      1074      1241      1103      1126      1127      1143      1048      1004      1042      1036      1101      1105      1003      1109
dram[3]:       1089      1159      1191      1193      1045      1080      1069      1113      1104      1035      1229      1302      1184      1121      1027      1006
dram[4]:       1066      1286      1111      1103      1109      1082      1106      1082      1119      1029      1016      1075      1054      1075      1026      1035
dram[5]:       1266      1155      1003      1269      1067      1276      1062      1064      1080      1318      1143      1148      1312      1079      1091      1140

Number of Memory Banks Accessed per Memory Operation per Warp (from 0):
0	0	0	0	0	0	0	0	0	0	0	0	0	0	0	0	0	0	0	0	0	0	0	0	0	0	0	0	0	0	0	0	0	0	0	0	0	0	0	0	0	0	0	0	0	0	0	0	0	0	0	0	0	0	0	0	0	0	0	0	0	0	0	0	0	0	0	0	0	0	0	0	0	0	0	0	0	0	0	0	0	0	0	0	0	0	0	0	0	0	0	0	0	0	0	0	
Average # of Memory Banks Accessed per Memory Operation per Warp=-nan

position of mrq chosen
0	0	0	0	0	0	0	0	0	0	0	0	0	0	0	0	

average position of mrq chosen = -nan
Memory Partition 0: 
Cache L2_bank_000:
MSHR contents

Cache L2_bank_001:
MSHR contents

In Dram Latency Queue (total = 0): 
DRAM[0]: 16 bks, busW=4 BL=8 CL=12, tRRD=2 tCCD=6, tRCD=12 tRAS=28 tRP=12 tRC=40
n_cmd=8692472 n_nop=6274294 n_act=419810 n_pre=419794 n_req=789287 n_rd=1503906 n_write=74668 bw_util=0.3632
n_activity=7371008 dram_eff=0.4283
bk0: 93280a 7487128i bk1: 93194a 7470457i bk2: 92880a 7446909i bk3: 92360a 7441415i bk4: 94688a 7397551i bk5: 94450a 7377140i bk6: 94684a 7344812i bk7: 94498a 7317900i bk8: 94552a 7467490i bk9: 94730a 7446160i bk10: 94792a 7425494i bk11: 94334a 7409886i bk12: 94210a 7399494i bk13: 94692a 7370156i bk14: 93134a 7367124i bk15: 93428a 7337821i 
dram_util_bins: 0 0 0 0 0 0 0 0 0 0
dram_eff_bins: 0 0 0 0 0 0 0 0 0 0
mrqq: max=16 avg=1.72456
Memory Partition 1: 
Cache L2_bank_002:
MSHR contents

Cache L2_bank_003:
MSHR contents

In Dram Latency Queue (total = 0): 
DRAM[1]: 16 bks, busW=4 BL=8 CL=12, tRRD=2 tCCD=6, tRCD=12 tRAS=28 tRP=12 tRC=40
n_cmd=8692472 n_nop=6161686 n_act=435724 n_pre=435708 n_req=829677 n_rd=1584686 n_write=74668 bw_util=0.3818
n_activity=7459595 dram_eff=0.4449
bk0: 98654a 7425436i bk1: 98326a 7404274i bk2: 97788a 7390928i bk3: 98028a 7370440i bk4: 99888a 7334293i bk5: 99608a 7301327i bk6: 99476a 7286174i bk7: 99500a 7252117i bk8: 99534a 7413184i bk9: 99478a 7387159i bk10: 99462a 7365056i bk11: 99246a 7349676i bk12: 99100a 7339572i bk13: 99820a 7298355i bk14: 98266a 7295608i bk15: 98512a 7272964i 
dram_util_bins: 0 0 0 0 0 0 0 0 0 0
dram_eff_bins: 0 0 0 0 0 0 0 0 0 0
mrqq: max=16 avg=1.84841
Memory Partition 2: 
Cache L2_bank_004:
MSHR contents

Cache L2_bank_005:
MSHR contents

In Dram Latency Queue (total = 0): 
DRAM[2]: 16 bks, busW=4 BL=8 CL=12, tRRD=2 tCCD=6, tRCD=12 tRAS=28 tRP=12 tRC=40
n_cmd=8692472 n_nop=6272814 n_act=420309 n_pre=420293 n_req=789528 n_rd=1504392 n_write=74664 bw_util=0.3633
n_activity=7391315 dram_eff=0.4273
bk0: 93740a 7488877i bk1: 93338a 7468088i bk2: 92428a 7457394i bk3: 92818a 7436571i bk4: 94758a 7405542i bk5: 94756a 7374065i bk6: 94562a 7351631i bk7: 94610a 7327244i bk8: 94466a 7469385i bk9: 94706a 7450919i bk10: 94574a 7429642i bk11: 94626a 7412627i bk12: 94010a 7397482i bk13: 94824a 7370852i bk14: 92828a 7375396i bk15: 93348a 7341787i 
dram_util_bins: 0 0 0 0 0 0 0 0 0 0
dram_eff_bins: 0 0 0 0 0 0 0 0 0 0
mrqq: max=16 avg=1.69433
Memory Partition 3: 
Cache L2_bank_006:
MSHR contents
MSHR: tag=0x835e7b80, atomic=0 1 entries : 0x7f62bfa61d80 :  mf: uid=98271840, sid04:w47, part=3, addr=0x835e7b80, load , size=128, unknown  status = IN_PARTITION_DRAM (6585205), 

Cache L2_bank_007:
MSHR contents

In Dram Latency Queue (total = 0): 
DRAM[3]: 16 bks, busW=4 BL=8 CL=12, tRRD=2 tCCD=6, tRCD=12 tRAS=28 tRP=12 tRC=40
n_cmd=8692472 n_nop=6165740 n_act=434017 n_pre=434001 n_req=829357 n_rd=1584050 n_write=74664 bw_util=0.3816
n_activity=7456916 dram_eff=0.4449
bk0: 98446a 7417753i bk1: 98332a 7402037i bk2: 97570a 7378082i bk3: 97934a 7358711i bk4: 99414a 7318303i bk5: 99816a 7291723i bk6: 99596a 7259774i bk7: 99690a 7227979i bk8: 99198a 7403890i bk9: 99826a 7372578i bk10: 99396a 7352991i bk11: 99430a 7333787i bk12: 99146a 7322289i bk13: 99640a 7286768i bk14: 98272a 7279261i bk15: 98344a 7246764i 
dram_util_bins: 0 0 0 0 0 0 0 0 0 0
dram_eff_bins: 0 0 0 0 0 0 0 0 0 0
mrqq: max=16 avg=1.97855
Memory Partition 4: 
Cache L2_bank_008:
MSHR contents

Cache L2_bank_009:
MSHR contents

In Dram Latency Queue (total = 0): 
DRAM[4]: 16 bks, busW=4 BL=8 CL=12, tRRD=2 tCCD=6, tRCD=12 tRAS=28 tRP=12 tRC=40
n_cmd=8692472 n_nop=6274872 n_act=418815 n_pre=418799 n_req=789993 n_rd=1505318 n_write=74668 bw_util=0.3635
n_activity=7382016 dram_eff=0.4281
bk0: 93120a 7483567i bk1: 93714a 7463967i bk2: 92692a 7452636i bk3: 92808a 7434752i bk4: 94758a 7388041i bk5: 94848a 7355653i bk6: 94614a 7341822i bk7: 94372a 7314162i bk8: 94508a 7463665i bk9: 94724a 7438650i bk10: 94626a 7422168i bk11: 94972a 7403371i bk12: 94458a 7388991i bk13: 94696a 7361547i bk14: 93210a 7357330i bk15: 93198a 7336891i 
dram_util_bins: 0 0 0 0 0 0 0 0 0 0
dram_eff_bins: 0 0 0 0 0 0 0 0 0 0
mrqq: max=16 avg=1.77062
Memory Partition 5: 
Cache L2_bank_010:
MSHR contents

Cache L2_bank_011:
MSHR contents

In Dram Latency Queue (total = 0): 
DRAM[5]: 16 bks, busW=4 BL=8 CL=12, tRRD=2 tCCD=6, tRCD=12 tRAS=28 tRP=12 tRC=40
n_cmd=8692472 n_nop=6162572 n_act=434918 n_pre=434902 n_req=830040 n_rd=1585412 n_write=74668 bw_util=0.382
n_activity=7461348 dram_eff=0.445
bk0: 98496a 7413801i bk1: 98488a 7403449i bk2: 97762a 7384492i bk3: 98378a 7354127i bk4: 99720a 7317159i bk5: 99602a 7299544i bk6: 99584a 7267698i bk7: 99504a 7242223i bk8: 99416a 7400585i bk9: 99808a 7378301i bk10: 99364a 7362492i bk11: 99958a 7328376i bk12: 99428a 7318613i bk13: 99354a 7299535i bk14: 98286a 7292902i bk15: 98264a 7257050i 
dram_util_bins: 0 0 0 0 0 0 0 0 0 0
dram_eff_bins: 0 0 0 0 0 0 0 0 0 0
mrqq: max=16 avg=1.9303

========= L2 cache stats =========
L2_cache_bank[0]: Access = 683275, Miss = 376110, Miss_rate = 0.550, Pending_hits = 9, Reservation_fails = 35843
L2_cache_bank[1]: Access = 683149, Miss = 375843, Miss_rate = 0.550, Pending_hits = 0, Reservation_fails = 40644
L2_cache_bank[2]: Access = 683308, Miss = 396084, Miss_rate = 0.580, Pending_hits = 7, Reservation_fails = 22039
L2_cache_bank[3]: Access = 683363, Miss = 396259, Miss_rate = 0.580, Pending_hits = 0, Reservation_fails = 26498
L2_cache_bank[4]: Access = 683350, Miss = 375683, Miss_rate = 0.550, Pending_hits = 8, Reservation_fails = 32009
L2_cache_bank[5]: Access = 683164, Miss = 376513, Miss_rate = 0.551, Pending_hits = 0, Reservation_fails = 37278
L2_cache_bank[6]: Access = 683500, Miss = 395519, Miss_rate = 0.579, Pending_hits = 6, Reservation_fails = 44464
L2_cache_bank[7]: Access = 683213, Miss = 396506, Miss_rate = 0.580, Pending_hits = 0, Reservation_fails = 62786
L2_cache_bank[8]: Access = 683248, Miss = 375993, Miss_rate = 0.550, Pending_hits = 0, Reservation_fails = 54257
L2_cache_bank[9]: Access = 683298, Miss = 376666, Miss_rate = 0.551, Pending_hits = 0, Reservation_fails = 52274
L2_cache_bank[10]: Access = 683245, Miss = 396028, Miss_rate = 0.580, Pending_hits = 0, Reservation_fails = 44703
L2_cache_bank[11]: Access = 683537, Miss = 396678, Miss_rate = 0.580, Pending_hits = 0, Reservation_fails = 44839
L2_total_cache_accesses = 8199650
L2_total_cache_misses = 4633882
L2_total_cache_miss_rate = 0.5651
L2_total_cache_pending_hits = 30
L2_total_cache_reservation_fails = 497634
L2_total_cache_breakdown:
	L2_cache_stats_breakdown[GLOBAL_ACC_R][HIT] = 3565502
	L2_cache_stats_breakdown[GLOBAL_ACC_R][MISS] = 3321863
	L2_cache_stats_breakdown[GLOBAL_ACC_R][RESERVATION_FAIL] = 121230
	L2_cache_stats_breakdown[CONST_ACC_R][HIT] = 157
	L2_cache_stats_breakdown[CONST_ACC_R][HIT_RESERVED] = 11
	L2_cache_stats_breakdown[CONST_ACC_R][MISS] = 12
	L2_cache_stats_breakdown[CONST_ACC_R][RESERVATION_FAIL] = 268
	L2_cache_stats_breakdown[TEXTURE_ACC_R][MISS] = 1088000
	L2_cache_stats_breakdown[TEXTURE_ACC_R][RESERVATION_FAIL] = 369230
	L2_cache_stats_breakdown[GLOBAL_ACC_W][MISS] = 224000
	L2_cache_stats_breakdown[GLOBAL_ACC_W][RESERVATION_FAIL] = 6315
	L2_cache_stats_breakdown[INST_ACC_R][HIT] = 79
	L2_cache_stats_breakdown[INST_ACC_R][HIT_RESERVED] = 19
	L2_cache_stats_breakdown[INST_ACC_R][MISS] = 7
	L2_cache_stats_breakdown[INST_ACC_R][RESERVATION_FAIL] = 591
L2_cache_data_port_util = 0.180
L2_cache_fill_port_util = 0.235

icnt_total_pkts_mem_to_simt=40101890
icnt_total_pkts_simt_to_mem=9095650
LD_mem_lat_dist  0 0 0 0 0 0 0 0 0 0 0 0 0 0 0 0 0 0 0 0 0 0 0 0 0 0 0
ST_mem_lat_dist  0 0 0 0 0 0 0 0 0 0 0 0 0 0 0 0 0 0 0 0 0 0 0 0 0 0 0
----------------------------Interconnect-DETAILS--------------------------------
Class 0:
Packet latency average = 15.733
	minimum = 6
	maximum = 287
Network latency average = 12.9672
	minimum = 6
	maximum = 287
Slowest packet = 15476660
Flit latency average = 12.6142
	minimum = 6
	maximum = 287
Slowest flit = 46428980
Fragmentation average = 0.000100491
	minimum = 0
	maximum = 110
Injected packet rate average = 0.0916014
	minimum = 0.0788352 (at node 6)
	maximum = 0.103125 (at node 19)
Accepted packet rate average = 0.0916014
	minimum = 0.0788352 (at node 6)
	maximum = 0.103125 (at node 19)
Injected flit rate average = 0.27479
	minimum = 0.0806789 (at node 6)
	maximum = 0.513078 (at node 19)
Accepted flit rate average= 0.27479
	minimum = 0.105437 (at node 15)
	maximum = 0.415381 (at node 3)
Injected packet length average = 2.99985
Accepted packet length average = 2.99985
Total in-flight flits = 0 (0 measured)
====== Overall Traffic Statistics ======
====== Traffic class 0 ======
Packet latency average = 23.715 (2 samples)
	minimum = 6 (2 samples)
	maximum = 436 (2 samples)
Network latency average = 18.7391 (2 samples)
	minimum = 6 (2 samples)
	maximum = 434 (2 samples)
Flit latency average = 15.2723 (2 samples)
	minimum = 6 (2 samples)
	maximum = 434 (2 samples)
Fragmentation average = 0.0248605 (2 samples)
	minimum = 0 (2 samples)
	maximum = 311.5 (2 samples)
Injected packet rate average = 0.0919669 (2 samples)
	minimum = 0.0799956 (2 samples)
	maximum = 0.103522 (2 samples)
Accepted packet rate average = 0.0919669 (2 samples)
	minimum = 0.0799956 (2 samples)
	maximum = 0.103522 (2 samples)
Injected flit rate average = 0.275894 (2 samples)
	minimum = 0.0858802 (2 samples)
	maximum = 0.509971 (2 samples)
Accepted flit rate average = 0.275894 (2 samples)
	minimum = 0.111006 (2 samples)
	maximum = 0.413293 (2 samples)
Injected packet size average = 2.99992 (2 samples)
Accepted packet size average = 2.99992 (2 samples)
Hops average = 1 (2 samples)
