

        *** GPGPU-Sim Simulator Version 3.2.2  [build 0] ***


GPGPU-Sim PTX: simulation mode 0 (can change with PTX_SIM_MODE_FUNC environment variable:
               1=functional simulation only, 0=detailed performance simulator)
GPGPU-Sim: Configuration options:

-network_mode                           1 # Interconnection network mode
-inter_config_file   config_fermi_islip.icnt # Interconnection network config file
-gpgpu_ptx_use_cuobjdump                    1 # Use cuobjdump to extract ptx and sass from binaries
-gpgpu_experimental_lib_support                    0 # Try to extract code from cuda libraries [Broken because of unknown cudaGetExportTable]
-gpgpu_ptx_convert_to_ptxplus                    0 # Convert SASS (native ISA) to ptxplus and run ptxplus
-gpgpu_ptx_force_max_capability                   20 # Force maximum compute capability
-gpgpu_ptx_inst_debug_to_file                    0 # Dump executed instructions' debug information to file
-gpgpu_ptx_inst_debug_file       inst_debug.txt # Executed instructions' debug output file
-gpgpu_ptx_inst_debug_thread_uid                    1 # Thread UID for executed instructions' debug output
-gpgpu_simd_model                       1 # 1 = post-dominator
-gpgpu_shader_core_pipeline              1536:32 # shader core pipeline config, i.e., {<nthread>:<warpsize>}
-gpgpu_tex_cache:l1  4:128:24,L:R:m:N:L,F:128:4,128:2 # per-shader L1 texture cache  (READ-ONLY) config  {<nsets>:<bsize>:<assoc>,<rep>:<wr>:<alloc>:<wr_alloc>,<mshr>:<N>:<merge>,<mq>:<rf>}
-gpgpu_const_cache:l1 64:64:2,L:R:f:N:L,A:2:32,4 # per-shader L1 constant memory cache  (READ-ONLY) config  {<nsets>:<bsize>:<assoc>,<rep>:<wr>:<alloc>:<wr_alloc>,<mshr>:<N>:<merge>,<mq>} 
-gpgpu_cache:il1     4:128:4,L:R:f:N:L,A:2:32,4 # shader L1 instruction cache config  {<nsets>:<bsize>:<assoc>,<rep>:<wr>:<alloc>:<wr_alloc>,<mshr>:<N>:<merge>,<mq>} 
-gpgpu_cache:dl1     32:128:4,L:L:m:N:H,A:32:8,8:2,0,1:0:1:1:0:1,1:4:8:16:32:64,/sciclone/data10/hwang07/GPU_RESEARCH/swl/swl_outputs/RESULTS/gto/ # per-shader L1 data cache config  {<nsets>:<bsize>:<assoc>,<rep>:<wr>:<alloc>:<wr_alloc>,<mshr>:<N>:<merge>,<mq> | none}
-gpgpu_cache:dl1PrefL1                 none # per-shader L1 data cache config  {<nsets>:<bsize>:<assoc>,<rep>:<wr>:<alloc>:<wr_alloc>,<mshr>:<N>:<merge>,<mq> | none}
-gpgpu_cache:dl1PreShared                 none # per-shader L1 data cache config  {<nsets>:<bsize>:<assoc>,<rep>:<wr>:<alloc>:<wr_alloc>,<mshr>:<N>:<merge>,<mq> | none}
-gmem_skip_L1D                          0 # global memory access skip L1D cache (implements -Xptxas -dlcm=cg, default=no skip)
-gpgpu_perfect_mem                      0 # enable perfect memory mode (no cache miss)
-n_regfile_gating_group                    4 # group of lanes that should be read/written together)
-gpgpu_clock_gated_reg_file                    0 # enable clock gated reg file for power calculations
-gpgpu_clock_gated_lanes                    0 # enable clock gated lanes for power calculations
-gpgpu_shader_registers                32768 # Number of registers per shader core. Limits number of concurrent CTAs. (default 8192)
-gpgpu_shader_cta                       8 # Maximum number of concurrent CTAs in shader (default 8)
-gpgpu_num_cta_barriers                   16 # Maximum number of named barriers per CTA (default 16)
-gpgpu_n_clusters                      15 # number of processing clusters
-gpgpu_n_cores_per_cluster                    1 # number of simd cores per cluster
-gpgpu_n_cluster_ejection_buffer_size                    8 # number of packets in ejection buffer
-gpgpu_n_ldst_response_buffer_size                    2 # number of response packets in ld/st unit ejection buffer
-gpgpu_shmem_size                   16384 # Size of shared memory per shader core (default 16kB)
-gpgpu_shmem_size                   49152 # Size of shared memory per shader core (default 16kB)
-gpgpu_shmem_size_PrefL1                16384 # Size of shared memory per shader core (default 16kB)
-gpgpu_shmem_size_PrefShared                16384 # Size of shared memory per shader core (default 16kB)
-gpgpu_shmem_num_banks                   32 # Number of banks in the shared memory in each shader core (default 16)
-gpgpu_shmem_limited_broadcast                    0 # Limit shared memory to do one broadcast per cycle (default on)
-gpgpu_shmem_warp_parts                    1 # Number of portions a warp is divided into for shared memory bank conflict check 
-gpgpu_warpdistro_shader                   -1 # Specify which shader core to collect the warp size distribution from
-gpgpu_warp_issue_shader                    0 # Specify which shader core to collect the warp issue distribution from
-gpgpu_local_mem_map                    1 # Mapping from local memory space address to simulated GPU physical address space (default = enabled)
-gpgpu_num_reg_banks                   16 # Number of register banks (default = 8)
-gpgpu_reg_bank_use_warp_id                    0 # Use warp ID in mapping registers to banks (default = off)
-gpgpu_operand_collector_num_units_sp                    6 # number of collector units (default = 4)
-gpgpu_operand_collector_num_units_sfu                    8 # number of collector units (default = 4)
-gpgpu_operand_collector_num_units_mem                    2 # number of collector units (default = 2)
-gpgpu_operand_collector_num_units_gen                    0 # number of collector units (default = 0)
-gpgpu_operand_collector_num_in_ports_sp                    2 # number of collector unit in ports (default = 1)
-gpgpu_operand_collector_num_in_ports_sfu                    1 # number of collector unit in ports (default = 1)
-gpgpu_operand_collector_num_in_ports_mem                    1 # number of collector unit in ports (default = 1)
-gpgpu_operand_collector_num_in_ports_gen                    0 # number of collector unit in ports (default = 0)
-gpgpu_operand_collector_num_out_ports_sp                    2 # number of collector unit in ports (default = 1)
-gpgpu_operand_collector_num_out_ports_sfu                    1 # number of collector unit in ports (default = 1)
-gpgpu_operand_collector_num_out_ports_mem                    1 # number of collector unit in ports (default = 1)
-gpgpu_operand_collector_num_out_ports_gen                    0 # number of collector unit in ports (default = 0)
-gpgpu_coalesce_arch                   13 # Coalescing arch (default = 13, anything else is off for now)
-gpgpu_num_sched_per_core                    2 # Number of warp schedulers per core
-gpgpu_max_insn_issue_per_warp                    1 # Max number of instructions that can be issued per warp in one cycle by scheduler
-gpgpu_simt_core_sim_order                    1 # Select the simulation order of cores in a cluster (0=Fix, 1=Round-Robin)
-gpgpu_pipeline_widths        2,1,1,2,1,1,2 # Pipeline widths ID_OC_SP,ID_OC_SFU,ID_OC_MEM,OC_EX_SP,OC_EX_SFU,OC_EX_MEM,EX_WB
-gpgpu_num_sp_units                     2 # Number of SP units (default=1)
-gpgpu_num_sfu_units                    1 # Number of SF units (default=1)
-gpgpu_num_mem_units                    1 # Number if ldst units (default=1) WARNING: not hooked up to anything
-gpgpu_scheduler                      gto # Scheduler configuration: < lrr | gto | two_level_active > If two_level_active:<num_active_warps>:<inner_prioritization>:<outer_prioritization>For complete list of prioritization values see shader.h enum scheduler_prioritization_typeDefault: gto
-gpgpu_dram_scheduler                    1 # 0 = fifo, 1 = FR-FCFS (defaul)
-gpgpu_dram_partition_queues              8:8:8:8 # i2$:$2d:d2$:$2i
-l2_ideal                               0 # Use a ideal L2 cache that always hit
-gpgpu_cache:dl2     64:128:8,L:B:m:W:L,A:32:4,4:0,32 # unified banked L2 data cache config  {<nsets>:<bsize>:<assoc>,<rep>:<wr>:<alloc>:<wr_alloc>,<mshr>:<N>:<merge>,<mq>}
-gpgpu_cache:dl2_texture_only                    0 # L2 cache used for texture only
-gpgpu_n_mem                            6 # number of memory modules (e.g. memory controllers) in gpu
-gpgpu_n_sub_partition_per_mchannel                    2 # number of memory subpartition in each memory module
-gpgpu_n_mem_per_ctrlr                    2 # number of memory chips per memory controller
-gpgpu_memlatency_stat                   14 # track and display latency statistics 0x2 enables MC, 0x4 enables queue logs
-gpgpu_frfcfs_dram_sched_queue_size                   16 # 0 = unlimited (default); # entries per chip
-gpgpu_dram_return_queue_size                  116 # 0 = unlimited (default); # entries per chip
-gpgpu_dram_buswidth                    4 # default = 4 bytes (8 bytes per cycle at DDR)
-gpgpu_dram_burst_length                    8 # Burst length of each DRAM request (default = 4 data bus cycle)
-dram_data_command_freq_ratio                    4 # Frequency ratio between DRAM data bus and command bus (default = 2 times, i.e. DDR)
-gpgpu_dram_timing_opt nbk=16:CCD=2:RRD=6:RCD=12:RAS=28:RP=12:RC=40: CL=12:WL=4:CDLR=5:WR=12:nbkgrp=4:CCDL=3:RTPL=2 # DRAM timing parameters = {nbk:tCCD:tRRD:tRCD:tRAS:tRP:tRC:CL:WL:tCDLR:tWR:nbkgrp:tCCDL:tRTPL}
-rop_latency                          120 # ROP queue latency (default 85)
-dram_latency                         100 # DRAM latency (default 30)
-gpgpu_mem_addr_mapping dramid@8;00000000.00000000.00000000.00000000.0000RRRR.RRRRRRRR.BBBCCCCB.CCSSSSSS # mapping memory address to dram model {dramid@<start bit>;<memory address map>}
-gpgpu_mem_addr_test                    0 # run sweep test to check address mapping for aliased address
-gpgpu_mem_address_mask                    1 # 0 = old addressing mask, 1 = new addressing mask, 2 = new add. mask + flipped bank sel and chip sel bits
-gpuwattch_xml_file  gpuwattch_gtx480.xml # GPUWattch XML file
-power_simulation_enabled                    0 # Turn on power simulator (1=On, 0=Off)
-power_per_cycle_dump                    0 # Dump detailed power output each cycle
-power_trace_enabled                    0 # produce a file for the power trace (1=On, 0=Off)
-power_trace_zlevel                     6 # Compression level of the power trace output log (0=no comp, 9=highest)
-steady_power_levels_enabled                    0 # produce a file for the steady power levels (1=On, 0=Off)
-steady_state_definition                  8:4 # allowed deviation:number of samples
-gpgpu_max_cycle                        0 # terminates gpu simulation early (0 = no limit)
-gpgpu_max_insn                         0 # terminates gpu simulation early (0 = no limit)
-gpgpu_max_cta                          0 # terminates gpu simulation early (0 = no limit)
-gpgpu_runtime_stat                   500 # display runtime statistics such as dram utilization {<freq>:<flag>}
-liveness_message_freq                    1 # Minimum number of seconds between simulation liveness messages (0 = always print)
-gpgpu_flush_l1_cache                    0 # Flush L1 cache at the end of each kernel call
-gpgpu_flush_l2_cache                    0 # Flush L2 cache at the end of each kernel call
-gpgpu_deadlock_detect                    1 # Stop the simulation at deadlock (1=on (default), 0=off)
-gpgpu_ptx_instruction_classification                    0 # if enabled will classify ptx instruction types per kernel (Max 255 kernels now)
-gpgpu_ptx_sim_mode                     0 # Select between Performance (default) or Functional simulation (1)
-gpgpu_clock_domains 700.0:700.0:700.0:924.0 # Clock Domain Frequencies in MhZ {<Core Clock>:<ICNT Clock>:<L2 Clock>:<DRAM Clock>}
-gpgpu_max_concurrent_kernel                    8 # maximum kernels that can run concurrently on GPU
-gpgpu_cflog_interval                    0 # Interval between each snapshot in control flow logger
-visualizer_enabled                     0 # Turn on visualizer output (1=On, 0=Off)
-visualizer_outputfile                 NULL # Specifies the output log file for visualizer
-visualizer_zlevel                      6 # Compression level of the visualizer output log (0=no comp, 9=highest)
-trace_enabled                          0 # Turn on traces
-trace_components                    none # comma seperated list of traces to enable. Complete list found in trace_streams.tup. Default none
-trace_sampling_core                    0 # The core which is printed using CORE_DPRINTF. Default 0
-trace_sampling_memory_partition                   -1 # The memory partition which is printed using MEMPART_DPRINTF. Default -1 (i.e. all)
-enable_ptx_file_line_stats                    1 # Turn on PTX source line statistic profiling. (1 = On)
-ptx_line_stats_filename gpgpu_inst_stats.txt # Output file for PTX source line statistics.
-save_embedded_ptx                      0 # saves ptx files embedded in binary as <n>.ptx
-keep                                   0 # keep intermediate files created by GPGPU-Sim when interfacing with external programs
-gpgpu_ptx_save_converted_ptxplus                    0 # Saved converted ptxplus to a file
-ptx_opcode_latency_int         4,13,4,5,145 # Opcode latencies for integers <ADD,MAX,MUL,MAD,DIV>Default 1,1,19,25,145
-ptx_opcode_latency_fp          4,13,4,5,39 # Opcode latencies for single precision floating points <ADD,MAX,MUL,MAD,DIV>Default 1,1,1,1,30
-ptx_opcode_latency_dp         8,19,8,8,330 # Opcode latencies for double precision floating points <ADD,MAX,MUL,MAD,DIV>Default 8,8,8,8,335
-ptx_opcode_initiation_int            1,2,2,1,8 # Opcode initiation intervals for integers <ADD,MAX,MUL,MAD,DIV>Default 1,1,4,4,32
-ptx_opcode_initiation_fp            1,2,1,1,4 # Opcode initiation intervals for single precision floating points <ADD,MAX,MUL,MAD,DIV>Default 1,1,1,1,5
-ptx_opcode_initiation_dp         8,16,8,8,130 # Opcode initiation intervals for double precision floating points <ADD,MAX,MUL,MAD,DIV>Default 8,8,8,8,130
DRAM Timing Options:
nbk                                    16 # number of banks
CCD                                     2 # column to column delay
RRD                                     6 # minimal delay between activation of rows in different banks
RCD                                    12 # row to column delay
RAS                                    28 # time needed to activate row
RP                                     12 # time needed to precharge (deactivate) row
RC                                     40 # row cycle time
CDLR                                    5 # switching from write to read (changes tWTR)
WR                                     12 # last data-in to row precharge
CL                                     12 # CAS latency
WL                                      4 # Write latency
nbkgrp                                  4 # number of bank groups
CCDL                                    3 # column to column delay between accesses to different bank groups
RTPL                                    2 # read to precharge delay between accesses to different bank groups
Total number of memory sub partition = 12
addr_dec_mask[CHIP]  = 0000000000000000 	high:64 low:0
addr_dec_mask[BK]    = 000000000000e100 	high:16 low:8
addr_dec_mask[ROW]   = 000000000fff0000 	high:28 low:16
addr_dec_mask[COL]   = 0000000000001eff 	high:13 low:0
addr_dec_mask[BURST] = 000000000000003f 	high:6 low:0
sub_partition_id_mask = 0000000000000100
GPGPU-Sim uArch: clock freqs: 700000000.000000:700000000.000000:700000000.000000:924000000.000000
GPGPU-Sim uArch: clock periods: 0.00000000142857142857:0.00000000142857142857:0.00000000142857142857:0.00000000108225108225
*** Initializing Memory Statistics ***
GPGPU-Sim uArch: interconnect node map (shaderID+MemID to icntID)
GPGPU-Sim uArch: Memory nodes ID start from index: 15
GPGPU-Sim uArch:    0   1   2   3   4
GPGPU-Sim uArch:    5   6   7   8   9
GPGPU-Sim uArch:   10  11  12  13  14
GPGPU-Sim uArch:   15  16  17  18  19
GPGPU-Sim uArch:   20  21  22  23  24
GPGPU-Sim uArch:   25  26
GPGPU-Sim uArch: interconnect node reverse map (icntID to shaderID+MemID)
GPGPU-Sim uArch: Memory nodes start from ID: 15
GPGPU-Sim uArch:    0   1   2   3   4
GPGPU-Sim uArch:    5   6   7   8   9
GPGPU-Sim uArch:   10  11  12  13  14
GPGPU-Sim uArch:   15  16  17  18  19
GPGPU-Sim uArch:   20  21  22  23  24
GPGPU-Sim uArch:   25  26
2da471e6a07416e5693a12f48faeb39d  /sciclone/data10/hwang07/adwait/applications/benchmarks/rodinia/cuda/backprop/gpgpu_ptx_sim__backprop
GPGPU-Sim uArch: performance model initialization complete.
GPGPU-Sim PTX: __cudaRegisterFatBinary, fat_cubin_handle = 1, filename=backprop_cuda.cu
self exe links to: /sciclone/data10/hwang07/adwait/applications/benchmarks/rodinia/cuda/backprop/gpgpu_ptx_sim__backprop
Running md5sum using "md5sum /sciclone/data10/hwang07/adwait/applications/benchmarks/rodinia/cuda/backprop/gpgpu_ptx_sim__backprop "
Parsing file _cuobjdump_complete_output_QC0n2T
######### cuobjdump parser ########
## Adding new section ELF
Adding arch: sm_20
Adding identifier: backprop_cuda.cu
## Adding new section PTX
Adding ptx filename: _cuobjdump_1.ptx
Adding arch: sm_20
Adding identifier: backprop_cuda.cu
Done parsing!!!
GPGPU-Sim PTX: __cudaRegisterFunction _Z24bpnn_adjust_weights_cudaPfiS_iS_S_ : hostFun 0x0x402f24, fat_cubin_handle = 1
GPGPU-Sim PTX: allocating shared region for "__cuda___cuda_local_var_39781_34_non_const_input_node40" from 0x0 to 0x40 (shared memory space)
GPGPU-Sim PTX: allocating shared region for "__cuda___cuda_local_var_39782_34_non_const_weight_matrix104" from 0x80 to 0x480 (shared memory space)
GPGPU-Sim PTX: instruction assembly for function '_Z22bpnn_layerforward_CUDAPfS_S_S_ii'...   done.
GPGPU-Sim PTX: finding reconvergence points for '_Z22bpnn_layerforward_CUDAPfS_S_S_ii'...
GPGPU-Sim PTX: Finding dominators for '_Z22bpnn_layerforward_CUDAPfS_S_S_ii'...
GPGPU-Sim PTX: Finding immediate dominators for '_Z22bpnn_layerforward_CUDAPfS_S_S_ii'...
GPGPU-Sim PTX: Finding postdominators for '_Z22bpnn_layerforward_CUDAPfS_S_S_ii'...
GPGPU-Sim PTX: Finding immediate postdominators for '_Z22bpnn_layerforward_CUDAPfS_S_S_ii'...
GPGPU-Sim PTX: pre-decoding instructions for '_Z22bpnn_layerforward_CUDAPfS_S_S_ii'...
GPGPU-Sim PTX: reconvergence points for _Z22bpnn_layerforward_CUDAPfS_S_S_ii...
GPGPU-Sim PTX:  1 (potential) branch divergence @  PC=0x048 (_1.ptx:76) @!%p1 bra $Lt_0_3586;
GPGPU-Sim PTX:    immediate post dominator      @  PC=0x090 (_1.ptx:88) bar.sync 0;
GPGPU-Sim PTX:  2 (potential) branch divergence @  PC=0x190 (_1.ptx:125) @!%p2 bra $Lt_0_4098;
GPGPU-Sim PTX:    immediate post dominator      @  PC=0x290 (_1.ptx:166) ld.shared.f32 %f17, [%rd14+0];
GPGPU-Sim PTX:  3 (potential) branch divergence @  PC=0x1e8 (_1.ptx:139) @%p3 bra $Lt_0_4866;
GPGPU-Sim PTX:    immediate post dominator      @  PC=0x268 (_1.ptx:158) bar.sync 0;
GPGPU-Sim PTX:  4 (potential) branch divergence @  PC=0x288 (_1.ptx:163) @%p4 bra $Lt_0_4610;
GPGPU-Sim PTX:    immediate post dominator      @  PC=0x290 (_1.ptx:166) ld.shared.f32 %f17, [%rd14+0];
GPGPU-Sim PTX:  5 (potential) branch divergence @  PC=0x2a8 (_1.ptx:170) @!%p1 bra $Lt_0_5634;
GPGPU-Sim PTX:    immediate post dominator      @  PC=0x310 (_1.ptx:186) exit;
GPGPU-Sim PTX: ... end of reconvergence points for _Z22bpnn_layerforward_CUDAPfS_S_S_ii
GPGPU-Sim PTX: ... done pre-decoding instructions for '_Z22bpnn_layerforward_CUDAPfS_S_S_ii'.
GPGPU-Sim PTX: instruction assembly for function '_Z24bpnn_adjust_weights_cudaPfiS_iS_S_'...   done.
GPGPU-Sim PTX: finding reconvergence points for '_Z24bpnn_adjust_weights_cudaPfiS_iS_S_'...
GPGPU-Sim PTX: Finding dominators for '_Z24bpnn_adjust_weights_cudaPfiS_iS_S_'...
GPGPU-Sim PTX: Finding immediate dominators for '_Z24bpnn_adjust_weights_cudaPfiS_iS_S_'...
GPGPU-Sim PTX: Finding postdominators for '_Z24bpnn_adjust_weights_cudaPfiS_iS_S_'...
GPGPU-Sim PTX: Finding immediate postdominators for '_Z24bpnn_adjust_weights_cudaPfiS_iS_S_'...
GPGPU-Sim PTX: pre-decoding instructions for '_Z24bpnn_adjust_weights_cudaPfiS_iS_S_'...
GPGPU-Sim PTX: reconvergence points for _Z24bpnn_adjust_weights_cudaPfiS_iS_S_...
GPGPU-Sim PTX:  1 (potential) branch divergence @  PC=0x530 (_1.ptx:275) @%p1 bra $Lt_1_1282;
GPGPU-Sim PTX:    immediate post dominator      @  PC=0x600 (_1.ptx:305) exit;
GPGPU-Sim PTX: ... end of reconvergence points for _Z24bpnn_adjust_weights_cudaPfiS_iS_S_
GPGPU-Sim PTX: ... done pre-decoding instructions for '_Z24bpnn_adjust_weights_cudaPfiS_iS_S_'.
GPGPU-Sim PTX: finished parsing EMBEDDED .ptx file _1.ptx
Adding _cuobjdump_1.ptx with cubin handle 1
GPGPU-Sim PTX: extracting embedded .ptx to temporary file "_ptx_KyVohX"
Running: cat _ptx_KyVohX | sed 's/.version 1.5/.version 1.4/' | sed 's/, texmode_independent//' | sed 's/\(\.extern \.const\[1\] .b8 \w\+\)\[\]/\1\[1\]/' | sed 's/const\[.\]/const\[0\]/g' > _ptx2_XyuFX2
GPGPU-Sim PTX: generating ptxinfo using "$CUDA_INSTALL_PATH/bin/ptxas --gpu-name=sm_20 -v _ptx2_XyuFX2 --output-file  /dev/null 2> _ptx_KyVohXinfo"
GPGPU-Sim PTX: Kernel '_Z24bpnn_adjust_weights_cudaPfiS_iS_S_' : regs=22, lmem=0, smem=0, cmem=80
GPGPU-Sim PTX: Kernel '_Z22bpnn_layerforward_CUDAPfS_S_S_ii' : regs=13, lmem=0, smem=1088, cmem=72
GPGPU-Sim PTX: removing ptxinfo using "rm -f _ptx_KyVohX _ptx2_XyuFX2 _ptx_KyVohXinfo"
GPGPU-Sim PTX: loading globals with explicit initializers... 
GPGPU-Sim PTX: finished loading globals (0 bytes total).
GPGPU-Sim PTX: loading constants with explicit initializers...  done.
GPGPU-Sim PTX: __cudaRegisterFunction _Z22bpnn_layerforward_CUDAPfS_S_S_ii : hostFun 0x0x402dc8, fat_cubin_handle = 1
Random number generator seed: 7
Input layer size : 65536
Starting training kernel
Performing GPU computation

GPGPU-Sim PTX: cudaLaunch for 0x0x402dc8 (mode=performance simulation) on stream 0
GPGPU-Sim PTX: pushing kernel '_Z22bpnn_layerforward_CUDAPfS_S_S_ii' to stream 0, gridDim= (1,4096,1) blockDim = (16,16,1) 
kernel '_Z22bpnn_layerforward_CUDAPfS_S_S_ii' transfer to GPU hardware scheduler
GPGPU-Sim uArch: Shader 1 bind to kernel 1 '_Z22bpnn_layerforward_CUDAPfS_S_S_ii'
GPGPU-Sim uArch: CTA/core = 6, limited by: threads
GPGPU-Sim uArch: core:  1, cta: 0 initialized @(1,0)
GPGPU-Sim uArch: Shader 2 bind to kernel 1 '_Z22bpnn_layerforward_CUDAPfS_S_S_ii'
GPGPU-Sim uArch: core:  2, cta: 0 initialized @(1,0)
GPGPU-Sim uArch: Shader 3 bind to kernel 1 '_Z22bpnn_layerforward_CUDAPfS_S_S_ii'
GPGPU-Sim uArch: core:  3, cta: 0 initialized @(1,0)
GPGPU-Sim uArch: Shader 4 bind to kernel 1 '_Z22bpnn_layerforward_CUDAPfS_S_S_ii'
GPGPU-Sim uArch: core:  4, cta: 0 initialized @(1,0)
GPGPU-Sim uArch: Shader 5 bind to kernel 1 '_Z22bpnn_layerforward_CUDAPfS_S_S_ii'
GPGPU-Sim uArch: core:  5, cta: 0 initialized @(1,0)
GPGPU-Sim uArch: Shader 6 bind to kernel 1 '_Z22bpnn_layerforward_CUDAPfS_S_S_ii'
GPGPU-Sim uArch: core:  6, cta: 0 initialized @(1,0)
GPGPU-Sim uArch: Shader 7 bind to kernel 1 '_Z22bpnn_layerforward_CUDAPfS_S_S_ii'
GPGPU-Sim uArch: core:  7, cta: 0 initialized @(1,0)
GPGPU-Sim uArch: Shader 8 bind to kernel 1 '_Z22bpnn_layerforward_CUDAPfS_S_S_ii'
GPGPU-Sim uArch: core:  8, cta: 0 initialized @(1,0)
GPGPU-Sim uArch: Shader 9 bind to kernel 1 '_Z22bpnn_layerforward_CUDAPfS_S_S_ii'
GPGPU-Sim uArch: core:  9, cta: 0 initialized @(1,0)
GPGPU-Sim uArch: Shader 10 bind to kernel 1 '_Z22bpnn_layerforward_CUDAPfS_S_S_ii'
GPGPU-Sim uArch: core: 10, cta: 0 initialized @(1,0)
GPGPU-Sim uArch: Shader 11 bind to kernel 1 '_Z22bpnn_layerforward_CUDAPfS_S_S_ii'
GPGPU-Sim uArch: core: 11, cta: 0 initialized @(1,0)
GPGPU-Sim uArch: Shader 12 bind to kernel 1 '_Z22bpnn_layerforward_CUDAPfS_S_S_ii'
GPGPU-Sim uArch: core: 12, cta: 0 initialized @(1,0)
GPGPU-Sim uArch: Shader 13 bind to kernel 1 '_Z22bpnn_layerforward_CUDAPfS_S_S_ii'
GPGPU-Sim uArch: core: 13, cta: 0 initialized @(1,0)
GPGPU-Sim uArch: Shader 14 bind to kernel 1 '_Z22bpnn_layerforward_CUDAPfS_S_S_ii'
GPGPU-Sim uArch: core: 14, cta: 0 initialized @(1,0)
GPGPU-Sim uArch: Shader 0 bind to kernel 1 '_Z22bpnn_layerforward_CUDAPfS_S_S_ii'
GPGPU-Sim uArch: core:  0, cta: 0 initialized @(1,0)
GPGPU-Sim uArch: core:  1, cta: 1 initialized @(2,0)
GPGPU-Sim uArch: core:  2, cta: 1 initialized @(2,0)
GPGPU-Sim uArch: core:  3, cta: 1 initialized @(2,0)
GPGPU-Sim uArch: core:  4, cta: 1 initialized @(2,0)
GPGPU-Sim uArch: core:  5, cta: 1 initialized @(2,0)
GPGPU-Sim uArch: core:  6, cta: 1 initialized @(2,0)
GPGPU-Sim uArch: core:  7, cta: 1 initialized @(2,0)
GPGPU-Sim uArch: core:  8, cta: 1 initialized @(2,0)
GPGPU-Sim uArch: core:  9, cta: 1 initialized @(2,0)
GPGPU-Sim uArch: core: 10, cta: 1 initialized @(2,0)
GPGPU-Sim uArch: core: 11, cta: 1 initialized @(2,0)
GPGPU-Sim uArch: core: 12, cta: 1 initialized @(2,0)
GPGPU-Sim uArch: core: 13, cta: 1 initialized @(2,0)
GPGPU-Sim uArch: core: 14, cta: 1 initialized @(2,0)
GPGPU-Sim uArch: core:  0, cta: 1 initialized @(2,0)
GPGPU-Sim uArch: core:  1, cta: 2 initialized @(3,0)
GPGPU-Sim uArch: core:  2, cta: 2 initialized @(3,0)
GPGPU-Sim uArch: core:  3, cta: 2 initialized @(3,0)
GPGPU-Sim uArch: core:  4, cta: 2 initialized @(3,0)
GPGPU-Sim uArch: core:  5, cta: 2 initialized @(3,0)
GPGPU-Sim uArch: core:  6, cta: 2 initialized @(3,0)
GPGPU-Sim uArch: core:  7, cta: 2 initialized @(3,0)
GPGPU-Sim uArch: core:  8, cta: 2 initialized @(3,0)
GPGPU-Sim uArch: core:  9, cta: 2 initialized @(3,0)
GPGPU-Sim uArch: core: 10, cta: 2 initialized @(3,0)
GPGPU-Sim uArch: core: 11, cta: 2 initialized @(3,0)
GPGPU-Sim uArch: core: 12, cta: 2 initialized @(3,0)
GPGPU-Sim uArch: core: 13, cta: 2 initialized @(3,0)
GPGPU-Sim uArch: core: 14, cta: 2 initialized @(3,0)
GPGPU-Sim uArch: core:  0, cta: 2 initialized @(3,0)
GPGPU-Sim uArch: core:  1, cta: 3 initialized @(4,0)
GPGPU-Sim uArch: core:  2, cta: 3 initialized @(4,0)
GPGPU-Sim uArch: core:  3, cta: 3 initialized @(4,0)
GPGPU-Sim uArch: core:  4, cta: 3 initialized @(4,0)
GPGPU-Sim uArch: core:  5, cta: 3 initialized @(4,0)
GPGPU-Sim uArch: core:  6, cta: 3 initialized @(4,0)
GPGPU-Sim uArch: core:  7, cta: 3 initialized @(4,0)
GPGPU-Sim uArch: core:  8, cta: 3 initialized @(4,0)
GPGPU-Sim uArch: core:  9, cta: 3 initialized @(4,0)
GPGPU-Sim uArch: core: 10, cta: 3 initialized @(4,0)
GPGPU-Sim uArch: core: 11, cta: 3 initialized @(4,0)
GPGPU-Sim uArch: core: 12, cta: 3 initialized @(4,0)
GPGPU-Sim uArch: core: 13, cta: 3 initialized @(4,0)
GPGPU-Sim uArch: core: 14, cta: 3 initialized @(4,0)
GPGPU-Sim uArch: core:  0, cta: 3 initialized @(4,0)
GPGPU-Sim uArch: core:  1, cta: 4 initialized @(5,0)
GPGPU-Sim uArch: core:  2, cta: 4 initialized @(5,0)
GPGPU-Sim uArch: core:  3, cta: 4 initialized @(5,0)
GPGPU-Sim uArch: core:  4, cta: 4 initialized @(5,0)
GPGPU-Sim uArch: core:  5, cta: 4 initialized @(5,0)
GPGPU-Sim uArch: core:  6, cta: 4 initialized @(5,0)
GPGPU-Sim uArch: core:  7, cta: 4 initialized @(5,0)
GPGPU-Sim uArch: core:  8, cta: 4 initialized @(5,0)
GPGPU-Sim uArch: core:  9, cta: 4 initialized @(5,0)
GPGPU-Sim uArch: core: 10, cta: 4 initialized @(5,0)
GPGPU-Sim uArch: core: 11, cta: 4 initialized @(5,0)
GPGPU-Sim uArch: core: 12, cta: 4 initialized @(5,0)
GPGPU-Sim uArch: core: 13, cta: 4 initialized @(5,0)
GPGPU-Sim uArch: core: 14, cta: 4 initialized @(5,0)
GPGPU-Sim uArch: core:  0, cta: 4 initialized @(5,0)
GPGPU-Sim uArch: core:  1, cta: 5 initialized @(6,0)
GPGPU-Sim uArch: core:  2, cta: 5 initialized @(6,0)
GPGPU-Sim uArch: core:  3, cta: 5 initialized @(6,0)
GPGPU-Sim uArch: core:  4, cta: 5 initialized @(6,0)
GPGPU-Sim uArch: core:  5, cta: 5 initialized @(6,0)
GPGPU-Sim uArch: core:  6, cta: 5 initialized @(6,0)
GPGPU-Sim uArch: core:  7, cta: 5 initialized @(6,0)
GPGPU-Sim uArch: core:  8, cta: 5 initialized @(6,0)
GPGPU-Sim uArch: core:  9, cta: 5 initialized @(6,0)
GPGPU-Sim uArch: core: 10, cta: 5 initialized @(6,0)
GPGPU-Sim uArch: core: 11, cta: 5 initialized @(6,0)
GPGPU-Sim uArch: core: 12, cta: 5 initialized @(6,0)
GPGPU-Sim uArch: core: 13, cta: 5 initialized @(6,0)
GPGPU-Sim uArch: core: 14, cta: 5 initialized @(6,0)
GPGPU-Sim uArch: core:  0, cta: 5 initialized @(6,0)
GPGPU-Sim PTX: 100000 instructions simulated : ctaid=(0,50,0) tid=(15,11,0)
GPGPU-Sim uArch: cycles simulated: 500  inst.: 155682 (ipc=311.4) sim_rate=19460 (inst/sec) elapsed = 0:0:00:08 / Tue Mar 22 07:36:59 2016
GPGPU-Sim PTX: 200000 instructions simulated : ctaid=(0,63,0) tid=(11,14,0)
GPGPU-Sim uArch: cycles simulated: 1000  inst.: 237600 (ipc=237.6) sim_rate=26400 (inst/sec) elapsed = 0:0:00:09 / Tue Mar 22 07:37:00 2016
GPGPU-Sim PTX: 300000 instructions simulated : ctaid=(0,13,0) tid=(5,9,0)
GPGPU-Sim uArch: cycles simulated: 1500  inst.: 344974 (ipc=230.0) sim_rate=20292 (inst/sec) elapsed = 0:0:00:17 / Tue Mar 22 07:37:08 2016
GPGPU-Sim PTX: 400000 instructions simulated : ctaid=(0,39,0) tid=(1,4,0)
GPGPU-Sim PTX: 500000 instructions simulated : ctaid=(0,44,0) tid=(15,15,0)
GPGPU-Sim PTX: 600000 instructions simulated : ctaid=(0,38,0) tid=(15,9,0)
GPGPU-Sim PTX: 700000 instructions simulated : ctaid=(0,84,0) tid=(15,7,0)
GPGPU-Sim uArch: cycles simulated: 2500  inst.: 765792 (ipc=306.3) sim_rate=42544 (inst/sec) elapsed = 0:0:00:18 / Tue Mar 22 07:37:09 2016
GPGPU-Sim PTX: 800000 instructions simulated : ctaid=(0,19,0) tid=(15,15,0)
GPGPU-Sim PTX: 900000 instructions simulated : ctaid=(0,65,0) tid=(15,1,0)
GPGPU-Sim PTX: 1000000 instructions simulated : ctaid=(0,0,0) tid=(15,2,0)
GPGPU-Sim uArch: cycles simulated: 3000  inst.: 1024144 (ipc=341.4) sim_rate=53902 (inst/sec) elapsed = 0:0:00:19 / Tue Mar 22 07:37:10 2016
GPGPU-Sim PTX: 1100000 instructions simulated : ctaid=(0,45,0) tid=(15,4,0)
GPGPU-Sim PTX: 1200000 instructions simulated : ctaid=(0,41,0) tid=(15,0,0)
GPGPU-Sim PTX: 1300000 instructions simulated : ctaid=(0,84,0) tid=(15,0,0)
GPGPU-Sim PTX: 1400000 instructions simulated : ctaid=(0,12,0) tid=(15,12,0)
GPGPU-Sim PTX: 1500000 instructions simulated : ctaid=(0,14,0) tid=(15,15,0)
GPGPU-Sim uArch: cycles simulated: 4000  inst.: 1497392 (ipc=374.3) sim_rate=74869 (inst/sec) elapsed = 0:0:00:20 / Tue Mar 22 07:37:11 2016
GPGPU-Sim PTX: 1600000 instructions simulated : ctaid=(0,70,0) tid=(15,2,0)
GPGPU-Sim PTX: 1700000 instructions simulated : ctaid=(0,70,0) tid=(15,15,0)
GPGPU-Sim PTX: 1800000 instructions simulated : ctaid=(0,41,0) tid=(15,4,0)
GPGPU-Sim uArch: cycles simulated: 4500  inst.: 1821856 (ipc=404.9) sim_rate=86755 (inst/sec) elapsed = 0:0:00:21 / Tue Mar 22 07:37:12 2016
GPGPU-Sim PTX: 1900000 instructions simulated : ctaid=(0,60,0) tid=(15,2,0)
GPGPU-Sim PTX: 2000000 instructions simulated : ctaid=(0,34,0) tid=(15,3,0)
GPGPU-Sim PTX: 2100000 instructions simulated : ctaid=(0,2,0) tid=(5,12,0)
GPGPU-Sim uArch: cycles simulated: 5000  inst.: 2120884 (ipc=424.2) sim_rate=96403 (inst/sec) elapsed = 0:0:00:22 / Tue Mar 22 07:37:13 2016
GPGPU-Sim PTX: 2200000 instructions simulated : ctaid=(0,85,0) tid=(7,8,0)
GPGPU-Sim PTX: 2300000 instructions simulated : ctaid=(0,67,0) tid=(9,6,0)
GPGPU-Sim PTX: 2400000 instructions simulated : ctaid=(0,75,0) tid=(3,10,0)
GPGPU-Sim uArch: cycles simulated: 5500  inst.: 2353164 (ipc=427.8) sim_rate=102311 (inst/sec) elapsed = 0:0:00:23 / Tue Mar 22 07:37:14 2016
GPGPU-Sim uArch: Shader 4 finished CTA #0 (5514,0), 5 CTAs running
GPGPU-Sim uArch: core:  4, cta: 0 initialized @(5515,0)
GPGPU-Sim uArch: Shader 10 finished CTA #0 (5519,0), 5 CTAs running
GPGPU-Sim uArch: Shader 14 finished CTA #0 (5519,0), 5 CTAs running
GPGPU-Sim uArch: core: 10, cta: 0 initialized @(5520,0)
GPGPU-Sim uArch: core: 14, cta: 0 initialized @(5520,0)
GPGPU-Sim uArch: Shader 5 finished CTA #0 (5534,0), 5 CTAs running
GPGPU-Sim uArch: core:  5, cta: 0 initialized @(5535,0)
GPGPU-Sim uArch: Shader 4 finished CTA #1 (5542,0), 5 CTAs running
GPGPU-Sim uArch: Shader 7 finished CTA #0 (5542,0), 5 CTAs running
GPGPU-Sim uArch: core:  7, cta: 0 initialized @(5543,0)
GPGPU-Sim uArch: core:  4, cta: 1 initialized @(5543,0)
GPGPU-Sim uArch: Shader 8 finished CTA #0 (5548,0), 5 CTAs running
GPGPU-Sim uArch: core:  8, cta: 0 initialized @(5549,0)
GPGPU-Sim uArch: Shader 6 finished CTA #0 (5563,0), 5 CTAs running
GPGPU-Sim uArch: core:  6, cta: 0 initialized @(5564,0)
GPGPU-Sim uArch: Shader 10 finished CTA #1 (5565,0), 5 CTAs running
GPGPU-Sim uArch: core: 10, cta: 1 initialized @(5566,0)
GPGPU-Sim uArch: Shader 0 finished CTA #1 (5596,0), 5 CTAs running
GPGPU-Sim uArch: core:  0, cta: 1 initialized @(5597,0)
GPGPU-Sim uArch: Shader 10 finished CTA #2 (5597,0), 5 CTAs running
GPGPU-Sim uArch: core: 10, cta: 2 initialized @(5598,0)
GPGPU-Sim uArch: Shader 7 finished CTA #1 (5628,0), 5 CTAs running
GPGPU-Sim uArch: core:  7, cta: 1 initialized @(5629,0)
GPGPU-Sim uArch: Shader 9 finished CTA #1 (5641,0), 5 CTAs running
GPGPU-Sim uArch: core:  9, cta: 1 initialized @(5642,0)
GPGPU-Sim uArch: Shader 6 finished CTA #1 (5649,0), 5 CTAs running
GPGPU-Sim uArch: core:  6, cta: 1 initialized @(5650,0)
GPGPU-Sim uArch: Shader 9 finished CTA #0 (5650,0), 5 CTAs running
GPGPU-Sim uArch: core:  9, cta: 0 initialized @(5651,0)
GPGPU-Sim uArch: Shader 2 finished CTA #0 (5651,0), 5 CTAs running
GPGPU-Sim uArch: core:  2, cta: 0 initialized @(5652,0)
GPGPU-Sim uArch: Shader 5 finished CTA #1 (5653,0), 5 CTAs running
GPGPU-Sim uArch: Shader 12 finished CTA #0 (5653,0), 5 CTAs running
GPGPU-Sim uArch: core:  5, cta: 1 initialized @(5654,0)
GPGPU-Sim uArch: core: 12, cta: 0 initialized @(5654,0)
GPGPU-Sim uArch: Shader 0 finished CTA #0 (5662,0), 5 CTAs running
GPGPU-Sim uArch: core:  0, cta: 0 initialized @(5663,0)
GPGPU-Sim uArch: Shader 3 finished CTA #0 (5669,0), 5 CTAs running
GPGPU-Sim uArch: core:  3, cta: 0 initialized @(5670,0)
GPGPU-Sim uArch: Shader 0 finished CTA #2 (5671,0), 5 CTAs running
GPGPU-Sim uArch: core:  0, cta: 2 initialized @(5672,0)
GPGPU-Sim uArch: Shader 2 finished CTA #1 (5674,0), 5 CTAs running
GPGPU-Sim uArch: core:  2, cta: 1 initialized @(5675,0)
GPGPU-Sim uArch: Shader 1 finished CTA #0 (5675,0), 5 CTAs running
GPGPU-Sim uArch: Shader 8 finished CTA #1 (5675,0), 5 CTAs running
GPGPU-Sim uArch: core:  8, cta: 1 initialized @(5676,0)
GPGPU-Sim uArch: core:  1, cta: 0 initialized @(5676,0)
GPGPU-Sim PTX: 2500000 instructions simulated : ctaid=(0,112,0) tid=(5,0,0)
GPGPU-Sim uArch: Shader 13 finished CTA #0 (5680,0), 5 CTAs running
GPGPU-Sim uArch: core: 13, cta: 0 initialized @(5681,0)
GPGPU-Sim uArch: Shader 1 finished CTA #1 (5692,0), 5 CTAs running
GPGPU-Sim uArch: core:  1, cta: 1 initialized @(5693,0)
GPGPU-Sim uArch: Shader 3 finished CTA #1 (5695,0), 5 CTAs running
GPGPU-Sim uArch: core:  3, cta: 1 initialized @(5696,0)
GPGPU-Sim uArch: Shader 12 finished CTA #1 (5697,0), 5 CTAs running
GPGPU-Sim uArch: core: 12, cta: 1 initialized @(5698,0)
GPGPU-Sim uArch: Shader 13 finished CTA #1 (5705,0), 5 CTAs running
GPGPU-Sim uArch: core: 13, cta: 1 initialized @(5706,0)
GPGPU-Sim uArch: Shader 5 finished CTA #2 (5709,0), 5 CTAs running
GPGPU-Sim uArch: core:  5, cta: 2 initialized @(5710,0)
GPGPU-Sim uArch: Shader 4 finished CTA #2 (5710,0), 5 CTAs running
GPGPU-Sim uArch: core:  4, cta: 2 initialized @(5711,0)
GPGPU-Sim uArch: Shader 11 finished CTA #1 (5711,0), 5 CTAs running
GPGPU-Sim uArch: core: 11, cta: 1 initialized @(5712,0)
GPGPU-Sim uArch: Shader 8 finished CTA #2 (5712,0), 5 CTAs running
GPGPU-Sim uArch: Shader 14 finished CTA #2 (5712,0), 5 CTAs running
GPGPU-Sim uArch: core: 14, cta: 2 initialized @(5713,0)
GPGPU-Sim uArch: core:  8, cta: 2 initialized @(5713,0)
GPGPU-Sim uArch: Shader 9 finished CTA #2 (5732,0), 5 CTAs running
GPGPU-Sim uArch: core:  9, cta: 2 initialized @(5733,0)
GPGPU-Sim uArch: Shader 2 finished CTA #2 (5735,0), 5 CTAs running
GPGPU-Sim uArch: core:  2, cta: 2 initialized @(5736,0)
GPGPU-Sim uArch: Shader 14 finished CTA #1 (5738,0), 5 CTAs running
GPGPU-Sim uArch: core: 14, cta: 1 initialized @(5739,0)
GPGPU-Sim uArch: Shader 1 finished CTA #2 (5746,0), 5 CTAs running
GPGPU-Sim uArch: core:  1, cta: 2 initialized @(5747,0)
GPGPU-Sim uArch: Shader 3 finished CTA #2 (5747,0), 5 CTAs running
GPGPU-Sim uArch: core:  3, cta: 2 initialized @(5748,0)
GPGPU-Sim uArch: Shader 6 finished CTA #2 (5751,0), 5 CTAs running
GPGPU-Sim uArch: core:  6, cta: 2 initialized @(5752,0)
GPGPU-Sim uArch: Shader 11 finished CTA #0 (5775,0), 5 CTAs running
GPGPU-Sim uArch: core: 11, cta: 0 initialized @(5776,0)
GPGPU-Sim PTX: 2600000 instructions simulated : ctaid=(0,111,0) tid=(9,6,0)
GPGPU-Sim uArch: Shader 7 finished CTA #2 (5851,0), 5 CTAs running
GPGPU-Sim uArch: core:  7, cta: 2 initialized @(5852,0)
GPGPU-Sim uArch: Shader 12 finished CTA #2 (5880,0), 5 CTAs running
GPGPU-Sim uArch: core: 12, cta: 2 initialized @(5881,0)
GPGPU-Sim uArch: Shader 11 finished CTA #2 (5890,0), 5 CTAs running
GPGPU-Sim uArch: core: 11, cta: 2 initialized @(5891,0)
GPGPU-Sim uArch: Shader 13 finished CTA #2 (5897,0), 5 CTAs running
GPGPU-Sim uArch: core: 13, cta: 2 initialized @(5898,0)
GPGPU-Sim uArch: Shader 5 finished CTA #3 (5931,0), 5 CTAs running
GPGPU-Sim uArch: core:  5, cta: 3 initialized @(5932,0)
GPGPU-Sim uArch: Shader 2 finished CTA #3 (5961,0), 5 CTAs running
GPGPU-Sim uArch: core:  2, cta: 3 initialized @(5962,0)
GPGPU-Sim uArch: Shader 3 finished CTA #3 (5984,0), 5 CTAs running
GPGPU-Sim uArch: core:  3, cta: 3 initialized @(5985,0)
GPGPU-Sim uArch: Shader 0 finished CTA #3 (5999,0), 5 CTAs running
GPGPU-Sim uArch: Shader 14 finished CTA #3 (5999,0), 5 CTAs running
GPGPU-Sim uArch: core: 14, cta: 3 initialized @(6000,0)
GPGPU-Sim uArch: core:  0, cta: 3 initialized @(6000,0)
GPGPU-Sim uArch: cycles simulated: 6000  inst.: 2612092 (ipc=435.3) sim_rate=108837 (inst/sec) elapsed = 0:0:00:24 / Tue Mar 22 07:37:15 2016
GPGPU-Sim uArch: Shader 1 finished CTA #3 (6011,0), 5 CTAs running
GPGPU-Sim uArch: core:  1, cta: 3 initialized @(6012,0)
GPGPU-Sim uArch: Shader 10 finished CTA #3 (6036,0), 5 CTAs running
GPGPU-Sim uArch: core: 10, cta: 3 initialized @(6037,0)
GPGPU-Sim PTX: 2700000 instructions simulated : ctaid=(0,68,0) tid=(15,4,0)
GPGPU-Sim uArch: Shader 6 finished CTA #3 (6078,0), 5 CTAs running
GPGPU-Sim uArch: core:  6, cta: 3 initialized @(6079,0)
GPGPU-Sim uArch: Shader 4 finished CTA #3 (6108,0), 5 CTAs running
GPGPU-Sim uArch: core:  4, cta: 3 initialized @(6109,0)
GPGPU-Sim uArch: Shader 12 finished CTA #3 (6123,0), 5 CTAs running
GPGPU-Sim uArch: core: 12, cta: 3 initialized @(6124,0)
GPGPU-Sim uArch: Shader 13 finished CTA #3 (6133,0), 5 CTAs running
GPGPU-Sim uArch: core: 13, cta: 3 initialized @(6134,0)
GPGPU-Sim uArch: Shader 9 finished CTA #3 (6166,0), 5 CTAs running
GPGPU-Sim uArch: core:  9, cta: 3 initialized @(6167,0)
GPGPU-Sim uArch: Shader 8 finished CTA #3 (6179,0), 5 CTAs running
GPGPU-Sim uArch: core:  8, cta: 3 initialized @(6180,0)
GPGPU-Sim uArch: Shader 5 finished CTA #4 (6196,0), 5 CTAs running
GPGPU-Sim uArch: core:  5, cta: 4 initialized @(6197,0)
GPGPU-Sim uArch: Shader 6 finished CTA #4 (6198,0), 5 CTAs running
GPGPU-Sim uArch: core:  6, cta: 4 initialized @(6199,0)
GPGPU-Sim uArch: Shader 7 finished CTA #3 (6221,0), 5 CTAs running
GPGPU-Sim uArch: core:  7, cta: 3 initialized @(6222,0)
GPGPU-Sim PTX: 2800000 instructions simulated : ctaid=(0,98,0) tid=(11,9,0)
GPGPU-Sim uArch: Shader 11 finished CTA #3 (6296,0), 5 CTAs running
GPGPU-Sim uArch: core: 11, cta: 3 initialized @(6297,0)
GPGPU-Sim uArch: Shader 14 finished CTA #4 (6323,0), 5 CTAs running
GPGPU-Sim uArch: core: 14, cta: 4 initialized @(6324,0)
GPGPU-Sim uArch: Shader 12 finished CTA #4 (6369,0), 5 CTAs running
GPGPU-Sim uArch: core: 12, cta: 4 initialized @(6370,0)
GPGPU-Sim uArch: Shader 0 finished CTA #4 (6384,0), 5 CTAs running
GPGPU-Sim uArch: core:  0, cta: 4 initialized @(6385,0)
GPGPU-Sim PTX: 2900000 instructions simulated : ctaid=(0,118,0) tid=(3,11,0)
GPGPU-Sim uArch: Shader 13 finished CTA #4 (6424,0), 5 CTAs running
GPGPU-Sim uArch: core: 13, cta: 4 initialized @(6425,0)
GPGPU-Sim uArch: Shader 2 finished CTA #4 (6432,0), 5 CTAs running
GPGPU-Sim uArch: core:  2, cta: 4 initialized @(6433,0)
GPGPU-Sim uArch: Shader 4 finished CTA #4 (6439,0), 5 CTAs running
GPGPU-Sim uArch: core:  4, cta: 4 initialized @(6440,0)
GPGPU-Sim uArch: Shader 7 finished CTA #4 (6462,0), 5 CTAs running
GPGPU-Sim uArch: core:  7, cta: 4 initialized @(6463,0)
GPGPU-Sim uArch: cycles simulated: 6500  inst.: 2884960 (ipc=443.8) sim_rate=115398 (inst/sec) elapsed = 0:0:00:25 / Tue Mar 22 07:37:16 2016
GPGPU-Sim uArch: Shader 10 finished CTA #4 (6502,0), 5 CTAs running
GPGPU-Sim uArch: core: 10, cta: 4 initialized @(6503,0)
GPGPU-Sim uArch: Shader 3 finished CTA #4 (6506,0), 5 CTAs running
GPGPU-Sim uArch: core:  3, cta: 4 initialized @(6507,0)
GPGPU-Sim uArch: Shader 8 finished CTA #4 (6509,0), 5 CTAs running
GPGPU-Sim uArch: core:  8, cta: 4 initialized @(6510,0)
GPGPU-Sim uArch: Shader 5 finished CTA #5 (6516,0), 5 CTAs running
GPGPU-Sim uArch: core:  5, cta: 5 initialized @(6517,0)
GPGPU-Sim uArch: Shader 9 finished CTA #4 (6544,0), 5 CTAs running
GPGPU-Sim uArch: core:  9, cta: 4 initialized @(6545,0)
GPGPU-Sim PTX: 3000000 instructions simulated : ctaid=(0,120,0) tid=(11,10,0)
GPGPU-Sim uArch: Shader 11 finished CTA #4 (6560,0), 5 CTAs running
GPGPU-Sim uArch: core: 11, cta: 4 initialized @(6561,0)
GPGPU-Sim uArch: Shader 6 finished CTA #5 (6563,0), 5 CTAs running
GPGPU-Sim uArch: core:  6, cta: 5 initialized @(6564,0)
GPGPU-Sim uArch: Shader 10 finished CTA #5 (6684,0), 5 CTAs running
GPGPU-Sim uArch: core: 10, cta: 5 initialized @(6685,0)
GPGPU-Sim uArch: Shader 3 finished CTA #5 (6738,0), 5 CTAs running
GPGPU-Sim uArch: core:  3, cta: 5 initialized @(6739,0)
GPGPU-Sim PTX: 3100000 instructions simulated : ctaid=(0,126,0) tid=(3,13,0)
GPGPU-Sim uArch: Shader 7 finished CTA #5 (6764,0), 5 CTAs running
GPGPU-Sim uArch: core:  7, cta: 5 initialized @(6765,0)
GPGPU-Sim uArch: Shader 1 finished CTA #5 (6768,0), 5 CTAs running
GPGPU-Sim uArch: core:  1, cta: 5 initialized @(6769,0)
GPGPU-Sim uArch: Shader 4 finished CTA #5 (6770,0), 5 CTAs running
GPGPU-Sim uArch: core:  4, cta: 5 initialized @(6771,0)
GPGPU-Sim uArch: Shader 12 finished CTA #5 (6828,0), 5 CTAs running
GPGPU-Sim uArch: core: 12, cta: 5 initialized @(6829,0)
GPGPU-Sim uArch: Shader 1 finished CTA #4 (6848,0), 5 CTAs running
GPGPU-Sim uArch: core:  1, cta: 4 initialized @(6849,0)
GPGPU-Sim uArch: Shader 2 finished CTA #5 (6865,0), 5 CTAs running
GPGPU-Sim uArch: core:  2, cta: 5 initialized @(6866,0)
GPGPU-Sim uArch: Shader 0 finished CTA #5 (6926,0), 5 CTAs running
GPGPU-Sim uArch: core:  0, cta: 5 initialized @(6927,0)
GPGPU-Sim PTX: 3200000 instructions simulated : ctaid=(0,140,0) tid=(7,2,0)
GPGPU-Sim uArch: cycles simulated: 7000  inst.: 3135214 (ipc=447.9) sim_rate=120585 (inst/sec) elapsed = 0:0:00:26 / Tue Mar 22 07:37:17 2016
GPGPU-Sim uArch: Shader 14 finished CTA #5 (7019,0), 5 CTAs running
GPGPU-Sim uArch: core: 14, cta: 5 initialized @(7020,0)
GPGPU-Sim uArch: Shader 11 finished CTA #5 (7114,0), 5 CTAs running
GPGPU-Sim uArch: core: 11, cta: 5 initialized @(7115,0)
GPGPU-Sim uArch: Shader 13 finished CTA #5 (7115,0), 5 CTAs running
GPGPU-Sim uArch: core: 13, cta: 5 initialized @(7116,0)
GPGPU-Sim PTX: 3300000 instructions simulated : ctaid=(0,107,0) tid=(7,11,0)
GPGPU-Sim uArch: Shader 9 finished CTA #5 (7203,0), 5 CTAs running
GPGPU-Sim uArch: core:  9, cta: 5 initialized @(7204,0)
GPGPU-Sim uArch: Shader 8 finished CTA #5 (7222,0), 5 CTAs running
GPGPU-Sim uArch: core:  8, cta: 5 initialized @(7223,0)
GPGPU-Sim PTX: 3400000 instructions simulated : ctaid=(0,92,0) tid=(15,13,0)
GPGPU-Sim PTX: 3500000 instructions simulated : ctaid=(0,129,0) tid=(3,7,0)
GPGPU-Sim uArch: cycles simulated: 7500  inst.: 3436704 (ipc=458.2) sim_rate=127285 (inst/sec) elapsed = 0:0:00:27 / Tue Mar 22 07:37:18 2016
GPGPU-Sim PTX: 3600000 instructions simulated : ctaid=(0,154,0) tid=(9,4,0)
GPGPU-Sim PTX: 3700000 instructions simulated : ctaid=(0,105,0) tid=(9,1,0)
GPGPU-Sim PTX: 3800000 instructions simulated : ctaid=(0,138,0) tid=(1,12,0)
GPGPU-Sim PTX: 3900000 instructions simulated : ctaid=(0,127,0) tid=(3,14,0)
GPGPU-Sim PTX: 4000000 instructions simulated : ctaid=(0,96,0) tid=(9,8,0)
GPGPU-Sim PTX: 4100000 instructions simulated : ctaid=(0,167,0) tid=(15,5,0)
GPGPU-Sim uArch: cycles simulated: 8500  inst.: 4004280 (ipc=471.1) sim_rate=143010 (inst/sec) elapsed = 0:0:00:28 / Tue Mar 22 07:37:19 2016
GPGPU-Sim PTX: 4200000 instructions simulated : ctaid=(0,107,0) tid=(5,5,0)
GPGPU-Sim PTX: 4300000 instructions simulated : ctaid=(0,150,0) tid=(7,7,0)
GPGPU-Sim uArch: Shader 10 finished CTA #0 (8854,0), 5 CTAs running
GPGPU-Sim uArch: core: 10, cta: 0 initialized @(8855,0)
GPGPU-Sim uArch: Shader 4 finished CTA #0 (8860,0), 5 CTAs running
GPGPU-Sim uArch: core:  4, cta: 0 initialized @(8861,0)
GPGPU-Sim uArch: Shader 14 finished CTA #0 (8883,0), 5 CTAs running
GPGPU-Sim uArch: core: 14, cta: 0 initialized @(8884,0)
GPGPU-Sim uArch: Shader 5 finished CTA #0 (8905,0), 5 CTAs running
GPGPU-Sim uArch: core:  5, cta: 0 initialized @(8906,0)
GPGPU-Sim uArch: Shader 12 finished CTA #0 (8928,0), 5 CTAs running
GPGPU-Sim uArch: core: 12, cta: 0 initialized @(8929,0)
GPGPU-Sim PTX: 4400000 instructions simulated : ctaid=(0,118,0) tid=(5,8,0)
GPGPU-Sim uArch: cycles simulated: 9000  inst.: 4308700 (ipc=478.7) sim_rate=148575 (inst/sec) elapsed = 0:0:00:29 / Tue Mar 22 07:37:20 2016
GPGPU-Sim uArch: Shader 3 finished CTA #0 (9055,0), 5 CTAs running
GPGPU-Sim uArch: core:  3, cta: 0 initialized @(9056,0)
GPGPU-Sim PTX: 4500000 instructions simulated : ctaid=(0,108,0) tid=(1,5,0)
GPGPU-Sim uArch: Shader 6 finished CTA #0 (9164,0), 5 CTAs running
GPGPU-Sim uArch: core:  6, cta: 0 initialized @(9165,0)
GPGPU-Sim PTX: 4600000 instructions simulated : ctaid=(0,166,0) tid=(1,12,0)
GPGPU-Sim uArch: Shader 10 finished CTA #1 (9300,0), 5 CTAs running
GPGPU-Sim uArch: core: 10, cta: 1 initialized @(9301,0)
GPGPU-Sim uArch: Shader 1 finished CTA #0 (9302,0), 5 CTAs running
GPGPU-Sim uArch: core:  1, cta: 0 initialized @(9303,0)
GPGPU-Sim uArch: Shader 7 finished CTA #0 (9326,0), 5 CTAs running
GPGPU-Sim uArch: core:  7, cta: 0 initialized @(9327,0)
GPGPU-Sim uArch: Shader 4 finished CTA #1 (9327,0), 5 CTAs running
GPGPU-Sim uArch: core:  4, cta: 1 initialized @(9328,0)
GPGPU-Sim uArch: Shader 0 finished CTA #1 (9330,0), 5 CTAs running
GPGPU-Sim uArch: core:  0, cta: 1 initialized @(9331,0)
GPGPU-Sim uArch: Shader 7 finished CTA #1 (9367,0), 5 CTAs running
GPGPU-Sim uArch: core:  7, cta: 1 initialized @(9368,0)
GPGPU-Sim uArch: Shader 5 finished CTA #1 (9384,0), 5 CTAs running
GPGPU-Sim uArch: core:  5, cta: 1 initialized @(9385,0)
GPGPU-Sim uArch: Shader 12 finished CTA #1 (9453,0), 5 CTAs running
GPGPU-Sim uArch: core: 12, cta: 1 initialized @(9454,0)
GPGPU-Sim PTX: 4700000 instructions simulated : ctaid=(0,163,0) tid=(11,6,0)
GPGPU-Sim uArch: Shader 13 finished CTA #0 (9468,0), 5 CTAs running
GPGPU-Sim uArch: core: 13, cta: 0 initialized @(9469,0)
GPGPU-Sim uArch: Shader 9 finished CTA #1 (9490,0), 5 CTAs running
GPGPU-Sim uArch: core:  9, cta: 1 initialized @(9491,0)
GPGPU-Sim uArch: cycles simulated: 9500  inst.: 4596192 (ipc=483.8) sim_rate=153206 (inst/sec) elapsed = 0:0:00:30 / Tue Mar 22 07:37:21 2016
GPGPU-Sim uArch: Shader 11 finished CTA #1 (9503,0), 5 CTAs running
GPGPU-Sim uArch: core: 11, cta: 1 initialized @(9504,0)
GPGPU-Sim uArch: Shader 0 finished CTA #0 (9565,0), 5 CTAs running
GPGPU-Sim uArch: core:  0, cta: 0 initialized @(9566,0)
GPGPU-Sim uArch: Shader 9 finished CTA #0 (9618,0), 5 CTAs running
GPGPU-Sim uArch: core:  9, cta: 0 initialized @(9619,0)
GPGPU-Sim uArch: Shader 10 finished CTA #2 (9621,0), 5 CTAs running
GPGPU-Sim uArch: core: 10, cta: 2 initialized @(9622,0)
GPGPU-Sim uArch: Shader 2 finished CTA #0 (9626,0), 5 CTAs running
GPGPU-Sim uArch: core:  2, cta: 0 initialized @(9627,0)
GPGPU-Sim PTX: 4800000 instructions simulated : ctaid=(0,143,0) tid=(13,8,0)
GPGPU-Sim uArch: Shader 1 finished CTA #1 (9640,0), 5 CTAs running
GPGPU-Sim uArch: core:  1, cta: 1 initialized @(9641,0)
GPGPU-Sim uArch: Shader 7 finished CTA #2 (9664,0), 5 CTAs running
GPGPU-Sim uArch: core:  7, cta: 2 initialized @(9665,0)
GPGPU-Sim uArch: Shader 4 finished CTA #2 (9667,0), 5 CTAs running
GPGPU-Sim uArch: core:  4, cta: 2 initialized @(9668,0)
GPGPU-Sim uArch: Shader 8 finished CTA #0 (9683,0), 5 CTAs running
GPGPU-Sim uArch: core:  8, cta: 0 initialized @(9684,0)
GPGPU-Sim uArch: Shader 6 finished CTA #1 (9694,0), 5 CTAs running
GPGPU-Sim uArch: core:  6, cta: 1 initialized @(9695,0)
GPGPU-Sim uArch: Shader 3 finished CTA #1 (9699,0), 5 CTAs running
GPGPU-Sim uArch: core:  3, cta: 1 initialized @(9700,0)
GPGPU-Sim uArch: Shader 8 finished CTA #1 (9741,0), 5 CTAs running
GPGPU-Sim uArch: core:  8, cta: 1 initialized @(9742,0)
GPGPU-Sim uArch: Shader 5 finished CTA #2 (9781,0), 5 CTAs running
GPGPU-Sim uArch: core:  5, cta: 2 initialized @(9782,0)
GPGPU-Sim PTX: 4900000 instructions simulated : ctaid=(0,147,0) tid=(7,4,0)
GPGPU-Sim uArch: Shader 14 finished CTA #2 (9803,0), 5 CTAs running
GPGPU-Sim uArch: core: 14, cta: 2 initialized @(9804,0)
GPGPU-Sim uArch: Shader 13 finished CTA #1 (9810,0), 5 CTAs running
GPGPU-Sim uArch: core: 13, cta: 1 initialized @(9811,0)
GPGPU-Sim uArch: Shader 2 finished CTA #1 (9842,0), 5 CTAs running
GPGPU-Sim uArch: core:  2, cta: 1 initialized @(9843,0)
GPGPU-Sim uArch: Shader 0 finished CTA #2 (9863,0), 5 CTAs running
GPGPU-Sim uArch: core:  0, cta: 2 initialized @(9864,0)
GPGPU-Sim uArch: Shader 11 finished CTA #0 (9871,0), 5 CTAs running
GPGPU-Sim uArch: core: 11, cta: 0 initialized @(9872,0)
GPGPU-Sim uArch: Shader 9 finished CTA #2 (9937,0), 5 CTAs running
GPGPU-Sim uArch: core:  9, cta: 2 initialized @(9938,0)
GPGPU-Sim PTX: 5000000 instructions simulated : ctaid=(0,191,0) tid=(7,6,0)
GPGPU-Sim uArch: cycles simulated: 10000  inst.: 4883430 (ipc=488.3) sim_rate=157530 (inst/sec) elapsed = 0:0:00:31 / Tue Mar 22 07:37:22 2016
GPGPU-Sim uArch: Shader 6 finished CTA #2 (10002,0), 5 CTAs running
GPGPU-Sim uArch: core:  6, cta: 2 initialized @(10003,0)
GPGPU-Sim uArch: Shader 2 finished CTA #2 (10012,0), 5 CTAs running
GPGPU-Sim uArch: core:  2, cta: 2 initialized @(10013,0)
GPGPU-Sim uArch: Shader 14 finished CTA #1 (10025,0), 5 CTAs running
GPGPU-Sim uArch: core: 14, cta: 1 initialized @(10026,0)
GPGPU-Sim uArch: Shader 8 finished CTA #2 (10050,0), 5 CTAs running
GPGPU-Sim uArch: core:  8, cta: 2 initialized @(10051,0)
GPGPU-Sim uArch: Shader 1 finished CTA #2 (10119,0), 5 CTAs running
GPGPU-Sim uArch: core:  1, cta: 2 initialized @(10120,0)
GPGPU-Sim uArch: Shader 12 finished CTA #2 (10131,0), 5 CTAs running
GPGPU-Sim uArch: core: 12, cta: 2 initialized @(10132,0)
GPGPU-Sim uArch: Shader 6 finished CTA #3 (10132,0), 5 CTAs running
GPGPU-Sim uArch: core:  6, cta: 3 initialized @(10133,0)
GPGPU-Sim uArch: Shader 3 finished CTA #2 (10136,0), 5 CTAs running
GPGPU-Sim uArch: core:  3, cta: 2 initialized @(10137,0)
GPGPU-Sim PTX: 5100000 instructions simulated : ctaid=(0,165,0) tid=(11,8,0)
GPGPU-Sim uArch: Shader 11 finished CTA #2 (10170,0), 5 CTAs running
GPGPU-Sim uArch: core: 11, cta: 2 initialized @(10171,0)
GPGPU-Sim uArch: Shader 0 finished CTA #3 (10176,0), 5 CTAs running
GPGPU-Sim uArch: core:  0, cta: 3 initialized @(10177,0)
GPGPU-Sim uArch: Shader 13 finished CTA #2 (10197,0), 5 CTAs running
GPGPU-Sim uArch: core: 13, cta: 2 initialized @(10198,0)
GPGPU-Sim uArch: Shader 14 finished CTA #3 (10210,0), 5 CTAs running
GPGPU-Sim uArch: core: 14, cta: 3 initialized @(10211,0)
GPGPU-Sim uArch: Shader 5 finished CTA #3 (10270,0), 5 CTAs running
GPGPU-Sim uArch: core:  5, cta: 3 initialized @(10271,0)
GPGPU-Sim uArch: Shader 12 finished CTA #3 (10289,0), 5 CTAs running
GPGPU-Sim uArch: core: 12, cta: 3 initialized @(10290,0)
GPGPU-Sim uArch: Shader 4 finished CTA #3 (10295,0), 5 CTAs running
GPGPU-Sim uArch: core:  4, cta: 3 initialized @(10296,0)
GPGPU-Sim PTX: 5200000 instructions simulated : ctaid=(0,180,0) tid=(11,12,0)
GPGPU-Sim uArch: Shader 1 finished CTA #3 (10389,0), 5 CTAs running
GPGPU-Sim uArch: core:  1, cta: 3 initialized @(10390,0)
GPGPU-Sim uArch: Shader 9 finished CTA #3 (10416,0), 5 CTAs running
GPGPU-Sim uArch: core:  9, cta: 3 initialized @(10417,0)
GPGPU-Sim PTX: 5300000 instructions simulated : ctaid=(0,229,0) tid=(3,10,0)
GPGPU-Sim uArch: Shader 8 finished CTA #3 (10465,0), 5 CTAs running
GPGPU-Sim uArch: core:  8, cta: 3 initialized @(10466,0)
GPGPU-Sim uArch: Shader 13 finished CTA #3 (10472,0), 5 CTAs running
GPGPU-Sim uArch: core: 13, cta: 3 initialized @(10473,0)
GPGPU-Sim uArch: cycles simulated: 10500  inst.: 5184168 (ipc=493.7) sim_rate=162005 (inst/sec) elapsed = 0:0:00:32 / Tue Mar 22 07:37:23 2016
GPGPU-Sim uArch: Shader 10 finished CTA #3 (10529,0), 5 CTAs running
GPGPU-Sim uArch: core: 10, cta: 3 initialized @(10530,0)
GPGPU-Sim uArch: Shader 3 finished CTA #3 (10578,0), 5 CTAs running
GPGPU-Sim uArch: core:  3, cta: 3 initialized @(10579,0)
GPGPU-Sim uArch: Shader 11 finished CTA #3 (10597,0), 5 CTAs running
GPGPU-Sim uArch: core: 11, cta: 3 initialized @(10598,0)
GPGPU-Sim uArch: Shader 2 finished CTA #3 (10611,0), 5 CTAs running
GPGPU-Sim uArch: core:  2, cta: 3 initialized @(10612,0)
GPGPU-Sim PTX: 5400000 instructions simulated : ctaid=(0,169,0) tid=(7,14,0)
GPGPU-Sim uArch: Shader 7 finished CTA #3 (10628,0), 5 CTAs running
GPGPU-Sim uArch: core:  7, cta: 3 initialized @(10629,0)
GPGPU-Sim uArch: Shader 4 finished CTA #4 (10767,0), 5 CTAs running
GPGPU-Sim uArch: core:  4, cta: 4 initialized @(10768,0)
GPGPU-Sim PTX: 5500000 instructions simulated : ctaid=(0,179,0) tid=(5,14,0)
GPGPU-Sim uArch: Shader 0 finished CTA #4 (10805,0), 5 CTAs running
GPGPU-Sim uArch: core:  0, cta: 4 initialized @(10806,0)
GPGPU-Sim uArch: Shader 5 finished CTA #4 (10890,0), 5 CTAs running
GPGPU-Sim uArch: core:  5, cta: 4 initialized @(10891,0)
GPGPU-Sim PTX: 5600000 instructions simulated : ctaid=(0,240,0) tid=(3,4,0)
GPGPU-Sim uArch: Shader 10 finished CTA #4 (10984,0), 5 CTAs running
GPGPU-Sim uArch: core: 10, cta: 4 initialized @(10985,0)
GPGPU-Sim uArch: Shader 2 finished CTA #4 (10988,0), 5 CTAs running
GPGPU-Sim uArch: core:  2, cta: 4 initialized @(10989,0)
GPGPU-Sim uArch: cycles simulated: 11000  inst.: 5489622 (ipc=499.1) sim_rate=166352 (inst/sec) elapsed = 0:0:00:33 / Tue Mar 22 07:37:24 2016
GPGPU-Sim uArch: Shader 7 finished CTA #4 (11020,0), 5 CTAs running
GPGPU-Sim uArch: core:  7, cta: 4 initialized @(11021,0)
GPGPU-Sim uArch: Shader 13 finished CTA #4 (11040,0), 5 CTAs running
GPGPU-Sim uArch: core: 13, cta: 4 initialized @(11041,0)
GPGPU-Sim uArch: Shader 12 finished CTA #4 (11069,0), 5 CTAs running
GPGPU-Sim uArch: core: 12, cta: 4 initialized @(11070,0)
GPGPU-Sim PTX: 5700000 instructions simulated : ctaid=(0,204,0) tid=(5,11,0)
GPGPU-Sim uArch: Shader 3 finished CTA #4 (11173,0), 5 CTAs running
GPGPU-Sim uArch: core:  3, cta: 4 initialized @(11174,0)
GPGPU-Sim uArch: Shader 14 finished CTA #4 (11191,0), 5 CTAs running
GPGPU-Sim uArch: core: 14, cta: 4 initialized @(11192,0)
GPGPU-Sim PTX: 5800000 instructions simulated : ctaid=(0,234,0) tid=(7,14,0)
GPGPU-Sim uArch: Shader 8 finished CTA #4 (11273,0), 5 CTAs running
GPGPU-Sim uArch: core:  8, cta: 4 initialized @(11274,0)
GPGPU-Sim uArch: Shader 6 finished CTA #4 (11367,0), 5 CTAs running
GPGPU-Sim uArch: core:  6, cta: 4 initialized @(11368,0)
GPGPU-Sim uArch: Shader 1 finished CTA #5 (11385,0), 5 CTAs running
GPGPU-Sim uArch: core:  1, cta: 5 initialized @(11386,0)
GPGPU-Sim uArch: Shader 12 finished CTA #5 (11386,0), 5 CTAs running
GPGPU-Sim uArch: core: 12, cta: 5 initialized @(11387,0)
GPGPU-Sim PTX: 5900000 instructions simulated : ctaid=(0,230,0) tid=(5,2,0)
GPGPU-Sim uArch: Shader 5 finished CTA #5 (11436,0), 5 CTAs running
GPGPU-Sim uArch: core:  5, cta: 5 initialized @(11437,0)
GPGPU-Sim uArch: Shader 9 finished CTA #4 (11443,0), 5 CTAs running
GPGPU-Sim uArch: core:  9, cta: 4 initialized @(11444,0)
GPGPU-Sim uArch: Shader 11 finished CTA #4 (11461,0), 5 CTAs running
GPGPU-Sim uArch: core: 11, cta: 4 initialized @(11462,0)
GPGPU-Sim uArch: cycles simulated: 11500  inst.: 5785120 (ipc=503.1) sim_rate=170150 (inst/sec) elapsed = 0:0:00:34 / Tue Mar 22 07:37:25 2016
GPGPU-Sim uArch: Shader 6 finished CTA #5 (11564,0), 5 CTAs running
GPGPU-Sim uArch: core:  6, cta: 5 initialized @(11565,0)
GPGPU-Sim PTX: 6000000 instructions simulated : ctaid=(0,246,0) tid=(5,13,0)
GPGPU-Sim PTX: 6100000 instructions simulated : ctaid=(0,229,0) tid=(13,7,0)
GPGPU-Sim uArch: Shader 3 finished CTA #5 (11815,0), 5 CTAs running
GPGPU-Sim uArch: core:  3, cta: 5 initialized @(11816,0)
GPGPU-Sim uArch: Shader 10 finished CTA #5 (11831,0), 5 CTAs running
GPGPU-Sim uArch: core: 10, cta: 5 initialized @(11832,0)
GPGPU-Sim uArch: Shader 7 finished CTA #5 (11883,0), 5 CTAs running
GPGPU-Sim uArch: core:  7, cta: 5 initialized @(11884,0)
GPGPU-Sim PTX: 6200000 instructions simulated : ctaid=(0,224,0) tid=(11,6,0)
GPGPU-Sim uArch: Shader 14 finished CTA #5 (11940,0), 5 CTAs running
GPGPU-Sim uArch: core: 14, cta: 5 initialized @(11941,0)
GPGPU-Sim uArch: cycles simulated: 12000  inst.: 6080754 (ipc=506.7) sim_rate=173735 (inst/sec) elapsed = 0:0:00:35 / Tue Mar 22 07:37:26 2016
GPGPU-Sim PTX: 6300000 instructions simulated : ctaid=(0,197,0) tid=(1,4,0)
GPGPU-Sim uArch: Shader 2 finished CTA #5 (12102,0), 5 CTAs running
GPGPU-Sim uArch: core:  2, cta: 5 initialized @(12103,0)
GPGPU-Sim uArch: Shader 0 finished CTA #5 (12119,0), 5 CTAs running
GPGPU-Sim uArch: core:  0, cta: 5 initialized @(12120,0)
GPGPU-Sim uArch: Shader 4 finished CTA #5 (12125,0), 5 CTAs running
GPGPU-Sim uArch: core:  4, cta: 5 initialized @(12126,0)
GPGPU-Sim uArch: Shader 13 finished CTA #5 (12138,0), 5 CTAs running
GPGPU-Sim uArch: core: 13, cta: 5 initialized @(12139,0)
GPGPU-Sim PTX: 6400000 instructions simulated : ctaid=(0,210,0) tid=(15,14,0)
GPGPU-Sim uArch: Shader 1 finished CTA #4 (12249,0), 5 CTAs running
GPGPU-Sim uArch: core:  1, cta: 4 initialized @(12250,0)
GPGPU-Sim uArch: Shader 8 finished CTA #5 (12370,0), 5 CTAs running
GPGPU-Sim uArch: core:  8, cta: 5 initialized @(12371,0)
GPGPU-Sim uArch: Shader 9 finished CTA #5 (12382,0), 5 CTAs running
GPGPU-Sim uArch: core:  9, cta: 5 initialized @(12383,0)
GPGPU-Sim PTX: 6500000 instructions simulated : ctaid=(0,259,0) tid=(11,0,0)
GPGPU-Sim uArch: Shader 11 finished CTA #5 (12429,0), 5 CTAs running
GPGPU-Sim uArch: core: 11, cta: 5 initialized @(12430,0)
GPGPU-Sim uArch: cycles simulated: 12500  inst.: 6396240 (ipc=511.7) sim_rate=177673 (inst/sec) elapsed = 0:0:00:36 / Tue Mar 22 07:37:27 2016
GPGPU-Sim PTX: 6600000 instructions simulated : ctaid=(0,213,0) tid=(5,8,0)
GPGPU-Sim PTX: 6700000 instructions simulated : ctaid=(0,190,0) tid=(9,2,0)
GPGPU-Sim uArch: Shader 12 finished CTA #0 (12765,0), 5 CTAs running
GPGPU-Sim uArch: core: 12, cta: 0 initialized @(12766,0)
GPGPU-Sim uArch: Shader 4 finished CTA #0 (12854,0), 5 CTAs running
GPGPU-Sim uArch: core:  4, cta: 0 initialized @(12855,0)
GPGPU-Sim PTX: 6800000 instructions simulated : ctaid=(0,225,0) tid=(5,4,0)
GPGPU-Sim uArch: Shader 5 finished CTA #0 (12969,0), 5 CTAs running
GPGPU-Sim uArch: core:  5, cta: 0 initialized @(12970,0)
GPGPU-Sim uArch: cycles simulated: 13000  inst.: 6670144 (ipc=513.1) sim_rate=180274 (inst/sec) elapsed = 0:0:00:37 / Tue Mar 22 07:37:28 2016
GPGPU-Sim uArch: Shader 6 finished CTA #0 (13023,0), 5 CTAs running
GPGPU-Sim uArch: core:  6, cta: 0 initialized @(13024,0)
GPGPU-Sim uArch: Shader 9 finished CTA #1 (13030,0), 5 CTAs running
GPGPU-Sim uArch: core:  9, cta: 1 initialized @(13031,0)
GPGPU-Sim uArch: Shader 7 finished CTA #0 (13075,0), 5 CTAs running
GPGPU-Sim uArch: core:  7, cta: 0 initialized @(13076,0)
GPGPU-Sim uArch: Shader 10 finished CTA #0 (13078,0), 5 CTAs running
GPGPU-Sim uArch: core: 10, cta: 0 initialized @(13079,0)
GPGPU-Sim uArch: Shader 3 finished CTA #0 (13081,0), 5 CTAs running
GPGPU-Sim uArch: core:  3, cta: 0 initialized @(13082,0)
GPGPU-Sim PTX: 6900000 instructions simulated : ctaid=(0,197,0) tid=(3,5,0)
GPGPU-Sim uArch: Shader 1 finished CTA #0 (13096,0), 5 CTAs running
GPGPU-Sim uArch: core:  1, cta: 0 initialized @(13097,0)
GPGPU-Sim uArch: Shader 13 finished CTA #0 (13141,0), 5 CTAs running
GPGPU-Sim uArch: core: 13, cta: 0 initialized @(13142,0)
GPGPU-Sim uArch: Shader 14 finished CTA #0 (13223,0), 5 CTAs running
GPGPU-Sim uArch: core: 14, cta: 0 initialized @(13224,0)
GPGPU-Sim uArch: Shader 6 finished CTA #1 (13230,0), 5 CTAs running
GPGPU-Sim uArch: core:  6, cta: 1 initialized @(13231,0)
GPGPU-Sim PTX: 7000000 instructions simulated : ctaid=(0,280,0) tid=(5,14,0)
GPGPU-Sim uArch: Shader 11 finished CTA #1 (13259,0), 5 CTAs running
GPGPU-Sim uArch: core: 11, cta: 1 initialized @(13260,0)
GPGPU-Sim uArch: Shader 5 finished CTA #1 (13294,0), 5 CTAs running
GPGPU-Sim uArch: core:  5, cta: 1 initialized @(13295,0)
GPGPU-Sim uArch: Shader 12 finished CTA #1 (13318,0), 5 CTAs running
GPGPU-Sim uArch: core: 12, cta: 1 initialized @(13319,0)
GPGPU-Sim uArch: Shader 4 finished CTA #1 (13350,0), 5 CTAs running
GPGPU-Sim uArch: core:  4, cta: 1 initialized @(13351,0)
GPGPU-Sim uArch: Shader 10 finished CTA #1 (13357,0), 5 CTAs running
GPGPU-Sim uArch: core: 10, cta: 1 initialized @(13358,0)
GPGPU-Sim uArch: Shader 0 finished CTA #1 (13365,0), 5 CTAs running
GPGPU-Sim uArch: core:  0, cta: 1 initialized @(13366,0)
GPGPU-Sim uArch: Shader 2 finished CTA #0 (13370,0), 5 CTAs running
GPGPU-Sim uArch: Shader 8 finished CTA #0 (13370,0), 5 CTAs running
GPGPU-Sim uArch: core:  2, cta: 0 initialized @(13371,0)
GPGPU-Sim uArch: core:  8, cta: 0 initialized @(13371,0)
GPGPU-Sim uArch: Shader 3 finished CTA #1 (13381,0), 5 CTAs running
GPGPU-Sim uArch: core:  3, cta: 1 initialized @(13382,0)
GPGPU-Sim uArch: Shader 14 finished CTA #2 (13398,0), 5 CTAs running
GPGPU-Sim uArch: core: 14, cta: 2 initialized @(13399,0)
GPGPU-Sim PTX: 7100000 instructions simulated : ctaid=(0,290,0) tid=(7,1,0)
GPGPU-Sim uArch: Shader 7 finished CTA #1 (13474,0), 5 CTAs running
GPGPU-Sim uArch: core:  7, cta: 1 initialized @(13475,0)
GPGPU-Sim uArch: cycles simulated: 13500  inst.: 6965536 (ipc=516.0) sim_rate=183303 (inst/sec) elapsed = 0:0:00:38 / Tue Mar 22 07:37:29 2016
GPGPU-Sim uArch: Shader 2 finished CTA #1 (13533,0), 5 CTAs running
GPGPU-Sim uArch: core:  2, cta: 1 initialized @(13534,0)
GPGPU-Sim PTX: 7200000 instructions simulated : ctaid=(0,259,0) tid=(9,2,0)
GPGPU-Sim uArch: Shader 0 finished CTA #0 (13616,0), 5 CTAs running
GPGPU-Sim uArch: core:  0, cta: 0 initialized @(13617,0)
GPGPU-Sim uArch: Shader 9 finished CTA #0 (13626,0), 5 CTAs running
GPGPU-Sim uArch: core:  9, cta: 0 initialized @(13627,0)
GPGPU-Sim uArch: Shader 4 finished CTA #2 (13644,0), 5 CTAs running
GPGPU-Sim uArch: core:  4, cta: 2 initialized @(13645,0)
GPGPU-Sim uArch: Shader 1 finished CTA #1 (13685,0), 5 CTAs running
GPGPU-Sim uArch: core:  1, cta: 1 initialized @(13686,0)
GPGPU-Sim uArch: Shader 13 finished CTA #1 (13710,0), 5 CTAs running
GPGPU-Sim uArch: core: 13, cta: 1 initialized @(13711,0)
GPGPU-Sim uArch: Shader 11 finished CTA #0 (13711,0), 5 CTAs running
GPGPU-Sim uArch: core: 11, cta: 0 initialized @(13712,0)
GPGPU-Sim uArch: Shader 8 finished CTA #1 (13716,0), 5 CTAs running
GPGPU-Sim uArch: core:  8, cta: 1 initialized @(13717,0)
GPGPU-Sim PTX: 7300000 instructions simulated : ctaid=(0,230,0) tid=(1,14,0)
GPGPU-Sim uArch: Shader 0 finished CTA #2 (13794,0), 5 CTAs running
GPGPU-Sim uArch: core:  0, cta: 2 initialized @(13795,0)
GPGPU-Sim uArch: Shader 5 finished CTA #2 (13846,0), 5 CTAs running
GPGPU-Sim uArch: core:  5, cta: 2 initialized @(13847,0)
GPGPU-Sim uArch: Shader 9 finished CTA #2 (13852,0), 5 CTAs running
GPGPU-Sim uArch: core:  9, cta: 2 initialized @(13853,0)
GPGPU-Sim PTX: 7400000 instructions simulated : ctaid=(0,300,0) tid=(11,10,0)
GPGPU-Sim uArch: Shader 12 finished CTA #2 (13923,0), 5 CTAs running
GPGPU-Sim uArch: core: 12, cta: 2 initialized @(13924,0)
GPGPU-Sim uArch: Shader 10 finished CTA #2 (13965,0), 5 CTAs running
GPGPU-Sim uArch: core: 10, cta: 2 initialized @(13966,0)
GPGPU-Sim uArch: cycles simulated: 14000  inst.: 7266714 (ipc=519.1) sim_rate=186326 (inst/sec) elapsed = 0:0:00:39 / Tue Mar 22 07:37:30 2016
GPGPU-Sim PTX: 7500000 instructions simulated : ctaid=(0,305,0) tid=(7,11,0)
GPGPU-Sim uArch: Shader 8 finished CTA #2 (14085,0), 5 CTAs running
GPGPU-Sim uArch: core:  8, cta: 2 initialized @(14086,0)
GPGPU-Sim uArch: Shader 7 finished CTA #2 (14204,0), 5 CTAs running
GPGPU-Sim uArch: core:  7, cta: 2 initialized @(14205,0)
GPGPU-Sim PTX: 7600000 instructions simulated : ctaid=(0,262,0) tid=(9,15,0)
GPGPU-Sim uArch: Shader 1 finished CTA #2 (14295,0), 5 CTAs running
GPGPU-Sim uArch: core:  1, cta: 2 initialized @(14296,0)
GPGPU-Sim uArch: Shader 14 finished CTA #1 (14296,0), 5 CTAs running
GPGPU-Sim uArch: core: 14, cta: 1 initialized @(14297,0)
GPGPU-Sim uArch: Shader 6 finished CTA #2 (14300,0), 5 CTAs running
GPGPU-Sim uArch: core:  6, cta: 2 initialized @(14301,0)
GPGPU-Sim uArch: Shader 13 finished CTA #2 (14361,0), 5 CTAs running
GPGPU-Sim uArch: core: 13, cta: 2 initialized @(14362,0)
GPGPU-Sim PTX: 7700000 instructions simulated : ctaid=(0,242,0) tid=(15,7,0)
GPGPU-Sim uArch: Shader 2 finished CTA #2 (14434,0), 5 CTAs running
GPGPU-Sim uArch: core:  2, cta: 2 initialized @(14435,0)
GPGPU-Sim uArch: cycles simulated: 14500  inst.: 7560370 (ipc=521.4) sim_rate=189009 (inst/sec) elapsed = 0:0:00:40 / Tue Mar 22 07:37:31 2016
GPGPU-Sim uArch: Shader 3 finished CTA #2 (14501,0), 5 CTAs running
GPGPU-Sim uArch: core:  3, cta: 2 initialized @(14502,0)
GPGPU-Sim uArch: Shader 5 finished CTA #3 (14522,0), 5 CTAs running
GPGPU-Sim uArch: core:  5, cta: 3 initialized @(14523,0)
GPGPU-Sim uArch: Shader 6 finished CTA #3 (14544,0), 5 CTAs running
GPGPU-Sim uArch: core:  6, cta: 3 initialized @(14545,0)
GPGPU-Sim PTX: 7800000 instructions simulated : ctaid=(0,268,0) tid=(1,4,0)
GPGPU-Sim uArch: Shader 12 finished CTA #3 (14570,0), 5 CTAs running
GPGPU-Sim uArch: core: 12, cta: 3 initialized @(14571,0)
GPGPU-Sim PTX: 7900000 instructions simulated : ctaid=(0,244,0) tid=(13,5,0)
GPGPU-Sim uArch: Shader 11 finished CTA #2 (14726,0), 5 CTAs running
GPGPU-Sim uArch: core: 11, cta: 2 initialized @(14727,0)
GPGPU-Sim uArch: Shader 14 finished CTA #3 (14728,0), 5 CTAs running
GPGPU-Sim uArch: core: 14, cta: 3 initialized @(14729,0)
GPGPU-Sim uArch: Shader 3 finished CTA #3 (14750,0), 5 CTAs running
GPGPU-Sim uArch: core:  3, cta: 3 initialized @(14751,0)
GPGPU-Sim uArch: Shader 4 finished CTA #3 (14852,0), 5 CTAs running
GPGPU-Sim uArch: core:  4, cta: 3 initialized @(14853,0)
GPGPU-Sim PTX: 8000000 instructions simulated : ctaid=(0,320,0) tid=(11,8,0)
GPGPU-Sim uArch: Shader 0 finished CTA #3 (14874,0), 5 CTAs running
GPGPU-Sim uArch: core:  0, cta: 3 initialized @(14875,0)
GPGPU-Sim uArch: Shader 1 finished CTA #3 (14876,0), 5 CTAs running
GPGPU-Sim uArch: core:  1, cta: 3 initialized @(14877,0)
GPGPU-Sim uArch: Shader 2 finished CTA #3 (14930,0), 5 CTAs running
GPGPU-Sim uArch: core:  2, cta: 3 initialized @(14931,0)
GPGPU-Sim uArch: Shader 7 finished CTA #3 (14941,0), 5 CTAs running
GPGPU-Sim uArch: core:  7, cta: 3 initialized @(14942,0)
GPGPU-Sim uArch: cycles simulated: 15000  inst.: 7868278 (ipc=524.6) sim_rate=191909 (inst/sec) elapsed = 0:0:00:41 / Tue Mar 22 07:37:32 2016
GPGPU-Sim uArch: Shader 13 finished CTA #3 (15028,0), 5 CTAs running
GPGPU-Sim uArch: core: 13, cta: 3 initialized @(15029,0)
GPGPU-Sim PTX: 8100000 instructions simulated : ctaid=(0,275,0) tid=(13,0,0)
GPGPU-Sim uArch: Shader 11 finished CTA #3 (15035,0), 5 CTAs running
GPGPU-Sim uArch: core: 11, cta: 3 initialized @(15036,0)
GPGPU-Sim uArch: Shader 10 finished CTA #3 (15045,0), 5 CTAs running
GPGPU-Sim uArch: core: 10, cta: 3 initialized @(15046,0)
GPGPU-Sim uArch: Shader 8 finished CTA #3 (15068,0), 5 CTAs running
GPGPU-Sim uArch: core:  8, cta: 3 initialized @(15069,0)
GPGPU-Sim uArch: Shader 9 finished CTA #3 (15098,0), 5 CTAs running
GPGPU-Sim uArch: core:  9, cta: 3 initialized @(15099,0)
GPGPU-Sim PTX: 8200000 instructions simulated : ctaid=(0,244,0) tid=(9,3,0)
GPGPU-Sim uArch: Shader 10 finished CTA #4 (15248,0), 5 CTAs running
GPGPU-Sim uArch: core: 10, cta: 4 initialized @(15249,0)
GPGPU-Sim PTX: 8300000 instructions simulated : ctaid=(0,270,0) tid=(11,0,0)
GPGPU-Sim uArch: Shader 4 finished CTA #4 (15436,0), 5 CTAs running
GPGPU-Sim uArch: core:  4, cta: 4 initialized @(15437,0)
GPGPU-Sim uArch: Shader 7 finished CTA #4 (15472,0), 5 CTAs running
GPGPU-Sim uArch: core:  7, cta: 4 initialized @(15473,0)
GPGPU-Sim uArch: cycles simulated: 15500  inst.: 8168548 (ipc=527.0) sim_rate=194489 (inst/sec) elapsed = 0:0:00:42 / Tue Mar 22 07:37:33 2016
GPGPU-Sim uArch: Shader 5 finished CTA #4 (15501,0), 5 CTAs running
GPGPU-Sim uArch: core:  5, cta: 4 initialized @(15502,0)
GPGPU-Sim PTX: 8400000 instructions simulated : ctaid=(0,309,0) tid=(3,9,0)
GPGPU-Sim uArch: Shader 13 finished CTA #4 (15652,0), 5 CTAs running
GPGPU-Sim uArch: core: 13, cta: 4 initialized @(15653,0)
GPGPU-Sim uArch: Shader 12 finished CTA #4 (15662,0), 5 CTAs running
GPGPU-Sim uArch: core: 12, cta: 4 initialized @(15663,0)
GPGPU-Sim PTX: 8500000 instructions simulated : ctaid=(0,334,0) tid=(9,1,0)
GPGPU-Sim uArch: Shader 6 finished CTA #4 (15729,0), 5 CTAs running
GPGPU-Sim uArch: core:  6, cta: 4 initialized @(15730,0)
GPGPU-Sim uArch: Shader 0 finished CTA #4 (15773,0), 5 CTAs running
GPGPU-Sim uArch: core:  0, cta: 4 initialized @(15774,0)
GPGPU-Sim uArch: Shader 2 finished CTA #4 (15789,0), 5 CTAs running
GPGPU-Sim uArch: core:  2, cta: 4 initialized @(15790,0)
GPGPU-Sim PTX: 8600000 instructions simulated : ctaid=(0,295,0) tid=(13,7,0)
GPGPU-Sim uArch: Shader 9 finished CTA #4 (15852,0), 5 CTAs running
GPGPU-Sim uArch: Shader 14 finished CTA #4 (15852,0), 5 CTAs running
GPGPU-Sim uArch: core:  9, cta: 4 initialized @(15853,0)
GPGPU-Sim uArch: core: 14, cta: 4 initialized @(15853,0)
GPGPU-Sim uArch: Shader 3 finished CTA #4 (15873,0), 5 CTAs running
GPGPU-Sim uArch: core:  3, cta: 4 initialized @(15874,0)
GPGPU-Sim uArch: Shader 11 finished CTA #4 (15884,0), 5 CTAs running
GPGPU-Sim uArch: core: 11, cta: 4 initialized @(15885,0)
GPGPU-Sim uArch: Shader 5 finished CTA #5 (15960,0), 5 CTAs running
GPGPU-Sim uArch: core:  5, cta: 5 initialized @(15961,0)
GPGPU-Sim uArch: Shader 1 finished CTA #5 (15971,0), 5 CTAs running
GPGPU-Sim uArch: core:  1, cta: 5 initialized @(15972,0)
GPGPU-Sim uArch: Shader 4 finished CTA #5 (15983,0), 5 CTAs running
GPGPU-Sim uArch: core:  4, cta: 5 initialized @(15984,0)
GPGPU-Sim uArch: Shader 6 finished CTA #5 (15998,0), 5 CTAs running
GPGPU-Sim uArch: core:  6, cta: 5 initialized @(15999,0)
GPGPU-Sim uArch: cycles simulated: 16000  inst.: 8463618 (ipc=529.0) sim_rate=196828 (inst/sec) elapsed = 0:0:00:43 / Tue Mar 22 07:37:34 2016
GPGPU-Sim PTX: 8700000 instructions simulated : ctaid=(0,328,0) tid=(3,5,0)
GPGPU-Sim uArch: Shader 12 finished CTA #5 (16085,0), 5 CTAs running
GPGPU-Sim uArch: core: 12, cta: 5 initialized @(16086,0)
GPGPU-Sim uArch: Shader 3 finished CTA #5 (16153,0), 5 CTAs running
GPGPU-Sim uArch: core:  3, cta: 5 initialized @(16154,0)
GPGPU-Sim PTX: 8800000 instructions simulated : ctaid=(0,299,0) tid=(15,0,0)
GPGPU-Sim uArch: Shader 8 finished CTA #4 (16206,0), 5 CTAs running
GPGPU-Sim uArch: core:  8, cta: 4 initialized @(16207,0)
GPGPU-Sim uArch: Shader 0 finished CTA #5 (16266,0), 5 CTAs running
GPGPU-Sim uArch: core:  0, cta: 5 initialized @(16267,0)
GPGPU-Sim uArch: Shader 2 finished CTA #5 (16293,0), 5 CTAs running
GPGPU-Sim uArch: core:  2, cta: 5 initialized @(16294,0)
GPGPU-Sim PTX: 8900000 instructions simulated : ctaid=(0,349,0) tid=(3,6,0)
GPGPU-Sim uArch: Shader 1 finished CTA #4 (16372,0), 5 CTAs running
GPGPU-Sim uArch: core:  1, cta: 4 initialized @(16373,0)
GPGPU-Sim uArch: Shader 13 finished CTA #5 (16385,0), 5 CTAs running
GPGPU-Sim uArch: core: 13, cta: 5 initialized @(16386,0)
GPGPU-Sim uArch: Shader 8 finished CTA #5 (16489,0), 5 CTAs running
GPGPU-Sim uArch: core:  8, cta: 5 initialized @(16490,0)
GPGPU-Sim PTX: 9000000 instructions simulated : ctaid=(0,327,0) tid=(5,8,0)
GPGPU-Sim uArch: cycles simulated: 16500  inst.: 8765914 (ipc=531.3) sim_rate=194798 (inst/sec) elapsed = 0:0:00:45 / Tue Mar 22 07:37:36 2016
GPGPU-Sim uArch: Shader 10 finished CTA #5 (16502,0), 5 CTAs running
GPGPU-Sim uArch: core: 10, cta: 5 initialized @(16503,0)
GPGPU-Sim uArch: Shader 7 finished CTA #5 (16570,0), 5 CTAs running
GPGPU-Sim uArch: core:  7, cta: 5 initialized @(16571,0)
GPGPU-Sim uArch: Shader 14 finished CTA #5 (16578,0), 5 CTAs running
GPGPU-Sim uArch: core: 14, cta: 5 initialized @(16579,0)
GPGPU-Sim PTX: 9100000 instructions simulated : ctaid=(0,309,0) tid=(5,8,0)
GPGPU-Sim uArch: Shader 11 finished CTA #5 (16797,0), 5 CTAs running
GPGPU-Sim uArch: core: 11, cta: 5 initialized @(16798,0)
GPGPU-Sim uArch: Shader 9 finished CTA #5 (16810,0), 5 CTAs running
GPGPU-Sim uArch: core:  9, cta: 5 initialized @(16811,0)
GPGPU-Sim PTX: 9200000 instructions simulated : ctaid=(0,315,0) tid=(1,10,0)
GPGPU-Sim uArch: Shader 7 finished CTA #0 (16935,0), 5 CTAs running
GPGPU-Sim uArch: core:  7, cta: 0 initialized @(16936,0)
GPGPU-Sim PTX: 9300000 instructions simulated : ctaid=(0,282,0) tid=(15,1,0)
GPGPU-Sim uArch: cycles simulated: 17000  inst.: 9053992 (ipc=532.6) sim_rate=196825 (inst/sec) elapsed = 0:0:00:46 / Tue Mar 22 07:37:37 2016
GPGPU-Sim uArch: Shader 4 finished CTA #0 (17093,0), 5 CTAs running
GPGPU-Sim uArch: Shader 5 finished CTA #0 (17093,0), 5 CTAs running
GPGPU-Sim uArch: core:  4, cta: 0 initialized @(17094,0)
GPGPU-Sim uArch: core:  5, cta: 0 initialized @(17094,0)
GPGPU-Sim uArch: Shader 6 finished CTA #0 (17100,0), 5 CTAs running
GPGPU-Sim uArch: core:  6, cta: 0 initialized @(17101,0)
GPGPU-Sim uArch: Shader 10 finished CTA #0 (17147,0), 5 CTAs running
GPGPU-Sim uArch: core: 10, cta: 0 initialized @(17148,0)
GPGPU-Sim PTX: 9400000 instructions simulated : ctaid=(0,341,0) tid=(15,0,0)
GPGPU-Sim uArch: Shader 3 finished CTA #0 (17191,0), 5 CTAs running
GPGPU-Sim uArch: core:  3, cta: 0 initialized @(17192,0)
GPGPU-Sim uArch: Shader 12 finished CTA #0 (17225,0), 5 CTAs running
GPGPU-Sim uArch: core: 12, cta: 0 initialized @(17226,0)
GPGPU-Sim uArch: Shader 9 finished CTA #1 (17227,0), 5 CTAs running
GPGPU-Sim uArch: core:  9, cta: 1 initialized @(17228,0)
GPGPU-Sim PTX: 9500000 instructions simulated : ctaid=(0,309,0) tid=(7,14,0)
GPGPU-Sim uArch: Shader 2 finished CTA #0 (17344,0), 5 CTAs running
GPGPU-Sim uArch: core:  2, cta: 0 initialized @(17345,0)
GPGPU-Sim uArch: Shader 0 finished CTA #1 (17375,0), 5 CTAs running
GPGPU-Sim uArch: core:  0, cta: 1 initialized @(17376,0)
GPGPU-Sim uArch: Shader 1 finished CTA #0 (17422,0), 5 CTAs running
GPGPU-Sim uArch: core:  1, cta: 0 initialized @(17423,0)
GPGPU-Sim uArch: Shader 14 finished CTA #0 (17453,0), 5 CTAs running
GPGPU-Sim uArch: core: 14, cta: 0 initialized @(17454,0)
GPGPU-Sim uArch: Shader 13 finished CTA #0 (17456,0), 5 CTAs running
GPGPU-Sim uArch: core: 13, cta: 0 initialized @(17457,0)
GPGPU-Sim uArch: Shader 8 finished CTA #0 (17484,0), 5 CTAs running
GPGPU-Sim uArch: core:  8, cta: 0 initialized @(17485,0)
GPGPU-Sim PTX: 9600000 instructions simulated : ctaid=(0,328,0) tid=(3,0,0)
GPGPU-Sim uArch: cycles simulated: 17500  inst.: 9352078 (ipc=534.4) sim_rate=198980 (inst/sec) elapsed = 0:0:00:47 / Tue Mar 22 07:37:38 2016
GPGPU-Sim uArch: Shader 12 finished CTA #1 (17518,0), 5 CTAs running
GPGPU-Sim uArch: core: 12, cta: 1 initialized @(17519,0)
GPGPU-Sim uArch: Shader 4 finished CTA #1 (17548,0), 5 CTAs running
GPGPU-Sim uArch: core:  4, cta: 1 initialized @(17549,0)
GPGPU-Sim uArch: Shader 11 finished CTA #1 (17594,0), 5 CTAs running
GPGPU-Sim uArch: core: 11, cta: 1 initialized @(17595,0)
GPGPU-Sim uArch: Shader 6 finished CTA #1 (17609,0), 5 CTAs running
GPGPU-Sim uArch: core:  6, cta: 1 initialized @(17610,0)
GPGPU-Sim uArch: Shader 5 finished CTA #1 (17624,0), 5 CTAs running
GPGPU-Sim uArch: core:  5, cta: 1 initialized @(17625,0)
GPGPU-Sim PTX: 9700000 instructions simulated : ctaid=(0,319,0) tid=(9,6,0)
GPGPU-Sim uArch: Shader 14 finished CTA #2 (17666,0), 5 CTAs running
GPGPU-Sim uArch: core: 14, cta: 2 initialized @(17667,0)
GPGPU-Sim uArch: Shader 10 finished CTA #1 (17742,0), 5 CTAs running
GPGPU-Sim uArch: core: 10, cta: 1 initialized @(17743,0)
GPGPU-Sim uArch: Shader 11 finished CTA #0 (17782,0), 5 CTAs running
GPGPU-Sim uArch: core: 11, cta: 0 initialized @(17783,0)
GPGPU-Sim PTX: 9800000 instructions simulated : ctaid=(0,297,0) tid=(11,4,0)
GPGPU-Sim uArch: Shader 0 finished CTA #0 (17824,0), 5 CTAs running
GPGPU-Sim uArch: core:  0, cta: 0 initialized @(17825,0)
GPGPU-Sim uArch: Shader 8 finished CTA #1 (17834,0), 5 CTAs running
GPGPU-Sim uArch: core:  8, cta: 1 initialized @(17835,0)
GPGPU-Sim uArch: Shader 3 finished CTA #1 (17871,0), 5 CTAs running
GPGPU-Sim uArch: core:  3, cta: 1 initialized @(17872,0)
GPGPU-Sim uArch: Shader 2 finished CTA #1 (17935,0), 5 CTAs running
GPGPU-Sim uArch: core:  2, cta: 1 initialized @(17936,0)
GPGPU-Sim uArch: Shader 7 finished CTA #1 (17942,0), 5 CTAs running
GPGPU-Sim uArch: core:  7, cta: 1 initialized @(17943,0)
GPGPU-Sim PTX: 9900000 instructions simulated : ctaid=(0,333,0) tid=(7,8,0)
GPGPU-Sim uArch: cycles simulated: 18000  inst.: 9653310 (ipc=536.3) sim_rate=201110 (inst/sec) elapsed = 0:0:00:48 / Tue Mar 22 07:37:39 2016
GPGPU-Sim uArch: Shader 9 finished CTA #0 (18141,0), 5 CTAs running
GPGPU-Sim uArch: core:  9, cta: 0 initialized @(18142,0)
GPGPU-Sim uArch: Shader 1 finished CTA #1 (18142,0), 5 CTAs running
GPGPU-Sim uArch: core:  1, cta: 1 initialized @(18143,0)
GPGPU-Sim PTX: 10000000 instructions simulated : ctaid=(0,314,0) tid=(5,15,0)
GPGPU-Sim uArch: Shader 13 finished CTA #1 (18156,0), 5 CTAs running
GPGPU-Sim uArch: core: 13, cta: 1 initialized @(18157,0)
GPGPU-Sim uArch: Shader 5 finished CTA #2 (18295,0), 5 CTAs running
GPGPU-Sim uArch: core:  5, cta: 2 initialized @(18296,0)
GPGPU-Sim PTX: 10100000 instructions simulated : ctaid=(0,317,0) tid=(3,11,0)
GPGPU-Sim uArch: Shader 1 finished CTA #2 (18339,0), 5 CTAs running
GPGPU-Sim uArch: core:  1, cta: 2 initialized @(18340,0)
GPGPU-Sim uArch: Shader 14 finished CTA #1 (18357,0), 5 CTAs running
GPGPU-Sim uArch: core: 14, cta: 1 initialized @(18358,0)
GPGPU-Sim uArch: Shader 10 finished CTA #2 (18360,0), 5 CTAs running
GPGPU-Sim uArch: core: 10, cta: 2 initialized @(18361,0)
GPGPU-Sim uArch: Shader 12 finished CTA #2 (18403,0), 5 CTAs running
GPGPU-Sim uArch: core: 12, cta: 2 initialized @(18404,0)
GPGPU-Sim uArch: Shader 4 finished CTA #2 (18452,0), 5 CTAs running
GPGPU-Sim uArch: core:  4, cta: 2 initialized @(18453,0)
GPGPU-Sim PTX: 10200000 instructions simulated : ctaid=(0,327,0) tid=(3,15,0)
GPGPU-Sim uArch: Shader 2 finished CTA #2 (18487,0), 5 CTAs running
GPGPU-Sim uArch: core:  2, cta: 2 initialized @(18488,0)
GPGPU-Sim uArch: Shader 9 finished CTA #2 (18496,0), 5 CTAs running
GPGPU-Sim uArch: core:  9, cta: 2 initialized @(18497,0)
GPGPU-Sim uArch: cycles simulated: 18500  inst.: 9942198 (ipc=537.4) sim_rate=202902 (inst/sec) elapsed = 0:0:00:49 / Tue Mar 22 07:37:40 2016
GPGPU-Sim uArch: Shader 3 finished CTA #2 (18529,0), 5 CTAs running
GPGPU-Sim uArch: core:  3, cta: 2 initialized @(18530,0)
GPGPU-Sim uArch: Shader 0 finished CTA #2 (18575,0), 5 CTAs running
GPGPU-Sim uArch: core:  0, cta: 2 initialized @(18576,0)
GPGPU-Sim uArch: Shader 7 finished CTA #2 (18581,0), 5 CTAs running
GPGPU-Sim uArch: core:  7, cta: 2 initialized @(18582,0)
GPGPU-Sim uArch: Shader 8 finished CTA #2 (18589,0), 5 CTAs running
GPGPU-Sim uArch: core:  8, cta: 2 initialized @(18590,0)
GPGPU-Sim uArch: Shader 6 finished CTA #2 (18613,0), 5 CTAs running
GPGPU-Sim uArch: core:  6, cta: 2 initialized @(18614,0)
GPGPU-Sim uArch: Shader 13 finished CTA #2 (18631,0), 5 CTAs running
GPGPU-Sim uArch: core: 13, cta: 2 initialized @(18632,0)
GPGPU-Sim PTX: 10300000 instructions simulated : ctaid=(0,356,0) tid=(15,10,0)
GPGPU-Sim PTX: 10400000 instructions simulated : ctaid=(0,376,0) tid=(15,10,0)
GPGPU-Sim uArch: Shader 11 finished CTA #2 (18835,0), 5 CTAs running
GPGPU-Sim uArch: core: 11, cta: 2 initialized @(18836,0)
GPGPU-Sim uArch: Shader 5 finished CTA #3 (18869,0), 5 CTAs running
[...]
traffic_breakdown_coretomem[CONST_ACC_R] = 120 {8:15,}
traffic_breakdown_coretomem[GLOBAL_ACC_R] = 1083720 {8:135465,}
traffic_breakdown_coretomem[GLOBAL_ACC_W] = 20185360 {40:81920,72:49152,136:98306,}
traffic_breakdown_coretomem[INST_ACC_R] = 1448 {8:181,}
traffic_breakdown_memtocore[CONST_ACC_R] = 1080 {72:15,}
traffic_breakdown_memtocore[GLOBAL_ACC_R] = 18423240 {136:135465,}
traffic_breakdown_memtocore[GLOBAL_ACC_W] = 1835024 {8:229378,}
traffic_breakdown_memtocore[INST_ACC_R] = 24616 {136:181,}
maxmrqlatency = 363 
maxdqlatency = 0 
maxmflatency = 1067 
averagemflatency = 270 
max_icnt2mem_latency = 471 
max_icnt2sh_latency = 339168 
mrq_lat_table:51977 	4534 	5934 	13686 	32481 	39125 	46864 	24395 	302 	0 	0 	0 	0 	0 	0 	0 	0 	0 	0 	0 	0 	0 	0 	0 	0 	0 	0 	0 	0 	0 	0 	0 	
dq_lat_table:0 	0 	0 	0 	0 	0 	0 	0 	0 	0 	0 	0 	0 	0 	0 	0 	0 	0 	0 	0 	0 	0 	0 	0 	0 	0 	0 	0 	0 	0 	0 	0 	
mf_lat_table:0 	0 	0 	0 	0 	0 	0 	203739 	142655 	18463 	1 	0 	0 	0 	0 	0 	0 	0 	0 	0 	0 	0 	0 	0 	0 	0 	0 	0 	0 	0 	0 	0 	
icnt2mem_lat_table:0 	0 	0 	99615 	68201 	103012 	81012 	11941 	1258 	0 	0 	0 	0 	0 	0 	0 	0 	0 	0 	0 	0 	0 	0 	0 	
icnt2sh_lat_table:0 	0 	0 	46120 	66340 	22477 	543 	0 	0 	0 	0 	0 	2160 	4240 	8103 	16223 	32491 	90893 	75268 	0 	0 	0 	0 	0 	
mf_lat_pw_table:0 	0 	0 	0 	0 	0 	0 	410 	259 	3 	0 	0 	0 	0 	0 	0 	0 	0 	0 	0 	0 	0 	0 	0 	0 	0 	0 	0 	0 	0 	0 	0 	
maximum concurrent accesses to same row:
dram[0]:        32        32        32        32        32        32        32        32        32        32        32        32        32        32        32        32 
dram[1]:        32        32        32        32        32        32        32        32        32        32        32        32        32        32        32        32 
dram[2]:        32        32        32        32        32        32        32        32        32        32        32        32        32        32        32        32 
dram[3]:        32        32        32        32        32        32        32        32        32        32        32        32        32        32        32        32 
dram[4]:        32        32        32        32        32        32        32        32        32        32        32        32        32        32        32        32 
dram[5]:        32        32        32        32        32        32        32        32        32        32        32        32        32        32        32        32 
maximum service time to same row:
dram[0]:     16547     16482     18657     18628     16338     15932     11905     12744     17405     16925     17878     17818     17597     17689     17633     17765 
dram[1]:     16405     16499     18730     18633     16094     15905     12107     13290     17198     16950     17647     17679     17696     17357     17637     17685 
dram[2]:     16194     16500     18965     18570     15904     15969     12392     13053     17399     16880     17854     17674     17550     17391     17633     17653 
dram[3]:     16290     16553     18893     18585     15869     16160     12444     13538     17681     16861     17926     17658     17501     17406     17509     17591 
dram[4]:     16403     16615     18566     18822     16101     16131     12693     13426     17820     16790     17945     17661     17437     17439     17309     17778 
dram[5]:     16381     16696     18619     18821     15715     16368     12610     14062     17053     16835     17957     17935     17502     17384     17568     17713 
average row accesses per activate:
dram[0]:  3.365817  3.591346  3.916084  4.110092  3.551020  3.674797  3.503782  3.782680  3.302292  3.555556  3.413333  3.752443  3.358601  3.585670  3.443946  3.789474 
dram[1]:  3.422901  3.636364  3.642277  4.028777  3.471582  3.711002  3.468563  3.644654  3.291429  3.572093  3.408284  3.617924  3.418398  3.789474  3.577640  4.000000 
dram[2]:  3.493789  3.727121  3.714760  3.916084  3.460949  3.699346  3.420975  3.687898  3.418398  3.600000  3.533742  3.662957  3.268085  3.594384  3.469880  3.783251 
dram[3]:  3.329866  3.855422  3.868739  4.110092  3.424242  3.779633  3.390922  3.747573  3.283476  3.616955  3.588785  3.770867  3.177931  3.677316  3.459460  3.665605 
dram[4]:  3.454545  3.684211  3.684211  4.057971  3.434650  3.627608  3.343434  3.793781  3.268085  3.378299  3.539171  3.710145  3.336232  3.546995  3.512195  3.710145 
dram[5]:  3.386707  3.672131  3.752094  4.080146  3.542320  3.754967  3.407353  3.677778  3.300860  3.490909  3.588785  3.716129  3.334783  3.588785  3.572093  3.716129 
average row locality = 219298/61181 = 3.584414
number of total memory accesses made:
dram[0]:         0         0         0         0         0         0         0         0         0         0         0         0         0         0         0         0 
dram[1]:         0         0         0         0         0         0         0         0         0         0         0         0         0         0         0         0 
dram[2]:         0         0         0         0         0         0         0         0         0         0         0         0         0         0         0         0 
dram[3]:         0         0         0         0         0         0         0         0         0         0         0         0         0         0         0         0 
dram[4]:         0         0         0         0         0         0         0         0         0         0         0         0         0         0         0         0 
dram[5]:         0         0         0         0         0         0         0         0         0         0         0         0         0         0         0         0 
total accesses: 0
min_bank_accesses = 0!
min_chip_accesses = 0!
number of total read accesses:
dram[0]:      1153      1153      1152      1152      1153      1152      1152      1152      1152      1152      1152      1152      1152      1152      1152      1152 
dram[1]:      1150      1152      1152      1152      1152      1152      1152      1152      1152      1152      1152      1152      1152      1152      1152      1152 
dram[2]:      1154      1152      1152      1152      1152      1156      1152      1152      1152      1152      1152      1152      1152      1152      1152      1152 
dram[3]:      1155      1152      1152      1152      1152      1156      1152      1152      1152      1152      1152      1152      1152      1152      1152      1152 
dram[4]:      1154      1152      1152      1152      1152      1154      1152      1152      1152      1152      1152      1152      1152      1152      1152      1152 
dram[5]:      1154      1152      1152      1152      1152      1154      1152      1152      1152      1152      1152      1152      1152      1152      1152      1152 
total reads: 110614
bank skew: 1156/1150 = 1.01
chip skew: 18439/18430 = 1.00
number of total write accesses:
dram[0]:      1092      1088      1088      1088      1109      1108      1164      1163      1153      1152      1152      1152      1152      1150      1152      1152 
dram[1]:      1092      1088      1088      1088      1108      1108      1165      1166      1152      1152      1152      1149      1152      1152      1152      1152 
dram[2]:      1096      1088      1088      1088      1108      1108      1164      1164      1152      1152      1152      1152      1152      1152      1152      1152 
dram[3]:      1086      1088      1088      1088      1108      1108      1164      1164      1153      1152      1152      1152      1152      1150      1152      1150 
dram[4]:      1088      1088      1088      1088      1108      1106      1165      1166      1152      1152      1152      1152      1150      1150      1152      1152 
dram[5]:      1088      1088      1088      1088      1108      1114      1165      1165      1152      1152      1152      1152      1149      1152      1152      1152 
total reads: 108684
bank skew: 1166/1086 = 1.07
chip skew: 18120/18107 = 1.00
average mf latency per bank:
dram[0]:        422       431       433       445       435       447       443       456       452       454       464       461       467       455       453       461
dram[1]:        422       434       435       448       441       451       443       454       446       460       465       464       459       454       454       460
dram[2]:        428       437       441       453       448       444       451       451       445       460       462       468       450       458       456       464
dram[3]:        431       430       440       440       438       441       440       450       441       447       462       455       450       459       453       456
dram[4]:        422       429       443       444       450       446       447       450       441       446       459       462       457       467       450       465
dram[5]:        414       430       436       445       445       449       447       445       449       455       459       478       456       472       450       467
maximum mf latency per bank:
dram[0]:        779       776       897       913       775       835       734       779       755       823       799       810       841       820       834       802
dram[1]:        780       786       848       994       758       815       750       864       788       776       746       917       742       822       786       917
dram[2]:        718       727      1008       902       883       835       861       798       794       694       887      1067       739       844       851       790
dram[3]:        728       840       785       849       763       799       797       822       761       747       833       772       695       690       776       935
dram[4]:        841       861       889       891       889       870       818       706       678       735       783       777       882       700       871       933
dram[5]:        725       825       841       833       735       858       860       794       827       732       835       886       788       801       921       872

Number of Memory Banks Accessed per Memory Operation per Warp (from 0):
0	0	0	0	0	0	0	0	0	0	0	0	0	0	0	0	0	0	0	0	0	0	0	0	0	0	0	0	0	0	0	0	0	0	0	0	0	0	0	0	0	0	0	0	0	0	0	0	0	0	0	0	0	0	0	0	0	0	0	0	0	0	0	0	0	0	0	0	0	0	0	0	0	0	0	0	0	0	0	0	0	0	0	0	0	0	0	0	0	0	0	0	0	0	0	0	
Average # of Memory Banks Accessed per Memory Operation per Warp=-nan

position of mrq chosen
0	0	0	0	0	0	0	0	0	0	0	0	0	0	0	0	

average position of mrq chosen = -nan
Memory Partition 0: 
Cache L2_bank_000:
MSHR contents

Cache L2_bank_001:
MSHR contents

In Dram Latency Queue (total = 0): 
DRAM[0]: 16 bks, busW=4 BL=8 CL=12, tRRD=2 tCCD=6, tRCD=12 tRAS=28 tRP=12 tRC=40
n_cmd=447702 n_nop=355636 n_act=10173 n_pre=10157 n_req=36550 n_rd=36870 n_write=34866 bw_util=0.3205
n_activity=342926 dram_eff=0.4184
bk0: 2306a 403721i bk1: 2306a 401731i bk2: 2304a 402808i bk3: 2304a 402926i bk4: 2306a 403138i bk5: 2304a 402491i bk6: 2304a 403093i bk7: 2304a 402560i bk8: 2304a 402402i bk9: 2304a 402065i bk10: 2304a 401018i bk11: 2304a 401403i bk12: 2304a 400015i bk13: 2304a 398347i bk14: 2304a 401021i bk15: 2304a 400872i 
dram_util_bins: 0 0 0 0 0 0 0 0 0 0
dram_eff_bins: 0 0 0 0 0 0 0 0 0 0
mrqq: max=16 avg=5.42996
Memory Partition 1: 
Cache L2_bank_002:
MSHR contents

Cache L2_bank_003:
MSHR contents

In Dram Latency Queue (total = 0): 
DRAM[1]: 16 bks, busW=4 BL=8 CL=12, tRRD=2 tCCD=6, tRCD=12 tRAS=28 tRP=12 tRC=40
n_cmd=447702 n_nop=355661 n_act=10165 n_pre=10149 n_req=36546 n_rd=36860 n_write=34867 bw_util=0.3204
n_activity=342901 dram_eff=0.4184
bk0: 2300a 403730i bk1: 2304a 402216i bk2: 2304a 402159i bk3: 2304a 401982i bk4: 2304a 402313i bk5: 2304a 402364i bk6: 2304a 403156i bk7: 2304a 401795i bk8: 2304a 401438i bk9: 2304a 402013i bk10: 2304a 400904i bk11: 2304a 400711i bk12: 2304a 400324i bk13: 2304a 400550i bk14: 2304a 401534i bk15: 2304a 401761i 
dram_util_bins: 0 0 0 0 0 0 0 0 0 0
dram_eff_bins: 0 0 0 0 0 0 0 0 0 0
mrqq: max=16 avg=5.41766
Memory Partition 2: 
Cache L2_bank_004:
MSHR contents

Cache L2_bank_005:
MSHR contents

In Dram Latency Queue (total = 0): 
DRAM[2]: 16 bks, busW=4 BL=8 CL=12, tRRD=2 tCCD=6, tRCD=12 tRAS=28 tRP=12 tRC=40
n_cmd=447702 n_nop=355560 n_act=10204 n_pre=10188 n_req=36558 n_rd=36876 n_write=34874 bw_util=0.3205
n_activity=346249 dram_eff=0.4144
bk0: 2308a 403344i bk1: 2304a 402514i bk2: 2304a 401565i bk3: 2304a 400964i bk4: 2304a 401092i bk5: 2312a 402236i bk6: 2304a 401891i bk7: 2304a 401946i bk8: 2304a 404275i bk9: 2304a 402477i bk10: 2304a 400869i bk11: 2304a 401393i bk12: 2304a 399295i bk13: 2304a 400334i bk14: 2304a 401710i bk15: 2304a 401014i 
dram_util_bins: 0 0 0 0 0 0 0 0 0 0
dram_eff_bins: 0 0 0 0 0 0 0 0 0 0
mrqq: max=16 avg=5.39224
Memory Partition 3: 
Cache L2_bank_006:
MSHR contents

Cache L2_bank_007:
MSHR contents

In Dram Latency Queue (total = 0): 
DRAM[3]: 16 bks, busW=4 BL=8 CL=12, tRRD=2 tCCD=6, tRCD=12 tRAS=28 tRP=12 tRC=40
n_cmd=447702 n_nop=355630 n_act=10175 n_pre=10159 n_req=36546 n_rd=36878 n_write=34860 bw_util=0.3205
n_activity=343952 dram_eff=0.4171
bk0: 2310a 402380i bk1: 2304a 403029i bk2: 2304a 402573i bk3: 2304a 401860i bk4: 2304a 401941i bk5: 2312a 401619i bk6: 2304a 401791i bk7: 2304a 401519i bk8: 2304a 403366i bk9: 2304a 402253i bk10: 2304a 402412i bk11: 2304a 401695i bk12: 2304a 399369i bk13: 2304a 400303i bk14: 2304a 402044i bk15: 2304a 400788i 
dram_util_bins: 0 0 0 0 0 0 0 0 0 0
dram_eff_bins: 0 0 0 0 0 0 0 0 0 0
mrqq: max=16 avg=5.40901
Memory Partition 4: 
Cache L2_bank_008:
MSHR contents

Cache L2_bank_009:
MSHR contents

In Dram Latency Queue (total = 0): 
DRAM[4]: 16 bks, busW=4 BL=8 CL=12, tRRD=2 tCCD=6, tRCD=12 tRAS=28 tRP=12 tRC=40
n_cmd=447702 n_nop=355430 n_act=10277 n_pre=10261 n_req=36545 n_rd=36872 n_write=34862 bw_util=0.3205
n_activity=342996 dram_eff=0.4183
bk0: 2308a 404000i bk1: 2304a 402302i bk2: 2304a 401059i bk3: 2304a 402090i bk4: 2304a 401761i bk5: 2308a 401221i bk6: 2304a 401263i bk7: 2304a 402313i bk8: 2304a 402665i bk9: 2304a 401468i bk10: 2304a 401143i bk11: 2304a 401667i bk12: 2304a 399236i bk13: 2304a 399485i bk14: 2304a 400965i bk15: 2304a 401863i 
dram_util_bins: 0 0 0 0 0 0 0 0 0 0
dram_eff_bins: 0 0 0 0 0 0 0 0 0 0
mrqq: max=16 avg=5.44789
Memory Partition 5: 
Cache L2_bank_010:
MSHR contents

Cache L2_bank_011:
MSHR contents

In Dram Latency Queue (total = 0): 
DRAM[5]: 16 bks, busW=4 BL=8 CL=12, tRRD=2 tCCD=6, tRCD=12 tRAS=28 tRP=12 tRC=40
n_cmd=447702 n_nop=355602 n_act=10187 n_pre=10171 n_req=36553 n_rd=36872 n_write=34870 bw_util=0.3205
n_activity=343736 dram_eff=0.4174
bk0: 2308a 403420i bk1: 2304a 402042i bk2: 2304a 401815i bk3: 2304a 402444i bk4: 2304a 403340i bk5: 2308a 402101i bk6: 2304a 401814i bk7: 2304a 402475i bk8: 2304a 402204i bk9: 2304a 401614i bk10: 2304a 401313i bk11: 2304a 401323i bk12: 2304a 400027i bk13: 2304a 400118i bk14: 2304a 401638i bk15: 2304a 400150i 
dram_util_bins: 0 0 0 0 0 0 0 0 0 0
dram_eff_bins: 0 0 0 0 0 0 0 0 0 0
mrqq: max=16 avg=5.42335

========= L2 cache stats =========
L2_cache_bank[0]: Access = 30466, Miss = 9218, Miss_rate = 0.303, Pending_hits = 1177, Reservation_fails = 20112
L2_cache_bank[1]: Access = 30401, Miss = 9217, Miss_rate = 0.303, Pending_hits = 1223, Reservation_fails = 20328
L2_cache_bank[2]: Access = 30470, Miss = 9214, Miss_rate = 0.302, Pending_hits = 1194, Reservation_fails = 20164
L2_cache_bank[3]: Access = 30352, Miss = 9216, Miss_rate = 0.304, Pending_hits = 1208, Reservation_fails = 19377
L2_cache_bank[4]: Access = 30476, Miss = 9218, Miss_rate = 0.302, Pending_hits = 1171, Reservation_fails = 20060
L2_cache_bank[5]: Access = 30406, Miss = 9220, Miss_rate = 0.303, Pending_hits = 1209, Reservation_fails = 19636
L2_cache_bank[6]: Access = 30461, Miss = 9219, Miss_rate = 0.303, Pending_hits = 1205, Reservation_fails = 18998
L2_cache_bank[7]: Access = 30377, Miss = 9220, Miss_rate = 0.304, Pending_hits = 1238, Reservation_fails = 18829
L2_cache_bank[8]: Access = 30402, Miss = 9218, Miss_rate = 0.303, Pending_hits = 1193, Reservation_fails = 20289
L2_cache_bank[9]: Access = 30401, Miss = 9218, Miss_rate = 0.303, Pending_hits = 1199, Reservation_fails = 19778
L2_cache_bank[10]: Access = 30395, Miss = 9218, Miss_rate = 0.303, Pending_hits = 1203, Reservation_fails = 18588
L2_cache_bank[11]: Access = 30432, Miss = 9218, Miss_rate = 0.303, Pending_hits = 1209, Reservation_fails = 20561
L2_total_cache_accesses = 365039
L2_total_cache_misses = 110614
L2_total_cache_miss_rate = 0.3030
L2_total_cache_pending_hits = 14429
L2_total_cache_reservation_fails = 236720
L2_total_cache_breakdown:
	L2_cache_stats_breakdown[GLOBAL_ACC_R][HIT] = 18644
	L2_cache_stats_breakdown[GLOBAL_ACC_R][HIT_RESERVED] = 8269
	L2_cache_stats_breakdown[GLOBAL_ACC_R][MISS] = 108552
	L2_cache_stats_breakdown[GLOBAL_ACC_R][RESERVATION_FAIL] = 2143
	L2_cache_stats_breakdown[CONST_ACC_R][HIT] = 11
	L2_cache_stats_breakdown[CONST_ACC_R][HIT_RESERVED] = 3
	L2_cache_stats_breakdown[CONST_ACC_R][MISS] = 1
	L2_cache_stats_breakdown[CONST_ACC_R][RESERVATION_FAIL] = 107
	L2_cache_stats_breakdown[GLOBAL_ACC_W][HIT] = 221209
	L2_cache_stats_breakdown[GLOBAL_ACC_W][HIT_RESERVED] = 6121
	L2_cache_stats_breakdown[GLOBAL_ACC_W][MISS] = 2048
	L2_cache_stats_breakdown[GLOBAL_ACC_W][RESERVATION_FAIL] = 233164
	L2_cache_stats_breakdown[INST_ACC_R][HIT] = 132
	L2_cache_stats_breakdown[INST_ACC_R][HIT_RESERVED] = 36
	L2_cache_stats_breakdown[INST_ACC_R][MISS] = 13
	L2_cache_stats_breakdown[INST_ACC_R][RESERVATION_FAIL] = 1306
L2_cache_data_port_util = 0.254
L2_cache_fill_port_util = 0.109

icnt_total_pkts_mem_to_simt=907653
icnt_total_pkts_simt_to_mem=938487
LD_mem_lat_dist  0 0 0 0 0 0 0 0 0 0 0 0 0 0 0 0 0 0 0 0 0 0 0 0 0 0 0
ST_mem_lat_dist  0 0 0 0 0 0 0 0 0 0 0 0 0 0 0 0 0 0 0 0 0 0 0 0 0 0 0
----------------------------Interconnect-DETAILS--------------------------------
Class 0:
Packet latency average = 25.6114
	minimum = 6
	maximum = 354
Network latency average = 18.1425
	minimum = 6
	maximum = 351
Slowest packet = 390861
Flit latency average = 15.572
	minimum = 6
	maximum = 347
Slowest flit = 1821007
Fragmentation average = 0.0405685
	minimum = 0
	maximum = 273
Injected packet rate average = 0.119437
	minimum = 0.106309 (at node 9)
	maximum = 0.134711 (at node 21)
Accepted packet rate average = 0.119437
	minimum = 0.106309 (at node 9)
	maximum = 0.134711 (at node 21)
Injected flit rate average = 0.314153
	minimum = 0.279821 (at node 6)
	maximum = 0.355611 (at node 21)
Accepted flit rate average= 0.314153
	minimum = 0.279122 (at node 9)
	maximum = 0.353267 (at node 21)
Injected packet length average = 2.63028
Accepted packet length average = 2.63028
Total in-flight flits = 0 (0 measured)
====== Overall Traffic Statistics ======
====== Traffic class 0 ======
Packet latency average = 20.4307 (2 samples)
	minimum = 6 (2 samples)
	maximum = 343 (2 samples)
Network latency average = 15.3123 (2 samples)
	minimum = 6 (2 samples)
	maximum = 336 (2 samples)
Flit latency average = 13.3376 (2 samples)
	minimum = 6 (2 samples)
	maximum = 332 (2 samples)
Fragmentation average = 0.0610578 (2 samples)
	minimum = 0 (2 samples)
	maximum = 288.5 (2 samples)
Injected packet rate average = 0.0860554 (2 samples)
	minimum = 0.0767656 (2 samples)
	maximum = 0.0971079 (2 samples)
Accepted packet rate average = 0.0860554 (2 samples)
	minimum = 0.0767656 (2 samples)
	maximum = 0.0971079 (2 samples)
Injected flit rate average = 0.219542 (2 samples)
	minimum = 0.198498 (2 samples)
	maximum = 0.245104 (2 samples)
Accepted flit rate average = 0.219542 (2 samples)
	minimum = 0.192897 (2 samples)
	maximum = 0.250411 (2 samples)
Injected packet size average = 2.55117 (2 samples)
Accepted packet size average = 2.55117 (2 samples)
Hops average = 1 (2 samples)
