

        *** GPGPU-Sim Simulator Version 3.2.2  [build 0] ***


GPGPU-Sim PTX: simulation mode 0 (can change with PTX_SIM_MODE_FUNC environment variable:
               1=functional simulation only, 0=detailed performance simulator)
GPGPU-Sim: Configuration options:

-network_mode                           1 # Interconnection network mode
-inter_config_file   config_fermi_islip.icnt # Interconnection network config file
-gpgpu_ptx_use_cuobjdump                    1 # Use cuobjdump to extract ptx and sass from binaries
-gpgpu_experimental_lib_support                    0 # Try to extract code from cuda libraries [Broken because of unknown cudaGetExportTable]
-gpgpu_ptx_convert_to_ptxplus                    0 # Convert SASS (native ISA) to ptxplus and run ptxplus
-gpgpu_ptx_force_max_capability                   20 # Force maximum compute capability
-gpgpu_ptx_inst_debug_to_file                    0 # Dump executed instructions' debug information to file
-gpgpu_ptx_inst_debug_file       inst_debug.txt # Executed instructions' debug output file
-gpgpu_ptx_inst_debug_thread_uid                    1 # Thread UID for executed instructions' debug output
-gpgpu_simd_model                       1 # 1 = post-dominator
-gpgpu_shader_core_pipeline              1536:32 # shader core pipeline config, i.e., {<nthread>:<warpsize>}
-gpgpu_tex_cache:l1  4:128:24,L:R:m:N:L,F:128:4,128:2 # per-shader L1 texture cache  (READ-ONLY) config  {<nsets>:<bsize>:<assoc>,<rep>:<wr>:<alloc>:<wr_alloc>,<mshr>:<N>:<merge>,<mq>:<rf>}
-gpgpu_const_cache:l1 64:64:2,L:R:f:N:L,A:2:32,4 # per-shader L1 constant memory cache  (READ-ONLY) config  {<nsets>:<bsize>:<assoc>,<rep>:<wr>:<alloc>:<wr_alloc>,<mshr>:<N>:<merge>,<mq>} 
-gpgpu_cache:il1     4:128:4,L:R:f:N:L,A:2:32,4 # shader L1 instruction cache config  {<nsets>:<bsize>:<assoc>,<rep>:<wr>:<alloc>:<wr_alloc>,<mshr>:<N>:<merge>,<mq>} 
-gpgpu_cache:dl1     32:128:4,L:L:m:N:H,A:32:8,8:2,0,1:0:1:1:0:1,1:4:8:16:32:64,/sciclone/data10/hwang07/GPU_RESEARCH/swl/swl_outputs/RESULTS/gto/ # per-shader L1 data cache config  {<nsets>:<bsize>:<assoc>,<rep>:<wr>:<alloc>:<wr_alloc>,<mshr>:<N>:<merge>,<mq> | none}
-gpgpu_cache:dl1PrefL1                 none # per-shader L1 data cache config  {<nsets>:<bsize>:<assoc>,<rep>:<wr>:<alloc>:<wr_alloc>,<mshr>:<N>:<merge>,<mq> | none}
-gpgpu_cache:dl1PreShared                 none # per-shader L1 data cache config  {<nsets>:<bsize>:<assoc>,<rep>:<wr>:<alloc>:<wr_alloc>,<mshr>:<N>:<merge>,<mq> | none}
-gmem_skip_L1D                          0 # global memory access skip L1D cache (implements -Xptxas -dlcm=cg, default=no skip)
-gpgpu_perfect_mem                      0 # enable perfect memory mode (no cache miss)
-n_regfile_gating_group                    4 # group of lanes that should be read/written together)
-gpgpu_clock_gated_reg_file                    0 # enable clock gated reg file for power calculations
-gpgpu_clock_gated_lanes                    0 # enable clock gated lanes for power calculations
-gpgpu_shader_registers                32768 # Number of registers per shader core. Limits number of concurrent CTAs. (default 8192)
-gpgpu_shader_cta                       8 # Maximum number of concurrent CTAs in shader (default 8)
-gpgpu_num_cta_barriers                   16 # Maximum number of named barriers per CTA (default 16)
-gpgpu_n_clusters                      15 # number of processing clusters
-gpgpu_n_cores_per_cluster                    1 # number of simd cores per cluster
-gpgpu_n_cluster_ejection_buffer_size                    8 # number of packets in ejection buffer
-gpgpu_n_ldst_response_buffer_size                    2 # number of response packets in ld/st unit ejection buffer
-gpgpu_shmem_size                   16384 # Size of shared memory per shader core (default 16kB)
-gpgpu_shmem_size                   49152 # Size of shared memory per shader core (default 16kB)
-gpgpu_shmem_size_PrefL1                16384 # Size of shared memory per shader core (default 16kB)
-gpgpu_shmem_size_PrefShared                16384 # Size of shared memory per shader core (default 16kB)
-gpgpu_shmem_num_banks                   32 # Number of banks in the shared memory in each shader core (default 16)
-gpgpu_shmem_limited_broadcast                    0 # Limit shared memory to do one broadcast per cycle (default on)
-gpgpu_shmem_warp_parts                    1 # Number of portions a warp is divided into for shared memory bank conflict check 
-gpgpu_warpdistro_shader                   -1 # Specify which shader core to collect the warp size distribution from
-gpgpu_warp_issue_shader                    0 # Specify which shader core to collect the warp issue distribution from
-gpgpu_local_mem_map                    1 # Mapping from local memory space address to simulated GPU physical address space (default = enabled)
-gpgpu_num_reg_banks                   16 # Number of register banks (default = 8)
-gpgpu_reg_bank_use_warp_id                    0 # Use warp ID in mapping registers to banks (default = off)
-gpgpu_operand_collector_num_units_sp                    6 # number of collector units (default = 4)
-gpgpu_operand_collector_num_units_sfu                    8 # number of collector units (default = 4)
-gpgpu_operand_collector_num_units_mem                    2 # number of collector units (default = 2)
-gpgpu_operand_collector_num_units_gen                    0 # number of collector units (default = 0)
-gpgpu_operand_collector_num_in_ports_sp                    2 # number of collector unit in ports (default = 1)
-gpgpu_operand_collector_num_in_ports_sfu                    1 # number of collector unit in ports (default = 1)
-gpgpu_operand_collector_num_in_ports_mem                    1 # number of collector unit in ports (default = 1)
-gpgpu_operand_collector_num_in_ports_gen                    0 # number of collector unit in ports (default = 0)
-gpgpu_operand_collector_num_out_ports_sp                    2 # number of collector unit in ports (default = 1)
-gpgpu_operand_collector_num_out_ports_sfu                    1 # number of collector unit in ports (default = 1)
-gpgpu_operand_collector_num_out_ports_mem                    1 # number of collector unit in ports (default = 1)
-gpgpu_operand_collector_num_out_ports_gen                    0 # number of collector unit in ports (default = 0)
-gpgpu_coalesce_arch                   13 # Coalescing arch (default = 13, anything else is off for now)
-gpgpu_num_sched_per_core                    2 # Number of warp schedulers per core
-gpgpu_max_insn_issue_per_warp                    1 # Max number of instructions that can be issued per warp in one cycle by scheduler
-gpgpu_simt_core_sim_order                    1 # Select the simulation order of cores in a cluster (0=Fix, 1=Round-Robin)
-gpgpu_pipeline_widths        2,1,1,2,1,1,2 # Pipeline widths ID_OC_SP,ID_OC_SFU,ID_OC_MEM,OC_EX_SP,OC_EX_SFU,OC_EX_MEM,EX_WB
-gpgpu_num_sp_units                     2 # Number of SP units (default=1)
-gpgpu_num_sfu_units                    1 # Number of SF units (default=1)
-gpgpu_num_mem_units                    1 # Number if ldst units (default=1) WARNING: not hooked up to anything
-gpgpu_scheduler                      gto # Scheduler configuration: < lrr | gto | two_level_active > If two_level_active:<num_active_warps>:<inner_prioritization>:<outer_prioritization>For complete list of prioritization values see shader.h enum scheduler_prioritization_typeDefault: gto
-gpgpu_dram_scheduler                    1 # 0 = fifo, 1 = FR-FCFS (defaul)
-gpgpu_dram_partition_queues              8:8:8:8 # i2$:$2d:d2$:$2i
-l2_ideal                               0 # Use a ideal L2 cache that always hit
-gpgpu_cache:dl2     64:128:8,L:B:m:W:L,A:32:4,4:0,32 # unified banked L2 data cache config  {<nsets>:<bsize>:<assoc>,<rep>:<wr>:<alloc>:<wr_alloc>,<mshr>:<N>:<merge>,<mq>}
-gpgpu_cache:dl2_texture_only                    0 # L2 cache used for texture only
-gpgpu_n_mem                            6 # number of memory modules (e.g. memory controllers) in gpu
-gpgpu_n_sub_partition_per_mchannel                    2 # number of memory subpartition in each memory module
-gpgpu_n_mem_per_ctrlr                    2 # number of memory chips per memory controller
-gpgpu_memlatency_stat                   14 # track and display latency statistics 0x2 enables MC, 0x4 enables queue logs
-gpgpu_frfcfs_dram_sched_queue_size                   16 # 0 = unlimited (default); # entries per chip
-gpgpu_dram_return_queue_size                  116 # 0 = unlimited (default); # entries per chip
-gpgpu_dram_buswidth                    4 # default = 4 bytes (8 bytes per cycle at DDR)
-gpgpu_dram_burst_length                    8 # Burst length of each DRAM request (default = 4 data bus cycle)
-dram_data_command_freq_ratio                    4 # Frequency ratio between DRAM data bus and command bus (default = 2 times, i.e. DDR)
-gpgpu_dram_timing_opt nbk=16:CCD=2:RRD=6:RCD=12:RAS=28:RP=12:RC=40: CL=12:WL=4:CDLR=5:WR=12:nbkgrp=4:CCDL=3:RTPL=2 # DRAM timing parameters = {nbk:tCCD:tRRD:tRCD:tRAS:tRP:tRC:CL:WL:tCDLR:tWR:nbkgrp:tCCDL:tRTPL}
-rop_latency                          120 # ROP queue latency (default 85)
-dram_latency                         100 # DRAM latency (default 30)
-gpgpu_mem_addr_mapping dramid@8;00000000.00000000.00000000.00000000.0000RRRR.RRRRRRRR.BBBCCCCB.CCSSSSSS # mapping memory address to dram model {dramid@<start bit>;<memory address map>}
-gpgpu_mem_addr_test                    0 # run sweep test to check address mapping for aliased address
-gpgpu_mem_address_mask                    1 # 0 = old addressing mask, 1 = new addressing mask, 2 = new add. mask + flipped bank sel and chip sel bits
-gpuwattch_xml_file  gpuwattch_gtx480.xml # GPUWattch XML file
-power_simulation_enabled                    0 # Turn on power simulator (1=On, 0=Off)
-power_per_cycle_dump                    0 # Dump detailed power output each cycle
-power_trace_enabled                    0 # produce a file for the power trace (1=On, 0=Off)
-power_trace_zlevel                     6 # Compression level of the power trace output log (0=no comp, 9=highest)
-steady_power_levels_enabled                    0 # produce a file for the steady power levels (1=On, 0=Off)
-steady_state_definition                  8:4 # allowed deviation:number of samples
-gpgpu_max_cycle                        0 # terminates gpu simulation early (0 = no limit)
-gpgpu_max_insn                         0 # terminates gpu simulation early (0 = no limit)
-gpgpu_max_cta                          0 # terminates gpu simulation early (0 = no limit)
-gpgpu_runtime_stat                   500 # display runtime statistics such as dram utilization {<freq>:<flag>}
-liveness_message_freq                    1 # Minimum number of seconds between simulation liveness messages (0 = always print)
-gpgpu_flush_l1_cache                    0 # Flush L1 cache at the end of each kernel call
-gpgpu_flush_l2_cache                    0 # Flush L2 cache at the end of each kernel call
-gpgpu_deadlock_detect                    1 # Stop the simulation at deadlock (1=on (default), 0=off)
-gpgpu_ptx_instruction_classification                    0 # if enabled will classify ptx instruction types per kernel (Max 255 kernels now)
-gpgpu_ptx_sim_mode                     0 # Select between Performance (default) or Functional simulation (1)
-gpgpu_clock_domains 700.0:700.0:700.0:924.0 # Clock Domain Frequencies in MhZ {<Core Clock>:<ICNT Clock>:<L2 Clock>:<DRAM Clock>}
-gpgpu_max_concurrent_kernel                    8 # maximum kernels that can run concurrently on GPU
-gpgpu_cflog_interval                    0 # Interval between each snapshot in control flow logger
-visualizer_enabled                     0 # Turn on visualizer output (1=On, 0=Off)
-visualizer_outputfile                 NULL # Specifies the output log file for visualizer
-visualizer_zlevel                      6 # Compression level of the visualizer output log (0=no comp, 9=highest)
-trace_enabled                          0 # Turn on traces
-trace_components                    none # comma seperated list of traces to enable. Complete list found in trace_streams.tup. Default none
-trace_sampling_core                    0 # The core which is printed using CORE_DPRINTF. Default 0
-trace_sampling_memory_partition                   -1 # The memory partition which is printed using MEMPART_DPRINTF. Default -1 (i.e. all)
-enable_ptx_file_line_stats                    1 # Turn on PTX source line statistic profiling. (1 = On)
-ptx_line_stats_filename gpgpu_inst_stats.txt # Output file for PTX source line statistics.
-save_embedded_ptx                      0 # saves ptx files embedded in binary as <n>.ptx
-keep                                   0 # keep intermediate files created by GPGPU-Sim when interfacing with external programs
-gpgpu_ptx_save_converted_ptxplus                    0 # Saved converted ptxplus to a file
-ptx_opcode_latency_int         4,13,4,5,145 # Opcode latencies for integers <ADD,MAX,MUL,MAD,DIV>Default 1,1,19,25,145
-ptx_opcode_latency_fp          4,13,4,5,39 # Opcode latencies for single precision floating points <ADD,MAX,MUL,MAD,DIV>Default 1,1,1,1,30
-ptx_opcode_latency_dp         8,19,8,8,330 # Opcode latencies for double precision floating points <ADD,MAX,MUL,MAD,DIV>Default 8,8,8,8,335
-ptx_opcode_initiation_int            1,2,2,1,8 # Opcode initiation intervals for integers <ADD,MAX,MUL,MAD,DIV>Default 1,1,4,4,32
-ptx_opcode_initiation_fp            1,2,1,1,4 # Opcode initiation intervals for single precision floating points <ADD,MAX,MUL,MAD,DIV>Default 1,1,1,1,5
-ptx_opcode_initiation_dp         8,16,8,8,130 # Opcode initiation intervals for double precision floating points <ADD,MAX,MUL,MAD,DIV>Default 8,8,8,8,130
DRAM Timing Options:
nbk                                    16 # number of banks
CCD                                     2 # column to column delay
RRD                                     6 # minimal delay between activation of rows in different banks
RCD                                    12 # row to column delay
RAS                                    28 # time needed to activate row
RP                                     12 # time needed to precharge (deactivate) row
RC                                     40 # row cycle time
CDLR                                    5 # switching from write to read (changes tWTR)
WR                                     12 # last data-in to row precharge
CL                                     12 # CAS latency
WL                                      4 # Write latency
nbkgrp                                  4 # number of bank groups
CCDL                                    3 # column to column delay between accesses to different bank groups
RTPL                                    2 # read to precharge delay between accesses to different bank groups
Total number of memory sub partition = 12
addr_dec_mask[CHIP]  = 0000000000000000 	high:64 low:0
addr_dec_mask[BK]    = 000000000000e100 	high:16 low:8
addr_dec_mask[ROW]   = 000000000fff0000 	high:28 low:16
addr_dec_mask[COL]   = 0000000000001eff 	high:13 low:0
addr_dec_mask[BURST] = 000000000000003f 	high:6 low:0
sub_partition_id_mask = 0000000000000100
GPGPU-Sim uArch: clock freqs: 700000000.000000:700000000.000000:700000000.000000:924000000.000000
GPGPU-Sim uArch: clock periods: 0.00000000142857142857:0.00000000142857142857:0.00000000142857142857:0.00000000108225108225
*** Initializing Memory Statistics ***
GPGPU-Sim uArch: interconnect node map (shaderID+MemID to icntID)
GPGPU-Sim uArch: Memory nodes ID start from index: 15
GPGPU-Sim uArch:    0   1   2   3   4
GPGPU-Sim uArch:    5   6   7   8   9
GPGPU-Sim uArch:   10  11  12  13  14
GPGPU-Sim uArch:   15  16  17  18  19
GPGPU-Sim uArch:   20  21  22  23  24
GPGPU-Sim uArch:   25  26
GPGPU-Sim uArch: interconnect node reverse map (icntID to shaderID+MemID)
GPGPU-Sim uArch: Memory nodes start from ID: 15
GPGPU-Sim uArch:    0   1   2   3   4
GPGPU-Sim uArch:    5   6   7   8   9
GPGPU-Sim uArch:   10  11  12  13  14
GPGPU-Sim uArch:   15  16  17  18  19
GPGPU-Sim uArch:   20  21  22  23  24
GPGPU-Sim uArch:   25  26
401c1b8a3e5a334cce6183153c85d25d  /sciclone/data10/hwang07/adwait/applications/benchmarks/rodinia/cuda/cfd/gpgpu_ptx_sim__cfd
GPGPU-Sim uArch: performance model initialization complete.
GPGPU-Sim PTX: __cudaRegisterFatBinary, fat_cubin_handle = 1, filename=euler3d.cu
self exe links to: /sciclone/data10/hwang07/adwait/applications/benchmarks/rodinia/cuda/cfd/gpgpu_ptx_sim__cfd
Running md5sum using "md5sum /sciclone/data10/hwang07/adwait/applications/benchmarks/rodinia/cuda/cfd/gpgpu_ptx_sim__cfd "
Parsing file _cuobjdump_complete_output_HSY7JA
######### cuobjdump parser ########
## Adding new section ELF
Adding arch: sm_20
Adding identifier: euler3d.cu
## Adding new section PTX
Adding ptx filename: _cuobjdump_1.ptx
Adding arch: sm_20
Adding identifier: euler3d.cu
Done parsing!!!
GPGPU-Sim PTX: __cudaRegisterFunction _Z14cuda_time_stepiiPfS_S_S_ : hostFun 0x0x406564, fat_cubin_handle = 1
GPGPU-Sim PTX: allocating constant region for "ff_variable" from 0x100 to 0x114 (global memory space) 1
GPGPU-Sim PTX: instruction assembly for function '_Z25cuda_initialize_variablesiPf'...   done.
GPGPU-Sim PTX: finding reconvergence points for '_Z25cuda_initialize_variablesiPf'...
GPGPU-Sim PTX: Finding dominators for '_Z25cuda_initialize_variablesiPf'...
GPGPU-Sim PTX: Finding immediate dominators for '_Z25cuda_initialize_variablesiPf'...
GPGPU-Sim PTX: Finding postdominators for '_Z25cuda_initialize_variablesiPf'...
GPGPU-Sim PTX: Finding immediate postdominators for '_Z25cuda_initialize_variablesiPf'...
GPGPU-Sim PTX: pre-decoding instructions for '_Z25cuda_initialize_variablesiPf'...
GPGPU-Sim PTX: reconvergence points for _Z25cuda_initialize_variablesiPf...
GPGPU-Sim PTX: ... end of reconvergence points for _Z25cuda_initialize_variablesiPf
GPGPU-Sim PTX: ... done pre-decoding instructions for '_Z25cuda_initialize_variablesiPf'.
GPGPU-Sim PTX: instruction assembly for function '_Z24cuda_compute_step_factoriPfS_S_'...   done.
GPGPU-Sim PTX: finding reconvergence points for '_Z24cuda_compute_step_factoriPfS_S_'...
GPGPU-Sim PTX: Finding dominators for '_Z24cuda_compute_step_factoriPfS_S_'...
GPGPU-Sim PTX: Finding immediate dominators for '_Z24cuda_compute_step_factoriPfS_S_'...
GPGPU-Sim PTX: Finding postdominators for '_Z24cuda_compute_step_factoriPfS_S_'...
GPGPU-Sim PTX: Finding immediate postdominators for '_Z24cuda_compute_step_factoriPfS_S_'...
GPGPU-Sim PTX: pre-decoding instructions for '_Z24cuda_compute_step_factoriPfS_S_'...
GPGPU-Sim PTX: reconvergence points for _Z24cuda_compute_step_factoriPfS_S_...
GPGPU-Sim PTX: ... end of reconvergence points for _Z24cuda_compute_step_factoriPfS_S_
GPGPU-Sim PTX: ... done pre-decoding instructions for '_Z24cuda_compute_step_factoriPfS_S_'.
GPGPU-Sim PTX: allocating constant region for "ff_flux_contribution_momentum_x" from 0x180 to 0x18c (global memory space) 2
GPGPU-Sim PTX: allocating constant region for "ff_flux_contribution_momentum_y" from 0x200 to 0x20c (global memory space) 3
GPGPU-Sim PTX: allocating constant region for "ff_flux_contribution_momentum_z" from 0x280 to 0x28c (global memory space) 4
GPGPU-Sim PTX: allocating constant region for "ff_flux_contribution_density_energy" from 0x300 to 0x30c (global memory space) 5
GPGPU-Sim PTX: instruction assembly for function '_Z17cuda_compute_fluxiPiPfS0_S0_'...   done.
GPGPU-Sim PTX: finding reconvergence points for '_Z17cuda_compute_fluxiPiPfS0_S0_'...
GPGPU-Sim PTX: Finding dominators for '_Z17cuda_compute_fluxiPiPfS0_S0_'...
GPGPU-Sim PTX: Finding immediate dominators for '_Z17cuda_compute_fluxiPiPfS0_S0_'...
GPGPU-Sim PTX: Finding postdominators for '_Z17cuda_compute_fluxiPiPfS0_S0_'...
GPGPU-Sim PTX: Finding immediate postdominators for '_Z17cuda_compute_fluxiPiPfS0_S0_'...
GPGPU-Sim PTX: pre-decoding instructions for '_Z17cuda_compute_fluxiPiPfS0_S0_'...
GPGPU-Sim PTX: reconvergence points for _Z17cuda_compute_fluxiPiPfS0_S0_...
GPGPU-Sim PTX:  1 (potential) branch divergence @  PC=0x4c8 (_1.ptx:266) @%p1 bra $Lt_2_3842;
GPGPU-Sim PTX:    immediate post dominator      @  PC=0xc78 (_1.ptx:538) add.u64 %rd40, %rd6, %rd17;
GPGPU-Sim PTX:  2 (potential) branch divergence @  PC=0x910 (_1.ptx:414) bra.uni $Lt_2_3586;
GPGPU-Sim PTX:    immediate post dominator      @  PC=0xc78 (_1.ptx:538) add.u64 %rd40, %rd6, %rd17;
GPGPU-Sim PTX:  3 (potential) branch divergence @  PC=0x928 (_1.ptx:418) @%p2 bra $Lt_2_4354;
GPGPU-Sim PTX:    immediate post dominator      @  PC=0xc78 (_1.ptx:538) add.u64 %rd40, %rd6, %rd17;
GPGPU-Sim PTX:  4 (potential) branch divergence @  PC=0x9d0 (_1.ptx:442) bra.uni $Lt_2_4098;
GPGPU-Sim PTX:    immediate post dominator      @  PC=0xc78 (_1.ptx:538) add.u64 %rd40, %rd6, %rd17;
GPGPU-Sim PTX:  5 (potential) branch divergence @  PC=0x9e8 (_1.ptx:446) @%p3 bra $Lt_2_4866;
GPGPU-Sim PTX:    immediate post dominator      @  PC=0xc78 (_1.ptx:538) add.u64 %rd40, %rd6, %rd17;
GPGPU-Sim PTX:  6 (potential) branch divergence @  PC=0xc48 (_1.ptx:527) bra.uni $Lt_2_4610;
GPGPU-Sim PTX:    immediate post dominator      @  PC=0xc78 (_1.ptx:538) add.u64 %rd40, %rd6, %rd17;
GPGPU-Sim PTX:  7 (potential) branch divergence @  PC=0xd08 (_1.ptx:559) @%p4 bra $Lt_2_5378;
GPGPU-Sim PTX:    immediate post dominator      @  PC=0x1410 (_1.ptx:834) add.u64 %rd63, %rd9, %rd17;
GPGPU-Sim PTX:  8 (potential) branch divergence @  PC=0x1128 (_1.ptx:717) bra.uni $Lt_2_5122;
GPGPU-Sim PTX:    immediate post dominator      @  PC=0x1410 (_1.ptx:834) add.u64 %rd63, %rd9, %rd17;
GPGPU-Sim PTX:  9 (potential) branch divergence @  PC=0x1140 (_1.ptx:721) @%p5 bra $Lt_2_5890;
GPGPU-Sim PTX:    immediate post dominator      @  PC=0x1410 (_1.ptx:834) add.u64 %rd63, %rd9, %rd17;
GPGPU-Sim PTX: 10 (potential) branch divergence @  PC=0x11c0 (_1.ptx:740) bra.uni $Lt_2_5634;
GPGPU-Sim PTX:    immediate post dominator      @  PC=0x1410 (_1.ptx:834) add.u64 %rd63, %rd9, %rd17;
GPGPU-Sim PTX: 11 (potential) branch divergence @  PC=0x11d8 (_1.ptx:744) @%p6 bra $Lt_2_6146;
GPGPU-Sim PTX:    immediate post dominator      @  PC=0x1410 (_1.ptx:834) add.u64 %rd63, %rd9, %rd17;
GPGPU-Sim PTX: 12 (potential) branch divergence @  PC=0x14a0 (_1.ptx:855) @%p7 bra $Lt_2_6914;
GPGPU-Sim PTX:    immediate post dominator      @  PC=0x1ba8 (_1.ptx:1130) add.u64 %rd86, %rd12, %rd17;
GPGPU-Sim PTX: 13 (potential) branch divergence @  PC=0x18c0 (_1.ptx:1013) bra.uni $Lt_2_6658;
GPGPU-Sim PTX:    immediate post dominator      @  PC=0x1ba8 (_1.ptx:1130) add.u64 %rd86, %rd12, %rd17;
GPGPU-Sim PTX: 14 (potential) branch divergence @  PC=0x18d8 (_1.ptx:1017) @%p8 bra $Lt_2_7426;
GPGPU-Sim PTX:    immediate post dominator      @  PC=0x1ba8 (_1.ptx:1130) add.u64 %rd86, %rd12, %rd17;
GPGPU-Sim PTX: 15 (potential) branch divergence @  PC=0x1958 (_1.ptx:1036) bra.uni $Lt_2_7170;
GPGPU-Sim PTX:    immediate post dominator      @  PC=0x1ba8 (_1.ptx:1130) add.u64 %rd86, %rd12, %rd17;
GPGPU-Sim PTX: 16 (potential) branch divergence @  PC=0x1970 (_1.ptx:1040) @%p9 bra $Lt_2_7682;
GPGPU-Sim PTX:    immediate post dominator      @  PC=0x1ba8 (_1.ptx:1130) add.u64 %rd86, %rd12, %rd17;
GPGPU-Sim PTX: 17 (potential) branch divergence @  PC=0x1c38 (_1.ptx:1151) @%p10 bra $Lt_2_8450;
GPGPU-Sim PTX:    immediate post dominator      @  PC=0x2340 (_1.ptx:1426) ld.param.u64 %rd109, [__cudaparm__Z17cuda_compute_fluxiPiPfS0_S0__fluxes];
GPGPU-Sim PTX: 18 (potential) branch divergence @  PC=0x2058 (_1.ptx:1309) bra.uni $Lt_2_8194;
GPGPU-Sim PTX:    immediate post dominator      @  PC=0x2340 (_1.ptx:1426) ld.param.u64 %rd109, [__cudaparm__Z17cuda_compute_fluxiPiPfS0_S0__fluxes];
GPGPU-Sim PTX: 19 (potential) branch divergence @  PC=0x2070 (_1.ptx:1313) @%p11 bra $Lt_2_8962;
GPGPU-Sim PTX:    immediate post dominator      @  PC=0x2340 (_1.ptx:1426) ld.param.u64 %rd109, [__cudaparm__Z17cuda_compute_fluxiPiPfS0_S0__fluxes];
GPGPU-Sim PTX: 20 (potential) branch divergence @  PC=0x20f0 (_1.ptx:1332) bra.uni $Lt_2_8706;
GPGPU-Sim PTX:    immediate post dominator      @  PC=0x2340 (_1.ptx:1426) ld.param.u64 %rd109, [__cudaparm__Z17cuda_compute_fluxiPiPfS0_S0__fluxes];
GPGPU-Sim PTX: 21 (potential) branch divergence @  PC=0x2108 (_1.ptx:1336) @%p12 bra $Lt_2_9218;
GPGPU-Sim PTX:    immediate post dominator      @  PC=0x2340 (_1.ptx:1426) ld.param.u64 %rd109, [__cudaparm__Z17cuda_compute_fluxiPiPfS0_S0__fluxes];
GPGPU-Sim PTX: ... end of reconvergence points for _Z17cuda_compute_fluxiPiPfS0_S0_
GPGPU-Sim PTX: ... done pre-decoding instructions for '_Z17cuda_compute_fluxiPiPfS0_S0_'.
GPGPU-Sim PTX: instruction assembly for function '_Z14cuda_time_stepiiPfS_S_S_'...   done.
GPGPU-Sim PTX: finding reconvergence points for '_Z14cuda_time_stepiiPfS_S_S_'...
GPGPU-Sim PTX: Finding dominators for '_Z14cuda_time_stepiiPfS_S_S_'...
GPGPU-Sim PTX: Finding immediate dominators for '_Z14cuda_time_stepiiPfS_S_S_'...
GPGPU-Sim PTX: Finding postdominators for '_Z14cuda_time_stepiiPfS_S_S_'...
GPGPU-Sim PTX: Finding immediate postdominators for '_Z14cuda_time_stepiiPfS_S_S_'...
GPGPU-Sim PTX: pre-decoding instructions for '_Z14cuda_time_stepiiPfS_S_S_'...
GPGPU-Sim PTX: reconvergence points for _Z14cuda_time_stepiiPfS_S_S_...
GPGPU-Sim PTX: ... end of reconvergence points for _Z14cuda_time_stepiiPfS_S_S_
GPGPU-Sim PTX: ... done pre-decoding instructions for '_Z14cuda_time_stepiiPfS_S_S_'.
GPGPU-Sim PTX: finished parsing EMBEDDED .ptx file _1.ptx
Adding _cuobjdump_1.ptx with cubin handle 1
GPGPU-Sim PTX: extracting embedded .ptx to temporary file "_ptx_2046AT"
Running: cat _ptx_2046AT | sed 's/.version 1.5/.version 1.4/' | sed 's/, texmode_independent//' | sed 's/\(\.extern \.const\[1\] .b8 \w\+\)\[\]/\1\[1\]/' | sed 's/const\[.\]/const\[0\]/g' > _ptx2_uSrIbh
GPGPU-Sim PTX: generating ptxinfo using "$CUDA_INSTALL_PATH/bin/ptxas --gpu-name=sm_20 -v _ptx2_uSrIbh --output-file  /dev/null 2> _ptx_2046ATinfo"
GPGPU-Sim PTX: Kernel '_Z14cuda_time_stepiiPfS_S_S_' : regs=17, lmem=0, smem=0, cmem=152
GPGPU-Sim PTX: Kernel '_Z17cuda_compute_fluxiPiPfS0_S0_' : regs=50, lmem=0, smem=0, cmem=160
GPGPU-Sim PTX: Kernel '_Z24cuda_compute_step_factoriPfS_S_' : regs=16, lmem=0, smem=0, cmem=152
GPGPU-Sim PTX: Kernel '_Z25cuda_initialize_variablesiPf' : regs=17, lmem=0, smem=0, cmem=116
GPGPU-Sim PTX: removing ptxinfo using "rm -f _ptx_2046AT _ptx2_uSrIbh _ptx_2046ATinfo"
GPGPU-Sim PTX: loading globals with explicit initializers... 
GPGPU-Sim PTX: finished loading globals (0 bytes total).
GPGPU-Sim PTX: loading constants with explicit initializers...  done.
GPGPU-Sim PTX: __cudaRegisterFunction _Z17cuda_compute_fluxiPiPfS0_S0_ : hostFun 0x0x406414, fat_cubin_handle = 1
GPGPU-Sim PTX: __cudaRegisterFunction _Z24cuda_compute_step_factoriPfS_S_ : hostFun 0x0x4062f8, fat_cubin_handle = 1
GPGPU-Sim PTX: __cudaRegisterFunction _Z25cuda_initialize_variablesiPf : hostFun 0x0x40621c, fat_cubin_handle = 1
GPGPU-Sim PTX: __cudaRegisterVar: hostVar = 0x629a80; deviceAddress = ff_variable; deviceName = ff_variable
GPGPU-Sim PTX: __cudaRegisterVar: Registering const memory space of 20 bytes
GPGPU-Sim PTX registering constant ff_variable (20 bytes) to name mapping
GPGPU-Sim PTX: __cudaRegisterVar: hostVar = 0x629a94; deviceAddress = ff_flux_contribution_momentum_x; deviceName = ff_flux_contribution_momentum_x
GPGPU-Sim PTX: __cudaRegisterVar: Registering const memory space of 12 bytes
GPGPU-Sim PTX registering constant ff_flux_contribution_momentum_x (12 bytes) to name mapping
GPGPU-Sim PTX: __cudaRegisterVar: hostVar = 0x629aa0; deviceAddress = ff_flux_contribution_momentum_y; deviceName = ff_flux_contribution_momentum_y
GPGPU-Sim PTX: __cudaRegisterVar: Registering const memory space of 12 bytes
GPGPU-Sim PTX registering constant ff_flux_contribution_momentum_y (12 bytes) to name mapping
GPGPU-Sim PTX: __cudaRegisterVar: hostVar = 0x629aac; deviceAddress = ff_flux_contribution_momentum_z; deviceName = ff_flux_contribution_momentum_z
GPGPU-Sim PTX: __cudaRegisterVar: Registering const memory space of 12 bytes
GPGPU-Sim PTX registering constant ff_flux_contribution_momentum_z (12 bytes) to name mapping
GPGPU-Sim PTX: __cudaRegisterVar: hostVar = 0x629ab8; deviceAddress = ff_flux_contribution_density_energy; deviceName = ff_flux_contribution_density_energy
GPGPU-Sim PTX: __cudaRegisterVar: Registering const memory space of 12 bytes
GPGPU-Sim PTX registering constant ff_flux_contribution_density_energy (12 bytes) to name mapping
Name:                     GPGPU-Sim_vGPGPU-Sim Simulator Version 3.2.2 
GPGPU-Sim PTX: cudaMemcpyToSymbol: symbol = 0x629a80
GPGPU-Sim PTX: starting gpgpu_ptx_sim_memcpy_symbol with hostVar 0x0x629a80
GPGPU-Sim PTX: gpgpu_ptx_sim_memcpy_symbol: Found PTX symbol w/ hostVar=0x629a80
GPGPU-Sim PTX: gpgpu_ptx_sim_memcpy_symbol: copying const memory 20 bytes  to  symbol ff_variable+0 @0x100 ...
GPGPU-Sim PTX: cudaMemcpyToSymbol: symbol = 0x629a94
GPGPU-Sim PTX: starting gpgpu_ptx_sim_memcpy_symbol with hostVar 0x0x629a94
GPGPU-Sim PTX: gpgpu_ptx_sim_memcpy_symbol: Found PTX symbol w/ hostVar=0x629a94
GPGPU-Sim PTX: gpgpu_ptx_sim_memcpy_symbol: copying const memory 12 bytes  to  symbol ff_flux_contribution_momentum_x+0 @0x180 ...
GPGPU-Sim PTX: cudaMemcpyToSymbol: symbol = 0x629aa0
GPGPU-Sim PTX: starting gpgpu_ptx_sim_memcpy_symbol with hostVar 0x0x629aa0
GPGPU-Sim PTX: gpgpu_ptx_sim_memcpy_symbol: Found PTX symbol w/ hostVar=0x629aa0
GPGPU-Sim PTX: gpgpu_ptx_sim_memcpy_symbol: copying const memory 12 bytes  to  symbol ff_flux_contribution_momentum_y+0 @0x200 ...
GPGPU-Sim PTX: cudaMemcpyToSymbol: symbol = 0x629aac
GPGPU-Sim PTX: starting gpgpu_ptx_sim_memcpy_symbol with hostVar 0x0x629aac
GPGPU-Sim PTX: gpgpu_ptx_sim_memcpy_symbol: Found PTX symbol w/ hostVar=0x629aac
GPGPU-Sim PTX: gpgpu_ptx_sim_memcpy_symbol: copying const memory 12 bytes  to  symbol ff_flux_contribution_momentum_z+0 @0x280 ...
GPGPU-Sim PTX: cudaMemcpyToSymbol: symbol = 0x629ab8
GPGPU-Sim PTX: starting gpgpu_ptx_sim_memcpy_symbol with hostVar 0x0x629ab8
GPGPU-Sim PTX: gpgpu_ptx_sim_memcpy_symbol: Found PTX symbol w/ hostVar=0x629ab8
GPGPU-Sim PTX: gpgpu_ptx_sim_memcpy_symbol: copying const memory 12 bytes  to  symbol ff_flux_contribution_density_energy+0 @0x300 ...

GPGPU-Sim PTX: cudaLaunch for 0x0x40621c (mode=performance simulation) on stream 0
GPGPU-Sim PTX: pushing kernel '_Z25cuda_initialize_variablesiPf' to stream 0, gridDim= (1008,1,1) blockDim = (192,1,1) 
kernel '_Z25cuda_initialize_variablesiPf' transfer to GPU hardware scheduler
GPGPU-Sim uArch: Shader 1 bind to kernel 1 '_Z25cuda_initialize_variablesiPf'
GPGPU-Sim uArch: CTA/core = 8, limited by: threads regs cta_limit
GPGPU-Sim uArch: core:  1, cta: 0 initialized @(1,0)
GPGPU-Sim uArch: Shader 2 bind to kernel 1 '_Z25cuda_initialize_variablesiPf'
GPGPU-Sim uArch: core:  2, cta: 0 initialized @(1,0)
GPGPU-Sim uArch: Shader 3 bind to kernel 1 '_Z25cuda_initialize_variablesiPf'
GPGPU-Sim uArch: core:  3, cta: 0 initialized @(1,0)
GPGPU-Sim uArch: Shader 4 bind to kernel 1 '_Z25cuda_initialize_variablesiPf'
GPGPU-Sim uArch: core:  4, cta: 0 initialized @(1,0)
GPGPU-Sim uArch: Shader 5 bind to kernel 1 '_Z25cuda_initialize_variablesiPf'
GPGPU-Sim uArch: core:  5, cta: 0 initialized @(1,0)
GPGPU-Sim uArch: Shader 6 bind to kernel 1 '_Z25cuda_initialize_variablesiPf'
GPGPU-Sim uArch: core:  6, cta: 0 initialized @(1,0)
GPGPU-Sim uArch: Shader 7 bind to kernel 1 '_Z25cuda_initialize_variablesiPf'
GPGPU-Sim uArch: core:  7, cta: 0 initialized @(1,0)
GPGPU-Sim uArch: Shader 8 bind to kernel 1 '_Z25cuda_initialize_variablesiPf'
GPGPU-Sim uArch: core:  8, cta: 0 initialized @(1,0)
GPGPU-Sim uArch: Shader 9 bind to kernel 1 '_Z25cuda_initialize_variablesiPf'
GPGPU-Sim uArch: core:  9, cta: 0 initialized @(1,0)
GPGPU-Sim uArch: Shader 10 bind to kernel 1 '_Z25cuda_initialize_variablesiPf'
GPGPU-Sim uArch: core: 10, cta: 0 initialized @(1,0)
GPGPU-Sim uArch: Shader 11 bind to kernel 1 '_Z25cuda_initialize_variablesiPf'
GPGPU-Sim uArch: core: 11, cta: 0 initialized @(1,0)
GPGPU-Sim uArch: Shader 12 bind to kernel 1 '_Z25cuda_initialize_variablesiPf'
GPGPU-Sim uArch: core: 12, cta: 0 initialized @(1,0)
GPGPU-Sim uArch: Shader 13 bind to kernel 1 '_Z25cuda_initialize_variablesiPf'
GPGPU-Sim uArch: core: 13, cta: 0 initialized @(1,0)
GPGPU-Sim uArch: Shader 14 bind to kernel 1 '_Z25cuda_initialize_variablesiPf'
GPGPU-Sim uArch: core: 14, cta: 0 initialized @(1,0)
GPGPU-Sim uArch: Shader 0 bind to kernel 1 '_Z25cuda_initialize_variablesiPf'
GPGPU-Sim uArch: core:  0, cta: 0 initialized @(1,0)
GPGPU-Sim uArch: core:  1, cta: 1 initialized @(2,0)
GPGPU-Sim uArch: core:  2, cta: 1 initialized @(2,0)
GPGPU-Sim uArch: core:  3, cta: 1 initialized @(2,0)
GPGPU-Sim uArch: core:  4, cta: 1 initialized @(2,0)
GPGPU-Sim uArch: core:  5, cta: 1 initialized @(2,0)
GPGPU-Sim uArch: core:  6, cta: 1 initialized @(2,0)
GPGPU-Sim uArch: core:  7, cta: 1 initialized @(2,0)
GPGPU-Sim uArch: core:  8, cta: 1 initialized @(2,0)
GPGPU-Sim uArch: core:  9, cta: 1 initialized @(2,0)
GPGPU-Sim uArch: core: 10, cta: 1 initialized @(2,0)
GPGPU-Sim uArch: core: 11, cta: 1 initialized @(2,0)
GPGPU-Sim uArch: core: 12, cta: 1 initialized @(2,0)
GPGPU-Sim uArch: core: 13, cta: 1 initialized @(2,0)
GPGPU-Sim uArch: core: 14, cta: 1 initialized @(2,0)
GPGPU-Sim uArch: core:  0, cta: 1 initialized @(2,0)
GPGPU-Sim uArch: core:  1, cta: 2 initialized @(3,0)
GPGPU-Sim uArch: core:  2, cta: 2 initialized @(3,0)
GPGPU-Sim uArch: core:  3, cta: 2 initialized @(3,0)
GPGPU-Sim uArch: core:  4, cta: 2 initialized @(3,0)
GPGPU-Sim uArch: core:  5, cta: 2 initialized @(3,0)
GPGPU-Sim uArch: core:  6, cta: 2 initialized @(3,0)
GPGPU-Sim uArch: core:  7, cta: 2 initialized @(3,0)
GPGPU-Sim uArch: core:  8, cta: 2 initialized @(3,0)
GPGPU-Sim uArch: core:  9, cta: 2 initialized @(3,0)
GPGPU-Sim uArch: core: 10, cta: 2 initialized @(3,0)
GPGPU-Sim uArch: core: 11, cta: 2 initialized @(3,0)
GPGPU-Sim uArch: core: 12, cta: 2 initialized @(3,0)
GPGPU-Sim uArch: core: 13, cta: 2 initialized @(3,0)
GPGPU-Sim uArch: core: 14, cta: 2 initialized @(3,0)
GPGPU-Sim uArch: core:  0, cta: 2 initialized @(3,0)
GPGPU-Sim uArch: core:  1, cta: 3 initialized @(4,0)
GPGPU-Sim uArch: core:  2, cta: 3 initialized @(4,0)
GPGPU-Sim uArch: core:  3, cta: 3 initialized @(4,0)
GPGPU-Sim uArch: core:  4, cta: 3 initialized @(4,0)
GPGPU-Sim uArch: core:  5, cta: 3 initialized @(4,0)
GPGPU-Sim uArch: core:  6, cta: 3 initialized @(4,0)
GPGPU-Sim uArch: core:  7, cta: 3 initialized @(4,0)
GPGPU-Sim uArch: core:  8, cta: 3 initialized @(4,0)
GPGPU-Sim uArch: core:  9, cta: 3 initialized @(4,0)
GPGPU-Sim uArch: core: 10, cta: 3 initialized @(4,0)
GPGPU-Sim uArch: core: 11, cta: 3 initialized @(4,0)
GPGPU-Sim uArch: core: 12, cta: 3 initialized @(4,0)
GPGPU-Sim uArch: core: 13, cta: 3 initialized @(4,0)
GPGPU-Sim uArch: core: 14, cta: 3 initialized @(4,0)
GPGPU-Sim uArch: core:  0, cta: 3 initialized @(4,0)
GPGPU-Sim uArch: core:  1, cta: 4 initialized @(5,0)
GPGPU-Sim uArch: core:  2, cta: 4 initialized @(5,0)
GPGPU-Sim uArch: core:  3, cta: 4 initialized @(5,0)
GPGPU-Sim uArch: core:  4, cta: 4 initialized @(5,0)
GPGPU-Sim uArch: core:  5, cta: 4 initialized @(5,0)
GPGPU-Sim uArch: core:  6, cta: 4 initialized @(5,0)
GPGPU-Sim uArch: core:  7, cta: 4 initialized @(5,0)
GPGPU-Sim uArch: core:  8, cta: 4 initialized @(5,0)
GPGPU-Sim uArch: core:  9, cta: 4 initialized @(5,0)
GPGPU-Sim uArch: core: 10, cta: 4 initialized @(5,0)
GPGPU-Sim uArch: core: 11, cta: 4 initialized @(5,0)
GPGPU-Sim uArch: core: 12, cta: 4 initialized @(5,0)
GPGPU-Sim uArch: core: 13, cta: 4 initialized @(5,0)
GPGPU-Sim uArch: core: 14, cta: 4 initialized @(5,0)
GPGPU-Sim uArch: core:  0, cta: 4 initialized @(5,0)
GPGPU-Sim uArch: core:  1, cta: 5 initialized @(6,0)
GPGPU-Sim uArch: core:  2, cta: 5 initialized @(6,0)
GPGPU-Sim uArch: core:  3, cta: 5 initialized @(6,0)
GPGPU-Sim uArch: core:  4, cta: 5 initialized @(6,0)
GPGPU-Sim uArch: core:  5, cta: 5 initialized @(6,0)
GPGPU-Sim uArch: core:  6, cta: 5 initialized @(6,0)
GPGPU-Sim uArch: core:  7, cta: 5 initialized @(6,0)
GPGPU-Sim uArch: core:  8, cta: 5 initialized @(6,0)
GPGPU-Sim uArch: core:  9, cta: 5 initialized @(6,0)
GPGPU-Sim uArch: core: 10, cta: 5 initialized @(6,0)
GPGPU-Sim uArch: core: 11, cta: 5 initialized @(6,0)
GPGPU-Sim uArch: core: 12, cta: 5 initialized @(6,0)
GPGPU-Sim uArch: core: 13, cta: 5 initialized @(6,0)
GPGPU-Sim uArch: core: 14, cta: 5 initialized @(6,0)
GPGPU-Sim uArch: core:  0, cta: 5 initialized @(6,0)
GPGPU-Sim uArch: core:  1, cta: 6 initialized @(7,0)
GPGPU-Sim uArch: core:  2, cta: 6 initialized @(7,0)
GPGPU-Sim uArch: core:  3, cta: 6 initialized @(7,0)
GPGPU-Sim uArch: core:  4, cta: 6 initialized @(7,0)
GPGPU-Sim uArch: core:  5, cta: 6 initialized @(7,0)
GPGPU-Sim uArch: core:  6, cta: 6 initialized @(7,0)
GPGPU-Sim uArch: core:  7, cta: 6 initialized @(7,0)
GPGPU-Sim uArch: core:  8, cta: 6 initialized @(7,0)
GPGPU-Sim uArch: core:  9, cta: 6 initialized @(7,0)
GPGPU-Sim uArch: core: 10, cta: 6 initialized @(7,0)
GPGPU-Sim uArch: core: 11, cta: 6 initialized @(7,0)
GPGPU-Sim uArch: core: 12, cta: 6 initialized @(7,0)
GPGPU-Sim uArch: core: 13, cta: 6 initialized @(7,0)
GPGPU-Sim uArch: core: 14, cta: 6 initialized @(7,0)
GPGPU-Sim uArch: core:  0, cta: 6 initialized @(7,0)
GPGPU-Sim uArch: core:  1, cta: 7 initialized @(8,0)
GPGPU-Sim uArch: core:  2, cta: 7 initialized @(8,0)
GPGPU-Sim uArch: core:  3, cta: 7 initialized @(8,0)
GPGPU-Sim uArch: core:  4, cta: 7 initialized @(8,0)
GPGPU-Sim uArch: core:  5, cta: 7 initialized @(8,0)
GPGPU-Sim uArch: core:  6, cta: 7 initialized @(8,0)
GPGPU-Sim uArch: core:  7, cta: 7 initialized @(8,0)
GPGPU-Sim uArch: core:  8, cta: 7 initialized @(8,0)
GPGPU-Sim uArch: core:  9, cta: 7 initialized @(8,0)
GPGPU-Sim uArch: core: 10, cta: 7 initialized @(8,0)
GPGPU-Sim uArch: core: 11, cta: 7 initialized @(8,0)
GPGPU-Sim uArch: core: 12, cta: 7 initialized @(8,0)
GPGPU-Sim uArch: core: 13, cta: 7 initialized @(8,0)
GPGPU-Sim uArch: core: 14, cta: 7 initialized @(8,0)
GPGPU-Sim uArch: core:  0, cta: 7 initialized @(8,0)
GPGPU-Sim PTX: 100000 instructions simulated : ctaid=(53,0,0) tid=(159,0,0)
GPGPU-Sim uArch: cycles simulated: 500  inst.: 121888 (ipc=243.8) sim_rate=8125 (inst/sec) elapsed = 0:0:00:15 / Tue Mar 22 07:37:06 2016
GPGPU-Sim PTX: 200000 instructions simulated : ctaid=(26,0,0) tid=(191,0,0)
GPGPU-Sim PTX: 300000 instructions simulated : ctaid=(84,0,0) tid=(159,0,0)
GPGPU-Sim PTX: 400000 instructions simulated : ctaid=(15,0,0) tid=(159,0,0)
GPGPU-Sim uArch: cycles simulated: 1500  inst.: 407808 (ipc=271.9) sim_rate=25488 (inst/sec) elapsed = 0:0:00:16 / Tue Mar 22 07:37:07 2016
GPGPU-Sim PTX: 500000 instructions simulated : ctaid=(57,0,0) tid=(95,0,0)
GPGPU-Sim uArch: cycles simulated: 3000  inst.: 517728 (ipc=172.6) sim_rate=30454 (inst/sec) elapsed = 0:0:00:17 / Tue Mar 22 07:37:08 2016
GPGPU-Sim uArch: Shader 8 finished CTA #0 (3821,0), 7 CTAs running
GPGPU-Sim uArch: core:  8, cta: 0 initialized @(3822,0)
GPGPU-Sim PTX: 600000 instructions simulated : ctaid=(103,0,0) tid=(159,0,0)
GPGPU-Sim uArch: Shader 3 finished CTA #0 (3919,0), 7 CTAs running
GPGPU-Sim uArch: core:  3, cta: 0 initialized @(3920,0)
GPGPU-Sim uArch: Shader 4 finished CTA #0 (4094,0), 7 CTAs running
GPGPU-Sim uArch: core:  4, cta: 0 initialized @(4095,0)
GPGPU-Sim uArch: Shader 14 finished CTA #0 (4101,0), 7 CTAs running
GPGPU-Sim uArch: core: 14, cta: 0 initialized @(4102,0)
GPGPU-Sim uArch: Shader 7 finished CTA #0 (4212,0), 7 CTAs running
GPGPU-Sim uArch: core:  7, cta: 0 initialized @(4213,0)
GPGPU-Sim uArch: Shader 5 finished CTA #0 (4215,0), 7 CTAs running
GPGPU-Sim uArch: core:  5, cta: 0 initialized @(4216,0)
GPGPU-Sim uArch: Shader 9 finished CTA #0 (4364,0), 7 CTAs running
GPGPU-Sim uArch: core:  9, cta: 0 initialized @(4365,0)
GPGPU-Sim uArch: Shader 1 finished CTA #0 (4384,0), 7 CTAs running
GPGPU-Sim uArch: core:  1, cta: 0 initialized @(4385,0)
GPGPU-Sim uArch: Shader 0 finished CTA #0 (4436,0), 7 CTAs running
GPGPU-Sim uArch: core:  0, cta: 0 initialized @(4437,0)
GPGPU-Sim uArch: Shader 13 finished CTA #0 (4482,0), 7 CTAs running
GPGPU-Sim uArch: core: 13, cta: 0 initialized @(4483,0)
GPGPU-Sim uArch: cycles simulated: 4500  inst.: 669472 (ipc=148.8) sim_rate=37192 (inst/sec) elapsed = 0:0:00:18 / Tue Mar 22 07:37:09 2016
GPGPU-Sim uArch: Shader 6 finished CTA #0 (4538,0), 7 CTAs running
GPGPU-Sim uArch: core:  6, cta: 0 initialized @(4539,0)
GPGPU-Sim PTX: 700000 instructions simulated : ctaid=(124,0,0) tid=(95,0,0)
GPGPU-Sim uArch: Shader 12 finished CTA #0 (4772,0), 7 CTAs running
GPGPU-Sim uArch: core: 12, cta: 0 initialized @(4773,0)
GPGPU-Sim uArch: Shader 3 finished CTA #1 (4841,0), 7 CTAs running
GPGPU-Sim uArch: core:  3, cta: 1 initialized @(4842,0)
GPGPU-Sim uArch: Shader 0 finished CTA #1 (5063,0), 7 CTAs running
GPGPU-Sim uArch: core:  0, cta: 1 initialized @(5064,0)
GPGPU-Sim uArch: Shader 7 finished CTA #1 (5085,0), 7 CTAs running
GPGPU-Sim uArch: core:  7, cta: 1 initialized @(5086,0)
GPGPU-Sim uArch: Shader 14 finished CTA #1 (5150,0), 7 CTAs running
GPGPU-Sim uArch: core: 14, cta: 1 initialized @(5151,0)
GPGPU-Sim uArch: Shader 11 finished CTA #0 (5238,0), 7 CTAs running
GPGPU-Sim uArch: core: 11, cta: 0 initialized @(5239,0)
GPGPU-Sim uArch: Shader 13 finished CTA #1 (5241,0), 7 CTAs running
GPGPU-Sim uArch: core: 13, cta: 1 initialized @(5242,0)
GPGPU-Sim uArch: Shader 5 finished CTA #1 (5288,0), 7 CTAs running
GPGPU-Sim uArch: core:  5, cta: 1 initialized @(5289,0)
GPGPU-Sim uArch: Shader 1 finished CTA #1 (5397,0), 7 CTAs running
GPGPU-Sim uArch: core:  1, cta: 1 initialized @(5398,0)
GPGPU-Sim uArch: Shader 4 finished CTA #1 (5399,0), 7 CTAs running
GPGPU-Sim uArch: core:  4, cta: 1 initialized @(5400,0)
GPGPU-Sim uArch: Shader 6 finished CTA #1 (5422,0), 7 CTAs running
GPGPU-Sim uArch: core:  6, cta: 1 initialized @(5423,0)
GPGPU-Sim uArch: Shader 2 finished CTA #0 (5554,0), 7 CTAs running
GPGPU-Sim uArch: core:  2, cta: 0 initialized @(5555,0)
GPGPU-Sim uArch: Shader 9 finished CTA #1 (5568,0), 7 CTAs running
GPGPU-Sim uArch: core:  9, cta: 1 initialized @(5569,0)
GPGPU-Sim uArch: Shader 8 finished CTA #1 (5613,0), 7 CTAs running
GPGPU-Sim uArch: core:  8, cta: 1 initialized @(5614,0)
GPGPU-Sim uArch: Shader 3 finished CTA #2 (5625,0), 7 CTAs running
GPGPU-Sim uArch: core:  3, cta: 2 initialized @(5626,0)
GPGPU-Sim PTX: 800000 instructions simulated : ctaid=(145,0,0) tid=(191,0,0)
GPGPU-Sim uArch: Shader 11 finished CTA #1 (5918,0), 7 CTAs running
GPGPU-Sim uArch: core: 11, cta: 1 initialized @(5919,0)
GPGPU-Sim uArch: cycles simulated: 6000  inst.: 839616 (ipc=139.9) sim_rate=44190 (inst/sec) elapsed = 0:0:00:19 / Tue Mar 22 07:37:10 2016
GPGPU-Sim uArch: Shader 10 finished CTA #0 (6023,0), 7 CTAs running
GPGPU-Sim uArch: core: 10, cta: 0 initialized @(6024,0)
GPGPU-Sim uArch: Shader 2 finished CTA #1 (6232,0), 7 CTAs running
GPGPU-Sim uArch: core:  2, cta: 1 initialized @(6233,0)
GPGPU-Sim uArch: Shader 13 finished CTA #2 (6258,0), 7 CTAs running
GPGPU-Sim uArch: core: 13, cta: 2 initialized @(6259,0)
GPGPU-Sim uArch: Shader 5 finished CTA #2 (6289,0), 7 CTAs running
GPGPU-Sim uArch: core:  5, cta: 2 initialized @(6290,0)
GPGPU-Sim uArch: Shader 12 finished CTA #1 (6311,0), 7 CTAs running
GPGPU-Sim uArch: core: 12, cta: 1 initialized @(6312,0)
GPGPU-Sim uArch: Shader 14 finished CTA #2 (6470,0), 7 CTAs running
GPGPU-Sim uArch: core: 14, cta: 2 initialized @(6471,0)
GPGPU-Sim uArch: Shader 7 finished CTA #2 (6495,0), 7 CTAs running
GPGPU-Sim uArch: core:  7, cta: 2 initialized @(6496,0)
GPGPU-Sim uArch: Shader 4 finished CTA #2 (6519,0), 7 CTAs running
GPGPU-Sim uArch: core:  4, cta: 2 initialized @(6520,0)
GPGPU-Sim PTX: 900000 instructions simulated : ctaid=(141,0,0) tid=(95,0,0)
GPGPU-Sim uArch: Shader 2 finished CTA #2 (6638,0), 7 CTAs running
GPGPU-Sim uArch: core:  2, cta: 2 initialized @(6639,0)
GPGPU-Sim uArch: Shader 9 finished CTA #2 (6653,0), 7 CTAs running
GPGPU-Sim uArch: core:  9, cta: 2 initialized @(6654,0)
GPGPU-Sim uArch: Shader 1 finished CTA #2 (6710,0), 7 CTAs running
GPGPU-Sim uArch: core:  1, cta: 2 initialized @(6711,0)
GPGPU-Sim uArch: Shader 0 finished CTA #2 (6720,0), 7 CTAs running
GPGPU-Sim uArch: core:  0, cta: 2 initialized @(6721,0)
GPGPU-Sim uArch: Shader 14 finished CTA #3 (6745,0), 7 CTAs running
GPGPU-Sim uArch: core: 14, cta: 3 initialized @(6746,0)
GPGPU-Sim uArch: Shader 11 finished CTA #2 (6775,0), 7 CTAs running
GPGPU-Sim uArch: core: 11, cta: 2 initialized @(6776,0)
GPGPU-Sim uArch: Shader 13 finished CTA #3 (6855,0), 7 CTAs running
GPGPU-Sim uArch: core: 13, cta: 3 initialized @(6856,0)
GPGPU-Sim uArch: Shader 10 finished CTA #1 (6892,0), 7 CTAs running
GPGPU-Sim uArch: core: 10, cta: 1 initialized @(6893,0)
GPGPU-Sim uArch: Shader 12 finished CTA #2 (6984,0), 7 CTAs running
GPGPU-Sim uArch: core: 12, cta: 2 initialized @(6985,0)
GPGPU-Sim uArch: Shader 2 finished CTA #3 (7013,0), 7 CTAs running
GPGPU-Sim uArch: core:  2, cta: 3 initialized @(7014,0)
GPGPU-Sim uArch: Shader 6 finished CTA #2 (7043,0), 7 CTAs running
GPGPU-Sim uArch: core:  6, cta: 2 initialized @(7044,0)
GPGPU-Sim uArch: Shader 4 finished CTA #3 (7076,0), 7 CTAs running
GPGPU-Sim uArch: core:  4, cta: 3 initialized @(7077,0)
GPGPU-Sim uArch: Shader 8 finished CTA #2 (7087,0), 7 CTAs running
GPGPU-Sim uArch: core:  8, cta: 2 initialized @(7088,0)
GPGPU-Sim PTX: 1000000 instructions simulated : ctaid=(156,0,0) tid=(95,0,0)
GPGPU-Sim uArch: Shader 5 finished CTA #3 (7218,0), 7 CTAs running
GPGPU-Sim uArch: core:  5, cta: 3 initialized @(7219,0)
GPGPU-Sim uArch: Shader 1 finished CTA #3 (7264,0), 7 CTAs running
GPGPU-Sim uArch: core:  1, cta: 3 initialized @(7265,0)
GPGPU-Sim uArch: Shader 7 finished CTA #3 (7311,0), 7 CTAs running
GPGPU-Sim uArch: core:  7, cta: 3 initialized @(7312,0)
GPGPU-Sim uArch: Shader 3 finished CTA #3 (7389,0), 7 CTAs running
GPGPU-Sim uArch: core:  3, cta: 3 initialized @(7390,0)
GPGPU-Sim uArch: Shader 14 finished CTA #4 (7422,0), 7 CTAs running
GPGPU-Sim uArch: core: 14, cta: 4 initialized @(7423,0)
GPGPU-Sim uArch: cycles simulated: 7500  inst.: 1034496 (ipc=137.9) sim_rate=51724 (inst/sec) elapsed = 0:0:00:20 / Tue Mar 22 07:37:11 2016
GPGPU-Sim uArch: Shader 12 finished CTA #3 (7549,0), 7 CTAs running
GPGPU-Sim uArch: core: 12, cta: 3 initialized @(7550,0)
GPGPU-Sim uArch: Shader 0 finished CTA #3 (7597,0), 7 CTAs running
GPGPU-Sim uArch: core:  0, cta: 3 initialized @(7598,0)
GPGPU-Sim uArch: Shader 11 finished CTA #3 (7651,0), 7 CTAs running
GPGPU-Sim uArch: core: 11, cta: 3 initialized @(7652,0)
GPGPU-Sim uArch: Shader 14 finished CTA #5 (7654,0), 7 CTAs running
GPGPU-Sim uArch: core: 14, cta: 5 initialized @(7655,0)
GPGPU-Sim uArch: Shader 3 finished CTA #4 (7702,0), 7 CTAs running
GPGPU-Sim uArch: Shader 6 finished CTA #3 (7702,0), 7 CTAs running
GPGPU-Sim uArch: core:  3, cta: 4 initialized @(7703,0)
GPGPU-Sim uArch: core:  6, cta: 3 initialized @(7703,0)
GPGPU-Sim uArch: Shader 5 finished CTA #4 (7706,0), 7 CTAs running
GPGPU-Sim uArch: core:  5, cta: 4 initialized @(7707,0)
GPGPU-Sim uArch: Shader 13 finished CTA #4 (7752,0), 7 CTAs running
GPGPU-Sim uArch: core: 13, cta: 4 initialized @(7753,0)
GPGPU-Sim PTX: 1100000 instructions simulated : ctaid=(164,0,0) tid=(159,0,0)
GPGPU-Sim uArch: Shader 2 finished CTA #4 (7866,0), 7 CTAs running
GPGPU-Sim uArch: core:  2, cta: 4 initialized @(7867,0)
GPGPU-Sim uArch: Shader 12 finished CTA #4 (7953,0), 7 CTAs running
GPGPU-Sim uArch: core: 12, cta: 4 initialized @(7954,0)
GPGPU-Sim uArch: Shader 0 finished CTA #4 (7972,0), 7 CTAs running
GPGPU-Sim uArch: core:  0, cta: 4 initialized @(7973,0)
GPGPU-Sim uArch: Shader 7 finished CTA #4 (8000,0), 7 CTAs running
GPGPU-Sim uArch: core:  7, cta: 4 initialized @(8001,0)
GPGPU-Sim uArch: Shader 9 finished CTA #3 (8031,0), 7 CTAs running
GPGPU-Sim uArch: core:  9, cta: 3 initialized @(8032,0)
GPGPU-Sim uArch: Shader 1 finished CTA #4 (8086,0), 7 CTAs running
GPGPU-Sim uArch: core:  1, cta: 4 initialized @(8087,0)
GPGPU-Sim uArch: Shader 10 finished CTA #2 (8094,0), 7 CTAs running
GPGPU-Sim uArch: core: 10, cta: 2 initialized @(8095,0)
GPGPU-Sim uArch: Shader 11 finished CTA #4 (8137,0), 7 CTAs running
GPGPU-Sim uArch: core: 11, cta: 4 initialized @(8138,0)
GPGPU-Sim uArch: Shader 3 finished CTA #5 (8139,0), 7 CTAs running
GPGPU-Sim uArch: core:  3, cta: 5 initialized @(8140,0)
GPGPU-Sim uArch: Shader 6 finished CTA #4 (8184,0), 7 CTAs running
GPGPU-Sim uArch: core:  6, cta: 4 initialized @(8185,0)
GPGPU-Sim uArch: Shader 2 finished CTA #5 (8203,0), 7 CTAs running
GPGPU-Sim uArch: core:  2, cta: 5 initialized @(8204,0)
GPGPU-Sim uArch: Shader 8 finished CTA #3 (8222,0), 7 CTAs running
GPGPU-Sim uArch: core:  8, cta: 3 initialized @(8223,0)
GPGPU-Sim uArch: Shader 6 finished CTA #5 (8239,0), 7 CTAs running
GPGPU-Sim uArch: core:  6, cta: 5 initialized @(8240,0)
GPGPU-Sim uArch: Shader 14 finished CTA #6 (8250,0), 7 CTAs running
GPGPU-Sim uArch: core: 14, cta: 6 initialized @(8251,0)
GPGPU-Sim uArch: Shader 13 finished CTA #5 (8305,0), 7 CTAs running
GPGPU-Sim uArch: core: 13, cta: 5 initialized @(8306,0)
GPGPU-Sim uArch: Shader 0 finished CTA #5 (8341,0), 7 CTAs running
GPGPU-Sim uArch: core:  0, cta: 5 initialized @(8342,0)
GPGPU-Sim uArch: Shader 7 finished CTA #5 (8363,0), 7 CTAs running
GPGPU-Sim uArch: core:  7, cta: 5 initialized @(8364,0)
GPGPU-Sim uArch: Shader 3 finished CTA #6 (8423,0), 7 CTAs running
GPGPU-Sim uArch: core:  3, cta: 6 initialized @(8424,0)
GPGPU-Sim uArch: cycles simulated: 8500  inst.: 1195680 (ipc=140.7) sim_rate=56937 (inst/sec) elapsed = 0:0:00:21 / Tue Mar 22 07:37:12 2016
GPGPU-Sim PTX: 1200000 instructions simulated : ctaid=(188,0,0) tid=(95,0,0)
GPGPU-Sim uArch: Shader 5 finished CTA #5 (8515,0), 7 CTAs running
GPGPU-Sim uArch: core:  5, cta: 5 initialized @(8516,0)
GPGPU-Sim uArch: Shader 9 finished CTA #4 (8518,0), 7 CTAs running
GPGPU-Sim uArch: core:  9, cta: 4 initialized @(8519,0)
GPGPU-Sim uArch: Shader 8 finished CTA #4 (8553,0), 7 CTAs running
GPGPU-Sim uArch: core:  8, cta: 4 initialized @(8554,0)
GPGPU-Sim uArch: Shader 1 finished CTA #5 (8669,0), 7 CTAs running
GPGPU-Sim uArch: core:  1, cta: 5 initialized @(8670,0)
GPGPU-Sim uArch: Shader 4 finished CTA #4 (8757,0), 7 CTAs running
GPGPU-Sim uArch: core:  4, cta: 4 initialized @(8758,0)
GPGPU-Sim uArch: Shader 10 finished CTA #3 (8873,0), 7 CTAs running
GPGPU-Sim uArch: core: 10, cta: 3 initialized @(8874,0)
GPGPU-Sim uArch: Shader 8 finished CTA #5 (8912,0), 7 CTAs running
GPGPU-Sim uArch: core:  8, cta: 5 initialized @(8913,0)
GPGPU-Sim uArch: Shader 0 finished CTA #6 (8934,0), 7 CTAs running
GPGPU-Sim uArch: core:  0, cta: 6 initialized @(8935,0)
GPGPU-Sim uArch: Shader 12 finished CTA #5 (8959,0), 7 CTAs running
GPGPU-Sim uArch: core: 12, cta: 5 initialized @(8960,0)
GPGPU-Sim uArch: Shader 3 finished CTA #7 (8973,0), 7 CTAs running
GPGPU-Sim uArch: core:  3, cta: 7 initialized @(8974,0)
GPGPU-Sim uArch: Shader 11 finished CTA #5 (9093,0), 7 CTAs running
GPGPU-Sim uArch: core: 11, cta: 5 initialized @(9094,0)
GPGPU-Sim PTX: 1300000 instructions simulated : ctaid=(105,0,0) tid=(191,0,0)
GPGPU-Sim uArch: Shader 6 finished CTA #6 (9135,0), 7 CTAs running
GPGPU-Sim uArch: core:  6, cta: 6 initialized @(9136,0)
GPGPU-Sim uArch: Shader 4 finished CTA #5 (9176,0), 7 CTAs running
GPGPU-Sim uArch: core:  4, cta: 5 initialized @(9177,0)
GPGPU-Sim uArch: Shader 2 finished CTA #6 (9178,0), 7 CTAs running
GPGPU-Sim uArch: core:  2, cta: 6 initialized @(9179,0)
GPGPU-Sim uArch: Shader 13 finished CTA #6 (9200,0), 7 CTAs running
GPGPU-Sim uArch: core: 13, cta: 6 initialized @(9201,0)
GPGPU-Sim uArch: Shader 7 finished CTA #6 (9282,0), 7 CTAs running
GPGPU-Sim uArch: core:  7, cta: 6 initialized @(9283,0)
GPGPU-Sim uArch: Shader 9 finished CTA #5 (9309,0), 7 CTAs running
GPGPU-Sim uArch: core:  9, cta: 5 initialized @(9310,0)
GPGPU-Sim uArch: Shader 14 finished CTA #7 (9341,0), 7 CTAs running
GPGPU-Sim uArch: core: 14, cta: 7 initialized @(9342,0)
GPGPU-Sim uArch: Shader 8 finished CTA #6 (9364,0), 7 CTAs running
GPGPU-Sim uArch: core:  8, cta: 6 initialized @(9365,0)
GPGPU-Sim uArch: Shader 1 finished CTA #6 (9427,0), 7 CTAs running
GPGPU-Sim uArch: core:  1, cta: 6 initialized @(9428,0)
GPGPU-Sim uArch: Shader 13 finished CTA #7 (9491,0), 7 CTAs running
GPGPU-Sim uArch: core: 13, cta: 7 initialized @(9492,0)
GPGPU-Sim uArch: Shader 11 finished CTA #6 (9560,0), 7 CTAs running
GPGPU-Sim uArch: core: 11, cta: 6 initialized @(9561,0)
GPGPU-Sim uArch: Shader 6 finished CTA #7 (9575,0), 7 CTAs running
GPGPU-Sim uArch: core:  6, cta: 7 initialized @(9576,0)
GPGPU-Sim uArch: Shader 9 finished CTA #6 (9606,0), 7 CTAs running
GPGPU-Sim uArch: core:  9, cta: 6 initialized @(9607,0)
GPGPU-Sim uArch: Shader 0 finished CTA #7 (9829,0), 7 CTAs running
GPGPU-Sim uArch: core:  0, cta: 7 initialized @(9830,0)
GPGPU-Sim uArch: Shader 2 finished CTA #7 (9883,0), 7 CTAs running
GPGPU-Sim uArch: core:  2, cta: 7 initialized @(9884,0)
GPGPU-Sim uArch: Shader 12 finished CTA #6 (9952,0), 7 CTAs running
GPGPU-Sim uArch: core: 12, cta: 6 initialized @(9953,0)
GPGPU-Sim uArch: cycles simulated: 10000  inst.: 1395296 (ipc=139.5) sim_rate=63422 (inst/sec) elapsed = 0:0:00:22 / Tue Mar 22 07:37:13 2016
GPGPU-Sim PTX: 1400000 instructions simulated : ctaid=(137,0,0) tid=(191,0,0)
GPGPU-Sim uArch: Shader 10 finished CTA #4 (10086,0), 7 CTAs running
GPGPU-Sim uArch: core: 10, cta: 4 initialized @(10087,0)
GPGPU-Sim uArch: Shader 11 finished CTA #7 (10099,0), 7 CTAs running
GPGPU-Sim uArch: core: 11, cta: 7 initialized @(10100,0)
GPGPU-Sim uArch: Shader 5 finished CTA #6 (10114,0), 7 CTAs running
GPGPU-Sim uArch: core:  5, cta: 6 initialized @(10115,0)
GPGPU-Sim uArch: Shader 2 finished CTA #0 (10454,0), 7 CTAs running
GPGPU-Sim uArch: core:  2, cta: 0 initialized @(10455,0)
GPGPU-Sim uArch: Shader 1 finished CTA #7 (10487,0), 7 CTAs running
GPGPU-Sim uArch: core:  1, cta: 7 initialized @(10488,0)
GPGPU-Sim uArch: Shader 14 finished CTA #0 (10500,0), 7 CTAs running
GPGPU-Sim uArch: core: 14, cta: 0 initialized @(10501,0)
GPGPU-Sim uArch: Shader 7 finished CTA #7 (10548,0), 7 CTAs running
GPGPU-Sim uArch: core:  7, cta: 7 initialized @(10549,0)
GPGPU-Sim uArch: Shader 1 finished CTA #0 (10551,0), 7 CTAs running
GPGPU-Sim uArch: core:  1, cta: 0 initialized @(10552,0)
GPGPU-Sim uArch: Shader 6 finished CTA #0 (10621,0), 7 CTAs running
GPGPU-Sim uArch: core:  6, cta: 0 initialized @(10622,0)
GPGPU-Sim PTX: 1500000 instructions simulated : ctaid=(122,0,0) tid=(63,0,0)
GPGPU-Sim uArch: Shader 5 finished CTA #7 (10696,0), 7 CTAs running
GPGPU-Sim uArch: core:  5, cta: 7 initialized @(10697,0)
GPGPU-Sim uArch: Shader 13 finished CTA #0 (10732,0), 7 CTAs running
GPGPU-Sim uArch: core: 13, cta: 0 initialized @(10733,0)
GPGPU-Sim uArch: Shader 0 finished CTA #0 (10819,0), 7 CTAs running
GPGPU-Sim uArch: core:  0, cta: 0 initialized @(10820,0)
GPGPU-Sim uArch: Shader 3 finished CTA #0 (10828,0), 7 CTAs running
GPGPU-Sim uArch: core:  3, cta: 0 initialized @(10829,0)
GPGPU-Sim uArch: Shader 10 finished CTA #5 (10894,0), 7 CTAs running
GPGPU-Sim uArch: core: 10, cta: 5 initialized @(10895,0)
GPGPU-Sim uArch: Shader 11 finished CTA #0 (10978,0), 7 CTAs running
GPGPU-Sim uArch: core: 11, cta: 0 initialized @(10979,0)
GPGPU-Sim uArch: Shader 10 finished CTA #6 (10998,0), 7 CTAs running
GPGPU-Sim uArch: core: 10, cta: 6 initialized @(10999,0)
GPGPU-Sim uArch: cycles simulated: 11000  inst.: 1539264 (ipc=139.9) sim_rate=66924 (inst/sec) elapsed = 0:0:00:23 / Tue Mar 22 07:37:14 2016
GPGPU-Sim uArch: Shader 1 finished CTA #1 (11021,0), 7 CTAs running
GPGPU-Sim uArch: core:  1, cta: 1 initialized @(11022,0)
GPGPU-Sim uArch: Shader 5 finished CTA #0 (11054,0), 7 CTAs running
GPGPU-Sim uArch: core:  5, cta: 0 initialized @(11055,0)
GPGPU-Sim uArch: Shader 14 finished CTA #1 (11198,0), 7 CTAs running
GPGPU-Sim uArch: core: 14, cta: 1 initialized @(11199,0)
GPGPU-Sim uArch: Shader 10 finished CTA #7 (11251,0), 7 CTAs running
GPGPU-Sim uArch: core: 10, cta: 7 initialized @(11252,0)
GPGPU-Sim uArch: Shader 2 finished CTA #1 (11256,0), 7 CTAs running
GPGPU-Sim uArch: core:  2, cta: 1 initialized @(11257,0)
GPGPU-Sim uArch: Shader 0 finished CTA #1 (11266,0), 7 CTAs running
GPGPU-Sim uArch: core:  0, cta: 1 initialized @(11267,0)
GPGPU-Sim PTX: 1600000 instructions simulated : ctaid=(246,0,0) tid=(63,0,0)
GPGPU-Sim uArch: Shader 4 finished CTA #6 (11353,0), 7 CTAs running
GPGPU-Sim uArch: core:  4, cta: 6 initialized @(11354,0)
GPGPU-Sim uArch: Shader 10 finished CTA #0 (11389,0), 7 CTAs running
GPGPU-Sim uArch: core: 10, cta: 0 initialized @(11390,0)
GPGPU-Sim uArch: Shader 8 finished CTA #7 (11469,0), 7 CTAs running
GPGPU-Sim uArch: core:  8, cta: 7 initialized @(11470,0)
GPGPU-Sim uArch: Shader 12 finished CTA #7 (11508,0), 7 CTAs running
GPGPU-Sim uArch: core: 12, cta: 7 initialized @(11509,0)
GPGPU-Sim uArch: Shader 6 finished CTA #1 (11544,0), 7 CTAs running
GPGPU-Sim uArch: core:  6, cta: 1 initialized @(11545,0)
GPGPU-Sim uArch: Shader 5 finished CTA #1 (11563,0), 7 CTAs running
GPGPU-Sim uArch: core:  5, cta: 1 initialized @(11564,0)
GPGPU-Sim uArch: Shader 9 finished CTA #7 (11605,0), 7 CTAs running
GPGPU-Sim uArch: core:  9, cta: 7 initialized @(11606,0)
GPGPU-Sim uArch: Shader 4 finished CTA #7 (11609,0), 7 CTAs running
GPGPU-Sim uArch: core:  4, cta: 7 initialized @(11610,0)
GPGPU-Sim uArch: Shader 14 finished CTA #2 (11653,0), 7 CTAs running
GPGPU-Sim uArch: core: 14, cta: 2 initialized @(11654,0)
GPGPU-Sim uArch: Shader 1 finished CTA #2 (11667,0), 7 CTAs running
GPGPU-Sim uArch: core:  1, cta: 2 initialized @(11668,0)
GPGPU-Sim uArch: Shader 7 finished CTA #0 (11828,0), 7 CTAs running
GPGPU-Sim uArch: core:  7, cta: 0 initialized @(11829,0)
GPGPU-Sim uArch: Shader 3 finished CTA #1 (11886,0), 7 CTAs running
GPGPU-Sim uArch: core:  3, cta: 1 initialized @(11887,0)
GPGPU-Sim uArch: Shader 12 finished CTA #0 (11937,0), 7 CTAs running
GPGPU-Sim uArch: core: 12, cta: 0 initialized @(11938,0)
GPGPU-Sim uArch: Shader 10 finished CTA #1 (12041,0), 7 CTAs running
GPGPU-Sim uArch: core: 10, cta: 1 initialized @(12042,0)
GPGPU-Sim PTX: 1700000 instructions simulated : ctaid=(241,0,0) tid=(95,0,0)
GPGPU-Sim uArch: Shader 14 finished CTA #3 (12101,0), 7 CTAs running
GPGPU-Sim uArch: core: 14, cta: 3 initialized @(12102,0)
GPGPU-Sim uArch: Shader 0 finished CTA #2 (12113,0), 7 CTAs running
GPGPU-Sim uArch: core:  0, cta: 2 initialized @(12114,0)
GPGPU-Sim uArch: Shader 10 finished CTA #2 (12166,0), 7 CTAs running
GPGPU-Sim uArch: core: 10, cta: 2 initialized @(12167,0)
GPGPU-Sim uArch: Shader 5 finished CTA #2 (12171,0), 7 CTAs running
GPGPU-Sim uArch: core:  5, cta: 2 initialized @(12172,0)
GPGPU-Sim uArch: Shader 8 finished CTA #0 (12227,0), 7 CTAs running
GPGPU-Sim uArch: core:  8, cta: 0 initialized @(12228,0)
GPGPU-Sim uArch: Shader 12 finished CTA #1 (12265,0), 7 CTAs running
GPGPU-Sim uArch: core: 12, cta: 1 initialized @(12266,0)
GPGPU-Sim uArch: Shader 13 finished CTA #1 (12268,0), 7 CTAs running
GPGPU-Sim uArch: core: 13, cta: 1 initialized @(12269,0)
GPGPU-Sim uArch: Shader 4 finished CTA #0 (12328,0), 7 CTAs running
GPGPU-Sim uArch: core:  4, cta: 0 initialized @(12329,0)
GPGPU-Sim uArch: Shader 6 finished CTA #2 (12364,0), 7 CTAs running
GPGPU-Sim uArch: core:  6, cta: 2 initialized @(12365,0)
GPGPU-Sim uArch: Shader 11 finished CTA #1 (12368,0), 7 CTAs running
GPGPU-Sim uArch: core: 11, cta: 1 initialized @(12369,0)
GPGPU-Sim uArch: Shader 1 finished CTA #3 (12418,0), 7 CTAs running
GPGPU-Sim uArch: core:  1, cta: 3 initialized @(12419,0)
GPGPU-Sim uArch: cycles simulated: 12500  inst.: 1746080 (ipc=139.7) sim_rate=72753 (inst/sec) elapsed = 0:0:00:24 / Tue Mar 22 07:37:15 2016
GPGPU-Sim uArch: Shader 12 finished CTA #2 (12513,0), 7 CTAs running
GPGPU-Sim uArch: core: 12, cta: 2 initialized @(12514,0)
GPGPU-Sim PTX: 1800000 instructions simulated : ctaid=(265,0,0) tid=(31,0,0)
GPGPU-Sim uArch: Shader 3 finished CTA #2 (12825,0), 7 CTAs running
GPGPU-Sim uArch: core:  3, cta: 2 initialized @(12826,0)
GPGPU-Sim uArch: Shader 9 finished CTA #0 (12889,0), 7 CTAs running
GPGPU-Sim uArch: core:  9, cta: 0 initialized @(12890,0)
GPGPU-Sim uArch: Shader 0 finished CTA #3 (12906,0), 7 CTAs running
GPGPU-Sim uArch: core:  0, cta: 3 initialized @(12907,0)
GPGPU-Sim uArch: Shader 13 finished CTA #2 (12947,0), 7 CTAs running
GPGPU-Sim uArch: core: 13, cta: 2 initialized @(12948,0)
GPGPU-Sim uArch: Shader 6 finished CTA #3 (12972,0), 7 CTAs running
GPGPU-Sim uArch: core:  6, cta: 3 initialized @(12973,0)
GPGPU-Sim uArch: Shader 2 finished CTA #2 (13003,0), 7 CTAs running
GPGPU-Sim uArch: core:  2, cta: 2 initialized @(13004,0)
GPGPU-Sim uArch: Shader 13 finished CTA #3 (13035,0), 7 CTAs running
GPGPU-Sim uArch: core: 13, cta: 3 initialized @(13036,0)
GPGPU-Sim uArch: Shader 12 finished CTA #3 (13056,0), 7 CTAs running
GPGPU-Sim uArch: core: 12, cta: 3 initialized @(13057,0)
GPGPU-Sim uArch: Shader 3 finished CTA #3 (13073,0), 7 CTAs running
GPGPU-Sim uArch: core:  3, cta: 3 initialized @(13074,0)
GPGPU-Sim uArch: Shader 10 finished CTA #3 (13087,0), 7 CTAs running
GPGPU-Sim uArch: core: 10, cta: 3 initialized @(13088,0)
GPGPU-Sim uArch: Shader 14 finished CTA #4 (13134,0), 7 CTAs running
GPGPU-Sim uArch: core: 14, cta: 4 initialized @(13135,0)
GPGPU-Sim uArch: Shader 12 finished CTA #4 (13259,0), 7 CTAs running
GPGPU-Sim uArch: core: 12, cta: 4 initialized @(13260,0)
GPGPU-Sim uArch: Shader 5 finished CTA #3 (13409,0), 7 CTAs running
GPGPU-Sim uArch: core:  5, cta: 3 initialized @(13410,0)
GPGPU-Sim uArch: cycles simulated: 13500  inst.: 1875296 (ipc=138.9) sim_rate=75011 (inst/sec) elapsed = 0:0:00:25 / Tue Mar 22 07:37:16 2016
GPGPU-Sim uArch: Shader 1 finished CTA #4 (13500,0), 7 CTAs running
GPGPU-Sim uArch: core:  1, cta: 4 initialized @(13501,0)
GPGPU-Sim uArch: Shader 7 finished CTA #1 (13516,0), 7 CTAs running
GPGPU-Sim uArch: core:  7, cta: 1 initialized @(13517,0)
GPGPU-Sim uArch: Shader 8 finished CTA #1 (13609,0), 7 CTAs running
GPGPU-Sim uArch: core:  8, cta: 1 initialized @(13610,0)
GPGPU-Sim PTX: 1900000 instructions simulated : ctaid=(272,0,0) tid=(159,0,0)
GPGPU-Sim uArch: Shader 13 finished CTA #4 (13723,0), 7 CTAs running
GPGPU-Sim uArch: core: 13, cta: 4 initialized @(13724,0)
GPGPU-Sim uArch: Shader 3 finished CTA #4 (13740,0), 7 CTAs running
GPGPU-Sim uArch: core:  3, cta: 4 initialized @(13741,0)
GPGPU-Sim uArch: Shader 2 finished CTA #3 (13743,0), 7 CTAs running
GPGPU-Sim uArch: core:  2, cta: 3 initialized @(13744,0)
GPGPU-Sim uArch: Shader 10 finished CTA #4 (13746,0), 7 CTAs running
GPGPU-Sim uArch: core: 10, cta: 4 initialized @(13747,0)
GPGPU-Sim uArch: Shader 11 finished CTA #2 (13797,0), 7 CTAs running
GPGPU-Sim uArch: core: 11, cta: 2 initialized @(13798,0)
GPGPU-Sim uArch: Shader 9 finished CTA #1 (13804,0), 7 CTAs running
GPGPU-Sim uArch: core:  9, cta: 1 initialized @(13805,0)
GPGPU-Sim uArch: Shader 4 finished CTA #1 (13817,0), 7 CTAs running
GPGPU-Sim uArch: core:  4, cta: 1 initialized @(13818,0)
GPGPU-Sim uArch: Shader 13 finished CTA #5 (13931,0), 7 CTAs running
GPGPU-Sim uArch: core: 13, cta: 5 initialized @(13932,0)
GPGPU-Sim uArch: Shader 14 finished CTA #5 (14002,0), 7 CTAs running
GPGPU-Sim uArch: core: 14, cta: 5 initialized @(14003,0)
GPGPU-Sim uArch: Shader 0 finished CTA #4 (14041,0), 7 CTAs running
GPGPU-Sim uArch: core:  0, cta: 4 initialized @(14042,0)
GPGPU-Sim uArch: Shader 7 finished CTA #2 (14056,0), 7 CTAs running
GPGPU-Sim uArch: core:  7, cta: 2 initialized @(14057,0)
GPGPU-Sim uArch: Shader 3 finished CTA #5 (14100,0), 7 CTAs running
GPGPU-Sim uArch: core:  3, cta: 5 initialized @(14101,0)
GPGPU-Sim uArch: Shader 1 finished CTA #5 (14272,0), 7 CTAs running
GPGPU-Sim uArch: core:  1, cta: 5 initialized @(14273,0)
GPGPU-Sim uArch: Shader 13 finished CTA #6 (14291,0), 7 CTAs running
GPGPU-Sim uArch: core: 13, cta: 6 initialized @(14292,0)
GPGPU-Sim uArch: Shader 0 finished CTA #5 (14366,0), 7 CTAs running
GPGPU-Sim uArch: core:  0, cta: 5 initialized @(14367,0)
GPGPU-Sim PTX: 2000000 instructions simulated : ctaid=(304,0,0) tid=(63,0,0)
GPGPU-Sim uArch: Shader 2 finished CTA #4 (14405,0), 7 CTAs running
GPGPU-Sim uArch: core:  2, cta: 4 initialized @(14406,0)
GPGPU-Sim uArch: Shader 5 finished CTA #4 (14480,0), 7 CTAs running
GPGPU-Sim uArch: Shader 6 finished CTA #4 (14480,0), 7 CTAs running
GPGPU-Sim uArch: core:  5, cta: 4 initialized @(14481,0)
GPGPU-Sim uArch: core:  6, cta: 4 initialized @(14481,0)
GPGPU-Sim uArch: cycles simulated: 14500  inst.: 2005856 (ipc=138.3) sim_rate=77148 (inst/sec) elapsed = 0:0:00:26 / Tue Mar 22 07:37:17 2016
GPGPU-Sim uArch: Shader 7 finished CTA #3 (14782,0), 7 CTAs running
GPGPU-Sim uArch: core:  7, cta: 3 initialized @(14783,0)
GPGPU-Sim uArch: Shader 11 finished CTA #3 (14783,0), 7 CTAs running
GPGPU-Sim uArch: core: 11, cta: 3 initialized @(14784,0)
GPGPU-Sim uArch: Shader 8 finished CTA #2 (14886,0), 7 CTAs running
GPGPU-Sim uArch: core:  8, cta: 2 initialized @(14887,0)
GPGPU-Sim uArch: Shader 11 finished CTA #4 (14933,0), 7 CTAs running
GPGPU-Sim uArch: core: 11, cta: 4 initialized @(14934,0)
GPGPU-Sim uArch: Shader 12 finished CTA #5 (14997,0), 7 CTAs running
GPGPU-Sim uArch: core: 12, cta: 5 initialized @(14998,0)
GPGPU-Sim uArch: Shader 9 finished CTA #2 (15024,0), 7 CTAs running
GPGPU-Sim uArch: core:  9, cta: 2 initialized @(15025,0)
GPGPU-Sim PTX: 2100000 instructions simulated : ctaid=(238,0,0) tid=(63,0,0)
GPGPU-Sim uArch: Shader 4 finished CTA #2 (15174,0), 7 CTAs running
GPGPU-Sim uArch: core:  4, cta: 2 initialized @(15175,0)
GPGPU-Sim uArch: Shader 0 finished CTA #6 (15228,0), 7 CTAs running
GPGPU-Sim uArch: core:  0, cta: 6 initialized @(15229,0)
GPGPU-Sim uArch: Shader 14 finished CTA #6 (15291,0), 7 CTAs running
GPGPU-Sim uArch: core: 14, cta: 6 initialized @(15292,0)
GPGPU-Sim uArch: Shader 3 finished CTA #6 (15301,0), 7 CTAs running
GPGPU-Sim uArch: core:  3, cta: 6 initialized @(15302,0)
GPGPU-Sim uArch: Shader 13 finished CTA #7 (15323,0), 7 CTAs running
GPGPU-Sim uArch: core: 13, cta: 7 initialized @(15324,0)
GPGPU-Sim uArch: Shader 8 finished CTA #3 (15431,0), 7 CTAs running
GPGPU-Sim uArch: core:  8, cta: 3 initialized @(15432,0)
GPGPU-Sim uArch: Shader 5 finished CTA #5 (15435,0), 7 CTAs running
GPGPU-Sim uArch: core:  5, cta: 5 initialized @(15436,0)
GPGPU-Sim uArch: Shader 6 finished CTA #5 (15458,0), 7 CTAs running
GPGPU-Sim uArch: core:  6, cta: 5 initialized @(15459,0)
GPGPU-Sim uArch: cycles simulated: 15500  inst.: 2125376 (ipc=137.1) sim_rate=78717 (inst/sec) elapsed = 0:0:00:27 / Tue Mar 22 07:37:18 2016
GPGPU-Sim uArch: Shader 2 finished CTA #5 (15535,0), 7 CTAs running
GPGPU-Sim uArch: core:  2, cta: 5 initialized @(15536,0)
GPGPU-Sim uArch: Shader 12 finished CTA #6 (15684,0), 7 CTAs running
GPGPU-Sim uArch: core: 12, cta: 6 initialized @(15685,0)
GPGPU-Sim uArch: Shader 10 finished CTA #5 (15688,0), 7 CTAs running
GPGPU-Sim uArch: core: 10, cta: 5 initialized @(15689,0)
GPGPU-Sim uArch: Shader 1 finished CTA #6 (15750,0), 7 CTAs running
GPGPU-Sim uArch: core:  1, cta: 6 initialized @(15751,0)
GPGPU-Sim uArch: Shader 8 finished CTA #4 (15847,0), 7 CTAs running
GPGPU-Sim uArch: core:  8, cta: 4 initialized @(15848,0)
GPGPU-Sim uArch: Shader 12 finished CTA #7 (15887,0), 7 CTAs running
GPGPU-Sim uArch: core: 12, cta: 7 initialized @(15888,0)
GPGPU-Sim PTX: 2200000 instructions simulated : ctaid=(211,0,0) tid=(191,0,0)
GPGPU-Sim uArch: Shader 11 finished CTA #5 (16084,0), 7 CTAs running
GPGPU-Sim uArch: core: 11, cta: 5 initialized @(16085,0)
GPGPU-Sim uArch: Shader 6 finished CTA #6 (16338,0), 7 CTAs running
GPGPU-Sim uArch: core:  6, cta: 6 initialized @(16339,0)
GPGPU-Sim uArch: Shader 10 finished CTA #6 (16402,0), 7 CTAs running
GPGPU-Sim uArch: core: 10, cta: 6 initialized @(16403,0)
GPGPU-Sim uArch: Shader 2 finished CTA #6 (16447,0), 7 CTAs running
GPGPU-Sim uArch: core:  2, cta: 6 initialized @(16448,0)
GPGPU-Sim uArch: Shader 7 finished CTA #4 (16454,0), 7 CTAs running
GPGPU-Sim uArch: core:  7, cta: 4 initialized @(16455,0)
GPGPU-Sim uArch: Shader 9 finished CTA #3 (16470,0), 7 CTAs running
GPGPU-Sim uArch: core:  9, cta: 3 initialized @(16471,0)
GPGPU-Sim uArch: Shader 3 finished CTA #7 (16475,0), 7 CTAs running
GPGPU-Sim uArch: core:  3, cta: 7 initialized @(16476,0)
GPGPU-Sim uArch: cycles simulated: 16500  inst.: 2251232 (ipc=136.4) sim_rate=80401 (inst/sec) elapsed = 0:0:00:28 / Tue Mar 22 07:37:19 2016
GPGPU-Sim uArch: Shader 8 finished CTA #5 (16538,0), 7 CTAs running
GPGPU-Sim uArch: core:  8, cta: 5 initialized @(16539,0)
GPGPU-Sim uArch: Shader 4 finished CTA #3 (16540,0), 7 CTAs running
GPGPU-Sim uArch: core:  4, cta: 3 initialized @(16541,0)
GPGPU-Sim uArch: Shader 1 finished CTA #7 (16547,0), 7 CTAs running
GPGPU-Sim uArch: core:  1, cta: 7 initialized @(16548,0)
GPGPU-Sim uArch: Shader 12 finished CTA #0 (16599,0), 7 CTAs running
GPGPU-Sim uArch: core: 12, cta: 0 initialized @(16600,0)
GPGPU-Sim uArch: Shader 11 finished CTA #6 (16667,0), 7 CTAs running
GPGPU-Sim uArch: core: 11, cta: 6 initialized @(16668,0)
GPGPU-Sim uArch: Shader 5 finished CTA #6 (16757,0), 7 CTAs running
GPGPU-Sim uArch: core:  5, cta: 6 initialized @(16758,0)
GPGPU-Sim uArch: Shader 4 finished CTA #4 (16778,0), 7 CTAs running
GPGPU-Sim uArch: core:  4, cta: 4 initialized @(16779,0)
GPGPU-Sim uArch: Shader 0 finished CTA #7 (16819,0), 7 CTAs running
GPGPU-Sim uArch: core:  0, cta: 7 initialized @(16820,0)
GPGPU-Sim PTX: 2300000 instructions simulated : ctaid=(252,0,0) tid=(63,0,0)
GPGPU-Sim uArch: Shader 13 finished CTA #0 (17005,0), 7 CTAs running
GPGPU-Sim uArch: core: 13, cta: 0 initialized @(17006,0)
GPGPU-Sim uArch: Shader 6 finished CTA #7 (17016,0), 7 CTAs running
GPGPU-Sim uArch: core:  6, cta: 7 initialized @(17017,0)
GPGPU-Sim uArch: Shader 11 finished CTA #7 (17034,0), 7 CTAs running
GPGPU-Sim uArch: core: 11, cta: 7 initialized @(17035,0)
GPGPU-Sim uArch: Shader 9 finished CTA #4 (17087,0), 7 CTAs running
GPGPU-Sim uArch: core:  9, cta: 4 initialized @(17088,0)
GPGPU-Sim uArch: Shader 14 finished CTA #7 (17272,0), 7 CTAs running
GPGPU-Sim uArch: core: 14, cta: 7 initialized @(17273,0)
GPGPU-Sim uArch: Shader 10 finished CTA #7 (17281,0), 7 CTAs running
GPGPU-Sim uArch: core: 10, cta: 7 initialized @(17282,0)
GPGPU-Sim uArch: Shader 8 finished CTA #6 (17341,0), 7 CTAs running
GPGPU-Sim uArch: core:  8, cta: 6 initialized @(17342,0)
GPGPU-Sim uArch: Shader 8 finished CTA #7 (17480,0), 7 CTAs running
GPGPU-Sim uArch: core:  8, cta: 7 initialized @(17481,0)
GPGPU-Sim uArch: Shader 1 finished CTA #0 (17488,0), 7 CTAs running
GPGPU-Sim uArch: core:  1, cta: 0 initialized @(17489,0)
GPGPU-Sim uArch: cycles simulated: 17500  inst.: 2375392 (ipc=135.7) sim_rate=81910 (inst/sec) elapsed = 0:0:00:29 / Tue Mar 22 07:37:20 2016
GPGPU-Sim uArch: Shader 7 finished CTA #5 (17509,0), 7 CTAs running
GPGPU-Sim uArch: core:  7, cta: 5 initialized @(17510,0)
GPGPU-Sim uArch: Shader 4 finished CTA #5 (17519,0), 7 CTAs running
GPGPU-Sim uArch: core:  4, cta: 5 initialized @(17520,0)
GPGPU-Sim uArch: Shader 5 finished CTA #7 (17557,0), 7 CTAs running
GPGPU-Sim uArch: core:  5, cta: 7 initialized @(17558,0)
GPGPU-Sim uArch: Shader 2 finished CTA #7 (17592,0), 7 CTAs running
GPGPU-Sim uArch: core:  2, cta: 7 initialized @(17593,0)
GPGPU-Sim uArch: Shader 0 finished CTA #0 (17660,0), 7 CTAs running
GPGPU-Sim uArch: core:  0, cta: 0 initialized @(17661,0)
GPGPU-Sim PTX: 2400000 instructions simulated : ctaid=(265,0,0) tid=(127,0,0)
GPGPU-Sim uArch: Shader 0 finished CTA #1 (17707,0), 7 CTAs running
GPGPU-Sim uArch: core:  0, cta: 1 initialized @(17708,0)
GPGPU-Sim uArch: Shader 3 finished CTA #0 (17731,0), 7 CTAs running
GPGPU-Sim uArch: core:  3, cta: 0 initialized @(17732,0)
GPGPU-Sim uArch: Shader 1 finished CTA #1 (17795,0), 7 CTAs running
GPGPU-Sim uArch: core:  1, cta: 1 initialized @(17796,0)
GPGPU-Sim uArch: Shader 11 finished CTA #0 (17839,0), 7 CTAs running
GPGPU-Sim uArch: core: 11, cta: 0 initialized @(17840,0)
GPGPU-Sim uArch: Shader 4 finished CTA #6 (18144,0), 7 CTAs running
GPGPU-Sim uArch: core:  4, cta: 6 initialized @(18145,0)
GPGPU-Sim uArch: Shader 7 finished CTA #6 (18168,0), 7 CTAs running
GPGPU-Sim uArch: Shader 14 finished CTA #0 (18168,0), 7 CTAs running
GPGPU-Sim uArch: core:  7, cta: 6 initialized @(18169,0)
GPGPU-Sim uArch: core: 14, cta: 0 initialized @(18169,0)
GPGPU-Sim uArch: Shader 0 finished CTA #2 (18270,0), 7 CTAs running
GPGPU-Sim uArch: core:  0, cta: 2 initialized @(18271,0)
GPGPU-Sim uArch: Shader 3 finished CTA #1 (18317,0), 7 CTAs running
GPGPU-Sim uArch: core:  3, cta: 1 initialized @(18318,0)
GPGPU-Sim uArch: Shader 3 finished CTA #2 (18331,0), 7 CTAs running
GPGPU-Sim uArch: core:  3, cta: 2 initialized @(18332,0)
GPGPU-Sim uArch: Shader 8 finished CTA #0 (18336,0), 7 CTAs running
GPGPU-Sim uArch: core:  8, cta: 0 initialized @(18337,0)
GPGPU-Sim PTX: 2500000 instructions simulated : ctaid=(279,0,0) tid=(191,0,0)
GPGPU-Sim uArch: Shader 5 finished CTA #0 (18397,0), 7 CTAs running
GPGPU-Sim uArch: core:  5, cta: 0 initialized @(18398,0)
GPGPU-Sim uArch: cycles simulated: 18500  inst.: 2506112 (ipc=135.5) sim_rate=83537 (inst/sec) elapsed = 0:0:00:30 / Tue Mar 22 07:37:21 2016
GPGPU-Sim uArch: Shader 14 finished CTA #1 (18546,0), 7 CTAs running
GPGPU-Sim uArch: core: 14, cta: 1 initialized @(18547,0)
GPGPU-Sim uArch: Shader 2 finished CTA #0 (18556,0), 7 CTAs running
GPGPU-Sim uArch: core:  2, cta: 0 initialized @(18557,0)
GPGPU-Sim uArch: Shader 6 finished CTA #0 (18569,0), 7 CTAs running
GPGPU-Sim uArch: core:  6, cta: 0 initialized @(18570,0)
GPGPU-Sim uArch: Shader 3 finished CTA #3 (18619,0), 7 CTAs running
GPGPU-Sim uArch: core:  3, cta: 3 initialized @(18620,0)
GPGPU-Sim uArch: Shader 5 finished CTA #1 (18641,0), 7 CTAs running
GPGPU-Sim uArch: core:  5, cta: 1 initialized @(18642,0)
GPGPU-Sim uArch: Shader 9 finished CTA #6 (18737,0), 7 CTAs running
GPGPU-Sim uArch: core:  9, cta: 6 initialized @(18738,0)
GPGPU-Sim uArch: Shader 0 finished CTA #3 (18741,0), 7 CTAs running
GPGPU-Sim uArch: core:  0, cta: 3 initialized @(18742,0)
GPGPU-Sim uArch: Shader 9 finished CTA #5 (18754,0), 7 CTAs running
GPGPU-Sim uArch: core:  9, cta: 5 initialized @(18755,0)
GPGPU-Sim uArch: Shader 2 finished CTA #1 (18791,0), 7 CTAs running
GPGPU-Sim uArch: core:  2, cta: 1 initialized @(18792,0)
GPGPU-Sim uArch: Shader 11 finished CTA #1 (18808,0), 7 CTAs running
GPGPU-Sim uArch: core: 11, cta: 1 initialized @(18809,0)
GPGPU-Sim uArch: Shader 10 finished CTA #0 (18848,0), 7 CTAs running
GPGPU-Sim uArch: core: 10, cta: 0 initialized @(18849,0)
GPGPU-Sim uArch: Shader 1 finished CTA #2 (18907,0), 7 CTAs running
GPGPU-Sim uArch: core:  1, cta: 2 initialized @(18908,0)
GPGPU-Sim PTX: 2600000 instructions simulated : ctaid=(371,0,0) tid=(95,0,0)
GPGPU-Sim uArch: Shader 5 finished CTA #2 (19226,0), 7 CTAs running
GPGPU-Sim uArch: core:  5, cta: 2 initialized @(19227,0)
GPGPU-Sim uArch: Shader 6 finished CTA #1 (19286,0), 7 CTAs running
GPGPU-Sim uArch: core:  6, cta: 1 initialized @(19287,0)
GPGPU-Sim uArch: Shader 12 finished CTA #1 (19353,0), 7 CTAs running
GPGPU-Sim uArch: core: 12, cta: 1 initialized @(19354,0)
GPGPU-Sim uArch: Shader 1 finished CTA #3 (19412,0), 7 CTAs running
GPGPU-Sim uArch: core:  1, cta: 3 initialized @(19413,0)
GPGPU-Sim uArch: Shader 8 finished CTA #1 (19426,0), 7 CTAs running
GPGPU-Sim uArch: core:  8, cta: 1 initialized @(19427,0)
GPGPU-Sim uArch: Shader 14 finished CTA #2 (19470,0), 7 CTAs running
GPGPU-Sim uArch: core: 14, cta: 2 initialized @(19471,0)
GPGPU-Sim uArch: cycles simulated: 19500  inst.: 2639520 (ipc=135.4) sim_rate=85145 (inst/sec) elapsed = 0:0:00:31 / Tue Mar 22 07:37:22 2016
GPGPU-Sim uArch: Shader 7 finished CTA #7 (19531,0), 7 CTAs running
GPGPU-Sim uArch: core:  7, cta: 7 initialized @(19532,0)
GPGPU-Sim uArch: Shader 2 finished CTA #2 (19563,0), 7 CTAs running
GPGPU-Sim uArch: core:  2, cta: 2 initialized @(19564,0)
GPGPU-Sim uArch: Shader 4 finished CTA #7 (19618,0), 7 CTAs running
GPGPU-Sim uArch: core:  4, cta: 7 initialized @(19619,0)
GPGPU-Sim uArch: Shader 3 finished CTA #4 (19688,0), 7 CTAs running
GPGPU-Sim uArch: core:  3, cta: 4 initialized @(19689,0)
GPGPU-Sim uArch: Shader 12 finished CTA #2 (19798,0), 7 CTAs running
GPGPU-Sim uArch: core: 12, cta: 2 initialized @(19799,0)
GPGPU-Sim uArch: Shader 9 finished CTA #7 (19815,0), 7 CTAs running
GPGPU-Sim uArch: core:  9, cta: 7 initialized @(19816,0)
GPGPU-Sim PTX: 2700000 instructions simulated : ctaid=(320,0,0) tid=(127,0,0)
GPGPU-Sim uArch: Shader 2 finished CTA #3 (19991,0), 7 CTAs running
GPGPU-Sim uArch: core:  2, cta: 3 initialized @(19992,0)
GPGPU-Sim uArch: Shader 5 finished CTA #3 (20041,0), 7 CTAs running
GPGPU-Sim uArch: core:  5, cta: 3 initialized @(20042,0)
GPGPU-Sim uArch: Shader 10 finished CTA #1 (20116,0), 7 CTAs running
GPGPU-Sim uArch: core: 10, cta: 1 initialized @(20117,0)
GPGPU-Sim uArch: Shader 6 finished CTA #2 (20150,0), 7 CTAs running
GPGPU-Sim uArch: core:  6, cta: 2 initialized @(20151,0)
GPGPU-Sim uArch: Shader 0 finished CTA #4 (20166,0), 7 CTAs running
GPGPU-Sim uArch: Shader 13 finished CTA #1 (20166,0), 7 CTAs running
GPGPU-Sim uArch: core: 13, cta: 1 initialized @(20167,0)
GPGPU-Sim uArch: core:  0, cta: 4 initialized @(20167,0)
GPGPU-Sim uArch: Shader 4 finished CTA #0 (20363,0), 7 CTAs running
GPGPU-Sim uArch: core:  4, cta: 0 initialized @(20364,0)
GPGPU-Sim uArch: Shader 1 finished CTA #4 (20381,0), 7 CTAs running
GPGPU-Sim uArch: core:  1, cta: 4 initialized @(20382,0)
GPGPU-Sim uArch: Shader 11 finished CTA #2 (20432,0), 7 CTAs running
GPGPU-Sim uArch: core: 11, cta: 2 initialized @(20433,0)
GPGPU-Sim uArch: cycles simulated: 20500  inst.: 2771648 (ipc=135.2) sim_rate=86614 (inst/sec) elapsed = 0:0:00:32 / Tue Mar 22 07:37:23 2016
GPGPU-Sim uArch: Shader 12 finished CTA #3 (20538,0), 7 CTAs running
GPGPU-Sim uArch: core: 12, cta: 3 initialized @(20539,0)
GPGPU-Sim uArch: Shader 5 finished CTA #4 (20569,0), 7 CTAs running
GPGPU-Sim uArch: core:  5, cta: 4 initialized @(20570,0)
GPGPU-Sim uArch: Shader 2 finished CTA #4 (20594,0), 7 CTAs running
GPGPU-Sim uArch: core:  2, cta: 4 initialized @(20595,0)
GPGPU-Sim uArch: Shader 3 finished CTA #5 (20666,0), 7 CTAs running
GPGPU-Sim uArch: core:  3, cta: 5 initialized @(20667,0)
GPGPU-Sim PTX: 2800000 instructions simulated : ctaid=(313,0,0) tid=(191,0,0)
GPGPU-Sim uArch: Shader 7 finished CTA #0 (20814,0), 7 CTAs running
GPGPU-Sim uArch: core:  7, cta: 0 initialized @(20815,0)
GPGPU-Sim uArch: Shader 12 finished CTA #4 (20834,0), 7 CTAs running
GPGPU-Sim uArch: core: 12, cta: 4 initialized @(20835,0)
GPGPU-Sim uArch: Shader 10 finished CTA #2 (20858,0), 7 CTAs running
GPGPU-Sim uArch: core: 10, cta: 2 initialized @(20859,0)
GPGPU-Sim uArch: Shader 13 finished CTA #2 (20884,0), 7 CTAs running
GPGPU-Sim uArch: core: 13, cta: 2 initialized @(20885,0)
GPGPU-Sim uArch: Shader 6 finished CTA #3 (20964,0), 7 CTAs running
GPGPU-Sim uArch: core:  6, cta: 3 initialized @(20965,0)
GPGPU-Sim uArch: Shader 4 finished CTA #1 (20966,0), 7 CTAs running
GPGPU-Sim uArch: core:  4, cta: 1 initialized @(20967,0)
GPGPU-Sim uArch: cycles simulated: 21000  inst.: 2832192 (ipc=134.9) sim_rate=85824 (inst/sec) elapsed = 0:0:00:33 / Tue Mar 22 07:37:24 2016
GPGPU-Sim uArch: Shader 9 finished CTA #0 (21006,0), 7 CTAs running
GPGPU-Sim uArch: core:  9, cta: 0 initialized @(21007,0)
GPGPU-Sim uArch: Shader 11 finished CTA #3 (21011,0), 7 CTAs running
GPGPU-Sim uArch: core: 11, cta: 3 initialized @(21012,0)
GPGPU-Sim uArch: Shader 5 finished CTA #5 (21141,0), 7 CTAs running
GPGPU-Sim uArch: core:  5, cta: 5 initialized @(21142,0)
GPGPU-Sim uArch: Shader 8 finished CTA #2 (21185,0), 7 CTAs running
GPGPU-Sim uArch: core:  8, cta: 2 initialized @(21186,0)
GPGPU-Sim uArch: Shader 13 finished CTA #3 (21254,0), 7 CTAs running
[...]
traffic_breakdown_coretomem[CONST_ACC_R] = 720 {8:90,}
traffic_breakdown_coretomem[GLOBAL_ACC_R] = 11561352 {8:1445169,}
traffic_breakdown_coretomem[GLOBAL_ACC_W] = 17273088 {136:127008,}
traffic_breakdown_coretomem[INST_ACC_R] = 657000 {8:82125,}
traffic_breakdown_memtocore[CONST_ACC_R] = 6480 {72:90,}
traffic_breakdown_memtocore[GLOBAL_ACC_R] = 196542984 {136:1445169,}
traffic_breakdown_memtocore[GLOBAL_ACC_W] = 1016064 {8:127008,}
traffic_breakdown_memtocore[INST_ACC_R] = 11169000 {136:82125,}
maxmrqlatency = 1359 
maxdqlatency = 0 
maxmflatency = 2623 
averagemflatency = 411 
max_icnt2mem_latency = 1496 
max_icnt2sh_latency = 1438090 
mrq_lat_table:190916 	4608 	7652 	17812 	62384 	52392 	46301 	39229 	16210 	1277 	20 	0 	0 	0 	0 	0 	0 	0 	0 	0 	0 	0 	0 	0 	0 	0 	0 	0 	0 	0 	0 	0 	
dq_lat_table:0 	0 	0 	0 	0 	0 	0 	0 	0 	0 	0 	0 	0 	0 	0 	0 	0 	0 	0 	0 	0 	0 	0 	0 	0 	0 	0 	0 	0 	0 	0 	0 	
mf_lat_table:0 	0 	0 	0 	0 	0 	0 	306428 	947751 	272924 	45058 	106 	0 	0 	0 	0 	0 	0 	0 	0 	0 	0 	0 	0 	0 	0 	0 	0 	0 	0 	0 	0 	
icnt2mem_lat_table:0 	0 	0 	565119 	115759 	167722 	297523 	342047 	147605 	18339 	278 	0 	0 	0 	0 	0 	0 	0 	0 	0 	0 	0 	0 	0 	
icnt2sh_lat_table:0 	0 	0 	51070 	844756 	534342 	15077 	14 	0 	36 	453 	962 	2150 	4313 	8598 	16539 	33725 	31099 	6217 	13219 	9697 	0 	0 	0 	
mf_lat_pw_table:0 	0 	0 	0 	0 	0 	0 	8 	2472 	187 	206 	0 	0 	0 	0 	0 	0 	0 	0 	0 	0 	0 	0 	0 	0 	0 	0 	0 	0 	0 	0 	0 	
maximum concurrent accesses to same row:
dram[0]:        32        24        30        26        22        30        52        54        50        40        42        46        36        36        50        60 
dram[1]:        28        24        24        26        22        28        54        40        46        40        44        46        36        36        48        56 
dram[2]:        26        24        26        30        28        24        50        54        52        50        46        50        38        40        58        54 
dram[3]:        28        28        32        28        30        24        46        50        44        40        42        48        38        40        56        54 
dram[4]:        34        30        28        32        24        24        46        46        42        40        42        46        36        40        56        52 
dram[5]:        34        28        28        30        24        34        54        54        50        50        48        50        36        40        60        56 
maximum service time to same row:
dram[0]:     26978     20358     30452     61309     71044     28680     42138     38203     42850     53472     57082     53818     31309     36544     42200     30141 
dram[1]:     26137     60231     44700     61785     49791     33670     43312     26292     32533     29414     25842     44681     43266     25762     17594     27782 
dram[2]:     38222     49623     46255     42835     84503     27791     45716     43157     33001     42231     27074     41484     36587     22197     21224     42447 
dram[3]:     38587     17464     55460     41152     35540     37533     31805     33259     44893     23651     35118     44068     18271     30766     33316     32293 
dram[4]:     24323     23735     45120     36605     47774     24903     40323     32753     34532     26055     50843     55987     23085     36090     18225     37953 
dram[5]:     32164     19955     56668     45342     94059     33070     24610     28300     34755     82256     78854     32181     55222     34965     27582     23821 
average row accesses per activate:
dram[0]:  2.119611  2.040157  2.093327  2.077992  2.031878  2.056545  2.079588  2.194458  2.076818  2.121526  2.151661  2.103835  2.208132  2.221632  2.106239  2.122951 
dram[1]:  2.017972  2.075134  2.021505  2.066696  2.003387  2.030568  2.108911  2.067875  2.091204  2.027159  2.157309  2.119127  2.201923  2.204337  2.072496  2.127049 
dram[2]:  2.128736  2.155317  2.064402  2.139170  2.080840  2.054642  2.147173  2.188961  2.131629  2.220766  2.153401  2.196420  2.226943  2.225296  2.180168  2.147626 
dram[3]:  2.154923  2.108096  2.075683  2.098004  2.077163  2.020000  2.082904  2.099860  2.103304  2.101015  2.101076  2.147494  2.227000  2.274987  2.172544  2.113351 
dram[4]:  2.086937  2.071878  2.047598  2.027122  2.053493  2.023736  2.078249  2.102892  2.062586  2.121341  2.053013  2.141227  2.187381  2.138734  2.109739  2.099864 
dram[5]:  2.115261  2.068889  2.087251  2.109545  2.046228  2.093054  2.182939  2.118039  2.146154  2.173829  2.193182  2.211986  2.255673  2.202199  2.174941  2.088889 
average row locality = 438801/207457 = 2.115142
number of total memory accesses made:
dram[0]:         0         0         0         0         0         0         0         0         0         0         0         0         0         0         0         0 
dram[1]:         0         0         0         0         0         0         0         0         0         0         0         0         0         0         0         0 
dram[2]:         0         0         0         0         0         0         0         0         0         0         0         0         0         0         0         0 
dram[3]:         0         0         0         0         0         0         0         0         0         0         0         0         0         0         0         0 
dram[4]:         0         0         0         0         0         0         0         0         0         0         0         0         0         0         0         0 
dram[5]:         0         0         0         0         0         0         0         0         0         0         0         0         0         0         0         0 
total accesses: 0
min_bank_accesses = 0!
min_chip_accesses = 0!
number of total read accesses:
dram[0]:      3228      3330      3299      3292      3337      3303      3160      3153      3230      3192      3157      3186      3232      3271      3315      3318 
dram[1]:      3372      3296      3356      3273      3416      3334      3191      3166      3205      3241      3145      3153      3250      3244      3373      3327 
dram[2]:      3286      3277      3336      3298      3343      3313      3124      3118      3190      3094      3152      3105      3282      3172      3339      3224 
dram[3]:      3274      3317      3291      3280      3341      3334      3165      3216      3208      3243      3178      3187      3124      3152      3277      3373 
dram[4]:      3337      3268      3259      3290      3329      3292      3180      3151      3203      3181      3219      3191      3246      3262      3270      3303 
dram[5]:      3244      3311      3273      3297      3376      3389      3145      3166      3152      3190      3127      3154      3143      3275      3256      3356 
total reads: 311793
bank skew: 3416/3094 = 1.10
chip skew: 52342/51653 = 1.01
number of total write accesses:
dram[0]:      1344      1344      1344      1344      1316      1316      1282      1282      1312      1312      1312      1312      1330      1330      1344      1344 
dram[1]:      1344      1344      1344      1344      1316      1316      1282      1282      1312      1312      1312      1312      1330      1330      1344      1344 
dram[2]:      1344      1344      1344      1344      1316      1312      1282      1284      1312      1312      1312      1312      1330      1332      1344      1344 
dram[3]:      1344      1344      1344      1344      1316      1312      1282      1284      1312      1312      1312      1312      1330      1332      1344      1344 
dram[4]:      1344      1344      1344      1344      1316      1312      1282      1284      1312      1312      1312      1312      1330      1332      1344      1344 
dram[5]:      1344      1344      1344      1344      1316      1312      1282      1284      1312      1312      1312      1312      1330      1332      1344      1344 
total reads: 127008
bank skew: 1344/1282 = 1.05
chip skew: 21168/21168 = 1.00
average mf latency per bank:
dram[0]:       1546      1488      1502      1558      1532      1585      1544      1573      1421      1615      1261      1322      1371      1367      1466      1489
dram[1]:       1369      1502      1425      1621      1405      1604      1425      1673      1423      1567      1164      1255      1188      1373      1289      1435
dram[2]:       1451      1626      1469      1709      1474      1650      1507      1690      1556      1659      1239      1420      1298      1481      1405      1583
dram[3]:       1538      1425      1545      1535      1514      1546      1501      1489      1491      1433      1266      1225      1350      1338      1456      1322
dram[4]:       1486      1387      1562      1439      1690      1378      1743      1391      1683      1384      1329      1191      1388      1223      1519      1301
dram[5]:       1635      1618      1656      1656      1635      1619      1715      1575      1673      1510      1336      1270      1424      1374      1568      1531
maximum mf latency per bank:
dram[0]:       1790      1811      1927      1944      2003      1929      1905      1804      1954      1735      1953      2019      2342      1905      1772      1891
dram[1]:       1470      1572      1660      1658      1797      1801      1590      1590      1632      1853      1604      1833      1989      1845      1653      1658
dram[2]:       1902      2044      2406      2177      2459      2397      1958      2084      2268      2304      2559      2174      2365      2126      2168      2154
dram[3]:       2013      1767      1878      1832      2286      2027      1673      1759      2031      1809      1928      1924      2069      2055      2040      1766
dram[4]:       1499      1463      1633      1753      2012      1962      1600      1623      1718      1731      1713      1732      2102      1720      1517      1661
dram[5]:       2109      2154      2107      2208      2142      2623      2305      2052      2147      2177      2114      2167      2221      2184      1909      2010

Number of Memory Banks Accessed per Memory Operation per Warp (from 0):
0	0	0	0	0	0	0	0	0	0	0	0	0	0	0	0	0	0	0	0	0	0	0	0	0	0	0	0	0	0	0	0	0	0	0	0	0	0	0	0	0	0	0	0	0	0	0	0	0	0	0	0	0	0	0	0	0	0	0	0	0	0	0	0	0	0	0	0	0	0	0	0	0	0	0	0	0	0	0	0	0	0	0	0	0	0	0	0	0	0	0	0	0	0	0	0	
Average # of Memory Banks Accessed per Memory Operation per Warp=-nan

position of mrq chosen
0	0	0	0	0	0	0	0	0	0	0	0	0	0	0	0	

average position of mrq chosen = -nan
Memory Partition 0: 
Cache L2_bank_000:
MSHR contents

Cache L2_bank_001:
MSHR contents
MSHR: tag=0x8179fe80, atomic=0 1 entries : 0x7fdb4a104b60 :  mf: uid=28009765, sid01:w03, part=0, addr=0x8179fe80, load , size=128, unknown  status = IN_PARTITION_DRAM (1438088), 

In Dram Latency Queue (total = 0): 
DRAM[0]: 16 bks, busW=4 BL=8 CL=12, tRRD=2 tCCD=6, tRCD=12 tRAS=28 tRP=12 tRC=40
n_cmd=1898276 n_nop=1682630 n_act=34660 n_pre=34644 n_req=73171 n_rd=104006 n_write=42336 bw_util=0.1542
n_activity=1076071 dram_eff=0.272
bk0: 6456a 1770791i bk1: 6660a 1767350i bk2: 6598a 1760753i bk3: 6584a 1763154i bk4: 6674a 1761423i bk5: 6606a 1762709i bk6: 6320a 1771172i bk7: 6306a 1772291i bk8: 6460a 1771697i bk9: 6384a 1773643i bk10: 6314a 1769562i bk11: 6372a 1767807i bk12: 6464a 1768374i bk13: 6542a 1766607i bk14: 6630a 1766555i bk15: 6636a 1763961i 
dram_util_bins: 0 0 0 0 0 0 0 0 0 0
dram_eff_bins: 0 0 0 0 0 0 0 0 0 0
mrqq: max=16 avg=2.48879
Memory Partition 1: 
Cache L2_bank_002:
MSHR contents

Cache L2_bank_003:
MSHR contents

In Dram Latency Queue (total = 0): 
DRAM[1]: 16 bks, busW=4 BL=8 CL=12, tRRD=2 tCCD=6, tRCD=12 tRAS=28 tRP=12 tRC=40
n_cmd=1898276 n_nop=1680746 n_act=35263 n_pre=35247 n_req=73510 n_rd=104684 n_write=42336 bw_util=0.1549
n_activity=1074461 dram_eff=0.2737
bk0: 6744a 1765533i bk1: 6592a 1768964i bk2: 6712a 1759681i bk3: 6546a 1762873i bk4: 6832a 1759934i bk5: 6668a 1759175i bk6: 6382a 1770869i bk7: 6332a 1769882i bk8: 6410a 1772267i bk9: 6482a 1769916i bk10: 6290a 1768668i bk11: 6306a 1767538i bk12: 6500a 1767195i bk13: 6488a 1766190i bk14: 6746a 1764874i bk15: 6654a 1764501i 
dram_util_bins: 0 0 0 0 0 0 0 0 0 0
dram_eff_bins: 0 0 0 0 0 0 0 0 0 0
mrqq: max=16 avg=2.4293
Memory Partition 2: 
Cache L2_bank_004:
MSHR contents

Cache L2_bank_005:
MSHR contents

In Dram Latency Queue (total = 0): 
DRAM[2]: 16 bks, busW=4 BL=8 CL=12, tRRD=2 tCCD=6, tRCD=12 tRAS=28 tRP=12 tRC=40
n_cmd=1898276 n_nop=1684932 n_act=33859 n_pre=33843 n_req=72821 n_rd=103306 n_write=42336 bw_util=0.1534
n_activity=1052591 dram_eff=0.2767
bk0: 6572a 1769772i bk1: 6554a 1769505i bk2: 6672a 1761891i bk3: 6596a 1763619i bk4: 6686a 1763113i bk5: 6626a 1762410i bk6: 6248a 1773420i bk7: 6236a 1775279i bk8: 6380a 1773790i bk9: 6188a 1776133i bk10: 6304a 1771315i bk11: 6210a 1769840i bk12: 6564a 1767310i bk13: 6344a 1769013i bk14: 6678a 1765600i bk15: 6448a 1768296i 
dram_util_bins: 0 0 0 0 0 0 0 0 0 0
dram_eff_bins: 0 0 0 0 0 0 0 0 0 0
mrqq: max=16 avg=2.51799
Memory Partition 3: 
Cache L2_bank_006:
MSHR contents

Cache L2_bank_007:
MSHR contents

In Dram Latency Queue (total = 0): 
DRAM[3]: 16 bks, busW=4 BL=8 CL=12, tRRD=2 tCCD=6, tRCD=12 tRAS=28 tRP=12 tRC=40
n_cmd=1898276 n_nop=1683056 n_act=34490 n_pre=34474 n_req=73128 n_rd=103920 n_write=42336 bw_util=0.1541
n_activity=1069459 dram_eff=0.2735
bk0: 6548a 1769017i bk1: 6634a 1768371i bk2: 6582a 1763375i bk3: 6560a 1763152i bk4: 6682a 1761276i bk5: 6668a 1760137i bk6: 6330a 1771451i bk7: 6432a 1770109i bk8: 6416a 1773018i bk9: 6486a 1772649i bk10: 6356a 1767281i bk11: 6374a 1767823i bk12: 6248a 1770655i bk13: 6304a 1770125i bk14: 6554a 1767920i bk15: 6746a 1764426i 
dram_util_bins: 0 0 0 0 0 0 0 0 0 0
dram_eff_bins: 0 0 0 0 0 0 0 0 0 0
mrqq: max=16 avg=2.49987
Memory Partition 4: 
Cache L2_bank_008:
MSHR contents

Cache L2_bank_009:
MSHR contents

In Dram Latency Queue (total = 0): 
DRAM[4]: 16 bks, busW=4 BL=8 CL=12, tRRD=2 tCCD=6, tRCD=12 tRAS=28 tRP=12 tRC=40
n_cmd=1898276 n_nop=1681888 n_act=35053 n_pre=35037 n_req=73149 n_rd=103962 n_write=42336 bw_util=0.1541
n_activity=1075178 dram_eff=0.2721
bk0: 6674a 1767930i bk1: 6536a 1768567i bk2: 6518a 1763910i bk3: 6580a 1760422i bk4: 6658a 1762599i bk5: 6584a 1761560i bk6: 6360a 1770218i bk7: 6302a 1771984i bk8: 6406a 1772399i bk9: 6362a 1771991i bk10: 6438a 1765500i bk11: 6382a 1767039i bk12: 6492a 1767197i bk13: 6524a 1765620i bk14: 6540a 1766768i bk15: 6606a 1765129i 
dram_util_bins: 0 0 0 0 0 0 0 0 0 0
dram_eff_bins: 0 0 0 0 0 0 0 0 0 0
mrqq: max=16 avg=2.42515
Memory Partition 5: 
Cache L2_bank_010:
MSHR contents

Cache L2_bank_011:
MSHR contents

In Dram Latency Queue (total = 0): 
DRAM[5]: 16 bks, busW=4 BL=8 CL=12, tRRD=2 tCCD=6, tRCD=12 tRAS=28 tRP=12 tRC=40
n_cmd=1898276 n_nop=1683982 n_act=34133 n_pre=34117 n_req=73022 n_rd=103708 n_write=42336 bw_util=0.1539
n_activity=1061262 dram_eff=0.2752
bk0: 6488a 1772247i bk1: 6622a 1768324i bk2: 6546a 1763949i bk3: 6594a 1761872i bk4: 6752a 1761802i bk5: 6778a 1761548i bk6: 6290a 1774513i bk7: 6332a 1772560i bk8: 6304a 1775882i bk9: 6380a 1774530i bk10: 6254a 1771430i bk11: 6308a 1770740i bk12: 6286a 1770739i bk13: 6550a 1768116i bk14: 6512a 1767988i bk15: 6712a 1765546i 
dram_util_bins: 0 0 0 0 0 0 0 0 0 0
dram_eff_bins: 0 0 0 0 0 0 0 0 0 0
mrqq: max=16 avg=2.51483

========= L2 cache stats =========
L2_cache_bank[0]: Access = 138081, Miss = 25958, Miss_rate = 0.188, Pending_hits = 67, Reservation_fails = 3758
L2_cache_bank[1]: Access = 138167, Miss = 26045, Miss_rate = 0.189, Pending_hits = 41, Reservation_fails = 5245
L2_cache_bank[2]: Access = 134973, Miss = 26308, Miss_rate = 0.195, Pending_hits = 47, Reservation_fails = 6703
L2_cache_bank[3]: Access = 140155, Miss = 26034, Miss_rate = 0.186, Pending_hits = 45, Reservation_fails = 5685
L2_cache_bank[4]: Access = 133879, Miss = 26052, Miss_rate = 0.195, Pending_hits = 62, Reservation_fails = 12741
L2_cache_bank[5]: Access = 139677, Miss = 25601, Miss_rate = 0.183, Pending_hits = 34, Reservation_fails = 13397
L2_cache_bank[6]: Access = 137876, Miss = 25858, Miss_rate = 0.188, Pending_hits = 44, Reservation_fails = 11229
L2_cache_bank[7]: Access = 137141, Miss = 26102, Miss_rate = 0.190, Pending_hits = 46, Reservation_fails = 10488
L2_cache_bank[8]: Access = 141650, Miss = 26043, Miss_rate = 0.184, Pending_hits = 52, Reservation_fails = 4155
L2_cache_bank[9]: Access = 135052, Miss = 25938, Miss_rate = 0.192, Pending_hits = 42, Reservation_fails = 4976
L2_cache_bank[10]: Access = 139704, Miss = 25716, Miss_rate = 0.184, Pending_hits = 44, Reservation_fails = 8764
L2_cache_bank[11]: Access = 138037, Miss = 26138, Miss_rate = 0.189, Pending_hits = 62, Reservation_fails = 12073
L2_total_cache_accesses = 1654392
L2_total_cache_misses = 311793
L2_total_cache_miss_rate = 0.1885
L2_total_cache_pending_hits = 586
L2_total_cache_reservation_fails = 99214
L2_total_cache_breakdown:
	L2_cache_stats_breakdown[GLOBAL_ACC_R][HIT] = 1260038
	L2_cache_stats_breakdown[GLOBAL_ACC_R][HIT_RESERVED] = 464
	L2_cache_stats_breakdown[GLOBAL_ACC_R][MISS] = 184667
	L2_cache_stats_breakdown[GLOBAL_ACC_R][RESERVATION_FAIL] = 86988
	L2_cache_stats_breakdown[CONST_ACC_R][HIT] = 72
	L2_cache_stats_breakdown[CONST_ACC_R][HIT_RESERVED] = 8
	L2_cache_stats_breakdown[CONST_ACC_R][MISS] = 10
	L2_cache_stats_breakdown[CONST_ACC_R][RESERVATION_FAIL] = 198
	L2_cache_stats_breakdown[GLOBAL_ACC_W][MISS] = 127008
	L2_cache_stats_breakdown[GLOBAL_ACC_W][RESERVATION_FAIL] = 10309
	L2_cache_stats_breakdown[INST_ACC_R][HIT] = 81903
	L2_cache_stats_breakdown[INST_ACC_R][HIT_RESERVED] = 114
	L2_cache_stats_breakdown[INST_ACC_R][MISS] = 108
	L2_cache_stats_breakdown[INST_ACC_R][RESERVATION_FAIL] = 1719
L2_cache_data_port_util = 0.311
L2_cache_fill_port_util = 0.072

icnt_total_pkts_mem_to_simt=7763748
icnt_total_pkts_simt_to_mem=2162424
LD_mem_lat_dist  0 0 0 0 0 0 0 0 0 0 0 0 0 0 0 0 0 0 0 0 0 0 0 0 0 0 0
ST_mem_lat_dist  0 0 0 0 0 0 0 0 0 0 0 0 0 0 0 0 0 0 0 0 0 0 0 0 0 0 0
----------------------------Interconnect-DETAILS--------------------------------
Class 0:
Packet latency average = 41.1317
	minimum = 6
	maximum = 612
Network latency average = 30.357
	minimum = 6
	maximum = 612
Slowest packet = 994013
Flit latency average = 19.6245
	minimum = 6
	maximum = 612
Slowest flit = 2980985
Fragmentation average = 0.0416898
	minimum = 0
	maximum = 441
Injected packet rate average = 0.0922963
	minimum = 0.0823554 (at node 13)
	maximum = 0.106942 (at node 23)
Accepted packet rate average = 0.0922963
	minimum = 0.0823554 (at node 13)
	maximum = 0.106942 (at node 23)
Injected flit rate average = 0.276885
	minimum = 0.0888426 (at node 13)
	maximum = 0.526454 (at node 23)
Accepted flit rate average= 0.276885
	minimum = 0.108809 (at node 19)
	maximum = 0.411942 (at node 9)
Injected packet length average = 2.99996
Accepted packet length average = 2.99996
Total in-flight flits = 0 (0 measured)
====== Overall Traffic Statistics ======
====== Traffic class 0 ======
Packet latency average = 42.0557 (5 samples)
	minimum = 6 (5 samples)
	maximum = 692 (5 samples)
Network latency average = 31.2244 (5 samples)
	minimum = 6 (5 samples)
	maximum = 637.4 (5 samples)
Flit latency average = 33.3718 (5 samples)
	minimum = 6 (5 samples)
	maximum = 635 (5 samples)
Fragmentation average = 1.30984 (5 samples)
	minimum = 0 (5 samples)
	maximum = 470.8 (5 samples)
Injected packet rate average = 0.056877 (5 samples)
	minimum = 0.0491031 (5 samples)
	maximum = 0.064864 (5 samples)
Accepted packet rate average = 0.056877 (5 samples)
	minimum = 0.0491031 (5 samples)
	maximum = 0.064864 (5 samples)
Injected flit rate average = 0.170623 (5 samples)
	minimum = 0.0647527 (5 samples)
	maximum = 0.294099 (5 samples)
Accepted flit rate average = 0.170623 (5 samples)
	minimum = 0.0684257 (5 samples)
	maximum = 0.274604 (5 samples)
Injected packet size average = 2.99985 (5 samples)
Accepted packet size average = 2.99985 (5 samples)
Hops average = 1 (5 samples)
