

        *** GPGPU-Sim Simulator Version 3.2.2  [build 0] ***


GPGPU-Sim PTX: simulation mode 0 (can change with PTX_SIM_MODE_FUNC environment variable:
               1=functional simulation only, 0=detailed performance simulator)
GPGPU-Sim: Configuration options:

-network_mode                           1 # Interconnection network mode
-inter_config_file   config_fermi_islip.icnt # Interconnection network config file
-gpgpu_ptx_use_cuobjdump                    1 # Use cuobjdump to extract ptx and sass from binaries
-gpgpu_experimental_lib_support                    0 # Try to extract code from cuda libraries [Broken because of unknown cudaGetExportTable]
-gpgpu_ptx_convert_to_ptxplus                    0 # Convert SASS (native ISA) to ptxplus and run ptxplus
-gpgpu_ptx_force_max_capability                   20 # Force maximum compute capability
-gpgpu_ptx_inst_debug_to_file                    0 # Dump executed instructions' debug information to file
-gpgpu_ptx_inst_debug_file       inst_debug.txt # Executed instructions' debug output file
-gpgpu_ptx_inst_debug_thread_uid                    1 # Thread UID for executed instructions' debug output
-gpgpu_simd_model                       1 # 1 = post-dominator
-gpgpu_shader_core_pipeline              1536:32 # shader core pipeline config, i.e., {<nthread>:<warpsize>}
-gpgpu_tex_cache:l1  4:128:24,L:R:m:N:L,F:128:4,128:2 # per-shader L1 texture cache  (READ-ONLY) config  {<nsets>:<bsize>:<assoc>,<rep>:<wr>:<alloc>:<wr_alloc>,<mshr>:<N>:<merge>,<mq>:<rf>}
-gpgpu_const_cache:l1 64:64:2,L:R:f:N:L,A:2:32,4 # per-shader L1 constant memory cache  (READ-ONLY) config  {<nsets>:<bsize>:<assoc>,<rep>:<wr>:<alloc>:<wr_alloc>,<mshr>:<N>:<merge>,<mq>} 
-gpgpu_cache:il1     4:128:4,L:R:f:N:L,A:2:32,4 # shader L1 instruction cache config  {<nsets>:<bsize>:<assoc>,<rep>:<wr>:<alloc>:<wr_alloc>,<mshr>:<N>:<merge>,<mq>} 
-gpgpu_cache:dl1     32:128:4,L:L:m:N:H,A:32:8,8:2,0,1:0:1:1:0:1,1:4:8:16:32:64,/sciclone/data10/hwang07/GPU_RESEARCH/swl/swl_outputs/RESULTS/swl8/ # per-shader L1 data cache config  {<nsets>:<bsize>:<assoc>,<rep>:<wr>:<alloc>:<wr_alloc>,<mshr>:<N>:<merge>,<mq> | none}
-gpgpu_cache:dl1PrefL1                 none # per-shader L1 data cache config  {<nsets>:<bsize>:<assoc>,<rep>:<wr>:<alloc>:<wr_alloc>,<mshr>:<N>:<merge>,<mq> | none}
-gpgpu_cache:dl1PreShared                 none # per-shader L1 data cache config  {<nsets>:<bsize>:<assoc>,<rep>:<wr>:<alloc>:<wr_alloc>,<mshr>:<N>:<merge>,<mq> | none}
-gmem_skip_L1D                          0 # global memory access skip L1D cache (implements -Xptxas -dlcm=cg, default=no skip)
-gpgpu_perfect_mem                      0 # enable perfect memory mode (no cache miss)
-n_regfile_gating_group                    4 # group of lanes that should be read/written together)
-gpgpu_clock_gated_reg_file                    0 # enable clock gated reg file for power calculations
-gpgpu_clock_gated_lanes                    0 # enable clock gated lanes for power calculations
-gpgpu_shader_registers                32768 # Number of registers per shader core. Limits number of concurrent CTAs. (default 8192)
-gpgpu_shader_cta                       8 # Maximum number of concurrent CTAs in shader (default 8)
-gpgpu_num_cta_barriers                   16 # Maximum number of named barriers per CTA (default 16)
-gpgpu_n_clusters                      15 # number of processing clusters
-gpgpu_n_cores_per_cluster                    1 # number of simd cores per cluster
-gpgpu_n_cluster_ejection_buffer_size                    8 # number of packets in ejection buffer
-gpgpu_n_ldst_response_buffer_size                    2 # number of response packets in ld/st unit ejection buffer
-gpgpu_shmem_size                   16384 # Size of shared memory per shader core (default 16kB)
-gpgpu_shmem_size                   49152 # Size of shared memory per shader core (default 16kB)
-gpgpu_shmem_size_PrefL1                16384 # Size of shared memory per shader core (default 16kB)
-gpgpu_shmem_size_PrefShared                16384 # Size of shared memory per shader core (default 16kB)
-gpgpu_shmem_num_banks                   32 # Number of banks in the shared memory in each shader core (default 16)
-gpgpu_shmem_limited_broadcast                    0 # Limit shared memory to do one broadcast per cycle (default on)
-gpgpu_shmem_warp_parts                    1 # Number of portions a warp is divided into for shared memory bank conflict check 
-gpgpu_warpdistro_shader                   -1 # Specify which shader core to collect the warp size distribution from
-gpgpu_warp_issue_shader                    0 # Specify which shader core to collect the warp issue distribution from
-gpgpu_local_mem_map                    1 # Mapping from local memory space address to simulated GPU physical address space (default = enabled)
-gpgpu_num_reg_banks                   16 # Number of register banks (default = 8)
-gpgpu_reg_bank_use_warp_id                    0 # Use warp ID in mapping registers to banks (default = off)
-gpgpu_operand_collector_num_units_sp                    6 # number of collector units (default = 4)
-gpgpu_operand_collector_num_units_sfu                    8 # number of collector units (default = 4)
-gpgpu_operand_collector_num_units_mem                    2 # number of collector units (default = 2)
-gpgpu_operand_collector_num_units_gen                    0 # number of collector units (default = 0)
-gpgpu_operand_collector_num_in_ports_sp                    2 # number of collector unit in ports (default = 1)
-gpgpu_operand_collector_num_in_ports_sfu                    1 # number of collector unit in ports (default = 1)
-gpgpu_operand_collector_num_in_ports_mem                    1 # number of collector unit in ports (default = 1)
-gpgpu_operand_collector_num_in_ports_gen                    0 # number of collector unit in ports (default = 0)
-gpgpu_operand_collector_num_out_ports_sp                    2 # number of collector unit in ports (default = 1)
-gpgpu_operand_collector_num_out_ports_sfu                    1 # number of collector unit in ports (default = 1)
-gpgpu_operand_collector_num_out_ports_mem                    1 # number of collector unit in ports (default = 1)
-gpgpu_operand_collector_num_out_ports_gen                    0 # number of collector unit in ports (default = 0)
-gpgpu_coalesce_arch                   13 # Coalescing arch (default = 13, anything else is off for now)
-gpgpu_num_sched_per_core                    2 # Number of warp schedulers per core
-gpgpu_max_insn_issue_per_warp                    1 # Max number of instructions that can be issued per warp in one cycle by scheduler
-gpgpu_simt_core_sim_order                    1 # Select the simulation order of cores in a cluster (0=Fix, 1=Round-Robin)
-gpgpu_pipeline_widths        2,1,1,2,1,1,2 # Pipeline widths ID_OC_SP,ID_OC_SFU,ID_OC_MEM,OC_EX_SP,OC_EX_SFU,OC_EX_MEM,EX_WB
-gpgpu_num_sp_units                     2 # Number of SP units (default=1)
-gpgpu_num_sfu_units                    1 # Number of SF units (default=1)
-gpgpu_num_mem_units                    1 # Number if ldst units (default=1) WARNING: not hooked up to anything
-gpgpu_scheduler        warp_limiting:2:8 # Scheduler configuration: < lrr | gto | two_level_active > If two_level_active:<num_active_warps>:<inner_prioritization>:<outer_prioritization>For complete list of prioritization values see shader.h enum scheduler_prioritization_typeDefault: gto
-gpgpu_dram_scheduler                    1 # 0 = fifo, 1 = FR-FCFS (defaul)
-gpgpu_dram_partition_queues              8:8:8:8 # i2$:$2d:d2$:$2i
-l2_ideal                               0 # Use a ideal L2 cache that always hit
-gpgpu_cache:dl2     64:128:8,L:B:m:W:L,A:32:4,4:0,32 # unified banked L2 data cache config  {<nsets>:<bsize>:<assoc>,<rep>:<wr>:<alloc>:<wr_alloc>,<mshr>:<N>:<merge>,<mq>}
-gpgpu_cache:dl2_texture_only                    0 # L2 cache used for texture only
-gpgpu_n_mem                            6 # number of memory modules (e.g. memory controllers) in gpu
-gpgpu_n_sub_partition_per_mchannel                    2 # number of memory subpartition in each memory module
-gpgpu_n_mem_per_ctrlr                    2 # number of memory chips per memory controller
-gpgpu_memlatency_stat                   14 # track and display latency statistics 0x2 enables MC, 0x4 enables queue logs
-gpgpu_frfcfs_dram_sched_queue_size                   16 # 0 = unlimited (default); # entries per chip
-gpgpu_dram_return_queue_size                  116 # 0 = unlimited (default); # entries per chip
-gpgpu_dram_buswidth                    4 # default = 4 bytes (8 bytes per cycle at DDR)
-gpgpu_dram_burst_length                    8 # Burst length of each DRAM request (default = 4 data bus cycle)
-dram_data_command_freq_ratio                    4 # Frequency ratio between DRAM data bus and command bus (default = 2 times, i.e. DDR)
-gpgpu_dram_timing_opt nbk=16:CCD=2:RRD=6:RCD=12:RAS=28:RP=12:RC=40: CL=12:WL=4:CDLR=5:WR=12:nbkgrp=4:CCDL=3:RTPL=2 # DRAM timing parameters = {nbk:tCCD:tRRD:tRCD:tRAS:tRP:tRC:CL:WL:tCDLR:tWR:nbkgrp:tCCDL:tRTPL}
-rop_latency                          120 # ROP queue latency (default 85)
-dram_latency                         100 # DRAM latency (default 30)
-gpgpu_mem_addr_mapping dramid@8;00000000.00000000.00000000.00000000.0000RRRR.RRRRRRRR.BBBCCCCB.CCSSSSSS # mapping memory address to dram model {dramid@<start bit>;<memory address map>}
-gpgpu_mem_addr_test                    0 # run sweep test to check address mapping for aliased address
-gpgpu_mem_address_mask                    1 # 0 = old addressing mask, 1 = new addressing mask, 2 = new add. mask + flipped bank sel and chip sel bits
-gpuwattch_xml_file  gpuwattch_gtx480.xml # GPUWattch XML file
-power_simulation_enabled                    0 # Turn on power simulator (1=On, 0=Off)
-power_per_cycle_dump                    0 # Dump detailed power output each cycle
-power_trace_enabled                    0 # produce a file for the power trace (1=On, 0=Off)
-power_trace_zlevel                     6 # Compression level of the power trace output log (0=no comp, 9=highest)
-steady_power_levels_enabled                    0 # produce a file for the steady power levels (1=On, 0=Off)
-steady_state_definition                  8:4 # allowed deviation:number of samples
-gpgpu_max_cycle                        0 # terminates gpu simulation early (0 = no limit)
-gpgpu_max_insn                         0 # terminates gpu simulation early (0 = no limit)
-gpgpu_max_cta                          0 # terminates gpu simulation early (0 = no limit)
-gpgpu_runtime_stat                   500 # display runtime statistics such as dram utilization {<freq>:<flag>}
-liveness_message_freq                    1 # Minimum number of seconds between simulation liveness messages (0 = always print)
-gpgpu_flush_l1_cache                    0 # Flush L1 cache at the end of each kernel call
-gpgpu_flush_l2_cache                    0 # Flush L2 cache at the end of each kernel call
-gpgpu_deadlock_detect                    1 # Stop the simulation at deadlock (1=on (default), 0=off)
-gpgpu_ptx_instruction_classification                    0 # if enabled will classify ptx instruction types per kernel (Max 255 kernels now)
-gpgpu_ptx_sim_mode                     0 # Select between Performance (default) or Functional simulation (1)
-gpgpu_clock_domains 700.0:700.0:700.0:924.0 # Clock Domain Frequencies in MhZ {<Core Clock>:<ICNT Clock>:<L2 Clock>:<DRAM Clock>}
-gpgpu_max_concurrent_kernel                    8 # maximum kernels that can run concurrently on GPU
-gpgpu_cflog_interval                    0 # Interval between each snapshot in control flow logger
-visualizer_enabled                     0 # Turn on visualizer output (1=On, 0=Off)
-visualizer_outputfile                 NULL # Specifies the output log file for visualizer
-visualizer_zlevel                      6 # Compression level of the visualizer output log (0=no comp, 9=highest)
-trace_enabled                          0 # Turn on traces
-trace_components                    none # comma seperated list of traces to enable. Complete list found in trace_streams.tup. Default none
-trace_sampling_core                    0 # The core which is printed using CORE_DPRINTF. Default 0
-trace_sampling_memory_partition                   -1 # The memory partition which is printed using MEMPART_DPRINTF. Default -1 (i.e. all)
-enable_ptx_file_line_stats                    1 # Turn on PTX source line statistic profiling. (1 = On)
-ptx_line_stats_filename gpgpu_inst_stats.txt # Output file for PTX source line statistics.
-save_embedded_ptx                      0 # saves ptx files embedded in binary as <n>.ptx
-keep                                   0 # keep intermediate files created by GPGPU-Sim when interfacing with external programs
-gpgpu_ptx_save_converted_ptxplus                    0 # Saved converted ptxplus to a file
-ptx_opcode_latency_int         4,13,4,5,145 # Opcode latencies for integers <ADD,MAX,MUL,MAD,DIV>Default 1,1,19,25,145
-ptx_opcode_latency_fp          4,13,4,5,39 # Opcode latencies for single precision floating points <ADD,MAX,MUL,MAD,DIV>Default 1,1,1,1,30
-ptx_opcode_latency_dp         8,19,8,8,330 # Opcode latencies for double precision floating points <ADD,MAX,MUL,MAD,DIV>Default 8,8,8,8,335
-ptx_opcode_initiation_int            1,2,2,1,8 # Opcode initiation intervals for integers <ADD,MAX,MUL,MAD,DIV>Default 1,1,4,4,32
-ptx_opcode_initiation_fp            1,2,1,1,4 # Opcode initiation intervals for single precision floating points <ADD,MAX,MUL,MAD,DIV>Default 1,1,1,1,5
-ptx_opcode_initiation_dp         8,16,8,8,130 # Opcode initiation intervals for double precision floating points <ADD,MAX,MUL,MAD,DIV>Default 8,8,8,8,130
DRAM Timing Options:
nbk                                    16 # number of banks
CCD                                     2 # column to column delay
RRD                                     6 # minimal delay between activation of rows in different banks
RCD                                    12 # row to column delay
RAS                                    28 # time needed to activate row
RP                                     12 # time needed to precharge (deactivate) row
RC                                     40 # row cycle time
CDLR                                    5 # switching from write to read (changes tWTR)
WR                                     12 # last data-in to row precharge
CL                                     12 # CAS latency
WL                                      4 # Write latency
nbkgrp                                  4 # number of bank groups
CCDL                                    3 # column to column delay between accesses to different bank groups
RTPL                                    2 # read to precharge delay between accesses to different bank groups
Total number of memory sub partition = 12
addr_dec_mask[CHIP]  = 0000000000000000 	high:64 low:0
addr_dec_mask[BK]    = 000000000000e100 	high:16 low:8
addr_dec_mask[ROW]   = 000000000fff0000 	high:28 low:16
addr_dec_mask[COL]   = 0000000000001eff 	high:13 low:0
addr_dec_mask[BURST] = 000000000000003f 	high:6 low:0
sub_partition_id_mask = 0000000000000100
GPGPU-Sim uArch: clock freqs: 700000000.000000:700000000.000000:700000000.000000:924000000.000000
GPGPU-Sim uArch: clock periods: 0.00000000142857142857:0.00000000142857142857:0.00000000142857142857:0.00000000108225108225
*** Initializing Memory Statistics ***
GPGPU-Sim uArch: interconnect node map (shaderID+MemID to icntID)
GPGPU-Sim uArch: Memory nodes ID start from index: 15
GPGPU-Sim uArch:    0   1   2   3   4
GPGPU-Sim uArch:    5   6   7   8   9
GPGPU-Sim uArch:   10  11  12  13  14
GPGPU-Sim uArch:   15  16  17  18  19
GPGPU-Sim uArch:   20  21  22  23  24
GPGPU-Sim uArch:   25  26
GPGPU-Sim uArch: interconnect node reverse map (icntID to shaderID+MemID)
GPGPU-Sim uArch: Memory nodes start from ID: 15
GPGPU-Sim uArch:    0   1   2   3   4
GPGPU-Sim uArch:    5   6   7   8   9
GPGPU-Sim uArch:   10  11  12  13  14
GPGPU-Sim uArch:   15  16  17  18  19
GPGPU-Sim uArch:   20  21  22  23  24
GPGPU-Sim uArch:   25  26
7c107ad7564464849abebcc6a8942f69  /sciclone/data10/hwang07/adwait/applications/benchmarks/rodinia/cuda/srad/srad_v1/gpgpu_ptx_sim__srad
GPGPU-Sim uArch: performance model initialization complete.
GPGPU-Sim PTX: __cudaRegisterFatBinary, fat_cubin_handle = 1, filename=main.cu
self exe links to: /sciclone/data10/hwang07/adwait/applications/benchmarks/rodinia/cuda/srad/srad_v1/gpgpu_ptx_sim__srad
Running md5sum using "md5sum /sciclone/data10/hwang07/adwait/applications/benchmarks/rodinia/cuda/srad/srad_v1/gpgpu_ptx_sim__srad "
Parsing file _cuobjdump_complete_output_lEtk8n
######### cuobjdump parser ########
## Adding new section PTX
Adding ptx filename: _cuobjdump_1.ptx
Adding arch: sm_13
Adding identifier: main.cu
## Adding new section ELF
Adding arch: sm_13
Adding identifier: main.cu
Done parsing!!!
GPGPU-Sim PTX: __cudaRegisterFunction _Z8compresslPf : hostFun 0x0x401b90, fat_cubin_handle = 1
GPGPU-Sim PTX: instruction assembly for function '_Z7extractlPf'...   done.
GPGPU-Sim PTX: finding reconvergence points for '_Z7extractlPf'...
GPGPU-Sim PTX: Finding dominators for '_Z7extractlPf'...
GPGPU-Sim PTX: Finding immediate dominators for '_Z7extractlPf'...
GPGPU-Sim PTX: Finding postdominators for '_Z7extractlPf'...
GPGPU-Sim PTX: Finding immediate postdominators for '_Z7extractlPf'...
GPGPU-Sim PTX: pre-decoding instructions for '_Z7extractlPf'...
GPGPU-Sim PTX: reconvergence points for _Z7extractlPf...
GPGPU-Sim PTX:  1 (potential) branch divergence @  PC=0x040 (_1.ptx:74) @%p1 bra $Lt_0_2562;
GPGPU-Sim PTX:    immediate post dominator      @  PC=0x120 (_1.ptx:105) exit;
GPGPU-Sim PTX: ... end of reconvergence points for _Z7extractlPf
GPGPU-Sim PTX: ... done pre-decoding instructions for '_Z7extractlPf'.
GPGPU-Sim PTX: instruction assembly for function '_Z7preparelPfS_S_'...   done.
GPGPU-Sim PTX: finding reconvergence points for '_Z7preparelPfS_S_'...
GPGPU-Sim PTX: Finding dominators for '_Z7preparelPfS_S_'...
GPGPU-Sim PTX: Finding immediate dominators for '_Z7preparelPfS_S_'...
GPGPU-Sim PTX: Finding postdominators for '_Z7preparelPfS_S_'...
GPGPU-Sim PTX: Finding immediate postdominators for '_Z7preparelPfS_S_'...
GPGPU-Sim PTX: pre-decoding instructions for '_Z7preparelPfS_S_'...
GPGPU-Sim PTX: reconvergence points for _Z7preparelPfS_S_...
GPGPU-Sim PTX:  1 (potential) branch divergence @  PC=0x168 (_1.ptx:130) @%p1 bra $Lt_1_1026;
GPGPU-Sim PTX:    immediate post dominator      @  PC=0x1d0 (_1.ptx:147) exit;
GPGPU-Sim PTX: ... end of reconvergence points for _Z7preparelPfS_S_
GPGPU-Sim PTX: ... done pre-decoding instructions for '_Z7preparelPfS_S_'.
GPGPU-Sim PTX: allocating shared region for "__cuda___cuda_local_var_37232_32_non_const_d_psum80" from 0x0 to 0x800 (shared memory space)
GPGPU-Sim PTX: allocating shared region for "__cuda___cuda_local_var_37233_32_non_const_d_psum22128" from 0x800 to 0x1000 (shared memory space)
GPGPU-Sim PTX: instruction assembly for function '_Z6reduceliiPfS_'...   done.
GPGPU-Sim PTX: finding reconvergence points for '_Z6reduceliiPfS_'...
GPGPU-Sim PTX: Finding dominators for '_Z6reduceliiPfS_'...
GPGPU-Sim PTX: Finding immediate dominators for '_Z6reduceliiPfS_'...
GPGPU-Sim PTX: Finding postdominators for '_Z6reduceliiPfS_'...
GPGPU-Sim PTX: Finding immediate postdominators for '_Z6reduceliiPfS_'...
GPGPU-Sim PTX: pre-decoding instructions for '_Z6reduceliiPfS_'...
GPGPU-Sim PTX: reconvergence points for _Z6reduceliiPfS_...
GPGPU-Sim PTX:  1 (potential) branch divergence @  PC=0x208 (_1.ptx:172) @%p1 bra $Lt_2_13826;
GPGPU-Sim PTX:    immediate post dominator      @  PC=0x2a0 (_1.ptx:194) mov.u64 %rd1, __cuda___cuda_local_var_37232_32_non_const_d_psum80;
GPGPU-Sim PTX:  2 (potential) branch divergence @  PC=0x2e0 (_1.ptx:204) @%p2 bra $Lt_2_14594;
GPGPU-Sim PTX:    immediate post dominator      @  PC=0x988 (_1.ptx:467) exit;
GPGPU-Sim PTX:  3 (potential) branch divergence @  PC=0x310 (_1.ptx:212) @%p3 bra $Lt_2_15618;
GPGPU-Sim PTX:    immediate post dominator      @  PC=0x3c8 (_1.ptx:239) bar.sync 0;
GPGPU-Sim PTX:  4 (potential) branch divergence @  PC=0x3e8 (_1.ptx:244) @%p4 bra $Lt_2_15362;
GPGPU-Sim PTX:    immediate post dominator      @  PC=0x3f0 (_1.ptx:245) mov.u32 %r23, 511;
GPGPU-Sim PTX:  5 (potential) branch divergence @  PC=0x400 (_1.ptx:247) @%p5 bra $Lt_2_21506;
GPGPU-Sim PTX:    immediate post dominator      @  PC=0x988 (_1.ptx:467) exit;
GPGPU-Sim PTX:  6 (potential) branch divergence @  PC=0x490 (_1.ptx:267) bra.uni $Lt_2_21506;
GPGPU-Sim PTX:    immediate post dominator      @  PC=0x988 (_1.ptx:467) exit;
GPGPU-Sim PTX:  7 (potential) branch divergence @  PC=0x4a8 (_1.ptx:271) @%p6 bra $Lt_2_19714;
GPGPU-Sim PTX:    immediate post dominator      @  PC=0x988 (_1.ptx:467) exit;
GPGPU-Sim PTX:  8 (potential) branch divergence @  PC=0x4d8 (_1.ptx:279) @%p7 bra $Lt_2_18178;
GPGPU-Sim PTX:    immediate post dominator      @  PC=0x590 (_1.ptx:306) bar.sync 0;
GPGPU-Sim PTX:  9 (potential) branch divergence @  PC=0x5b0 (_1.ptx:311) @%p8 bra $Lt_2_17922;
GPGPU-Sim PTX:    immediate post dominator      @  PC=0x5b8 (_1.ptx:312) mov.u32 %r38, 511;
GPGPU-Sim PTX: 10 (potential) branch divergence @  PC=0x5c8 (_1.ptx:314) @%p9 bra $Lt_2_21506;
GPGPU-Sim PTX:    immediate post dominator      @  PC=0x988 (_1.ptx:467) exit;
GPGPU-Sim PTX: 11 (potential) branch divergence @  PC=0x658 (_1.ptx:334) bra.uni $Lt_2_21506;
GPGPU-Sim PTX:    immediate post dominator      @  PC=0x988 (_1.ptx:467) exit;
GPGPU-Sim PTX: 12 (potential) branch divergence @  PC=0x6a0 (_1.ptx:348) @%p11 bra $Lt_2_19970;
GPGPU-Sim PTX:    immediate post dominator      @  PC=0x6a8 (_1.ptx:349) mov.u32 %r45, 2;
GPGPU-Sim PTX: 13 (potential) branch divergence @  PC=0x6b8 (_1.ptx:351) @%p12 bra $Lt_2_20482;
GPGPU-Sim PTX:    immediate post dominator      @  PC=0x7d0 (_1.ptx:396) sub.s32 %r55, %r43, 1;
GPGPU-Sim PTX: 14 (potential) branch divergence @  PC=0x6e8 (_1.ptx:360) @%p13 bra $Lt_2_23298;
GPGPU-Sim PTX:    immediate post dominator      @  PC=0x7b0 (_1.ptx:390) bar.sync 0;
GPGPU-Sim PTX: 15 (potential) branch divergence @  PC=0x6f8 (_1.ptx:362) @%p14 bra $Lt_2_23298;
GPGPU-Sim PTX:    immediate post dominator      @  PC=0x7b0 (_1.ptx:390) bar.sync 0;
GPGPU-Sim PTX: 16 (potential) branch divergence @  PC=0x7c8 (_1.ptx:394) @%p15 bra $Lt_2_20994;
GPGPU-Sim PTX:    immediate post dominator      @  PC=0x7d0 (_1.ptx:396) sub.s32 %r55, %r43, 1;
GPGPU-Sim PTX: 17 (potential) branch divergence @  PC=0x7e0 (_1.ptx:398) @%p16 bra $Lt_2_21506;
GPGPU-Sim PTX:    immediate post dominator      @  PC=0x988 (_1.ptx:467) exit;
GPGPU-Sim PTX: 18 (potential) branch divergence @  PC=0x820 (_1.ptx:407) @%p17 bra $Lt_2_23810;
GPGPU-Sim PTX:    immediate post dominator      @  PC=0x930 (_1.ptx:448) ld.param.s32 %r62, [__cudaparm__Z6reduceliiPfS__d_mul];
GPGPU-Sim PTX: 19 (potential) branch divergence @  PC=0x8f0 (_1.ptx:437) @%p18 bra $Lt_2_22530;
GPGPU-Sim PTX:    immediate post dominator      @  PC=0x8f8 (_1.ptx:438) bra.uni $Lt_2_22018;
GPGPU-Sim PTX: 20 (potential) branch divergence @  PC=0x8f8 (_1.ptx:438) bra.uni $Lt_2_22018;
GPGPU-Sim PTX:    immediate post dominator      @  PC=0x930 (_1.ptx:448) ld.param.s32 %r62, [__cudaparm__Z6reduceliiPfS__d_mul];
GPGPU-Sim PTX: ... end of reconvergence points for _Z6reduceliiPfS_
GPGPU-Sim PTX: ... done pre-decoding instructions for '_Z6reduceliiPfS_'.
GPGPU-Sim PTX: instruction assembly for function '_Z4sradfiilPiS_S_S_PfS0_S0_S0_fS0_S0_'...   done.
GPGPU-Sim PTX: finding reconvergence points for '_Z4sradfiilPiS_S_S_PfS0_S0_S0_fS0_S0_'...
GPGPU-Sim PTX: Finding dominators for '_Z4sradfiilPiS_S_S_PfS0_S0_S0_fS0_S0_'...
GPGPU-Sim PTX: Finding immediate dominators for '_Z4sradfiilPiS_S_S_PfS0_S0_S0_fS0_S0_'...
GPGPU-Sim PTX: Finding postdominators for '_Z4sradfiilPiS_S_S_PfS0_S0_S0_fS0_S0_'...
GPGPU-Sim PTX: Finding immediate postdominators for '_Z4sradfiilPiS_S_S_PfS0_S0_S0_fS0_S0_'...
GPGPU-Sim PTX: pre-decoding instructions for '_Z4sradfiilPiS_S_S_PfS0_S0_S0_fS0_S0_'...
GPGPU-Sim PTX: reconvergence points for _Z4sradfiilPiS_S_S_PfS0_S0_S0_fS0_S0_...
GPGPU-Sim PTX:  1 (potential) branch divergence @  PC=0x9f0 (_1.ptx:510) @%p1 bra $Lt_3_3330;
GPGPU-Sim PTX:    immediate post dominator      @  PC=0xa10 (_1.ptx:518) cvt.s64.s32 %rd1, %r4;
GPGPU-Sim PTX:  2 (potential) branch divergence @  PC=0xa28 (_1.ptx:521) @%p2 bra $Lt_3_3842;
GPGPU-Sim PTX:    immediate post dominator      @  PC=0xd98 (_1.ptx:649) exit;
GPGPU-Sim PTX:  3 (potential) branch divergence @  PC=0xce8 (_1.ptx:617) @!%p3 bra $Lt_3_4610;
GPGPU-Sim PTX:    immediate post dominator      @  PC=0xd20 (_1.ptx:628) ld.param.u64 %rd30, [__cudaparm__Z4sradfiilPiS_S_S_PfS0_S0_S0_fS0_S0__d_dN];
GPGPU-Sim PTX:  4 (potential) branch divergence @  PC=0xcf8 (_1.ptx:619) bra.uni $Lt_3_4354;
GPGPU-Sim PTX:    immediate post dominator      @  PC=0xd20 (_1.ptx:628) ld.param.u64 %rd30, [__cudaparm__Z4sradfiilPiS_S_S_PfS0_S0_S0_fS0_S0__d_dN];
GPGPU-Sim PTX: ... end of reconvergence points for _Z4sradfiilPiS_S_S_PfS0_S0_S0_fS0_S0_
GPGPU-Sim PTX: ... done pre-decoding instructions for '_Z4sradfiilPiS_S_S_PfS0_S0_S0_fS0_S0_'.
GPGPU-Sim PTX: instruction assembly for function '_Z5srad2fiilPiS_S_S_PfS0_S0_S0_S0_S0_'...   done.
GPGPU-Sim PTX: finding reconvergence points for '_Z5srad2fiilPiS_S_S_PfS0_S0_S0_S0_S0_'...
GPGPU-Sim PTX: Finding dominators for '_Z5srad2fiilPiS_S_S_PfS0_S0_S0_S0_S0_'...
GPGPU-Sim PTX: Finding immediate dominators for '_Z5srad2fiilPiS_S_S_PfS0_S0_S0_S0_S0_'...
GPGPU-Sim PTX: Finding postdominators for '_Z5srad2fiilPiS_S_S_PfS0_S0_S0_S0_S0_'...
GPGPU-Sim PTX: Finding immediate postdominators for '_Z5srad2fiilPiS_S_S_PfS0_S0_S0_S0_S0_'...
GPGPU-Sim PTX: pre-decoding instructions for '_Z5srad2fiilPiS_S_S_PfS0_S0_S0_S0_S0_'...
GPGPU-Sim PTX: reconvergence points for _Z5srad2fiilPiS_S_S_PfS0_S0_S0_S0_S0_...
GPGPU-Sim PTX:  1 (potential) branch divergence @  PC=0xe00 (_1.ptx:691) @%p1 bra $Lt_4_1794;
GPGPU-Sim PTX:    immediate post dominator      @  PC=0xe20 (_1.ptx:699) cvt.s64.s32 %rd1, %r4;
GPGPU-Sim PTX:  2 (potential) branch divergence @  PC=0xe38 (_1.ptx:702) @%p2 bra $Lt_4_2306;
GPGPU-Sim PTX:    immediate post dominator      @  PC=0xff8 (_1.ptx:764) exit;
GPGPU-Sim PTX: ... end of reconvergence points for _Z5srad2fiilPiS_S_S_PfS0_S0_S0_S0_S0_
GPGPU-Sim PTX: ... done pre-decoding instructions for '_Z5srad2fiilPiS_S_S_PfS0_S0_S0_S0_S0_'.
GPGPU-Sim PTX: instruction assembly for function '_Z8compresslPf'...   done.
GPGPU-Sim PTX: finding reconvergence points for '_Z8compresslPf'...
GPGPU-Sim PTX: Finding dominators for '_Z8compresslPf'...
GPGPU-Sim PTX: Finding immediate dominators for '_Z8compresslPf'...
GPGPU-Sim PTX: Finding postdominators for '_Z8compresslPf'...
GPGPU-Sim PTX: Finding immediate postdominators for '_Z8compresslPf'...
GPGPU-Sim PTX: pre-decoding instructions for '_Z8compresslPf'...
GPGPU-Sim PTX: reconvergence points for _Z8compresslPf...
GPGPU-Sim PTX:  1 (potential) branch divergence @  PC=0x1040 (_1.ptx:787) @%p1 bra $Lt_5_2818;
GPGPU-Sim PTX:    immediate post dominator      @  PC=0x1200 (_1.ptx:858) exit;
GPGPU-Sim PTX:  2 (potential) branch divergence @  PC=0x10b0 (_1.ptx:803) @%p2 bra $Lt_5_3586;
GPGPU-Sim PTX:    immediate post dominator      @  PC=0x11e8 (_1.ptx:853) mov.f32 %f31, 0f437f0000;    // 255
GPGPU-Sim PTX:  3 (potential) branch divergence @  PC=0x1100 (_1.ptx:815) @!%p3 bra $Lt_5_3842;
GPGPU-Sim PTX:    immediate post dominator      @  PC=0x1120 (_1.ptx:823) mov.f32 %f8, 0fbf800000;     // -1
GPGPU-Sim PTX:  4 (potential) branch divergence @  PC=0x11c8 (_1.ptx:845) bra.uni $Lt_5_3330;
GPGPU-Sim PTX:    immediate post dominator      @  PC=0x11e8 (_1.ptx:853) mov.f32 %f31, 0f437f0000;    // 255
GPGPU-Sim PTX: ... end of reconvergence points for _Z8compresslPf
GPGPU-Sim PTX: ... done pre-decoding instructions for '_Z8compresslPf'.
GPGPU-Sim PTX: finished parsing EMBEDDED .ptx file _1.ptx
Adding _cuobjdump_1.ptx with cubin handle 1
GPGPU-Sim PTX: extracting embedded .ptx to temporary file "_ptx_X1dQ0l"
Running: cat _ptx_X1dQ0l | sed 's/.version 1.5/.version 1.4/' | sed 's/, texmode_independent//' | sed 's/\(\.extern \.const\[1\] .b8 \w\+\)\[\]/\1\[1\]/' | sed 's/const\[.\]/const\[0\]/g' > _ptx2_XLcerm
GPGPU-Sim PTX: generating ptxinfo using "$CUDA_INSTALL_PATH/bin/ptxas --gpu-name=sm_20 -v _ptx2_XLcerm --output-file  /dev/null 2> _ptx_X1dQ0linfo"
GPGPU-Sim PTX: Kernel '_Z8compresslPf' : regs=10, lmem=0, smem=0, cmem=64
GPGPU-Sim PTX: Kernel '_Z5srad2fiilPiS_S_S_PfS0_S0_S0_S0_S0_' : regs=19, lmem=0, smem=0, cmem=136
GPGPU-Sim PTX: Kernel '_Z4sradfiilPiS_S_S_PfS0_S0_S0_fS0_S0_' : regs=20, lmem=0, smem=0, cmem=160
GPGPU-Sim PTX: Kernel '_Z6reduceliiPfS_' : regs=14, lmem=0, smem=4096, cmem=64
GPGPU-Sim PTX: Kernel '_Z7preparelPfS_S_' : regs=12, lmem=0, smem=0, cmem=64
GPGPU-Sim PTX: Kernel '_Z7extractlPf' : regs=6, lmem=0, smem=0, cmem=56
GPGPU-Sim PTX: removing ptxinfo using "rm -f _ptx_X1dQ0l _ptx2_XLcerm _ptx_X1dQ0linfo"
GPGPU-Sim PTX: loading globals with explicit initializers... 
GPGPU-Sim PTX: finished loading globals (0 bytes total).
GPGPU-Sim PTX: loading constants with explicit initializers...  done.
GPGPU-Sim PTX: __cudaRegisterFunction _Z5srad2fiilPiS_S_S_PfS0_S0_S0_S0_S0_ : hostFun 0x0x4013d0, fat_cubin_handle = 1
GPGPU-Sim PTX: __cudaRegisterFunction _Z4sradfiilPiS_S_S_PfS0_S0_S0_fS0_S0_ : hostFun 0x0x4015d0, fat_cubin_handle = 1
GPGPU-Sim PTX: __cudaRegisterFunction _Z6reduceliiPfS_ : hostFun 0x0x401690, fat_cubin_handle = 1
GPGPU-Sim PTX: __cudaRegisterFunction _Z7preparelPfS_S_ : hostFun 0x0x401c50, fat_cubin_handle = 1
GPGPU-Sim PTX: __cudaRegisterFunction _Z7extractlPf : hostFun 0x0x401bf0, fat_cubin_handle = 1
The file was not opened for reading

GPGPU-Sim PTX: cudaLaunch for 0x0x401bf0 (mode=performance simulation) on stream 0
GPGPU-Sim PTX: pushing kernel '_Z7extractlPf' to stream 0, gridDim= (450,1,1) blockDim = (512,1,1) 
kernel '_Z7extractlPf' transfer to GPU hardware scheduler
GPGPU-Sim uArch: Shader 1 bind to kernel 1 '_Z7extractlPf'
GPGPU-Sim uArch: CTA/core = 3, limited by: threads
GPGPU-Sim uArch: core:  1, cta: 0 initialized @(1,0)
GPGPU-Sim uArch: Shader 2 bind to kernel 1 '_Z7extractlPf'
GPGPU-Sim uArch: core:  2, cta: 0 initialized @(1,0)
GPGPU-Sim uArch: Shader 3 bind to kernel 1 '_Z7extractlPf'
GPGPU-Sim uArch: core:  3, cta: 0 initialized @(1,0)
GPGPU-Sim uArch: Shader 4 bind to kernel 1 '_Z7extractlPf'
GPGPU-Sim uArch: core:  4, cta: 0 initialized @(1,0)
GPGPU-Sim uArch: Shader 5 bind to kernel 1 '_Z7extractlPf'
GPGPU-Sim uArch: core:  5, cta: 0 initialized @(1,0)
GPGPU-Sim uArch: Shader 6 bind to kernel 1 '_Z7extractlPf'
GPGPU-Sim uArch: core:  6, cta: 0 initialized @(1,0)
GPGPU-Sim uArch: Shader 7 bind to kernel 1 '_Z7extractlPf'
GPGPU-Sim uArch: core:  7, cta: 0 initialized @(1,0)
GPGPU-Sim uArch: Shader 8 bind to kernel 1 '_Z7extractlPf'
GPGPU-Sim uArch: core:  8, cta: 0 initialized @(1,0)
GPGPU-Sim uArch: Shader 9 bind to kernel 1 '_Z7extractlPf'
GPGPU-Sim uArch: core:  9, cta: 0 initialized @(1,0)
GPGPU-Sim uArch: Shader 10 bind to kernel 1 '_Z7extractlPf'
GPGPU-Sim uArch: core: 10, cta: 0 initialized @(1,0)
GPGPU-Sim uArch: Shader 11 bind to kernel 1 '_Z7extractlPf'
GPGPU-Sim uArch: core: 11, cta: 0 initialized @(1,0)
GPGPU-Sim uArch: Shader 12 bind to kernel 1 '_Z7extractlPf'
GPGPU-Sim uArch: core: 12, cta: 0 initialized @(1,0)
GPGPU-Sim uArch: Shader 13 bind to kernel 1 '_Z7extractlPf'
GPGPU-Sim uArch: core: 13, cta: 0 initialized @(1,0)
GPGPU-Sim uArch: Shader 14 bind to kernel 1 '_Z7extractlPf'
GPGPU-Sim uArch: core: 14, cta: 0 initialized @(1,0)
GPGPU-Sim uArch: Shader 0 bind to kernel 1 '_Z7extractlPf'
GPGPU-Sim uArch: core:  0, cta: 0 initialized @(1,0)
GPGPU-Sim uArch: core:  1, cta: 1 initialized @(2,0)
GPGPU-Sim uArch: core:  2, cta: 1 initialized @(2,0)
GPGPU-Sim uArch: core:  3, cta: 1 initialized @(2,0)
GPGPU-Sim uArch: core:  4, cta: 1 initialized @(2,0)
GPGPU-Sim uArch: core:  5, cta: 1 initialized @(2,0)
GPGPU-Sim uArch: core:  6, cta: 1 initialized @(2,0)
GPGPU-Sim uArch: core:  7, cta: 1 initialized @(2,0)
GPGPU-Sim uArch: core:  8, cta: 1 initialized @(2,0)
GPGPU-Sim uArch: core:  9, cta: 1 initialized @(2,0)
GPGPU-Sim uArch: core: 10, cta: 1 initialized @(2,0)
GPGPU-Sim uArch: core: 11, cta: 1 initialized @(2,0)
GPGPU-Sim uArch: core: 12, cta: 1 initialized @(2,0)
GPGPU-Sim uArch: core: 13, cta: 1 initialized @(2,0)
GPGPU-Sim uArch: core: 14, cta: 1 initialized @(2,0)
GPGPU-Sim uArch: core:  0, cta: 1 initialized @(2,0)
GPGPU-Sim uArch: core:  1, cta: 2 initialized @(3,0)
GPGPU-Sim uArch: core:  2, cta: 2 initialized @(3,0)
GPGPU-Sim uArch: core:  3, cta: 2 initialized @(3,0)
GPGPU-Sim uArch: core:  4, cta: 2 initialized @(3,0)
GPGPU-Sim uArch: core:  5, cta: 2 initialized @(3,0)
GPGPU-Sim uArch: core:  6, cta: 2 initialized @(3,0)
GPGPU-Sim uArch: core:  7, cta: 2 initialized @(3,0)
GPGPU-Sim uArch: core:  8, cta: 2 initialized @(3,0)
GPGPU-Sim uArch: core:  9, cta: 2 initialized @(3,0)
GPGPU-Sim uArch: core: 10, cta: 2 initialized @(3,0)
GPGPU-Sim uArch: core: 11, cta: 2 initialized @(3,0)
GPGPU-Sim uArch: core: 12, cta: 2 initialized @(3,0)
GPGPU-Sim uArch: core: 13, cta: 2 initialized @(3,0)
GPGPU-Sim uArch: core: 14, cta: 2 initialized @(3,0)
GPGPU-Sim uArch: core:  0, cta: 2 initialized @(3,0)
GPGPU-Sim uArch: cycles simulated: 500  inst.: 46080 (ipc=92.2) sim_rate=15360 (inst/sec) elapsed = 0:0:00:03 / Tue Mar 22 12:54:38 2016
GPGPU-Sim PTX: 100000 instructions simulated : ctaid=(12,0,0) tid=(159,0,0)
GPGPU-Sim uArch: cycles simulated: 1000  inst.: 94560 (ipc=94.6) sim_rate=23640 (inst/sec) elapsed = 0:0:00:04 / Tue Mar 22 12:54:39 2016
GPGPU-Sim PTX: 200000 instructions simulated : ctaid=(1,0,0) tid=(95,0,0)
GPGPU-Sim uArch: cycles simulated: 1500  inst.: 222880 (ipc=148.6) sim_rate=44576 (inst/sec) elapsed = 0:0:00:05 / Tue Mar 22 12:54:40 2016
GPGPU-Sim PTX: 300000 instructions simulated : ctaid=(7,0,0) tid=(191,0,0)
GPGPU-Sim uArch: Shader 4 finished CTA #0 (1922,0), 2 CTAs running
GPGPU-Sim uArch: core:  4, cta: 0 initialized @(1923,0)
GPGPU-Sim uArch: Shader 3 finished CTA #0 (1928,0), 2 CTAs running
GPGPU-Sim uArch: core:  3, cta: 0 initialized @(1929,0)
GPGPU-Sim uArch: Shader 0 finished CTA #0 (1934,0), 2 CTAs running
GPGPU-Sim uArch: Shader 2 finished CTA #0 (1934,0), 2 CTAs running
GPGPU-Sim uArch: core:  0, cta: 0 initialized @(1935,0)
GPGPU-Sim uArch: core:  2, cta: 0 initialized @(1935,0)
GPGPU-Sim uArch: Shader 5 finished CTA #0 (1940,0), 2 CTAs running
GPGPU-Sim uArch: Shader 10 finished CTA #0 (1940,0), 2 CTAs running
GPGPU-Sim uArch: core:  5, cta: 0 initialized @(1941,0)
GPGPU-Sim uArch: core: 10, cta: 0 initialized @(1941,0)
GPGPU-Sim uArch: Shader 14 finished CTA #0 (1952,0), 2 CTAs running
GPGPU-Sim uArch: core: 14, cta: 0 initialized @(1953,0)
GPGPU-Sim uArch: Shader 7 finished CTA #0 (1964,0), 2 CTAs running
GPGPU-Sim uArch: core:  7, cta: 0 initialized @(1965,0)
GPGPU-Sim uArch: Shader 9 finished CTA #0 (1970,0), 2 CTAs running
GPGPU-Sim uArch: core:  9, cta: 0 initialized @(1971,0)
GPGPU-Sim uArch: Shader 6 finished CTA #0 (1988,0), 2 CTAs running
GPGPU-Sim uArch: core:  6, cta: 0 initialized @(1989,0)
GPGPU-Sim uArch: Shader 12 finished CTA #0 (1994,0), 2 CTAs running
GPGPU-Sim uArch: core: 12, cta: 0 initialized @(1995,0)
GPGPU-Sim uArch: Shader 8 finished CTA #0 (2002,0), 2 CTAs running
GPGPU-Sim uArch: core:  8, cta: 0 initialized @(2003,0)
GPGPU-Sim uArch: Shader 13 finished CTA #0 (2006,0), 2 CTAs running
GPGPU-Sim uArch: core: 13, cta: 0 initialized @(2007,0)
GPGPU-Sim uArch: Shader 11 finished CTA #0 (2010,0), 2 CTAs running
GPGPU-Sim uArch: core: 11, cta: 0 initialized @(2011,0)
GPGPU-Sim uArch: Shader 1 finished CTA #0 (2012,0), 2 CTAs running
GPGPU-Sim uArch: core:  1, cta: 0 initialized @(2013,0)
GPGPU-Sim PTX: 400000 instructions simulated : ctaid=(18,0,0) tid=(223,0,0)
GPGPU-Sim PTX: 500000 instructions simulated : ctaid=(19,0,0) tid=(287,0,0)
GPGPU-Sim PTX: 600000 instructions simulated : ctaid=(16,0,0) tid=(447,0,0)
GPGPU-Sim uArch: cycles simulated: 2500  inst.: 579488 (ipc=231.8) sim_rate=96581 (inst/sec) elapsed = 0:0:00:06 / Tue Mar 22 12:54:41 2016
GPGPU-Sim uArch: Shader 4 finished CTA #1 (2625,0), 2 CTAs running
GPGPU-Sim uArch: core:  4, cta: 1 initialized @(2626,0)
GPGPU-Sim uArch: Shader 0 finished CTA #1 (2642,0), 2 CTAs running
GPGPU-Sim uArch: core:  0, cta: 1 initialized @(2643,0)
GPGPU-Sim uArch: Shader 3 finished CTA #1 (2650,0), 2 CTAs running
GPGPU-Sim uArch: core:  3, cta: 1 initialized @(2651,0)
GPGPU-Sim uArch: Shader 5 finished CTA #1 (2657,0), 2 CTAs running
GPGPU-Sim uArch: core:  5, cta: 1 initialized @(2658,0)
GPGPU-Sim uArch: Shader 10 finished CTA #1 (2674,0), 2 CTAs running
GPGPU-Sim uArch: core: 10, cta: 1 initialized @(2675,0)
GPGPU-Sim uArch: Shader 2 finished CTA #1 (2676,0), 2 CTAs running
GPGPU-Sim uArch: Shader 14 finished CTA #1 (2676,0), 2 CTAs running
GPGPU-Sim uArch: core: 14, cta: 1 initialized @(2677,0)
GPGPU-Sim uArch: core:  2, cta: 1 initialized @(2677,0)
GPGPU-Sim uArch: Shader 9 finished CTA #1 (2697,0), 2 CTAs running
GPGPU-Sim uArch: core:  9, cta: 1 initialized @(2698,0)
GPGPU-Sim uArch: Shader 7 finished CTA #1 (2698,0), 2 CTAs running
GPGPU-Sim uArch: core:  7, cta: 1 initialized @(2699,0)
GPGPU-Sim uArch: Shader 6 finished CTA #1 (2715,0), 2 CTAs running
GPGPU-Sim uArch: core:  6, cta: 1 initialized @(2716,0)
GPGPU-Sim uArch: Shader 12 finished CTA #1 (2725,0), 2 CTAs running
GPGPU-Sim uArch: core: 12, cta: 1 initialized @(2726,0)
GPGPU-Sim uArch: Shader 8 finished CTA #1 (2740,0), 2 CTAs running
GPGPU-Sim uArch: core:  8, cta: 1 initialized @(2741,0)
GPGPU-Sim uArch: Shader 11 finished CTA #1 (2762,0), 2 CTAs running
GPGPU-Sim uArch: core: 11, cta: 1 initialized @(2763,0)
GPGPU-Sim uArch: Shader 13 finished CTA #1 (2768,0), 2 CTAs running
GPGPU-Sim uArch: core: 13, cta: 1 initialized @(2769,0)
GPGPU-Sim uArch: Shader 1 finished CTA #1 (2774,0), 2 CTAs running
GPGPU-Sim uArch: core:  1, cta: 1 initialized @(2775,0)
GPGPU-Sim PTX: 700000 instructions simulated : ctaid=(38,0,0) tid=(95,0,0)
GPGPU-Sim PTX: 800000 instructions simulated : ctaid=(43,0,0) tid=(351,0,0)
GPGPU-Sim PTX: 900000 instructions simulated : ctaid=(51,0,0) tid=(383,0,0)
GPGPU-Sim uArch: Shader 3 finished CTA #2 (3280,0), 2 CTAs running
GPGPU-Sim uArch: core:  3, cta: 2 initialized @(3281,0)
GPGPU-Sim uArch: Shader 5 finished CTA #2 (3294,0), 2 CTAs running
GPGPU-Sim uArch: core:  5, cta: 2 initialized @(3295,0)
GPGPU-Sim uArch: Shader 2 finished CTA #2 (3300,0), 2 CTAs running
GPGPU-Sim uArch: core:  2, cta: 2 initialized @(3301,0)
GPGPU-Sim uArch: Shader 0 finished CTA #2 (3302,0), 2 CTAs running
GPGPU-Sim uArch: core:  0, cta: 2 initialized @(3303,0)
GPGPU-Sim uArch: Shader 4 finished CTA #2 (3312,0), 2 CTAs running
GPGPU-Sim uArch: core:  4, cta: 2 initialized @(3313,0)
GPGPU-Sim uArch: Shader 10 finished CTA #2 (3337,0), 2 CTAs running
GPGPU-Sim uArch: core: 10, cta: 2 initialized @(3338,0)
GPGPU-Sim uArch: Shader 9 finished CTA #2 (3347,0), 2 CTAs running
GPGPU-Sim uArch: core:  9, cta: 2 initialized @(3348,0)
GPGPU-Sim uArch: Shader 7 finished CTA #2 (3366,0), 2 CTAs running
GPGPU-Sim uArch: core:  7, cta: 2 initialized @(3367,0)
GPGPU-Sim uArch: Shader 8 finished CTA #2 (3368,0), 2 CTAs running
GPGPU-Sim uArch: Shader 14 finished CTA #2 (3368,0), 2 CTAs running
GPGPU-Sim uArch: core:  8, cta: 2 initialized @(3369,0)
GPGPU-Sim uArch: core: 14, cta: 2 initialized @(3369,0)
GPGPU-Sim uArch: Shader 6 finished CTA #2 (3387,0), 2 CTAs running
GPGPU-Sim uArch: core:  6, cta: 2 initialized @(3388,0)
GPGPU-Sim uArch: Shader 11 finished CTA #2 (3401,0), 2 CTAs running
GPGPU-Sim uArch: core: 11, cta: 2 initialized @(3402,0)
GPGPU-Sim uArch: Shader 12 finished CTA #2 (3406,0), 2 CTAs running
GPGPU-Sim uArch: core: 12, cta: 2 initialized @(3407,0)
GPGPU-Sim uArch: Shader 13 finished CTA #2 (3460,0), 2 CTAs running
GPGPU-Sim uArch: core: 13, cta: 2 initialized @(3461,0)
GPGPU-Sim uArch: Shader 1 finished CTA #2 (3462,0), 2 CTAs running
GPGPU-Sim uArch: core:  1, cta: 2 initialized @(3463,0)
GPGPU-Sim PTX: 1000000 instructions simulated : ctaid=(45,0,0) tid=(287,0,0)
GPGPU-Sim PTX: 1100000 instructions simulated : ctaid=(63,0,0) tid=(351,0,0)
GPGPU-Sim PTX: 1200000 instructions simulated : ctaid=(69,0,0) tid=(127,0,0)
GPGPU-Sim uArch: Shader 5 finished CTA #0 (3911,0), 2 CTAs running
GPGPU-Sim uArch: core:  5, cta: 0 initialized @(3912,0)
GPGPU-Sim uArch: Shader 2 finished CTA #0 (3921,0), 2 CTAs running
GPGPU-Sim uArch: core:  2, cta: 0 initialized @(3922,0)
GPGPU-Sim uArch: Shader 3 finished CTA #0 (3933,0), 2 CTAs running
GPGPU-Sim uArch: core:  3, cta: 0 initialized @(3934,0)
GPGPU-Sim uArch: Shader 0 finished CTA #0 (3955,0), 2 CTAs running
GPGPU-Sim uArch: core:  0, cta: 0 initialized @(3956,0)
GPGPU-Sim uArch: Shader 4 finished CTA #0 (3993,0), 2 CTAs running
GPGPU-Sim uArch: core:  4, cta: 0 initialized @(3994,0)
GPGPU-Sim uArch: cycles simulated: 4000  inst.: 1196448 (ipc=299.1) sim_rate=170921 (inst/sec) elapsed = 0:0:00:07 / Tue Mar 22 12:54:42 2016
GPGPU-Sim uArch: Shader 10 finished CTA #0 (4006,0), 2 CTAs running
GPGPU-Sim uArch: core: 10, cta: 0 initialized @(4007,0)
GPGPU-Sim uArch: Shader 9 finished CTA #0 (4018,0), 2 CTAs running
GPGPU-Sim uArch: core:  9, cta: 0 initialized @(4019,0)
GPGPU-Sim uArch: Shader 14 finished CTA #0 (4029,0), 2 CTAs running
GPGPU-Sim uArch: core: 14, cta: 0 initialized @(4030,0)
GPGPU-Sim uArch: Shader 8 finished CTA #0 (4034,0), 2 CTAs running
GPGPU-Sim uArch: core:  8, cta: 0 initialized @(4035,0)
GPGPU-Sim uArch: Shader 7 finished CTA #0 (4042,0), 2 CTAs running
GPGPU-Sim uArch: core:  7, cta: 0 initialized @(4043,0)
GPGPU-Sim uArch: Shader 11 finished CTA #0 (4044,0), 2 CTAs running
GPGPU-Sim uArch: core: 11, cta: 0 initialized @(4045,0)
GPGPU-Sim uArch: Shader 6 finished CTA #0 (4045,0), 2 CTAs running
GPGPU-Sim uArch: core:  6, cta: 0 initialized @(4046,0)
GPGPU-Sim uArch: Shader 12 finished CTA #0 (4078,0), 2 CTAs running
GPGPU-Sim uArch: core: 12, cta: 0 initialized @(4079,0)
GPGPU-Sim uArch: Shader 1 finished CTA #0 (4122,0), 2 CTAs running
GPGPU-Sim uArch: core:  1, cta: 0 initialized @(4123,0)
GPGPU-Sim uArch: Shader 13 finished CTA #0 (4125,0), 2 CTAs running
GPGPU-Sim uArch: core: 13, cta: 0 initialized @(4126,0)
GPGPU-Sim PTX: 1300000 instructions simulated : ctaid=(66,0,0) tid=(511,0,0)
GPGPU-Sim PTX: 1400000 instructions simulated : ctaid=(68,0,0) tid=(287,0,0)
GPGPU-Sim uArch: Shader 2 finished CTA #1 (4535,0), 2 CTAs running
GPGPU-Sim uArch: core:  2, cta: 1 initialized @(4536,0)
GPGPU-Sim uArch: Shader 5 finished CTA #1 (4554,0), 2 CTAs running
GPGPU-Sim uArch: core:  5, cta: 1 initialized @(4555,0)
GPGPU-Sim PTX: 1500000 instructions simulated : ctaid=(81,0,0) tid=(479,0,0)
GPGPU-Sim uArch: Shader 3 finished CTA #1 (4589,0), 2 CTAs running
GPGPU-Sim uArch: core:  3, cta: 1 initialized @(4590,0)
GPGPU-Sim uArch: Shader 0 finished CTA #1 (4617,0), 2 CTAs running
GPGPU-Sim uArch: core:  0, cta: 1 initialized @(4618,0)
GPGPU-Sim uArch: Shader 14 finished CTA #1 (4618,0), 2 CTAs running
GPGPU-Sim uArch: core: 14, cta: 1 initialized @(4619,0)
GPGPU-Sim uArch: Shader 4 finished CTA #1 (4654,0), 2 CTAs running
GPGPU-Sim uArch: core:  4, cta: 1 initialized @(4655,0)
GPGPU-Sim uArch: Shader 11 finished CTA #1 (4666,0), 2 CTAs running
GPGPU-Sim uArch: core: 11, cta: 1 initialized @(4667,0)
GPGPU-Sim uArch: Shader 9 finished CTA #1 (4672,0), 2 CTAs running
GPGPU-Sim uArch: core:  9, cta: 1 initialized @(4673,0)
GPGPU-Sim uArch: Shader 10 finished CTA #1 (4683,0), 2 CTAs running
GPGPU-Sim uArch: core: 10, cta: 1 initialized @(4684,0)
GPGPU-Sim uArch: Shader 8 finished CTA #1 (4702,0), 2 CTAs running
GPGPU-Sim uArch: core:  8, cta: 1 initialized @(4703,0)
GPGPU-Sim uArch: Shader 7 finished CTA #1 (4707,0), 2 CTAs running
GPGPU-Sim uArch: core:  7, cta: 1 initialized @(4708,0)
GPGPU-Sim uArch: Shader 6 finished CTA #1 (4714,0), 2 CTAs running
GPGPU-Sim uArch: core:  6, cta: 1 initialized @(4715,0)
GPGPU-Sim uArch: Shader 12 finished CTA #1 (4774,0), 2 CTAs running
GPGPU-Sim uArch: core: 12, cta: 1 initialized @(4775,0)
GPGPU-Sim uArch: Shader 1 finished CTA #1 (4788,0), 2 CTAs running
GPGPU-Sim uArch: core:  1, cta: 1 initialized @(4789,0)
GPGPU-Sim uArch: Shader 13 finished CTA #1 (4801,0), 2 CTAs running
GPGPU-Sim uArch: core: 13, cta: 1 initialized @(4802,0)
GPGPU-Sim PTX: 1600000 instructions simulated : ctaid=(80,0,0) tid=(255,0,0)
GPGPU-Sim uArch: cycles simulated: 5000  inst.: 1597184 (ipc=319.4) sim_rate=199648 (inst/sec) elapsed = 0:0:00:08 / Tue Mar 22 12:54:43 2016
GPGPU-Sim PTX: 1700000 instructions simulated : ctaid=(85,0,0) tid=(223,0,0)
GPGPU-Sim uArch: Shader 2 finished CTA #2 (5179,0), 2 CTAs running
GPGPU-Sim uArch: core:  2, cta: 2 initialized @(5180,0)
GPGPU-Sim uArch: Shader 5 finished CTA #2 (5190,0), 2 CTAs running
GPGPU-Sim uArch: core:  5, cta: 2 initialized @(5191,0)
GPGPU-Sim uArch: Shader 3 finished CTA #2 (5230,0), 2 CTAs running
GPGPU-Sim uArch: core:  3, cta: 2 initialized @(5231,0)
GPGPU-Sim PTX: 1800000 instructions simulated : ctaid=(87,0,0) tid=(511,0,0)
GPGPU-Sim uArch: Shader 0 finished CTA #2 (5280,0), 2 CTAs running
GPGPU-Sim uArch: core:  0, cta: 2 initialized @(5281,0)
GPGPU-Sim uArch: Shader 14 finished CTA #2 (5282,0), 2 CTAs running
GPGPU-Sim uArch: core: 14, cta: 2 initialized @(5283,0)
GPGPU-Sim uArch: Shader 4 finished CTA #2 (5314,0), 2 CTAs running
GPGPU-Sim uArch: core:  4, cta: 2 initialized @(5315,0)
GPGPU-Sim uArch: Shader 9 finished CTA #2 (5316,0), 2 CTAs running
GPGPU-Sim uArch: core:  9, cta: 2 initialized @(5317,0)
GPGPU-Sim uArch: Shader 8 finished CTA #2 (5342,0), 2 CTAs running
GPGPU-Sim uArch: core:  8, cta: 2 initialized @(5343,0)
GPGPU-Sim uArch: Shader 11 finished CTA #2 (5346,0), 2 CTAs running
GPGPU-Sim uArch: core: 11, cta: 2 initialized @(5347,0)
GPGPU-Sim uArch: Shader 10 finished CTA #2 (5348,0), 2 CTAs running
GPGPU-Sim uArch: core: 10, cta: 2 initialized @(5349,0)
GPGPU-Sim uArch: Shader 7 finished CTA #2 (5379,0), 2 CTAs running
GPGPU-Sim uArch: core:  7, cta: 2 initialized @(5380,0)
GPGPU-Sim uArch: Shader 6 finished CTA #2 (5381,0), 2 CTAs running
GPGPU-Sim uArch: core:  6, cta: 2 initialized @(5382,0)
GPGPU-Sim uArch: Shader 12 finished CTA #2 (5422,0), 2 CTAs running
GPGPU-Sim uArch: core: 12, cta: 2 initialized @(5423,0)
GPGPU-Sim uArch: Shader 1 finished CTA #2 (5462,0), 2 CTAs running
GPGPU-Sim uArch: core:  1, cta: 2 initialized @(5463,0)
GPGPU-Sim uArch: Shader 13 finished CTA #2 (5477,0), 2 CTAs running
GPGPU-Sim uArch: core: 13, cta: 2 initialized @(5478,0)
GPGPU-Sim PTX: 1900000 instructions simulated : ctaid=(100,0,0) tid=(447,0,0)
GPGPU-Sim PTX: 2000000 instructions simulated : ctaid=(93,0,0) tid=(511,0,0)
GPGPU-Sim uArch: Shader 2 finished CTA #0 (5811,0), 2 CTAs running
GPGPU-Sim uArch: core:  2, cta: 0 initialized @(5812,0)
GPGPU-Sim uArch: Shader 5 finished CTA #0 (5860,0), 2 CTAs running
GPGPU-Sim uArch: core:  5, cta: 0 initialized @(5861,0)
GPGPU-Sim uArch: Shader 3 finished CTA #0 (5895,0), 2 CTAs running
GPGPU-Sim uArch: core:  3, cta: 0 initialized @(5896,0)
GPGPU-Sim uArch: Shader 14 finished CTA #0 (5918,0), 2 CTAs running
GPGPU-Sim uArch: core: 14, cta: 0 initialized @(5919,0)
GPGPU-Sim uArch: Shader 0 finished CTA #0 (5950,0), 2 CTAs running
GPGPU-Sim uArch: core:  0, cta: 0 initialized @(5951,0)
GPGPU-Sim uArch: Shader 9 finished CTA #0 (5972,0), 2 CTAs running
GPGPU-Sim uArch: core:  9, cta: 0 initialized @(5973,0)
GPGPU-Sim uArch: Shader 11 finished CTA #0 (5978,0), 2 CTAs running
GPGPU-Sim uArch: core: 11, cta: 0 initialized @(5979,0)
GPGPU-Sim PTX: 2100000 instructions simulated : ctaid=(107,0,0) tid=(31,0,0)
GPGPU-Sim uArch: Shader 4 finished CTA #0 (5982,0), 2 CTAs running
GPGPU-Sim uArch: core:  4, cta: 0 initialized @(5983,0)
GPGPU-Sim uArch: Shader 8 finished CTA #0 (5984,0), 2 CTAs running
GPGPU-Sim uArch: core:  8, cta: 0 initialized @(5985,0)
GPGPU-Sim uArch: cycles simulated: 6000  inst.: 2034400 (ipc=339.1) sim_rate=226044 (inst/sec) elapsed = 0:0:00:09 / Tue Mar 22 12:54:44 2016
GPGPU-Sim uArch: Shader 10 finished CTA #0 (6021,0), 2 CTAs running
GPGPU-Sim uArch: core: 10, cta: 0 initialized @(6022,0)
GPGPU-Sim uArch: Shader 7 finished CTA #0 (6041,0), 2 CTAs running
GPGPU-Sim uArch: core:  7, cta: 0 initialized @(6042,0)
GPGPU-Sim uArch: Shader 6 finished CTA #0 (6066,0), 2 CTAs running
GPGPU-Sim uArch: core:  6, cta: 0 initialized @(6067,0)
GPGPU-Sim uArch: Shader 12 finished CTA #0 (6090,0), 2 CTAs running
GPGPU-Sim uArch: core: 12, cta: 0 initialized @(6091,0)
GPGPU-Sim uArch: Shader 1 finished CTA #0 (6118,0), 2 CTAs running
GPGPU-Sim uArch: core:  1, cta: 0 initialized @(6119,0)
GPGPU-Sim uArch: Shader 13 finished CTA #0 (6126,0), 2 CTAs running
GPGPU-Sim uArch: core: 13, cta: 0 initialized @(6127,0)
GPGPU-Sim PTX: 2200000 instructions simulated : ctaid=(117,0,0) tid=(63,0,0)
GPGPU-Sim PTX: 2300000 instructions simulated : ctaid=(113,0,0) tid=(223,0,0)
GPGPU-Sim uArch: Shader 2 finished CTA #1 (6449,0), 2 CTAs running
GPGPU-Sim uArch: core:  2, cta: 1 initialized @(6450,0)
GPGPU-Sim uArch: cycles simulated: 6500  inst.: 2260512 (ipc=347.8) sim_rate=226051 (inst/sec) elapsed = 0:0:00:10 / Tue Mar 22 12:54:45 2016
GPGPU-Sim uArch: Shader 5 finished CTA #1 (6530,0), 2 CTAs running
GPGPU-Sim uArch: core:  5, cta: 1 initialized @(6531,0)
GPGPU-Sim uArch: Shader 14 finished CTA #1 (6548,0), 2 CTAs running
GPGPU-Sim uArch: core: 14, cta: 1 initialized @(6549,0)
GPGPU-Sim uArch: Shader 3 finished CTA #1 (6567,0), 2 CTAs running
GPGPU-Sim uArch: core:  3, cta: 1 initialized @(6568,0)
GPGPU-Sim uArch: Shader 0 finished CTA #1 (6597,0), 2 CTAs running
GPGPU-Sim uArch: core:  0, cta: 1 initialized @(6598,0)
GPGPU-Sim uArch: Shader 8 finished CTA #1 (6621,0), 2 CTAs running
GPGPU-Sim uArch: core:  8, cta: 1 initialized @(6622,0)
GPGPU-Sim uArch: Shader 11 finished CTA #1 (6627,0), 2 CTAs running
GPGPU-Sim uArch: core: 11, cta: 1 initialized @(6628,0)
GPGPU-Sim uArch: Shader 9 finished CTA #1 (6637,0), 2 CTAs running
GPGPU-Sim uArch: core:  9, cta: 1 initialized @(6638,0)
GPGPU-Sim uArch: Shader 4 finished CTA #1 (6692,0), 2 CTAs running
GPGPU-Sim uArch: core:  4, cta: 1 initialized @(6693,0)
GPGPU-Sim uArch: Shader 7 finished CTA #1 (6704,0), 2 CTAs running
GPGPU-Sim uArch: core:  7, cta: 1 initialized @(6705,0)
GPGPU-Sim PTX: 2400000 instructions simulated : ctaid=(121,0,0) tid=(447,0,0)
GPGPU-Sim uArch: Shader 10 finished CTA #1 (6725,0), 2 CTAs running
GPGPU-Sim uArch: core: 10, cta: 1 initialized @(6726,0)
GPGPU-Sim uArch: Shader 6 finished CTA #1 (6730,0), 2 CTAs running
GPGPU-Sim uArch: core:  6, cta: 1 initialized @(6731,0)
GPGPU-Sim uArch: Shader 12 finished CTA #1 (6745,0), 2 CTAs running
GPGPU-Sim uArch: core: 12, cta: 1 initialized @(6746,0)
GPGPU-Sim uArch: Shader 13 finished CTA #1 (6788,0), 2 CTAs running
GPGPU-Sim uArch: core: 13, cta: 1 initialized @(6789,0)
GPGPU-Sim uArch: Shader 1 finished CTA #1 (6811,0), 2 CTAs running
GPGPU-Sim uArch: core:  1, cta: 1 initialized @(6812,0)
GPGPU-Sim PTX: 2500000 instructions simulated : ctaid=(135,0,0) tid=(31,0,0)
GPGPU-Sim uArch: Shader 2 finished CTA #2 (7089,0), 2 CTAs running
GPGPU-Sim uArch: core:  2, cta: 2 initialized @(7090,0)
GPGPU-Sim PTX: 2600000 instructions simulated : ctaid=(139,0,0) tid=(383,0,0)
GPGPU-Sim uArch: Shader 14 finished CTA #2 (7159,0), 2 CTAs running
GPGPU-Sim uArch: core: 14, cta: 2 initialized @(7160,0)
GPGPU-Sim uArch: Shader 5 finished CTA #2 (7184,0), 2 CTAs running
GPGPU-Sim uArch: core:  5, cta: 2 initialized @(7185,0)
GPGPU-Sim uArch: Shader 3 finished CTA #2 (7220,0), 2 CTAs running
GPGPU-Sim uArch: core:  3, cta: 2 initialized @(7221,0)
GPGPU-Sim uArch: Shader 0 finished CTA #2 (7255,0), 2 CTAs running
GPGPU-Sim uArch: core:  0, cta: 2 initialized @(7256,0)
GPGPU-Sim uArch: Shader 11 finished CTA #2 (7272,0), 2 CTAs running
GPGPU-Sim uArch: core: 11, cta: 2 initialized @(7273,0)
GPGPU-Sim uArch: Shader 8 finished CTA #2 (7291,0), 2 CTAs running
GPGPU-Sim uArch: core:  8, cta: 2 initialized @(7292,0)
GPGPU-Sim uArch: Shader 4 finished CTA #2 (7314,0), 2 CTAs running
GPGPU-Sim uArch: core:  4, cta: 2 initialized @(7315,0)
GPGPU-Sim uArch: Shader 9 finished CTA #2 (7319,0), 2 CTAs running
GPGPU-Sim uArch: core:  9, cta: 2 initialized @(7320,0)
GPGPU-Sim uArch: Shader 10 finished CTA #2 (7353,0), 2 CTAs running
GPGPU-Sim uArch: core: 10, cta: 2 initialized @(7354,0)
GPGPU-Sim uArch: Shader 7 finished CTA #2 (7364,0), 2 CTAs running
GPGPU-Sim uArch: core:  7, cta: 2 initialized @(7365,0)
GPGPU-Sim uArch: Shader 6 finished CTA #2 (7374,0), 2 CTAs running
GPGPU-Sim uArch: core:  6, cta: 2 initialized @(7375,0)
GPGPU-Sim uArch: Shader 12 finished CTA #2 (7410,0), 2 CTAs running
GPGPU-Sim uArch: core: 12, cta: 2 initialized @(7411,0)
GPGPU-Sim uArch: Shader 1 finished CTA #2 (7438,0), 2 CTAs running
GPGPU-Sim PTX: 2700000 instructions simulated : ctaid=(136,0,0) tid=(479,0,0)
GPGPU-Sim uArch: core:  1, cta: 2 initialized @(7439,0)
GPGPU-Sim uArch: Shader 13 finished CTA #2 (7455,0), 2 CTAs running
GPGPU-Sim uArch: core: 13, cta: 2 initialized @(7456,0)
GPGPU-Sim uArch: cycles simulated: 7500  inst.: 2636896 (ipc=351.6) sim_rate=239717 (inst/sec) elapsed = 0:0:00:11 / Tue Mar 22 12:54:46 2016
GPGPU-Sim PTX: 2800000 instructions simulated : ctaid=(144,0,0) tid=(31,0,0)
GPGPU-Sim uArch: Shader 2 finished CTA #0 (7726,0), 2 CTAs running
GPGPU-Sim uArch: core:  2, cta: 0 initialized @(7727,0)
GPGPU-Sim PTX: 2900000 instructions simulated : ctaid=(160,0,0) tid=(255,0,0)
GPGPU-Sim uArch: Shader 14 finished CTA #0 (7813,0), 2 CTAs running
GPGPU-Sim uArch: core: 14, cta: 0 initialized @(7814,0)
GPGPU-Sim uArch: Shader 5 finished CTA #0 (7860,0), 2 CTAs running
GPGPU-Sim uArch: core:  5, cta: 0 initialized @(7861,0)
GPGPU-Sim uArch: Shader 3 finished CTA #0 (7877,0), 2 CTAs running
GPGPU-Sim uArch: core:  3, cta: 0 initialized @(7878,0)
GPGPU-Sim uArch: Shader 0 finished CTA #0 (7904,0), 2 CTAs running
GPGPU-Sim uArch: core:  0, cta: 0 initialized @(7905,0)
GPGPU-Sim uArch: Shader 11 finished CTA #0 (7939,0), 2 CTAs running
GPGPU-Sim uArch: core: 11, cta: 0 initialized @(7940,0)
GPGPU-Sim uArch: Shader 8 finished CTA #0 (7940,0), 2 CTAs running
GPGPU-Sim uArch: core:  8, cta: 0 initialized @(7941,0)
GPGPU-Sim uArch: Shader 9 finished CTA #0 (7972,0), 2 CTAs running
GPGPU-Sim uArch: core:  9, cta: 0 initialized @(7973,0)
GPGPU-Sim uArch: Shader 4 finished CTA #0 (7980,0), 2 CTAs running
GPGPU-Sim uArch: core:  4, cta: 0 initialized @(7981,0)
GPGPU-Sim uArch: Shader 10 finished CTA #0 (8017,0), 2 CTAs running
GPGPU-Sim uArch: core: 10, cta: 0 initialized @(8018,0)
GPGPU-Sim uArch: Shader 7 finished CTA #0 (8021,0), 2 CTAs running
GPGPU-Sim uArch: core:  7, cta: 0 initialized @(8022,0)
GPGPU-Sim uArch: Shader 6 finished CTA #0 (8065,0), 2 CTAs running
GPGPU-Sim uArch: core:  6, cta: 0 initialized @(8066,0)
GPGPU-Sim uArch: Shader 12 finished CTA #0 (8081,0), 2 CTAs running
GPGPU-Sim uArch: core: 12, cta: 0 initialized @(8082,0)
GPGPU-Sim uArch: Shader 1 finished CTA #0 (8087,0), 2 CTAs running
GPGPU-Sim uArch: core:  1, cta: 0 initialized @(8088,0)
GPGPU-Sim uArch: Shader 13 finished CTA #0 (8129,0), 2 CTAs running
GPGPU-Sim uArch: core: 13, cta: 0 initialized @(8130,0)
GPGPU-Sim PTX: 3000000 instructions simulated : ctaid=(153,0,0) tid=(479,0,0)
GPGPU-Sim PTX: 3100000 instructions simulated : ctaid=(162,0,0) tid=(223,0,0)
GPGPU-Sim uArch: Shader 2 finished CTA #1 (8390,0), 2 CTAs running
GPGPU-Sim uArch: core:  2, cta: 1 initialized @(8391,0)
GPGPU-Sim uArch: Shader 14 finished CTA #1 (8490,0), 2 CTAs running
GPGPU-Sim uArch: core: 14, cta: 1 initialized @(8491,0)
GPGPU-Sim uArch: cycles simulated: 8500  inst.: 3100096 (ipc=364.7) sim_rate=258341 (inst/sec) elapsed = 0:0:00:12 / Tue Mar 22 12:54:47 2016
GPGPU-Sim PTX: 3200000 instructions simulated : ctaid=(169,0,0) tid=(447,0,0)
GPGPU-Sim uArch: Shader 5 finished CTA #1 (8512,0), 2 CTAs running
GPGPU-Sim uArch: core:  5, cta: 1 initialized @(8513,0)
GPGPU-Sim uArch: Shader 3 finished CTA #1 (8555,0), 2 CTAs running
GPGPU-Sim uArch: core:  3, cta: 1 initialized @(8556,0)
GPGPU-Sim uArch: Shader 0 finished CTA #1 (8575,0), 2 CTAs running
GPGPU-Sim uArch: core:  0, cta: 1 initialized @(8576,0)
GPGPU-Sim uArch: Shader 8 finished CTA #1 (8577,0), 2 CTAs running
GPGPU-Sim uArch: core:  8, cta: 1 initialized @(8578,0)
GPGPU-Sim uArch: Shader 11 finished CTA #1 (8629,0), 2 CTAs running
GPGPU-Sim uArch: core: 11, cta: 1 initialized @(8630,0)
GPGPU-Sim uArch: Shader 4 finished CTA #1 (8635,0), 2 CTAs running
GPGPU-Sim uArch: core:  4, cta: 1 initialized @(8636,0)
GPGPU-Sim uArch: Shader 9 finished CTA #1 (8659,0), 2 CTAs running
GPGPU-Sim uArch: core:  9, cta: 1 initialized @(8660,0)
GPGPU-Sim uArch: Shader 10 finished CTA #1 (8674,0), 2 CTAs running
GPGPU-Sim uArch: core: 10, cta: 1 initialized @(8675,0)
GPGPU-Sim uArch: Shader 7 finished CTA #1 (8676,0), 2 CTAs running
GPGPU-Sim uArch: core:  7, cta: 1 initialized @(8677,0)
GPGPU-Sim uArch: Shader 6 finished CTA #1 (8698,0), 2 CTAs running
GPGPU-Sim uArch: core:  6, cta: 1 initialized @(8699,0)
GPGPU-Sim uArch: Shader 12 finished CTA #1 (8729,0), 2 CTAs running
GPGPU-Sim uArch: core: 12, cta: 1 initialized @(8730,0)
GPGPU-Sim uArch: Shader 1 finished CTA #1 (8754,0), 2 CTAs running
GPGPU-Sim uArch: core:  1, cta: 1 initialized @(8755,0)
GPGPU-Sim uArch: Shader 13 finished CTA #1 (8767,0), 2 CTAs running
GPGPU-Sim uArch: core: 13, cta: 1 initialized @(8768,0)
GPGPU-Sim PTX: 3300000 instructions simulated : ctaid=(165,0,0) tid=(479,0,0)
GPGPU-Sim PTX: 3400000 instructions simulated : ctaid=(189,0,0) tid=(159,0,0)
GPGPU-Sim uArch: Shader 2 finished CTA #2 (9054,0), 2 CTAs running
GPGPU-Sim uArch: core:  2, cta: 2 initialized @(9055,0)
GPGPU-Sim uArch: Shader 14 finished CTA #2 (9102,0), 2 CTAs running
GPGPU-Sim uArch: core: 14, cta: 2 initialized @(9103,0)
GPGPU-Sim uArch: Shader 5 finished CTA #2 (9168,0), 2 CTAs running
GPGPU-Sim uArch: core:  5, cta: 2 initialized @(9169,0)
GPGPU-Sim PTX: 3500000 instructions simulated : ctaid=(188,0,0) tid=(511,0,0)
GPGPU-Sim uArch: Shader 3 finished CTA #2 (9210,0), 2 CTAs running
GPGPU-Sim uArch: core:  3, cta: 2 initialized @(9211,0)
GPGPU-Sim uArch: Shader 0 finished CTA #2 (9228,0), 2 CTAs running
GPGPU-Sim uArch: core:  0, cta: 2 initialized @(9229,0)
GPGPU-Sim uArch: Shader 8 finished CTA #2 (9263,0), 2 CTAs running
GPGPU-Sim uArch: core:  8, cta: 2 initialized @(9264,0)
GPGPU-Sim uArch: Shader 4 finished CTA #2 (9291,0), 2 CTAs running
GPGPU-Sim uArch: core:  4, cta: 2 initialized @(9292,0)
GPGPU-Sim uArch: Shader 11 finished CTA #2 (9302,0), 2 CTAs running
GPGPU-Sim uArch: core: 11, cta: 2 initialized @(9303,0)
GPGPU-Sim uArch: Shader 7 finished CTA #2 (9326,0), 2 CTAs running
GPGPU-Sim uArch: core:  7, cta: 2 initialized @(9327,0)
GPGPU-Sim uArch: Shader 9 finished CTA #2 (9327,0), 2 CTAs running
GPGPU-Sim uArch: core:  9, cta: 2 initialized @(9328,0)
GPGPU-Sim uArch: Shader 10 finished CTA #2 (9345,0), 2 CTAs running
GPGPU-Sim uArch: core: 10, cta: 2 initialized @(9346,0)
GPGPU-Sim uArch: Shader 6 finished CTA #2 (9373,0), 2 CTAs running
GPGPU-Sim uArch: core:  6, cta: 2 initialized @(9374,0)
GPGPU-Sim uArch: Shader 12 finished CTA #2 (9405,0), 2 CTAs running
GPGPU-Sim uArch: core: 12, cta: 2 initialized @(9406,0)
GPGPU-Sim uArch: Shader 1 finished CTA #2 (9424,0), 2 CTAs running
GPGPU-Sim uArch: core:  1, cta: 2 initialized @(9425,0)
GPGPU-Sim uArch: Shader 13 finished CTA #2 (9427,0), 2 CTAs running
GPGPU-Sim uArch: core: 13, cta: 2 initialized @(9428,0)
GPGPU-Sim uArch: cycles simulated: 9500  inst.: 3475712 (ipc=365.9) sim_rate=267362 (inst/sec) elapsed = 0:0:00:13 / Tue Mar 22 12:54:48 2016
GPGPU-Sim PTX: 3600000 instructions simulated : ctaid=(185,0,0) tid=(191,0,0)
GPGPU-Sim uArch: Shader 2 finished CTA #0 (9697,0), 2 CTAs running
GPGPU-Sim PTX: 3700000 instructions simulated : ctaid=(198,0,0) tid=(351,0,0)
GPGPU-Sim uArch: core:  2, cta: 0 initialized @(9698,0)
GPGPU-Sim uArch: Shader 14 finished CTA #0 (9762,0), 2 CTAs running
GPGPU-Sim uArch: core: 14, cta: 0 initialized @(9763,0)
GPGPU-Sim uArch: Shader 5 finished CTA #0 (9810,0), 2 CTAs running
GPGPU-Sim uArch: core:  5, cta: 0 initialized @(9811,0)
GPGPU-Sim uArch: Shader 3 finished CTA #0 (9863,0), 2 CTAs running
GPGPU-Sim uArch: core:  3, cta: 0 initialized @(9864,0)
GPGPU-Sim uArch: Shader 0 finished CTA #0 (9884,0), 2 CTAs running
GPGPU-Sim uArch: core:  0, cta: 0 initialized @(9885,0)
GPGPU-Sim uArch: Shader 8 finished CTA #0 (9903,0), 2 CTAs running
GPGPU-Sim uArch: core:  8, cta: 0 initialized @(9904,0)
GPGPU-Sim PTX: 3800000 instructions simulated : ctaid=(193,0,0) tid=(511,0,0)
GPGPU-Sim uArch: Shader 4 finished CTA #0 (9948,0), 2 CTAs running
GPGPU-Sim uArch: core:  4, cta: 0 initialized @(9949,0)
GPGPU-Sim uArch: Shader 9 finished CTA #0 (9968,0), 2 CTAs running
GPGPU-Sim uArch: core:  9, cta: 0 initialized @(9969,0)
GPGPU-Sim uArch: Shader 11 finished CTA #0 (9969,0), 2 CTAs running
GPGPU-Sim uArch: core: 11, cta: 0 initialized @(9970,0)
GPGPU-Sim uArch: Shader 7 finished CTA #0 (9988,0), 2 CTAs running
GPGPU-Sim uArch: core:  7, cta: 0 initialized @(9989,0)
GPGPU-Sim uArch: Shader 10 finished CTA #0 (10000,0), 2 CTAs running
GPGPU-Sim uArch: core: 10, cta: 0 initialized @(10001,0)
GPGPU-Sim uArch: Shader 6 finished CTA #0 (10044,0), 2 CTAs running
GPGPU-Sim uArch: core:  6, cta: 0 initialized @(10045,0)
GPGPU-Sim uArch: Shader 12 finished CTA #0 (10075,0), 2 CTAs running
GPGPU-Sim uArch: core: 12, cta: 0 initialized @(10076,0)
GPGPU-Sim uArch: Shader 1 finished CTA #0 (10085,0), 2 CTAs running
GPGPU-Sim uArch: core:  1, cta: 0 initialized @(10086,0)
GPGPU-Sim uArch: Shader 13 finished CTA #0 (10099,0), 2 CTAs running
GPGPU-Sim uArch: core: 13, cta: 0 initialized @(10100,0)
GPGPU-Sim PTX: 3900000 instructions simulated : ctaid=(206,0,0) tid=(223,0,0)
GPGPU-Sim uArch: Shader 2 finished CTA #1 (10368,0), 2 CTAs running
GPGPU-Sim uArch: core:  2, cta: 1 initialized @(10369,0)
GPGPU-Sim PTX: 4000000 instructions simulated : ctaid=(209,0,0) tid=(63,0,0)
GPGPU-Sim uArch: Shader 14 finished CTA #1 (10408,0), 2 CTAs running
GPGPU-Sim uArch: core: 14, cta: 1 initialized @(10409,0)
GPGPU-Sim uArch: Shader 5 finished CTA #1 (10464,0), 2 CTAs running
GPGPU-Sim uArch: core:  5, cta: 1 initialized @(10465,0)
GPGPU-Sim uArch: cycles simulated: 10500  inst.: 3934656 (ipc=374.7) sim_rate=281046 (inst/sec) elapsed = 0:0:00:14 / Tue Mar 22 12:54:49 2016
GPGPU-Sim uArch: Shader 3 finished CTA #1 (10517,0), 2 CTAs running
GPGPU-Sim uArch: core:  3, cta: 1 initialized @(10518,0)
GPGPU-Sim uArch: Shader 0 finished CTA #1 (10524,0), 2 CTAs running
GPGPU-Sim uArch: core:  0, cta: 1 initialized @(10525,0)
GPGPU-Sim uArch: Shader 8 finished CTA #1 (10577,0), 2 CTAs running
GPGPU-Sim uArch: core:  8, cta: 1 initialized @(10578,0)
GPGPU-Sim uArch: Shader 4 finished CTA #1 (10608,0), 2 CTAs running
GPGPU-Sim uArch: core:  4, cta: 1 initialized @(10609,0)
GPGPU-Sim uArch: Shader 11 finished CTA #1 (10615,0), 2 CTAs running
GPGPU-Sim uArch: core: 11, cta: 1 initialized @(10616,0)
GPGPU-Sim uArch: Shader 9 finished CTA #1 (10621,0), 2 CTAs running
GPGPU-Sim uArch: core:  9, cta: 1 initialized @(10622,0)
GPGPU-Sim PTX: 4100000 instructions simulated : ctaid=(224,0,0) tid=(479,0,0)
GPGPU-Sim uArch: Shader 7 finished CTA #1 (10635,0), 2 CTAs running
GPGPU-Sim uArch: core:  7, cta: 1 initialized @(10636,0)
GPGPU-Sim uArch: Shader 10 finished CTA #1 (10651,0), 2 CTAs running
GPGPU-Sim uArch: core: 10, cta: 1 initialized @(10652,0)
GPGPU-Sim uArch: Shader 6 finished CTA #1 (10700,0), 2 CTAs running
GPGPU-Sim uArch: core:  6, cta: 1 initialized @(10701,0)
GPGPU-Sim uArch: Shader 12 finished CTA #1 (10717,0), 2 CTAs running
GPGPU-Sim uArch: core: 12, cta: 1 initialized @(10718,0)
GPGPU-Sim uArch: Shader 13 finished CTA #1 (10743,0), 2 CTAs running
GPGPU-Sim uArch: core: 13, cta: 1 initialized @(10744,0)
GPGPU-Sim uArch: Shader 1 finished CTA #1 (10751,0), 2 CTAs running
GPGPU-Sim uArch: core:  1, cta: 1 initialized @(10752,0)
GPGPU-Sim PTX: 4200000 instructions simulated : ctaid=(221,0,0) tid=(287,0,0)
GPGPU-Sim uArch: Shader 2 finished CTA #2 (11030,0), 2 CTAs running
GPGPU-Sim uArch: core:  2, cta: 2 initialized @(11031,0)
GPGPU-Sim uArch: Shader 14 finished CTA #2 (11057,0), 2 CTAs running
GPGPU-Sim uArch: core: 14, cta: 2 initialized @(11058,0)
GPGPU-Sim PTX: 4300000 instructions simulated : ctaid=(223,0,0) tid=(63,0,0)
GPGPU-Sim uArch: Shader 5 finished CTA #2 (11104,0), 2 CTAs running
GPGPU-Sim uArch: core:  5, cta: 2 initialized @(11105,0)
GPGPU-Sim uArch: Shader 3 finished CTA #2 (11178,0), 2 CTAs running
GPGPU-Sim uArch: core:  3, cta: 2 initialized @(11179,0)
GPGPU-Sim uArch: Shader 0 finished CTA #2 (11215,0), 2 CTAs running
GPGPU-Sim uArch: core:  0, cta: 2 initialized @(11216,0)
GPGPU-Sim uArch: Shader 8 finished CTA #2 (11222,0), 2 CTAs running
GPGPU-Sim uArch: core:  8, cta: 2 initialized @(11223,0)
GPGPU-Sim uArch: Shader 4 finished CTA #2 (11264,0), 2 CTAs running
GPGPU-Sim uArch: core:  4, cta: 2 initialized @(11265,0)
GPGPU-Sim uArch: Shader 11 finished CTA #2 (11295,0), 2 CTAs running
GPGPU-Sim uArch: core: 11, cta: 2 initialized @(11296,0)
GPGPU-Sim uArch: Shader 9 finished CTA #2 (11299,0), 2 CTAs running
GPGPU-Sim uArch: core:  9, cta: 2 initialized @(11300,0)
GPGPU-Sim uArch: Shader 7 finished CTA #2 (11315,0), 2 CTAs running
GPGPU-Sim uArch: core:  7, cta: 2 initialized @(11316,0)
GPGPU-Sim uArch: Shader 10 finished CTA #2 (11317,0), 2 CTAs running
GPGPU-Sim uArch: core: 10, cta: 2 initialized @(11318,0)
GPGPU-Sim PTX: 4400000 instructions simulated : ctaid=(227,0,0) tid=(479,0,0)
GPGPU-Sim uArch: Shader 6 finished CTA #2 (11369,0), 2 CTAs running
GPGPU-Sim uArch: core:  6, cta: 2 initialized @(11370,0)
GPGPU-Sim uArch: Shader 12 finished CTA #2 (11394,0), 2 CTAs running
GPGPU-Sim uArch: core: 12, cta: 2 initialized @(11395,0)
GPGPU-Sim uArch: Shader 1 finished CTA #2 (11404,0), 2 CTAs running
GPGPU-Sim uArch: core:  1, cta: 2 initialized @(11405,0)
GPGPU-Sim uArch: Shader 13 finished CTA #2 (11424,0), 2 CTAs running
GPGPU-Sim uArch: core: 13, cta: 2 initialized @(11425,0)
GPGPU-Sim uArch: cycles simulated: 11500  inst.: 4315168 (ipc=375.2) sim_rate=287677 (inst/sec) elapsed = 0:0:00:15 / Tue Mar 22 12:54:50 2016
GPGPU-Sim PTX: 4500000 instructions simulated : ctaid=(234,0,0) tid=(95,0,0)
GPGPU-Sim uArch: Shader 2 finished CTA #0 (11704,0), 2 CTAs running
GPGPU-Sim uArch: core:  2, cta: 0 initialized @(11705,0)
GPGPU-Sim uArch: Shader 14 finished CTA #0 (11728,0), 2 CTAs running
GPGPU-Sim uArch: core: 14, cta: 0 initialized @(11729,0)
GPGPU-Sim uArch: Shader 5 finished CTA #0 (11756,0), 2 CTAs running
GPGPU-Sim uArch: core:  5, cta: 0 initialized @(11757,0)
GPGPU-Sim PTX: 4600000 instructions simulated : ctaid=(246,0,0) tid=(479,0,0)
GPGPU-Sim uArch: Shader 3 finished CTA #0 (11839,0), 2 CTAs running
GPGPU-Sim uArch: core:  3, cta: 0 initialized @(11840,0)
GPGPU-Sim uArch: Shader 0 finished CTA #0 (11840,0), 2 CTAs running
GPGPU-Sim uArch: core:  0, cta: 0 initialized @(11841,0)
GPGPU-Sim uArch: Shader 8 finished CTA #0 (11879,0), 2 CTAs running
GPGPU-Sim uArch: core:  8, cta: 0 initialized @(11880,0)
GPGPU-Sim uArch: Shader 4 finished CTA #0 (11931,0), 2 CTAs running
GPGPU-Sim uArch: core:  4, cta: 0 initialized @(11932,0)
GPGPU-Sim uArch: Shader 11 finished CTA #0 (11964,0), 2 CTAs running
GPGPU-Sim uArch: core: 11, cta: 0 initialized @(11965,0)
GPGPU-Sim uArch: Shader 7 finished CTA #0 (11971,0), 2 CTAs running
GPGPU-Sim uArch: core:  7, cta: 0 initialized @(11972,0)
GPGPU-Sim uArch: Shader 9 finished CTA #0 (11988,0), 2 CTAs running
GPGPU-Sim uArch: core:  9, cta: 0 initialized @(11989,0)
GPGPU-Sim uArch: cycles simulated: 12000  inst.: 4541408 (ipc=378.5) sim_rate=283838 (inst/sec) elapsed = 0:0:00:16 / Tue Mar 22 12:54:51 2016
GPGPU-Sim uArch: Shader 10 finished CTA #0 (12006,0), 2 CTAs running
GPGPU-Sim uArch: core: 10, cta: 0 initialized @(12007,0)
GPGPU-Sim uArch: Shader 6 finished CTA #0 (12015,0), 2 CTAs running
GPGPU-Sim uArch: core:  6, cta: 0 initialized @(12016,0)
GPGPU-Sim uArch: Shader 12 finished CTA #0 (12044,0), 2 CTAs running
GPGPU-Sim uArch: core: 12, cta: 0 initialized @(12045,0)
GPGPU-Sim uArch: Shader 1 finished CTA #0 (12066,0), 2 CTAs running
GPGPU-Sim uArch: core:  1, cta: 0 initialized @(12067,0)
GPGPU-Sim uArch: Shader 13 finished CTA #0 (12071,0), 2 CTAs running
GPGPU-Sim uArch: core: 13, cta: 0 initialized @(12072,0)
GPGPU-Sim PTX: 4700000 instructions simulated : ctaid=(256,0,0) tid=(95,0,0)
GPGPU-Sim PTX: 4800000 instructions simulated : ctaid=(246,0,0) tid=(511,0,0)
GPGPU-Sim uArch: Shader 2 finished CTA #1 (12364,0), 2 CTAs running
GPGPU-Sim uArch: core:  2, cta: 1 initialized @(12365,0)
GPGPU-Sim uArch: Shader 14 finished CTA #1 (12382,0), 2 CTAs running
GPGPU-Sim uArch: core: 14, cta: 1 initialized @(12383,0)
GPGPU-Sim uArch: Shader 5 finished CTA #1 (12418,0), 2 CTAs running
GPGPU-Sim uArch: core:  5, cta: 1 initialized @(12419,0)
GPGPU-Sim PTX: 4900000 instructions simulated : ctaid=(263,0,0) tid=(415,0,0)
GPGPU-Sim uArch: Shader 0 finished CTA #1 (12491,0), 2 CTAs running
GPGPU-Sim uArch: core:  0, cta: 1 initialized @(12492,0)
GPGPU-Sim uArch: Shader 3 finished CTA #1 (12496,0), 2 CTAs running
GPGPU-Sim uArch: core:  3, cta: 1 initialized @(12497,0)
GPGPU-Sim uArch: Shader 8 finished CTA #1 (12513,0), 2 CTAs running
GPGPU-Sim uArch: core:  8, cta: 1 initialized @(12514,0)
GPGPU-Sim uArch: Shader 4 finished CTA #1 (12582,0), 2 CTAs running
GPGPU-Sim uArch: core:  4, cta: 1 initialized @(12583,0)
GPGPU-Sim uArch: Shader 7 finished CTA #1 (12621,0), 2 CTAs running
GPGPU-Sim uArch: core:  7, cta: 1 initialized @(12622,0)
GPGPU-Sim uArch: Shader 9 finished CTA #1 (12638,0), 2 CTAs running
GPGPU-Sim uArch: core:  9, cta: 1 initialized @(12639,0)
GPGPU-Sim uArch: Shader 11 finished CTA #1 (12644,0), 2 CTAs running
GPGPU-Sim uArch: core: 11, cta: 1 initialized @(12645,0)
GPGPU-Sim uArch: Shader 10 finished CTA #1 (12647,0), 2 CTAs running
GPGPU-Sim uArch: core: 10, cta: 1 initialized @(12648,0)
GPGPU-Sim uArch: Shader 6 finished CTA #1 (12684,0), 2 CTAs running
GPGPU-Sim uArch: core:  6, cta: 1 initialized @(12685,0)
GPGPU-Sim uArch: Shader 12 finished CTA #1 (12722,0), 2 CTAs running
GPGPU-Sim uArch: core: 12, cta: 1 initialized @(12723,0)
GPGPU-Sim uArch: Shader 1 finished CTA #1 (12731,0), 2 CTAs running
GPGPU-Sim uArch: core:  1, cta: 1 initialized @(12732,0)
GPGPU-Sim uArch: Shader 13 finished CTA #1 (12745,0), 2 CTAs running
GPGPU-Sim uArch: core: 13, cta: 1 initialized @(12746,0)
GPGPU-Sim PTX: 5000000 instructions simulated : ctaid=(256,0,0) tid=(255,0,0)
GPGPU-Sim PTX: 5100000 instructions simulated : ctaid=(263,0,0) tid=(127,0,0)
GPGPU-Sim uArch: cycles simulated: 13000  inst.: 4973696 (ipc=382.6) sim_rate=292570 (inst/sec) elapsed = 0:0:00:17 / Tue Mar 22 12:54:52 2016
GPGPU-Sim uArch: Shader 2 finished CTA #2 (13023,0), 2 CTAs running
GPGPU-Sim uArch: core:  2, cta: 2 initialized @(13024,0)
GPGPU-Sim uArch: Shader 14 finished CTA #2 (13060,0), 2 CTAs running
GPGPU-Sim uArch: core: 14, cta: 2 initialized @(13061,0)
GPGPU-Sim uArch: Shader 5 finished CTA #2 (13087,0), 2 CTAs running
GPGPU-Sim uArch: core:  5, cta: 2 initialized @(13088,0)
GPGPU-Sim uArch: Shader 3 finished CTA #2 (13146,0), 2 CTAs running
GPGPU-Sim uArch: core:  3, cta: 2 initialized @(13147,0)
GPGPU-Sim uArch: Shader 0 finished CTA #2 (13162,0), 2 CTAs running
GPGPU-Sim uArch: Shader 8 finished CTA #2 (13162,0), 2 CTAs running
GPGPU-Sim uArch: core:  8, cta: 2 initialized @(13163,0)
GPGPU-Sim uArch: core:  0, cta: 2 initialized @(13163,0)
GPGPU-Sim PTX: 5200000 instructions simulated : ctaid=(269,0,0) tid=(319,0,0)
GPGPU-Sim uArch: Shader 4 finished CTA #2 (13247,0), 2 CTAs running
GPGPU-Sim uArch: core:  4, cta: 2 initialized @(13248,0)
GPGPU-Sim uArch: Shader 7 finished CTA #2 (13278,0), 2 CTAs running
GPGPU-Sim uArch: core:  7, cta: 2 initialized @(13279,0)
GPGPU-Sim uArch: Shader 11 finished CTA #2 (13298,0), 2 CTAs running
GPGPU-Sim uArch: core: 11, cta: 2 initialized @(13299,0)
GPGPU-Sim uArch: Shader 9 finished CTA #2 (13306,0), 2 CTAs running
GPGPU-Sim uArch: core:  9, cta: 2 initialized @(13307,0)
GPGPU-Sim uArch: Shader 10 finished CTA #2 (13324,0), 2 CTAs running
GPGPU-Sim uArch: core: 10, cta: 2 initialized @(13325,0)
GPGPU-Sim uArch: Shader 6 finished CTA #2 (13345,0), 2 CTAs running
GPGPU-Sim uArch: core:  6, cta: 2 initialized @(13346,0)
GPGPU-Sim uArch: Shader 12 finished CTA #2 (13388,0), 2 CTAs running
GPGPU-Sim uArch: core: 12, cta: 2 initialized @(13389,0)
GPGPU-Sim uArch: Shader 13 finished CTA #2 (13390,0), 2 CTAs running
GPGPU-Sim uArch: core: 13, cta: 2 initialized @(13391,0)
GPGPU-Sim uArch: Shader 1 finished CTA #2 (13402,0), 2 CTAs running
GPGPU-Sim uArch: core:  1, cta: 2 initialized @(13403,0)
GPGPU-Sim PTX: 5300000 instructions simulated : ctaid=(280,0,0) tid=(95,0,0)
GPGPU-Sim PTX: 5400000 instructions simulated : ctaid=(284,0,0) tid=(31,0,0)
GPGPU-Sim uArch: Shader 2 finished CTA #0 (13679,0), 2 CTAs running
GPGPU-Sim uArch: core:  2, cta: 0 initialized @(13680,0)
GPGPU-Sim uArch: Shader 14 finished CTA #0 (13683,0), 2 CTAs running
GPGPU-Sim uArch: core: 14, cta: 0 initialized @(13684,0)
GPGPU-Sim uArch: Shader 5 finished CTA #0 (13737,0), 2 CTAs running
GPGPU-Sim uArch: core:  5, cta: 0 initialized @(13738,0)
GPGPU-Sim uArch: Shader 3 finished CTA #0 (13818,0), 2 CTAs running
GPGPU-Sim uArch: core:  3, cta: 0 initialized @(13819,0)
GPGPU-Sim uArch: Shader 0 finished CTA #0 (13822,0), 2 CTAs running
GPGPU-Sim uArch: core:  0, cta: 0 initialized @(13823,0)
GPGPU-Sim uArch: Shader 8 finished CTA #0 (13837,0), 2 CTAs running
GPGPU-Sim uArch: core:  8, cta: 0 initialized @(13838,0)
GPGPU-Sim PTX: 5500000 instructions simulated : ctaid=(283,0,0) tid=(447,0,0)
GPGPU-Sim uArch: Shader 4 finished CTA #0 (13877,0), 2 CTAs running
GPGPU-Sim uArch: core:  4, cta: 0 initialized @(13878,0)
GPGPU-Sim uArch: Shader 11 finished CTA #0 (13934,0), 2 CTAs running
GPGPU-Sim uArch: core: 11, cta: 0 initialized @(13935,0)
GPGPU-Sim uArch: Shader 7 finished CTA #0 (13945,0), 2 CTAs running
GPGPU-Sim uArch: core:  7, cta: 0 initialized @(13946,0)
GPGPU-Sim uArch: Shader 9 finished CTA #0 (13961,0), 2 CTAs running
GPGPU-Sim uArch: core:  9, cta: 0 initialized @(13962,0)
GPGPU-Sim uArch: Shader 10 finished CTA #0 (13990,0), 2 CTAs running
GPGPU-Sim uArch: core: 10, cta: 0 initialized @(13991,0)
GPGPU-Sim uArch: cycles simulated: 14000  inst.: 5376992 (ipc=384.1) sim_rate=298721 (inst/sec) elapsed = 0:0:00:18 / Tue Mar 22 12:54:53 2016
GPGPU-Sim uArch: Shader 6 finished CTA #0 (14007,0), 2 CTAs running
GPGPU-Sim uArch: core:  6, cta: 0 initialized @(14008,0)
GPGPU-Sim uArch: Shader 1 finished CTA #0 (14045,0), 2 CTAs running
GPGPU-Sim uArch: Shader 13 finished CTA #0 (14045,0), 2 CTAs running
GPGPU-Sim uArch: core: 13, cta: 0 initialized @(14046,0)
GPGPU-Sim uArch: core:  1, cta: 0 initialized @(14046,0)
GPGPU-Sim uArch: Shader 12 finished CTA #0 (14049,0), 2 CTAs running
GPGPU-Sim uArch: core: 12, cta: 0 initialized @(14050,0)
GPGPU-Sim PTX: 5600000 instructions simulated : ctaid=(293,0,0) tid=(191,0,0)
GPGPU-Sim uArch: Shader 2 finished CTA #1 (14305,0), 2 CTAs running
GPGPU-Sim uArch: core:  2, cta: 1 initialized @(14306,0)
GPGPU-Sim PTX: 5700000 instructions simulated : ctaid=(299,0,0) tid=(447,0,0)
GPGPU-Sim uArch: Shader 14 finished CTA #1 (14372,0), 2 CTAs running
GPGPU-Sim uArch: core: 14, cta: 1 initialized @(14373,0)
GPGPU-Sim uArch: Shader 5 finished CTA #1 (14388,0), 2 CTAs running
GPGPU-Sim uArch: core:  5, cta: 1 initialized @(14389,0)
GPGPU-Sim uArch: Shader 0 finished CTA #1 (14478,0), 2 CTAs running
GPGPU-Sim uArch: core:  0, cta: 1 initialized @(14479,0)
GPGPU-Sim uArch: Shader 3 finished CTA #1 (14486,0), 2 CTAs running
GPGPU-Sim uArch: core:  3, cta: 1 initialized @(14487,0)
GPGPU-Sim uArch: Shader 8 finished CTA #1 (14502,0), 2 CTAs running
GPGPU-Sim uArch: core:  8, cta: 1 initialized @(14503,0)
GPGPU-Sim uArch: Shader 4 finished CTA #1 (14532,0), 2 CTAs running
GPGPU-Sim uArch: core:  4, cta: 1 initialized @(14533,0)
GPGPU-Sim PTX: 5800000 instructions simulated : ctaid=(312,0,0) tid=(351,0,0)
GPGPU-Sim uArch: Shader 11 finished CTA #1 (14592,0), 2 CTAs running
GPGPU-Sim uArch: core: 11, cta: 1 initialized @(14593,0)
GPGPU-Sim uArch: Shader 7 finished CTA #1 (14599,0), 2 CTAs running
GPGPU-Sim uArch: core:  7, cta: 1 initialized @(14600,0)
GPGPU-Sim uArch: Shader 9 finished CTA #1 (14613,0), 2 CTAs running
GPGPU-Sim uArch: core:  9, cta: 1 initialized @(14614,0)
GPGPU-Sim uArch: Shader 10 finished CTA #1 (14639,0), 2 CTAs running
GPGPU-Sim uArch: core: 10, cta: 1 initialized @(14640,0)
GPGPU-Sim uArch: Shader 6 finished CTA #1 (14674,0), 2 CTAs running
GPGPU-Sim uArch: core:  6, cta: 1 initialized @(14675,0)
GPGPU-Sim uArch: Shader 13 finished CTA #1 (14696,0), 2 CTAs running
GPGPU-Sim uArch: core: 13, cta: 1 initialized @(14697,0)
GPGPU-Sim uArch: Shader 1 finished CTA #1 (14710,0), 2 CTAs running
GPGPU-Sim uArch: core:  1, cta: 1 initialized @(14711,0)
GPGPU-Sim uArch: Shader 12 finished CTA #1 (14720,0), 2 CTAs running
GPGPU-Sim uArch: core: 12, cta: 1 initialized @(14721,0)
GPGPU-Sim PTX: 5900000 instructions simulated : ctaid=(309,0,0) tid=(191,0,0)
GPGPU-Sim uArch: Shader 2 finished CTA #2 (14973,0), 2 CTAs running
GPGPU-Sim uArch: core:  2, cta: 2 initialized @(14974,0)
GPGPU-Sim uArch: cycles simulated: 15000  inst.: 5815264 (ipc=387.7) sim_rate=306066 (inst/sec) elapsed = 0:0:00:19 / Tue Mar 22 12:54:54 2016
GPGPU-Sim uArch: Shader 14 finished CTA #2 (15022,0), 2 CTAs running
GPGPU-Sim uArch: core: 14, cta: 2 initialized @(15023,0)
GPGPU-Sim PTX: 6000000 instructions simulated : ctaid=(321,0,0) tid=(159,0,0)
GPGPU-Sim uArch: Shader 5 finished CTA #2 (15057,0), 2 CTAs running
GPGPU-Sim uArch: core:  5, cta: 2 initialized @(15058,0)
GPGPU-Sim uArch: Shader 3 finished CTA #2 (15131,0), 2 CTAs running
GPGPU-Sim uArch: core:  3, cta: 2 initialized @(15132,0)
GPGPU-Sim uArch: Shader 0 finished CTA #2 (15144,0), 2 CTAs running
GPGPU-Sim uArch: core:  0, cta: 2 initialized @(15145,0)
GPGPU-Sim uArch: Shader 8 finished CTA #2 (15163,0), 2 CTAs running
GPGPU-Sim uArch: core:  8, cta: 2 initialized @(15164,0)
GPGPU-Sim uArch: Shader 4 finished CTA #2 (15199,0), 2 CTAs running
GPGPU-Sim uArch: core:  4, cta: 2 initialized @(15200,0)
GPGPU-Sim uArch: Shader 7 finished CTA #2 (15256,0), 2 CTAs running
GPGPU-Sim uArch: core:  7, cta: 2 initialized @(15257,0)
GPGPU-Sim uArch: Shader 11 finished CTA #2 (15262,0), 2 CTAs running
GPGPU-Sim uArch: core: 11, cta: 2 initialized @(15263,0)
GPGPU-Sim PTX: 6100000 instructions simulated : ctaid=(316,0,0) tid=(127,0,0)
GPGPU-Sim uArch: Shader 9 finished CTA #2 (15290,0), 2 CTAs running
GPGPU-Sim uArch: core:  9, cta: 2 initialized @(15291,0)
GPGPU-Sim uArch: Shader 10 finished CTA #2 (15306,0), 2 CTAs running
GPGPU-Sim uArch: core: 10, cta: 2 initialized @(15307,0)
GPGPU-Sim uArch: Shader 6 finished CTA #2 (15345,0), 2 CTAs running
GPGPU-Sim uArch: core:  6, cta: 2 initialized @(15346,0)
GPGPU-Sim uArch: Shader 13 finished CTA #2 (15369,0), 2 CTAs running
GPGPU-Sim uArch: core: 13, cta: 2 initialized @(15370,0)
GPGPU-Sim uArch: Shader 1 finished CTA #2 (15372,0), 2 CTAs running
GPGPU-Sim uArch: core:  1, cta: 2 initialized @(15373,0)
GPGPU-Sim uArch: Shader 12 finished CTA #2 (15383,0), 2 CTAs running
GPGPU-Sim uArch: core: 12, cta: 2 initialized @(15384,0)
GPGPU-Sim PTX: 6200000 instructions simulated : ctaid=(326,0,0) tid=(223,0,0)
GPGPU-Sim uArch: Shader 2 finished CTA #0 (15623,0), 2 CTAs running
GPGPU-Sim uArch: core:  2, cta: 0 initialized @(15624,0)
GPGPU-Sim uArch: Shader 14 finished CTA #0 (15693,0), 2 CTAs running
GPGPU-Sim uArch: core: 14, cta: 0 initialized @(15694,0)
[...]
gpgpu_stall_shd_mem[l_mem_ld][icnt_rc] = 0
gpgpu_stall_shd_mem[l_mem_ld][wb_icnt_rc] = 0
gpgpu_stall_shd_mem[l_mem_ld][wb_rsrv_fail] = 0
gpgpu_stall_shd_mem[l_mem_st][mshr_rc] = 0
gpgpu_stall_shd_mem[l_mem_st][icnt_rc] = 0
gpgpu_stall_shd_mem[l_mem_ld][wb_icnt_rc] = 0
gpgpu_stall_shd_mem[l_mem_ld][wb_rsrv_fail] = 0
gpu_reg_bank_conflict_stalls = 0
Warp Occupancy Distribution:
Stall:198369	W0_Idle:56197	W0_Scoreboard:953419	W1:0	W2:0	W3:0	W4:0	W5:0	W6:0	W7:0	W8:0	W9:0	W10:0	W11:0	W12:0	W13:0	W14:0	W15:0	W16:0	W17:0	W18:0	W19:0	W20:0	W21:0	W22:0	W23:0	W24:0	W25:0	W26:0	W27:0	W28:39	W29:0	W30:0	W31:0	W32:424176
traffic_breakdown_coretomem[CONST_ACC_R] = 120 {8:15,}
traffic_breakdown_coretomem[GLOBAL_ACC_R] = 114960 {8:14370,}
traffic_breakdown_coretomem[GLOBAL_ACC_W] = 2931480 {136:21555,}
traffic_breakdown_coretomem[INST_ACC_R] = 480 {8:60,}
traffic_breakdown_memtocore[CONST_ACC_R] = 1080 {72:15,}
traffic_breakdown_memtocore[GLOBAL_ACC_R] = 1954320 {136:14370,}
traffic_breakdown_memtocore[GLOBAL_ACC_W] = 172440 {8:21555,}
traffic_breakdown_memtocore[INST_ACC_R] = 8160 {136:60,}
maxmrqlatency = 2188 
maxdqlatency = 0 
maxmflatency = 1882 
averagemflatency = 595 
max_icnt2mem_latency = 1239 
max_icnt2sh_latency = 54941 
mrq_lat_table:16685 	1134 	1628 	2109 	4721 	6630 	8235 	7651 	1251 	224 	30 	2 	0 	0 	0 	0 	0 	0 	0 	0 	0 	0 	0 	0 	0 	0 	0 	0 	0 	0 	0 	0 	
dq_lat_table:0 	0 	0 	0 	0 	0 	0 	0 	0 	0 	0 	0 	0 	0 	0 	0 	0 	0 	0 	0 	0 	0 	0 	0 	0 	0 	0 	0 	0 	0 	0 	0 	
mf_lat_table:0 	0 	0 	0 	0 	0 	0 	7202 	8443 	15750 	4545 	0 	0 	0 	0 	0 	0 	0 	0 	0 	0 	0 	0 	0 	0 	0 	0 	0 	0 	0 	0 	0 	
icnt2mem_lat_table:0 	0 	0 	13079 	3898 	2018 	4558 	6087 	5519 	837 	4 	0 	0 	0 	0 	0 	0 	0 	0 	0 	0 	0 	0 	0 	
icnt2sh_lat_table:0 	0 	0 	9476 	4092 	791 	26 	0 	0 	0 	240 	716 	1453 	2970 	5269 	10907 	0 	0 	0 	0 	0 	0 	0 	0 	
mf_lat_pw_table:0 	0 	0 	0 	0 	0 	0 	39 	4 	48 	17 	0 	0 	0 	0 	0 	0 	0 	0 	0 	0 	0 	0 	0 	0 	0 	0 	0 	0 	0 	0 	0 	
maximum concurrent accesses to same row:
dram[0]:        64        64        64        64        64        64        64        64        64        64        64        64        64        64        64        64 
dram[1]:        64        64        64        64        64        64        64        64        64        64        64        64        64        64        64        64 
dram[2]:        64        64        64        64        64        64        64        64        64        64        64        64        64        64        64        64 
dram[3]:        64        64        64        64        64        64        64        64        64        64        64        64        64        64        64        64 
dram[4]:        64        64        64        64        64        64        64        64        64        64        64        64        64        64        64        64 
dram[5]:        64        64        64        64        64        64        64        64        64        64        64        64        64        64        64        64 
maximum service time to same row:
dram[0]:      8488      8521      8607      8211      8527      8507      8585      9068      8588      8591      8674      8612      8303      8422      8539      8529 
dram[1]:      8536      8519      8230      8183      8524      8507      9053      9066      8568      8570      8610      8590      8412      8411      8541      8517 
dram[2]:      8532      8461      8213      8298      8511      8184      9052      8941      8596      8563      8589      8737      8404      8683      8516      8403 
dram[3]:      8522      8503      8219      8378      8518      8532      9062      9096      8592      8387      8588      8565      8396      8545      8534      8286 
dram[4]:      8056      8500      7944      8375      8508      8532      9022      9086      8568      8380      8663      8585      8025      8497      8328      8256 
dram[5]:      8532      8483      8214      8384      8515      8511      9064      9100      8597      8384      8661      8599      8428      8505      8530      8248 
average row accesses per activate:
dram[0]: 14.714286 18.285715 11.377778 11.906977 13.897436 12.272727 11.826087 10.880000  8.774194  7.771429  6.204819  6.826667  8.677966 12.487804 17.655172 13.837838 
dram[1]: 13.128205 14.222222  8.533334 13.837838 11.061225 10.979591 11.826087 10.074074  8.774194  9.066667  7.211267  7.013699 10.448979 10.893617 17.655172 13.128205 
dram[2]: 14.222222 16.000000  8.258064 12.800000 10.627451 12.363636 10.880000 10.461538  9.066667  7.884058  7.420290  7.013699 11.377778 10.039216 17.655172 12.487804 
dram[3]: 12.800000 14.222222  9.481482 13.837838 11.061225 11.102041 11.826087 10.074074  8.000000  8.918033  7.420290  6.880000 10.448979 10.893617 14.628572 16.516129 
dram[4]: 14.222222 16.000000 10.039216 10.893617 11.531915 11.574468 12.363636 10.074074  9.714286  9.066667  7.641791  7.267606 10.448979 10.893617 15.515152 13.128205 
dram[5]: 16.000000 13.473684 11.636364  9.309091 11.061225 11.574468 11.333333 10.074074  8.774194  7.771429  7.876923  6.701299 10.893617 12.487804 15.515152 17.655172 
average row locality = 50300/4761 = 10.565007
number of total memory accesses made:
dram[0]:         0         0         0         0         0         0         0         0         0         0         0         0         0         0         0         0 
dram[1]:         0         0         0         0         0         0         0         0         0         0         0         0         0         0         0         0 
dram[2]:         0         0         0         0         0         0         0         0         0         0         0         0         0         0         0         0 
dram[3]:         0         0         0         0         0         0         0         0         0         0         0         0         0         0         0         0 
dram[4]:         0         0         0         0         0         0         0         0         0         0         0         0         0         0         0         0 
dram[5]:         0         0         0         0         0         0         0         0         0         0         0         0         0         0         0         0 
total accesses: 0
min_bank_accesses = 0!
min_chip_accesses = 0!
number of total read accesses:
dram[0]:       291       288       288       288       308       307       320       320       320       320       296       294       288       288       288       288 
dram[1]:       289       288       288       288       308       306       320       320       320       320       294       294       288       288       288       288 
dram[2]:       288       288       288       288       308       310       320       320       320       320       294       294       288       288       288       288 
dram[3]:       288       288       288       288       308       310       320       320       320       320       294       296       288       288       288       288 
dram[4]:       288       288       288       288       308       310       320       320       320       320       294       296       288       288       288       288 
dram[5]:       288       288       288       288       308       310       320       320       320       320       294       296       288       288       288       288 
total reads: 28745
bank skew: 320/288 = 1.11
chip skew: 4792/4787 = 1.00
number of total write accesses:
dram[0]:       224       224       224       224       234       233       224       224       224       224       219       218       224       224       224       224 
dram[1]:       223       224       224       224       234       232       224       224       224       224       218       218       224       224       224       224 
dram[2]:       224       224       224       224       234       234       224       224       224       224       218       218       224       224       224       224 
dram[3]:       224       224       224       224       234       234       224       224       224       224       218       220       224       224       224       224 
dram[4]:       224       224       224       224       234       234       224       224       224       224       218       220       224       224       224       224 
dram[5]:       224       224       224       224       234       234       224       224       224       224       218       220       224       224       224       224 
total reads: 21555
bank skew: 234/218 = 1.07
chip skew: 3594/3589 = 1.00
average mf latency per bank:
dram[0]:        507       460       494       466       479       470       483       465       495       467       491       462       495       460       516       480
dram[1]:        378       383       381       399       359       390       386       402       377       400       381       386       377       398       391       406
dram[2]:        412       425       419       428       426       408       408       419       429       419       421       403       420       433       434       432
dram[3]:        422       451       433       464       422       457       429       446       438       439       433       439       433       441       440       474
dram[4]:        374       392       394       405       370       397       382       397       396       385       374       382       385       390       394       386
dram[5]:        423       423       438       430       431       420       437       419       441       432       423       420       432       441       442       436
maximum mf latency per bank:
dram[0]:       1882      1550      1766      1451      1648      1486      1739      1685      1700      1569      1776      1666      1544      1515      1824      1519
dram[1]:       1477      1327      1482      1684      1419      1617      1581      1650      1459      1810      1577      1657      1501      1611      1497      1588
dram[2]:       1526      1450      1649      1629      1688      1487      1522      1412      1526      1611      1575      1414      1423      1575      1504      1466
dram[3]:       1515      1504      1494      1855      1877      1715      1519      1669      1570      1764      1471      1424      1418      1649      1581      1617
dram[4]:       1557      1604      1597      1617      1861      1757      1597      1423      1580      1596      1472      1542      1449      1410      1726      1594
dram[5]:       1347      1553      1502      1735      1507      1601      1395      1432      1713      1537      1374      1477      1371      1503      1435      1612

Number of Memory Banks Accessed per Memory Operation per Warp (from 0):
0	0	0	0	0	0	0	0	0	0	0	0	0	0	0	0	0	0	0	0	0	0	0	0	0	0	0	0	0	0	0	0	0	0	0	0	0	0	0	0	0	0	0	0	0	0	0	0	0	0	0	0	0	0	0	0	0	0	0	0	0	0	0	0	0	0	0	0	0	0	0	0	0	0	0	0	0	0	0	0	0	0	0	0	0	0	0	0	0	0	0	0	0	0	0	0	
Average # of Memory Banks Accessed per Memory Operation per Warp=-nan

position of mrq chosen
0	0	0	0	0	0	0	0	0	0	0	0	0	0	0	0	

average position of mrq chosen = -nan
Memory Partition 0: 
Cache L2_bank_000:
MSHR contents
MSHR: tag=0x802a2880, atomic=0 1 entries : 0x7f16aa0266c0 :  mf: uid=471149, sid14:w29, part=0, addr=0x802a2880, load , size=128, unknown  status = IN_PARTITION_DRAM (54939), 

Cache L2_bank_001:
MSHR contents

In Dram Latency Queue (total = 0): 
DRAM[0]: 16 bks, busW=4 BL=8 CL=12, tRRD=2 tCCD=6, tRCD=12 tRAS=28 tRP=12 tRC=40
n_cmd=72522 n_nop=54198 n_act=786 n_pre=770 n_req=8384 n_rd=9584 n_write=7184 bw_util=0.4624
n_activity=57687 dram_eff=0.5813
bk0: 582a 57285i bk1: 576a 56170i bk2: 576a 57086i bk3: 576a 56515i bk4: 616a 56464i bk5: 614a 55156i bk6: 640a 56268i bk7: 640a 55016i bk8: 640a 56907i bk9: 640a 56578i bk10: 592a 56384i bk11: 588a 56711i bk12: 576a 56121i bk13: 576a 55974i bk14: 576a 55813i bk15: 576a 55569i 
dram_util_bins: 0 0 0 0 0 0 0 0 0 0
dram_eff_bins: 0 0 0 0 0 0 0 0 0 0
mrqq: max=16 avg=9.65667
Memory Partition 1: 
Cache L2_bank_002:
MSHR contents

Cache L2_bank_003:
MSHR contents

In Dram Latency Queue (total = 0): 
DRAM[1]: 16 bks, busW=4 BL=8 CL=12, tRRD=2 tCCD=6, tRCD=12 tRAS=28 tRP=12 tRC=40
n_cmd=72522 n_nop=54186 n_act=800 n_pre=784 n_req=8376 n_rd=9574 n_write=7178 bw_util=0.462
n_activity=56961 dram_eff=0.5882
bk0: 578a 57741i bk1: 576a 57058i bk2: 576a 56008i bk3: 576a 56482i bk4: 616a 55766i bk5: 612a 54746i bk6: 640a 55584i bk7: 640a 54886i bk8: 640a 57401i bk9: 640a 56741i bk10: 588a 56848i bk11: 588a 56725i bk12: 576a 56095i bk13: 576a 55750i bk14: 576a 55740i bk15: 576a 55012i 
dram_util_bins: 0 0 0 0 0 0 0 0 0 0
dram_eff_bins: 0 0 0 0 0 0 0 0 0 0
mrqq: max=16 avg=9.46573
Memory Partition 2: 
Cache L2_bank_004:
MSHR contents

Cache L2_bank_005:
MSHR contents

In Dram Latency Queue (total = 0): 
DRAM[2]: 16 bks, busW=4 BL=8 CL=12, tRRD=2 tCCD=6, tRCD=12 tRAS=28 tRP=12 tRC=40
n_cmd=72522 n_nop=54166 n_act=804 n_pre=788 n_req=8382 n_rd=9580 n_write=7184 bw_util=0.4623
n_activity=57109 dram_eff=0.5871
bk0: 576a 57521i bk1: 576a 56916i bk2: 576a 56601i bk3: 576a 56304i bk4: 616a 55709i bk5: 620a 54596i bk6: 640a 55376i bk7: 640a 55210i bk8: 640a 57726i bk9: 640a 56611i bk10: 588a 57444i bk11: 588a 56667i bk12: 576a 56582i bk13: 576a 55525i bk14: 576a 55323i bk15: 576a 54095i 
dram_util_bins: 0 0 0 0 0 0 0 0 0 0
dram_eff_bins: 0 0 0 0 0 0 0 0 0 0
mrqq: max=16 avg=9.56717
Memory Partition 3: 
Cache L2_bank_006:
MSHR contents

Cache L2_bank_007:
MSHR contents

In Dram Latency Queue (total = 0): 
DRAM[3]: 16 bks, busW=4 BL=8 CL=12, tRRD=2 tCCD=6, tRCD=12 tRAS=28 tRP=12 tRC=40
n_cmd=72522 n_nop=54166 n_act=800 n_pre=784 n_req=8386 n_rd=9584 n_write=7188 bw_util=0.4625
n_activity=57356 dram_eff=0.5848
bk0: 576a 57149i bk1: 576a 56128i bk2: 576a 56489i bk3: 576a 56544i bk4: 616a 55749i bk5: 620a 55369i bk6: 640a 55123i bk7: 640a 54914i bk8: 640a 57508i bk9: 640a 56724i bk10: 588a 56952i bk11: 592a 56325i bk12: 576a 56546i bk13: 576a 55336i bk14: 576a 55648i bk15: 576a 55378i 
dram_util_bins: 0 0 0 0 0 0 0 0 0 0
dram_eff_bins: 0 0 0 0 0 0 0 0 0 0
mrqq: max=16 avg=9.59938
Memory Partition 4: 
Cache L2_bank_008:
MSHR contents

Cache L2_bank_009:
MSHR contents

In Dram Latency Queue (total = 0): 
DRAM[4]: 16 bks, busW=4 BL=8 CL=12, tRRD=2 tCCD=6, tRCD=12 tRAS=28 tRP=12 tRC=40
n_cmd=72522 n_nop=54206 n_act=780 n_pre=764 n_req=8386 n_rd=9584 n_write=7188 bw_util=0.4625
n_activity=56571 dram_eff=0.593
bk0: 576a 56946i bk1: 576a 56461i bk2: 576a 56680i bk3: 576a 55873i bk4: 616a 55613i bk5: 620a 54999i bk6: 640a 55484i bk7: 640a 54644i bk8: 640a 57269i bk9: 640a 56610i bk10: 588a 57179i bk11: 592a 56441i bk12: 576a 55989i bk13: 576a 55689i bk14: 576a 56206i bk15: 576a 54993i 
dram_util_bins: 0 0 0 0 0 0 0 0 0 0
dram_eff_bins: 0 0 0 0 0 0 0 0 0 0
mrqq: max=16 avg=9.31749
Memory Partition 5: 
Cache L2_bank_010:
MSHR contents

Cache L2_bank_011:
MSHR contents

In Dram Latency Queue (total = 0): 
DRAM[5]: 16 bks, busW=4 BL=8 CL=12, tRRD=2 tCCD=6, tRCD=12 tRAS=28 tRP=12 tRC=40
n_cmd=72522 n_nop=54184 n_act=791 n_pre=775 n_req=8386 n_rd=9584 n_write=7188 bw_util=0.4625
n_activity=57296 dram_eff=0.5855
bk0: 576a 57172i bk1: 576a 56721i bk2: 576a 56378i bk3: 576a 55798i bk4: 616a 55748i bk5: 620a 55709i bk6: 640a 55896i bk7: 640a 55009i bk8: 640a 57460i bk9: 640a 56180i bk10: 588a 57801i bk11: 592a 56555i bk12: 576a 55939i bk13: 576a 55590i bk14: 576a 55467i bk15: 576a 55332i 
dram_util_bins: 0 0 0 0 0 0 0 0 0 0
dram_eff_bins: 0 0 0 0 0 0 0 0 0 0
mrqq: max=16 avg=9.59065

========= L2 cache stats =========
L2_cache_bank[0]: Access = 3040, Miss = 2399, Miss_rate = 0.789, Pending_hits = 9, Reservation_fails = 9020
L2_cache_bank[1]: Access = 2991, Miss = 2393, Miss_rate = 0.800, Pending_hits = 0, Reservation_fails = 11098
L2_cache_bank[2]: Access = 3021, Miss = 2395, Miss_rate = 0.793, Pending_hits = 6, Reservation_fails = 222
L2_cache_bank[3]: Access = 2990, Miss = 2392, Miss_rate = 0.800, Pending_hits = 0, Reservation_fails = 22
L2_cache_bank[4]: Access = 2992, Miss = 2394, Miss_rate = 0.800, Pending_hits = 0, Reservation_fails = 2010
L2_cache_bank[5]: Access = 2996, Miss = 2396, Miss_rate = 0.800, Pending_hits = 0, Reservation_fails = 3438
L2_cache_bank[6]: Access = 2992, Miss = 2394, Miss_rate = 0.800, Pending_hits = 0, Reservation_fails = 4898
L2_cache_bank[7]: Access = 2998, Miss = 2398, Miss_rate = 0.800, Pending_hits = 0, Reservation_fails = 9149
L2_cache_bank[8]: Access = 2992, Miss = 2394, Miss_rate = 0.800, Pending_hits = 0, Reservation_fails = 1709
L2_cache_bank[9]: Access = 2998, Miss = 2398, Miss_rate = 0.800, Pending_hits = 0, Reservation_fails = 1776
L2_cache_bank[10]: Access = 2992, Miss = 2394, Miss_rate = 0.800, Pending_hits = 0, Reservation_fails = 16
L2_cache_bank[11]: Access = 2998, Miss = 2398, Miss_rate = 0.800, Pending_hits = 0, Reservation_fails = 13
L2_total_cache_accesses = 36000
L2_total_cache_misses = 28745
L2_total_cache_miss_rate = 0.7985
L2_total_cache_pending_hits = 15
L2_total_cache_reservation_fails = 43371
L2_total_cache_breakdown:
	L2_cache_stats_breakdown[GLOBAL_ACC_R][MISS] = 14370
	L2_cache_stats_breakdown[GLOBAL_ACC_R][RESERVATION_FAIL] = 13260
	L2_cache_stats_breakdown[CONST_ACC_R][HIT] = 11
	L2_cache_stats_breakdown[CONST_ACC_R][HIT_RESERVED] = 3
	L2_cache_stats_breakdown[CONST_ACC_R][MISS] = 1
	L2_cache_stats_breakdown[CONST_ACC_R][RESERVATION_FAIL] = 109
	L2_cache_stats_breakdown[GLOBAL_ACC_W][HIT] = 7185
	L2_cache_stats_breakdown[GLOBAL_ACC_W][MISS] = 14370
	L2_cache_stats_breakdown[GLOBAL_ACC_W][RESERVATION_FAIL] = 29574
	L2_cache_stats_breakdown[INST_ACC_R][HIT] = 44
	L2_cache_stats_breakdown[INST_ACC_R][HIT_RESERVED] = 12
	L2_cache_stats_breakdown[INST_ACC_R][MISS] = 4
	L2_cache_stats_breakdown[INST_ACC_R][RESERVATION_FAIL] = 428
L2_cache_data_port_util = 0.063
L2_cache_fill_port_util = 0.174

icnt_total_pkts_mem_to_simt=93750
icnt_total_pkts_simt_to_mem=122220
LD_mem_lat_dist  0 0 0 0 0 0 0 0 0 0 0 0 0 0 0 0 0 0 0 0 0 0 0 0 0 0 0
ST_mem_lat_dist  0 0 0 0 0 0 0 0 0 0 0 0 0 0 0 0 0 0 0 0 0 0 0 0 0 0 0
----------------------------Interconnect-DETAILS--------------------------------
Class 0:
Packet latency average = 46.6411
	minimum = 6
	maximum = 669
Network latency average = 33.724
	minimum = 6
	maximum = 564
Slowest packet = 30252
Flit latency average = 31.1283
	minimum = 6
	maximum = 564
Slowest flit = 115344
Fragmentation average = 0.886602
	minimum = 0
	maximum = 377
Injected packet rate average = 0.0476835
	minimum = 0.0401397 (at node 8)
	maximum = 0.054017 (at node 17)
Accepted packet rate average = 0.0476835
	minimum = 0.0401397 (at node 8)
	maximum = 0.054017 (at node 17)
Injected flit rate average = 0.14305
	minimum = 0.124925 (at node 18)
	maximum = 0.163185 (at node 10)
Accepted flit rate average= 0.14305
	minimum = 0.0937388 (at node 8)
	maximum = 0.196908 (at node 17)
Injected packet length average = 3
Accepted packet length average = 3
Total in-flight flits = 0 (0 measured)
====== Overall Traffic Statistics ======
====== Traffic class 0 ======
Packet latency average = 29.2601 (2 samples)
	minimum = 6 (2 samples)
	maximum = 381.5 (2 samples)
Network latency average = 22.4248 (2 samples)
	minimum = 6 (2 samples)
	maximum = 314.5 (2 samples)
Flit latency average = 20.2954 (2 samples)
	minimum = 6 (2 samples)
	maximum = 314.5 (2 samples)
Fragmentation average = 0.443301 (2 samples)
	minimum = 0 (2 samples)
	maximum = 188.5 (2 samples)
Injected packet rate average = 0.0487762 (2 samples)
	minimum = 0.0418576 (2 samples)
	maximum = 0.0560045 (2 samples)
Accepted packet rate average = 0.0487762 (2 samples)
	minimum = 0.0418576 (2 samples)
	maximum = 0.0560045 (2 samples)
Injected flit rate average = 0.146303 (2 samples)
	minimum = 0.12764 (2 samples)
	maximum = 0.16998 (2 samples)
Accepted flit rate average = 0.146303 (2 samples)
	minimum = 0.112373 (2 samples)
	maximum = 0.183343 (2 samples)
Injected packet size average = 2.99947 (2 samples)
Accepted packet size average = 2.99947 (2 samples)
Hops average = 1 (2 samples)
