

        *** GPGPU-Sim Simulator Version 3.2.2  [build 0] ***


GPGPU-Sim PTX: simulation mode 0 (can change with PTX_SIM_MODE_FUNC environment variable:
               1=functional simulation only, 0=detailed performance simulator)
GPGPU-Sim: Configuration options:

-network_mode                           1 # Interconnection network mode
-inter_config_file   config_fermi_islip.icnt # Interconnection network config file
-gpgpu_ptx_use_cuobjdump                    1 # Use cuobjdump to extract ptx and sass from binaries
-gpgpu_experimental_lib_support                    0 # Try to extract code from cuda libraries [Broken because of unknown cudaGetExportTable]
-gpgpu_ptx_convert_to_ptxplus                    0 # Convert SASS (native ISA) to ptxplus and run ptxplus
-gpgpu_ptx_force_max_capability                   20 # Force maximum compute capability
-gpgpu_ptx_inst_debug_to_file                    0 # Dump executed instructions' debug information to file
-gpgpu_ptx_inst_debug_file       inst_debug.txt # Executed instructions' debug output file
-gpgpu_ptx_inst_debug_thread_uid                    1 # Thread UID for executed instructions' debug output
-gpgpu_simd_model                       1 # 1 = post-dominator
-gpgpu_shader_core_pipeline              1536:32 # shader core pipeline config, i.e., {<nthread>:<warpsize>}
-gpgpu_tex_cache:l1  4:128:24,L:R:m:N:L,F:128:4,128:2 # per-shader L1 texture cache  (READ-ONLY) config  {<nsets>:<bsize>:<assoc>,<rep>:<wr>:<alloc>:<wr_alloc>,<mshr>:<N>:<merge>,<mq>:<rf>}
-gpgpu_const_cache:l1 64:64:2,L:R:f:N:L,A:2:32,4 # per-shader L1 constant memory cache  (READ-ONLY) config  {<nsets>:<bsize>:<assoc>,<rep>:<wr>:<alloc>:<wr_alloc>,<mshr>:<N>:<merge>,<mq>} 
-gpgpu_cache:il1     4:128:4,L:R:f:N:L,A:2:32,4 # shader L1 instruction cache config  {<nsets>:<bsize>:<assoc>,<rep>:<wr>:<alloc>:<wr_alloc>,<mshr>:<N>:<merge>,<mq>} 
-gpgpu_cache:dl1     32:128:4,L:L:m:N:H,A:32:8,8:2,0,1:0:1:1:0:1,1:4:8:16:32:64,/sciclone/data10/hwang07/GPU_RESEARCH/swl/swl_outputs/RESULTS/swl8/ # per-shader L1 data cache config  {<nsets>:<bsize>:<assoc>,<rep>:<wr>:<alloc>:<wr_alloc>,<mshr>:<N>:<merge>,<mq> | none}
-gpgpu_cache:dl1PrefL1                 none # per-shader L1 data cache config  {<nsets>:<bsize>:<assoc>,<rep>:<wr>:<alloc>:<wr_alloc>,<mshr>:<N>:<merge>,<mq> | none}
-gpgpu_cache:dl1PreShared                 none # per-shader L1 data cache config  {<nsets>:<bsize>:<assoc>,<rep>:<wr>:<alloc>:<wr_alloc>,<mshr>:<N>:<merge>,<mq> | none}
-gmem_skip_L1D                          0 # global memory access skip L1D cache (implements -Xptxas -dlcm=cg, default=no skip)
-gpgpu_perfect_mem                      0 # enable perfect memory mode (no cache miss)
-n_regfile_gating_group                    4 # group of lanes that should be read/written together)
-gpgpu_clock_gated_reg_file                    0 # enable clock gated reg file for power calculations
-gpgpu_clock_gated_lanes                    0 # enable clock gated lanes for power calculations
-gpgpu_shader_registers                32768 # Number of registers per shader core. Limits number of concurrent CTAs. (default 8192)
-gpgpu_shader_cta                       8 # Maximum number of concurrent CTAs in shader (default 8)
-gpgpu_num_cta_barriers                   16 # Maximum number of named barriers per CTA (default 16)
-gpgpu_n_clusters                      15 # number of processing clusters
-gpgpu_n_cores_per_cluster                    1 # number of simd cores per cluster
-gpgpu_n_cluster_ejection_buffer_size                    8 # number of packets in ejection buffer
-gpgpu_n_ldst_response_buffer_size                    2 # number of response packets in ld/st unit ejection buffer
-gpgpu_shmem_size                   16384 # Size of shared memory per shader core (default 16kB)
-gpgpu_shmem_size                   49152 # Size of shared memory per shader core (default 16kB)
-gpgpu_shmem_size_PrefL1                16384 # Size of shared memory per shader core (default 16kB)
-gpgpu_shmem_size_PrefShared                16384 # Size of shared memory per shader core (default 16kB)
-gpgpu_shmem_num_banks                   32 # Number of banks in the shared memory in each shader core (default 16)
-gpgpu_shmem_limited_broadcast                    0 # Limit shared memory to do one broadcast per cycle (default on)
-gpgpu_shmem_warp_parts                    1 # Number of portions a warp is divided into for shared memory bank conflict check 
-gpgpu_warpdistro_shader                   -1 # Specify which shader core to collect the warp size distribution from
-gpgpu_warp_issue_shader                    0 # Specify which shader core to collect the warp issue distribution from
-gpgpu_local_mem_map                    1 # Mapping from local memory space address to simulated GPU physical address space (default = enabled)
-gpgpu_num_reg_banks                   16 # Number of register banks (default = 8)
-gpgpu_reg_bank_use_warp_id                    0 # Use warp ID in mapping registers to banks (default = off)
-gpgpu_operand_collector_num_units_sp                    6 # number of collector units (default = 4)
-gpgpu_operand_collector_num_units_sfu                    8 # number of collector units (default = 4)
-gpgpu_operand_collector_num_units_mem                    2 # number of collector units (default = 2)
-gpgpu_operand_collector_num_units_gen                    0 # number of collector units (default = 0)
-gpgpu_operand_collector_num_in_ports_sp                    2 # number of collector unit in ports (default = 1)
-gpgpu_operand_collector_num_in_ports_sfu                    1 # number of collector unit in ports (default = 1)
-gpgpu_operand_collector_num_in_ports_mem                    1 # number of collector unit in ports (default = 1)
-gpgpu_operand_collector_num_in_ports_gen                    0 # number of collector unit in ports (default = 0)
-gpgpu_operand_collector_num_out_ports_sp                    2 # number of collector unit in ports (default = 1)
-gpgpu_operand_collector_num_out_ports_sfu                    1 # number of collector unit in ports (default = 1)
-gpgpu_operand_collector_num_out_ports_mem                    1 # number of collector unit in ports (default = 1)
-gpgpu_operand_collector_num_out_ports_gen                    0 # number of collector unit in ports (default = 0)
-gpgpu_coalesce_arch                   13 # Coalescing arch (default = 13, anything else is off for now)
-gpgpu_num_sched_per_core                    2 # Number of warp schedulers per core
-gpgpu_max_insn_issue_per_warp                    1 # Max number of instructions that can be issued per warp in one cycle by scheduler
-gpgpu_simt_core_sim_order                    1 # Select the simulation order of cores in a cluster (0=Fix, 1=Round-Robin)
-gpgpu_pipeline_widths        2,1,1,2,1,1,2 # Pipeline widths ID_OC_SP,ID_OC_SFU,ID_OC_MEM,OC_EX_SP,OC_EX_SFU,OC_EX_MEM,EX_WB
-gpgpu_num_sp_units                     2 # Number of SP units (default=1)
-gpgpu_num_sfu_units                    1 # Number of SF units (default=1)
-gpgpu_num_mem_units                    1 # Number if ldst units (default=1) WARNING: not hooked up to anything
-gpgpu_scheduler        warp_limiting:2:8 # Scheduler configuration: < lrr | gto | two_level_active > If two_level_active:<num_active_warps>:<inner_prioritization>:<outer_prioritization>For complete list of prioritization values see shader.h enum scheduler_prioritization_typeDefault: gto
-gpgpu_dram_scheduler                    1 # 0 = fifo, 1 = FR-FCFS (defaul)
-gpgpu_dram_partition_queues              8:8:8:8 # i2$:$2d:d2$:$2i
-l2_ideal                               0 # Use a ideal L2 cache that always hit
-gpgpu_cache:dl2     64:128:8,L:B:m:W:L,A:32:4,4:0,32 # unified banked L2 data cache config  {<nsets>:<bsize>:<assoc>,<rep>:<wr>:<alloc>:<wr_alloc>,<mshr>:<N>:<merge>,<mq>}
-gpgpu_cache:dl2_texture_only                    0 # L2 cache used for texture only
-gpgpu_n_mem                            6 # number of memory modules (e.g. memory controllers) in gpu
-gpgpu_n_sub_partition_per_mchannel                    2 # number of memory subpartition in each memory module
-gpgpu_n_mem_per_ctrlr                    2 # number of memory chips per memory controller
-gpgpu_memlatency_stat                   14 # track and display latency statistics 0x2 enables MC, 0x4 enables queue logs
-gpgpu_frfcfs_dram_sched_queue_size                   16 # 0 = unlimited (default); # entries per chip
-gpgpu_dram_return_queue_size                  116 # 0 = unlimited (default); # entries per chip
-gpgpu_dram_buswidth                    4 # default = 4 bytes (8 bytes per cycle at DDR)
-gpgpu_dram_burst_length                    8 # Burst length of each DRAM request (default = 4 data bus cycle)
-dram_data_command_freq_ratio                    4 # Frequency ratio between DRAM data bus and command bus (default = 2 times, i.e. DDR)
-gpgpu_dram_timing_opt nbk=16:CCD=2:RRD=6:RCD=12:RAS=28:RP=12:RC=40: CL=12:WL=4:CDLR=5:WR=12:nbkgrp=4:CCDL=3:RTPL=2 # DRAM timing parameters = {nbk:tCCD:tRRD:tRCD:tRAS:tRP:tRC:CL:WL:tCDLR:tWR:nbkgrp:tCCDL:tRTPL}
-rop_latency                          120 # ROP queue latency (default 85)
-dram_latency                         100 # DRAM latency (default 30)
-gpgpu_mem_addr_mapping dramid@8;00000000.00000000.00000000.00000000.0000RRRR.RRRRRRRR.BBBCCCCB.CCSSSSSS # mapping memory address to dram model {dramid@<start bit>;<memory address map>}
-gpgpu_mem_addr_test                    0 # run sweep test to check address mapping for aliased address
-gpgpu_mem_address_mask                    1 # 0 = old addressing mask, 1 = new addressing mask, 2 = new add. mask + flipped bank sel and chip sel bits
-gpuwattch_xml_file  gpuwattch_gtx480.xml # GPUWattch XML file
-power_simulation_enabled                    0 # Turn on power simulator (1=On, 0=Off)
-power_per_cycle_dump                    0 # Dump detailed power output each cycle
-power_trace_enabled                    0 # produce a file for the power trace (1=On, 0=Off)
-power_trace_zlevel                     6 # Compression level of the power trace output log (0=no comp, 9=highest)
-steady_power_levels_enabled                    0 # produce a file for the steady power levels (1=On, 0=Off)
-steady_state_definition                  8:4 # allowed deviation:number of samples
-gpgpu_max_cycle                        0 # terminates gpu simulation early (0 = no limit)
-gpgpu_max_insn                         0 # terminates gpu simulation early (0 = no limit)
-gpgpu_max_cta                          0 # terminates gpu simulation early (0 = no limit)
-gpgpu_runtime_stat                   500 # display runtime statistics such as dram utilization {<freq>:<flag>}
-liveness_message_freq                    1 # Minimum number of seconds between simulation liveness messages (0 = always print)
-gpgpu_flush_l1_cache                    0 # Flush L1 cache at the end of each kernel call
-gpgpu_flush_l2_cache                    0 # Flush L2 cache at the end of each kernel call
-gpgpu_deadlock_detect                    1 # Stop the simulation at deadlock (1=on (default), 0=off)
-gpgpu_ptx_instruction_classification                    0 # if enabled will classify ptx instruction types per kernel (Max 255 kernels now)
-gpgpu_ptx_sim_mode                     0 # Select between Performance (default) or Functional simulation (1)
-gpgpu_clock_domains 700.0:700.0:700.0:924.0 # Clock Domain Frequencies in MhZ {<Core Clock>:<ICNT Clock>:<L2 Clock>:<DRAM Clock>}
-gpgpu_max_concurrent_kernel                    8 # maximum kernels that can run concurrently on GPU
-gpgpu_cflog_interval                    0 # Interval between each snapshot in control flow logger
-visualizer_enabled                     0 # Turn on visualizer output (1=On, 0=Off)
-visualizer_outputfile                 NULL # Specifies the output log file for visualizer
-visualizer_zlevel                      6 # Compression level of the visualizer output log (0=no comp, 9=highest)
-trace_enabled                          0 # Turn on traces
-trace_components                    none # comma seperated list of traces to enable. Complete list found in trace_streams.tup. Default none
-trace_sampling_core                    0 # The core which is printed using CORE_DPRINTF. Default 0
-trace_sampling_memory_partition                   -1 # The memory partition which is printed using MEMPART_DPRINTF. Default -1 (i.e. all)
-enable_ptx_file_line_stats                    1 # Turn on PTX source line statistic profiling. (1 = On)
-ptx_line_stats_filename gpgpu_inst_stats.txt # Output file for PTX source line statistics.
-save_embedded_ptx                      0 # saves ptx files embedded in binary as <n>.ptx
-keep                                   0 # keep intermediate files created by GPGPU-Sim when interfacing with external programs
-gpgpu_ptx_save_converted_ptxplus                    0 # Saved converted ptxplus to a file
-ptx_opcode_latency_int         4,13,4,5,145 # Opcode latencies for integers <ADD,MAX,MUL,MAD,DIV>Default 1,1,19,25,145
-ptx_opcode_latency_fp          4,13,4,5,39 # Opcode latencies for single precision floating points <ADD,MAX,MUL,MAD,DIV>Default 1,1,1,1,30
-ptx_opcode_latency_dp         8,19,8,8,330 # Opcode latencies for double precision floating points <ADD,MAX,MUL,MAD,DIV>Default 8,8,8,8,335
-ptx_opcode_initiation_int            1,2,2,1,8 # Opcode initiation intervals for integers <ADD,MAX,MUL,MAD,DIV>Default 1,1,4,4,32
-ptx_opcode_initiation_fp            1,2,1,1,4 # Opcode initiation intervals for single precision floating points <ADD,MAX,MUL,MAD,DIV>Default 1,1,1,1,5
-ptx_opcode_initiation_dp         8,16,8,8,130 # Opcode initiation intervals for double precision floating points <ADD,MAX,MUL,MAD,DIV>Default 8,8,8,8,130
DRAM Timing Options:
nbk                                    16 # number of banks
CCD                                     2 # column to column delay
RRD                                     6 # minimal delay between activation of rows in different banks
RCD                                    12 # row to column delay
RAS                                    28 # time needed to activate row
RP                                     12 # time needed to precharge (deactivate) row
RC                                     40 # row cycle time
CDLR                                    5 # switching from write to read (changes tWTR)
WR                                     12 # last data-in to row precharge
CL                                     12 # CAS latency
WL                                      4 # Write latency
nbkgrp                                  4 # number of bank groups
CCDL                                    3 # column to column delay between accesses to different bank groups
RTPL                                    2 # read to precharge delay between accesses to different bank groups
Total number of memory sub partition = 12
addr_dec_mask[CHIP]  = 0000000000000000 	high:64 low:0
addr_dec_mask[BK]    = 000000000000e100 	high:16 low:8
addr_dec_mask[ROW]   = 000000000fff0000 	high:28 low:16
addr_dec_mask[COL]   = 0000000000001eff 	high:13 low:0
addr_dec_mask[BURST] = 000000000000003f 	high:6 low:0
sub_partition_id_mask = 0000000000000100
GPGPU-Sim uArch: clock freqs: 700000000.000000:700000000.000000:700000000.000000:924000000.000000
GPGPU-Sim uArch: clock periods: 0.00000000142857142857:0.00000000142857142857:0.00000000142857142857:0.00000000108225108225
*** Initializing Memory Statistics ***
GPGPU-Sim uArch: interconnect node map (shaderID+MemID to icntID)
GPGPU-Sim uArch: Memory nodes ID start from index: 15
GPGPU-Sim uArch:    0   1   2   3   4
GPGPU-Sim uArch:    5   6   7   8   9
GPGPU-Sim uArch:   10  11  12  13  14
GPGPU-Sim uArch:   15  16  17  18  19
GPGPU-Sim uArch:   20  21  22  23  24
GPGPU-Sim uArch:   25  26
GPGPU-Sim uArch: interconnect node reverse map (icntID to shaderID+MemID)
GPGPU-Sim uArch: Memory nodes start from ID: 15
GPGPU-Sim uArch:    0   1   2   3   4
GPGPU-Sim uArch:    5   6   7   8   9
GPGPU-Sim uArch:   10  11  12  13  14
GPGPU-Sim uArch:   15  16  17  18  19
GPGPU-Sim uArch:   20  21  22  23  24
GPGPU-Sim uArch:   25  26
401c1b8a3e5a334cce6183153c85d25d  /sciclone/data10/hwang07/adwait/applications/benchmarks/rodinia/cuda/cfd/gpgpu_ptx_sim__cfd
GPGPU-Sim uArch: performance model initialization complete.
GPGPU-Sim PTX: __cudaRegisterFatBinary, fat_cubin_handle = 1, filename=euler3d.cu
self exe links to: /sciclone/data10/hwang07/adwait/applications/benchmarks/rodinia/cuda/cfd/gpgpu_ptx_sim__cfd
Running md5sum using "md5sum /sciclone/data10/hwang07/adwait/applications/benchmarks/rodinia/cuda/cfd/gpgpu_ptx_sim__cfd "
Parsing file _cuobjdump_complete_output_DFGBG5
######### cuobjdump parser ########
## Adding new section ELF
Adding arch: sm_20
Adding identifier: euler3d.cu
## Adding new section PTX
Adding ptx filename: _cuobjdump_1.ptx
Adding arch: sm_20
Adding identifier: euler3d.cu
Done parsing!!!
GPGPU-Sim PTX: __cudaRegisterFunction _Z14cuda_time_stepiiPfS_S_S_ : hostFun 0x0x406564, fat_cubin_handle = 1
GPGPU-Sim PTX: allocating constant region for "ff_variable" from 0x100 to 0x114 (global memory space) 1
GPGPU-Sim PTX: instruction assembly for function '_Z25cuda_initialize_variablesiPf'...   done.
GPGPU-Sim PTX: finding reconvergence points for '_Z25cuda_initialize_variablesiPf'...
GPGPU-Sim PTX: Finding dominators for '_Z25cuda_initialize_variablesiPf'...
GPGPU-Sim PTX: Finding immediate dominators for '_Z25cuda_initialize_variablesiPf'...
GPGPU-Sim PTX: Finding postdominators for '_Z25cuda_initialize_variablesiPf'...
GPGPU-Sim PTX: Finding immediate postdominators for '_Z25cuda_initialize_variablesiPf'...
GPGPU-Sim PTX: pre-decoding instructions for '_Z25cuda_initialize_variablesiPf'...
GPGPU-Sim PTX: reconvergence points for _Z25cuda_initialize_variablesiPf...
GPGPU-Sim PTX: ... end of reconvergence points for _Z25cuda_initialize_variablesiPf
GPGPU-Sim PTX: ... done pre-decoding instructions for '_Z25cuda_initialize_variablesiPf'.
GPGPU-Sim PTX: instruction assembly for function '_Z24cuda_compute_step_factoriPfS_S_'...   done.
GPGPU-Sim PTX: finding reconvergence points for '_Z24cuda_compute_step_factoriPfS_S_'...
GPGPU-Sim PTX: Finding dominators for '_Z24cuda_compute_step_factoriPfS_S_'...
GPGPU-Sim PTX: Finding immediate dominators for '_Z24cuda_compute_step_factoriPfS_S_'...
GPGPU-Sim PTX: Finding postdominators for '_Z24cuda_compute_step_factoriPfS_S_'...
GPGPU-Sim PTX: Finding immediate postdominators for '_Z24cuda_compute_step_factoriPfS_S_'...
GPGPU-Sim PTX: pre-decoding instructions for '_Z24cuda_compute_step_factoriPfS_S_'...
GPGPU-Sim PTX: reconvergence points for _Z24cuda_compute_step_factoriPfS_S_...
GPGPU-Sim PTX: ... end of reconvergence points for _Z24cuda_compute_step_factoriPfS_S_
GPGPU-Sim PTX: ... done pre-decoding instructions for '_Z24cuda_compute_step_factoriPfS_S_'.
GPGPU-Sim PTX: allocating constant region for "ff_flux_contribution_momentum_x" from 0x180 to 0x18c (global memory space) 2
GPGPU-Sim PTX: allocating constant region for "ff_flux_contribution_momentum_y" from 0x200 to 0x20c (global memory space) 3
GPGPU-Sim PTX: allocating constant region for "ff_flux_contribution_momentum_z" from 0x280 to 0x28c (global memory space) 4
GPGPU-Sim PTX: allocating constant region for "ff_flux_contribution_density_energy" from 0x300 to 0x30c (global memory space) 5
GPGPU-Sim PTX: instruction assembly for function '_Z17cuda_compute_fluxiPiPfS0_S0_'...   done.
GPGPU-Sim PTX: finding reconvergence points for '_Z17cuda_compute_fluxiPiPfS0_S0_'...
GPGPU-Sim PTX: Finding dominators for '_Z17cuda_compute_fluxiPiPfS0_S0_'...
GPGPU-Sim PTX: Finding immediate dominators for '_Z17cuda_compute_fluxiPiPfS0_S0_'...
GPGPU-Sim PTX: Finding postdominators for '_Z17cuda_compute_fluxiPiPfS0_S0_'...
GPGPU-Sim PTX: Finding immediate postdominators for '_Z17cuda_compute_fluxiPiPfS0_S0_'...
GPGPU-Sim PTX: pre-decoding instructions for '_Z17cuda_compute_fluxiPiPfS0_S0_'...
GPGPU-Sim PTX: reconvergence points for _Z17cuda_compute_fluxiPiPfS0_S0_...
GPGPU-Sim PTX:  1 (potential) branch divergence @  PC=0x4c8 (_1.ptx:266) @%p1 bra $Lt_2_3842;
GPGPU-Sim PTX:    immediate post dominator      @  PC=0xc78 (_1.ptx:538) add.u64 %rd40, %rd6, %rd17;
GPGPU-Sim PTX:  2 (potential) branch divergence @  PC=0x910 (_1.ptx:414) bra.uni $Lt_2_3586;
GPGPU-Sim PTX:    immediate post dominator      @  PC=0xc78 (_1.ptx:538) add.u64 %rd40, %rd6, %rd17;
GPGPU-Sim PTX:  3 (potential) branch divergence @  PC=0x928 (_1.ptx:418) @%p2 bra $Lt_2_4354;
GPGPU-Sim PTX:    immediate post dominator      @  PC=0xc78 (_1.ptx:538) add.u64 %rd40, %rd6, %rd17;
GPGPU-Sim PTX:  4 (potential) branch divergence @  PC=0x9d0 (_1.ptx:442) bra.uni $Lt_2_4098;
GPGPU-Sim PTX:    immediate post dominator      @  PC=0xc78 (_1.ptx:538) add.u64 %rd40, %rd6, %rd17;
GPGPU-Sim PTX:  5 (potential) branch divergence @  PC=0x9e8 (_1.ptx:446) @%p3 bra $Lt_2_4866;
GPGPU-Sim PTX:    immediate post dominator      @  PC=0xc78 (_1.ptx:538) add.u64 %rd40, %rd6, %rd17;
GPGPU-Sim PTX:  6 (potential) branch divergence @  PC=0xc48 (_1.ptx:527) bra.uni $Lt_2_4610;
GPGPU-Sim PTX:    immediate post dominator      @  PC=0xc78 (_1.ptx:538) add.u64 %rd40, %rd6, %rd17;
GPGPU-Sim PTX:  7 (potential) branch divergence @  PC=0xd08 (_1.ptx:559) @%p4 bra $Lt_2_5378;
GPGPU-Sim PTX:    immediate post dominator      @  PC=0x1410 (_1.ptx:834) add.u64 %rd63, %rd9, %rd17;
GPGPU-Sim PTX:  8 (potential) branch divergence @  PC=0x1128 (_1.ptx:717) bra.uni $Lt_2_5122;
GPGPU-Sim PTX:    immediate post dominator      @  PC=0x1410 (_1.ptx:834) add.u64 %rd63, %rd9, %rd17;
GPGPU-Sim PTX:  9 (potential) branch divergence @  PC=0x1140 (_1.ptx:721) @%p5 bra $Lt_2_5890;
GPGPU-Sim PTX:    immediate post dominator      @  PC=0x1410 (_1.ptx:834) add.u64 %rd63, %rd9, %rd17;
GPGPU-Sim PTX: 10 (potential) branch divergence @  PC=0x11c0 (_1.ptx:740) bra.uni $Lt_2_5634;
GPGPU-Sim PTX:    immediate post dominator      @  PC=0x1410 (_1.ptx:834) add.u64 %rd63, %rd9, %rd17;
GPGPU-Sim PTX: 11 (potential) branch divergence @  PC=0x11d8 (_1.ptx:744) @%p6 bra $Lt_2_6146;
GPGPU-Sim PTX:    immediate post dominator      @  PC=0x1410 (_1.ptx:834) add.u64 %rd63, %rd9, %rd17;
GPGPU-Sim PTX: 12 (potential) branch divergence @  PC=0x14a0 (_1.ptx:855) @%p7 bra $Lt_2_6914;
GPGPU-Sim PTX:    immediate post dominator      @  PC=0x1ba8 (_1.ptx:1130) add.u64 %rd86, %rd12, %rd17;
GPGPU-Sim PTX: 13 (potential) branch divergence @  PC=0x18c0 (_1.ptx:1013) bra.uni $Lt_2_6658;
GPGPU-Sim PTX:    immediate post dominator      @  PC=0x1ba8 (_1.ptx:1130) add.u64 %rd86, %rd12, %rd17;
GPGPU-Sim PTX: 14 (potential) branch divergence @  PC=0x18d8 (_1.ptx:1017) @%p8 bra $Lt_2_7426;
GPGPU-Sim PTX:    immediate post dominator      @  PC=0x1ba8 (_1.ptx:1130) add.u64 %rd86, %rd12, %rd17;
GPGPU-Sim PTX: 15 (potential) branch divergence @  PC=0x1958 (_1.ptx:1036) bra.uni $Lt_2_7170;
GPGPU-Sim PTX:    immediate post dominator      @  PC=0x1ba8 (_1.ptx:1130) add.u64 %rd86, %rd12, %rd17;
GPGPU-Sim PTX: 16 (potential) branch divergence @  PC=0x1970 (_1.ptx:1040) @%p9 bra $Lt_2_7682;
GPGPU-Sim PTX:    immediate post dominator      @  PC=0x1ba8 (_1.ptx:1130) add.u64 %rd86, %rd12, %rd17;
GPGPU-Sim PTX: 17 (potential) branch divergence @  PC=0x1c38 (_1.ptx:1151) @%p10 bra $Lt_2_8450;
GPGPU-Sim PTX:    immediate post dominator      @  PC=0x2340 (_1.ptx:1426) ld.param.u64 %rd109, [__cudaparm__Z17cuda_compute_fluxiPiPfS0_S0__fluxes];
GPGPU-Sim PTX: 18 (potential) branch divergence @  PC=0x2058 (_1.ptx:1309) bra.uni $Lt_2_8194;
GPGPU-Sim PTX:    immediate post dominator      @  PC=0x2340 (_1.ptx:1426) ld.param.u64 %rd109, [__cudaparm__Z17cuda_compute_fluxiPiPfS0_S0__fluxes];
GPGPU-Sim PTX: 19 (potential) branch divergence @  PC=0x2070 (_1.ptx:1313) @%p11 bra $Lt_2_8962;
GPGPU-Sim PTX:    immediate post dominator      @  PC=0x2340 (_1.ptx:1426) ld.param.u64 %rd109, [__cudaparm__Z17cuda_compute_fluxiPiPfS0_S0__fluxes];
GPGPU-Sim PTX: 20 (potential) branch divergence @  PC=0x20f0 (_1.ptx:1332) bra.uni $Lt_2_8706;
GPGPU-Sim PTX:    immediate post dominator      @  PC=0x2340 (_1.ptx:1426) ld.param.u64 %rd109, [__cudaparm__Z17cuda_compute_fluxiPiPfS0_S0__fluxes];
GPGPU-Sim PTX: 21 (potential) branch divergence @  PC=0x2108 (_1.ptx:1336) @%p12 bra $Lt_2_9218;
GPGPU-Sim PTX:    immediate post dominator      @  PC=0x2340 (_1.ptx:1426) ld.param.u64 %rd109, [__cudaparm__Z17cuda_compute_fluxiPiPfS0_S0__fluxes];
GPGPU-Sim PTX: ... end of reconvergence points for _Z17cuda_compute_fluxiPiPfS0_S0_
GPGPU-Sim PTX: ... done pre-decoding instructions for '_Z17cuda_compute_fluxiPiPfS0_S0_'.
GPGPU-Sim PTX: instruction assembly for function '_Z14cuda_time_stepiiPfS_S_S_'...   done.
GPGPU-Sim PTX: finding reconvergence points for '_Z14cuda_time_stepiiPfS_S_S_'...
GPGPU-Sim PTX: Finding dominators for '_Z14cuda_time_stepiiPfS_S_S_'...
GPGPU-Sim PTX: Finding immediate dominators for '_Z14cuda_time_stepiiPfS_S_S_'...
GPGPU-Sim PTX: Finding postdominators for '_Z14cuda_time_stepiiPfS_S_S_'...
GPGPU-Sim PTX: Finding immediate postdominators for '_Z14cuda_time_stepiiPfS_S_S_'...
GPGPU-Sim PTX: pre-decoding instructions for '_Z14cuda_time_stepiiPfS_S_S_'...
GPGPU-Sim PTX: reconvergence points for _Z14cuda_time_stepiiPfS_S_S_...
GPGPU-Sim PTX: ... end of reconvergence points for _Z14cuda_time_stepiiPfS_S_S_
GPGPU-Sim PTX: ... done pre-decoding instructions for '_Z14cuda_time_stepiiPfS_S_S_'.
GPGPU-Sim PTX: finished parsing EMBEDDED .ptx file _1.ptx
Adding _cuobjdump_1.ptx with cubin handle 1
GPGPU-Sim PTX: extracting embedded .ptx to temporary file "_ptx_pUg3Tj"
Running: cat _ptx_pUg3Tj | sed 's/.version 1.5/.version 1.4/' | sed 's/, texmode_independent//' | sed 's/\(\.extern \.const\[1\] .b8 \w\+\)\[\]/\1\[1\]/' | sed 's/const\[.\]/const\[0\]/g' > _ptx2_wYCKQC
GPGPU-Sim PTX: generating ptxinfo using "$CUDA_INSTALL_PATH/bin/ptxas --gpu-name=sm_20 -v _ptx2_wYCKQC --output-file  /dev/null 2> _ptx_pUg3Tjinfo"
GPGPU-Sim PTX: Kernel '_Z14cuda_time_stepiiPfS_S_S_' : regs=17, lmem=0, smem=0, cmem=152
GPGPU-Sim PTX: Kernel '_Z17cuda_compute_fluxiPiPfS0_S0_' : regs=50, lmem=0, smem=0, cmem=160
GPGPU-Sim PTX: Kernel '_Z24cuda_compute_step_factoriPfS_S_' : regs=16, lmem=0, smem=0, cmem=152
GPGPU-Sim PTX: Kernel '_Z25cuda_initialize_variablesiPf' : regs=17, lmem=0, smem=0, cmem=116
GPGPU-Sim PTX: removing ptxinfo using "rm -f _ptx_pUg3Tj _ptx2_wYCKQC _ptx_pUg3Tjinfo"
GPGPU-Sim PTX: loading globals with explicit initializers... 
GPGPU-Sim PTX: finished loading globals (0 bytes total).
GPGPU-Sim PTX: loading constants with explicit initializers...  done.
GPGPU-Sim PTX: __cudaRegisterFunction _Z17cuda_compute_fluxiPiPfS0_S0_ : hostFun 0x0x406414, fat_cubin_handle = 1
GPGPU-Sim PTX: __cudaRegisterFunction _Z24cuda_compute_step_factoriPfS_S_ : hostFun 0x0x4062f8, fat_cubin_handle = 1
GPGPU-Sim PTX: __cudaRegisterFunction _Z25cuda_initialize_variablesiPf : hostFun 0x0x40621c, fat_cubin_handle = 1
GPGPU-Sim PTX: __cudaRegisterVar: hostVar = 0x629a80; deviceAddress = ff_variable; deviceName = ff_variable
GPGPU-Sim PTX: __cudaRegisterVar: Registering const memory space of 20 bytes
GPGPU-Sim PTX registering constant ff_variable (20 bytes) to name mapping
GPGPU-Sim PTX: __cudaRegisterVar: hostVar = 0x629a94; deviceAddress = ff_flux_contribution_momentum_x; deviceName = ff_flux_contribution_momentum_x
GPGPU-Sim PTX: __cudaRegisterVar: Registering const memory space of 12 bytes
GPGPU-Sim PTX registering constant ff_flux_contribution_momentum_x (12 bytes) to name mapping
GPGPU-Sim PTX: __cudaRegisterVar: hostVar = 0x629aa0; deviceAddress = ff_flux_contribution_momentum_y; deviceName = ff_flux_contribution_momentum_y
GPGPU-Sim PTX: __cudaRegisterVar: Registering const memory space of 12 bytes
GPGPU-Sim PTX registering constant ff_flux_contribution_momentum_y (12 bytes) to name mapping
GPGPU-Sim PTX: __cudaRegisterVar: hostVar = 0x629aac; deviceAddress = ff_flux_contribution_momentum_z; deviceName = ff_flux_contribution_momentum_z
GPGPU-Sim PTX: __cudaRegisterVar: Registering const memory space of 12 bytes
GPGPU-Sim PTX registering constant ff_flux_contribution_momentum_z (12 bytes) to name mapping
GPGPU-Sim PTX: __cudaRegisterVar: hostVar = 0x629ab8; deviceAddress = ff_flux_contribution_density_energy; deviceName = ff_flux_contribution_density_energy
GPGPU-Sim PTX: __cudaRegisterVar: Registering const memory space of 12 bytes
GPGPU-Sim PTX registering constant ff_flux_contribution_density_energy (12 bytes) to name mapping
Name:                     GPGPU-Sim_vGPGPU-Sim Simulator Version 3.2.2 
GPGPU-Sim PTX: cudaMemcpyToSymbol: symbol = 0x629a80
GPGPU-Sim PTX: starting gpgpu_ptx_sim_memcpy_symbol with hostVar 0x0x629a80
GPGPU-Sim PTX: gpgpu_ptx_sim_memcpy_symbol: Found PTX symbol w/ hostVar=0x629a80
GPGPU-Sim PTX: gpgpu_ptx_sim_memcpy_symbol: copying const memory 20 bytes  to  symbol ff_variable+0 @0x100 ...
GPGPU-Sim PTX: cudaMemcpyToSymbol: symbol = 0x629a94
GPGPU-Sim PTX: starting gpgpu_ptx_sim_memcpy_symbol with hostVar 0x0x629a94
GPGPU-Sim PTX: gpgpu_ptx_sim_memcpy_symbol: Found PTX symbol w/ hostVar=0x629a94
GPGPU-Sim PTX: gpgpu_ptx_sim_memcpy_symbol: copying const memory 12 bytes  to  symbol ff_flux_contribution_momentum_x+0 @0x180 ...
GPGPU-Sim PTX: cudaMemcpyToSymbol: symbol = 0x629aa0
GPGPU-Sim PTX: starting gpgpu_ptx_sim_memcpy_symbol with hostVar 0x0x629aa0
GPGPU-Sim PTX: gpgpu_ptx_sim_memcpy_symbol: Found PTX symbol w/ hostVar=0x629aa0
GPGPU-Sim PTX: gpgpu_ptx_sim_memcpy_symbol: copying const memory 12 bytes  to  symbol ff_flux_contribution_momentum_y+0 @0x200 ...
GPGPU-Sim PTX: cudaMemcpyToSymbol: symbol = 0x629aac
GPGPU-Sim PTX: starting gpgpu_ptx_sim_memcpy_symbol with hostVar 0x0x629aac
GPGPU-Sim PTX: gpgpu_ptx_sim_memcpy_symbol: Found PTX symbol w/ hostVar=0x629aac
GPGPU-Sim PTX: gpgpu_ptx_sim_memcpy_symbol: copying const memory 12 bytes  to  symbol ff_flux_contribution_momentum_z+0 @0x280 ...
GPGPU-Sim PTX: cudaMemcpyToSymbol: symbol = 0x629ab8
GPGPU-Sim PTX: starting gpgpu_ptx_sim_memcpy_symbol with hostVar 0x0x629ab8
GPGPU-Sim PTX: gpgpu_ptx_sim_memcpy_symbol: Found PTX symbol w/ hostVar=0x629ab8
GPGPU-Sim PTX: gpgpu_ptx_sim_memcpy_symbol: copying const memory 12 bytes  to  symbol ff_flux_contribution_density_energy+0 @0x300 ...

GPGPU-Sim PTX: cudaLaunch for 0x0x40621c (mode=performance simulation) on stream 0
GPGPU-Sim PTX: pushing kernel '_Z25cuda_initialize_variablesiPf' to stream 0, gridDim= (1008,1,1) blockDim = (192,1,1) 
kernel '_Z25cuda_initialize_variablesiPf' transfer to GPU hardware scheduler
GPGPU-Sim uArch: Shader 1 bind to kernel 1 '_Z25cuda_initialize_variablesiPf'
GPGPU-Sim uArch: CTA/core = 8, limited by: threads regs cta_limit
GPGPU-Sim uArch: core:  1, cta: 0 initialized @(1,0)
GPGPU-Sim uArch: Shader 2 bind to kernel 1 '_Z25cuda_initialize_variablesiPf'
GPGPU-Sim uArch: core:  2, cta: 0 initialized @(1,0)
GPGPU-Sim uArch: Shader 3 bind to kernel 1 '_Z25cuda_initialize_variablesiPf'
GPGPU-Sim uArch: core:  3, cta: 0 initialized @(1,0)
GPGPU-Sim uArch: Shader 4 bind to kernel 1 '_Z25cuda_initialize_variablesiPf'
GPGPU-Sim uArch: core:  4, cta: 0 initialized @(1,0)
GPGPU-Sim uArch: Shader 5 bind to kernel 1 '_Z25cuda_initialize_variablesiPf'
GPGPU-Sim uArch: core:  5, cta: 0 initialized @(1,0)
GPGPU-Sim uArch: Shader 6 bind to kernel 1 '_Z25cuda_initialize_variablesiPf'
GPGPU-Sim uArch: core:  6, cta: 0 initialized @(1,0)
GPGPU-Sim uArch: Shader 7 bind to kernel 1 '_Z25cuda_initialize_variablesiPf'
GPGPU-Sim uArch: core:  7, cta: 0 initialized @(1,0)
GPGPU-Sim uArch: Shader 8 bind to kernel 1 '_Z25cuda_initialize_variablesiPf'
GPGPU-Sim uArch: core:  8, cta: 0 initialized @(1,0)
GPGPU-Sim uArch: Shader 9 bind to kernel 1 '_Z25cuda_initialize_variablesiPf'
GPGPU-Sim uArch: core:  9, cta: 0 initialized @(1,0)
GPGPU-Sim uArch: Shader 10 bind to kernel 1 '_Z25cuda_initialize_variablesiPf'
GPGPU-Sim uArch: core: 10, cta: 0 initialized @(1,0)
GPGPU-Sim uArch: Shader 11 bind to kernel 1 '_Z25cuda_initialize_variablesiPf'
GPGPU-Sim uArch: core: 11, cta: 0 initialized @(1,0)
GPGPU-Sim uArch: Shader 12 bind to kernel 1 '_Z25cuda_initialize_variablesiPf'
GPGPU-Sim uArch: core: 12, cta: 0 initialized @(1,0)
GPGPU-Sim uArch: Shader 13 bind to kernel 1 '_Z25cuda_initialize_variablesiPf'
GPGPU-Sim uArch: core: 13, cta: 0 initialized @(1,0)
GPGPU-Sim uArch: Shader 14 bind to kernel 1 '_Z25cuda_initialize_variablesiPf'
GPGPU-Sim uArch: core: 14, cta: 0 initialized @(1,0)
GPGPU-Sim uArch: Shader 0 bind to kernel 1 '_Z25cuda_initialize_variablesiPf'
GPGPU-Sim uArch: core:  0, cta: 0 initialized @(1,0)
GPGPU-Sim uArch: core:  1, cta: 1 initialized @(2,0)
GPGPU-Sim uArch: core:  2, cta: 1 initialized @(2,0)
GPGPU-Sim uArch: core:  3, cta: 1 initialized @(2,0)
GPGPU-Sim uArch: core:  4, cta: 1 initialized @(2,0)
GPGPU-Sim uArch: core:  5, cta: 1 initialized @(2,0)
GPGPU-Sim uArch: core:  6, cta: 1 initialized @(2,0)
GPGPU-Sim uArch: core:  7, cta: 1 initialized @(2,0)
GPGPU-Sim uArch: core:  8, cta: 1 initialized @(2,0)
GPGPU-Sim uArch: core:  9, cta: 1 initialized @(2,0)
GPGPU-Sim uArch: core: 10, cta: 1 initialized @(2,0)
GPGPU-Sim uArch: core: 11, cta: 1 initialized @(2,0)
GPGPU-Sim uArch: core: 12, cta: 1 initialized @(2,0)
GPGPU-Sim uArch: core: 13, cta: 1 initialized @(2,0)
GPGPU-Sim uArch: core: 14, cta: 1 initialized @(2,0)
GPGPU-Sim uArch: core:  0, cta: 1 initialized @(2,0)
GPGPU-Sim uArch: core:  1, cta: 2 initialized @(3,0)
GPGPU-Sim uArch: core:  2, cta: 2 initialized @(3,0)
GPGPU-Sim uArch: core:  3, cta: 2 initialized @(3,0)
GPGPU-Sim uArch: core:  4, cta: 2 initialized @(3,0)
GPGPU-Sim uArch: core:  5, cta: 2 initialized @(3,0)
GPGPU-Sim uArch: core:  6, cta: 2 initialized @(3,0)
GPGPU-Sim uArch: core:  7, cta: 2 initialized @(3,0)
GPGPU-Sim uArch: core:  8, cta: 2 initialized @(3,0)
GPGPU-Sim uArch: core:  9, cta: 2 initialized @(3,0)
GPGPU-Sim uArch: core: 10, cta: 2 initialized @(3,0)
GPGPU-Sim uArch: core: 11, cta: 2 initialized @(3,0)
GPGPU-Sim uArch: core: 12, cta: 2 initialized @(3,0)
GPGPU-Sim uArch: core: 13, cta: 2 initialized @(3,0)
GPGPU-Sim uArch: core: 14, cta: 2 initialized @(3,0)
GPGPU-Sim uArch: core:  0, cta: 2 initialized @(3,0)
GPGPU-Sim uArch: core:  1, cta: 3 initialized @(4,0)
GPGPU-Sim uArch: core:  2, cta: 3 initialized @(4,0)
GPGPU-Sim uArch: core:  3, cta: 3 initialized @(4,0)
GPGPU-Sim uArch: core:  4, cta: 3 initialized @(4,0)
GPGPU-Sim uArch: core:  5, cta: 3 initialized @(4,0)
GPGPU-Sim uArch: core:  6, cta: 3 initialized @(4,0)
GPGPU-Sim uArch: core:  7, cta: 3 initialized @(4,0)
GPGPU-Sim uArch: core:  8, cta: 3 initialized @(4,0)
GPGPU-Sim uArch: core:  9, cta: 3 initialized @(4,0)
GPGPU-Sim uArch: core: 10, cta: 3 initialized @(4,0)
GPGPU-Sim uArch: core: 11, cta: 3 initialized @(4,0)
GPGPU-Sim uArch: core: 12, cta: 3 initialized @(4,0)
GPGPU-Sim uArch: core: 13, cta: 3 initialized @(4,0)
GPGPU-Sim uArch: core: 14, cta: 3 initialized @(4,0)
GPGPU-Sim uArch: core:  0, cta: 3 initialized @(4,0)
GPGPU-Sim uArch: core:  1, cta: 4 initialized @(5,0)
GPGPU-Sim uArch: core:  2, cta: 4 initialized @(5,0)
GPGPU-Sim uArch: core:  3, cta: 4 initialized @(5,0)
GPGPU-Sim uArch: core:  4, cta: 4 initialized @(5,0)
GPGPU-Sim uArch: core:  5, cta: 4 initialized @(5,0)
GPGPU-Sim uArch: core:  6, cta: 4 initialized @(5,0)
GPGPU-Sim uArch: core:  7, cta: 4 initialized @(5,0)
GPGPU-Sim uArch: core:  8, cta: 4 initialized @(5,0)
GPGPU-Sim uArch: core:  9, cta: 4 initialized @(5,0)
GPGPU-Sim uArch: core: 10, cta: 4 initialized @(5,0)
GPGPU-Sim uArch: core: 11, cta: 4 initialized @(5,0)
GPGPU-Sim uArch: core: 12, cta: 4 initialized @(5,0)
GPGPU-Sim uArch: core: 13, cta: 4 initialized @(5,0)
GPGPU-Sim uArch: core: 14, cta: 4 initialized @(5,0)
GPGPU-Sim uArch: core:  0, cta: 4 initialized @(5,0)
GPGPU-Sim uArch: core:  1, cta: 5 initialized @(6,0)
GPGPU-Sim uArch: core:  2, cta: 5 initialized @(6,0)
GPGPU-Sim uArch: core:  3, cta: 5 initialized @(6,0)
GPGPU-Sim uArch: core:  4, cta: 5 initialized @(6,0)
GPGPU-Sim uArch: core:  5, cta: 5 initialized @(6,0)
GPGPU-Sim uArch: core:  6, cta: 5 initialized @(6,0)
GPGPU-Sim uArch: core:  7, cta: 5 initialized @(6,0)
GPGPU-Sim uArch: core:  8, cta: 5 initialized @(6,0)
GPGPU-Sim uArch: core:  9, cta: 5 initialized @(6,0)
GPGPU-Sim uArch: core: 10, cta: 5 initialized @(6,0)
GPGPU-Sim uArch: core: 11, cta: 5 initialized @(6,0)
GPGPU-Sim uArch: core: 12, cta: 5 initialized @(6,0)
GPGPU-Sim uArch: core: 13, cta: 5 initialized @(6,0)
GPGPU-Sim uArch: core: 14, cta: 5 initialized @(6,0)
GPGPU-Sim uArch: core:  0, cta: 5 initialized @(6,0)
GPGPU-Sim uArch: core:  1, cta: 6 initialized @(7,0)
GPGPU-Sim uArch: core:  2, cta: 6 initialized @(7,0)
GPGPU-Sim uArch: core:  3, cta: 6 initialized @(7,0)
GPGPU-Sim uArch: core:  4, cta: 6 initialized @(7,0)
GPGPU-Sim uArch: core:  5, cta: 6 initialized @(7,0)
GPGPU-Sim uArch: core:  6, cta: 6 initialized @(7,0)
GPGPU-Sim uArch: core:  7, cta: 6 initialized @(7,0)
GPGPU-Sim uArch: core:  8, cta: 6 initialized @(7,0)
GPGPU-Sim uArch: core:  9, cta: 6 initialized @(7,0)
GPGPU-Sim uArch: core: 10, cta: 6 initialized @(7,0)
GPGPU-Sim uArch: core: 11, cta: 6 initialized @(7,0)
GPGPU-Sim uArch: core: 12, cta: 6 initialized @(7,0)
GPGPU-Sim uArch: core: 13, cta: 6 initialized @(7,0)
GPGPU-Sim uArch: core: 14, cta: 6 initialized @(7,0)
GPGPU-Sim uArch: core:  0, cta: 6 initialized @(7,0)
GPGPU-Sim uArch: core:  1, cta: 7 initialized @(8,0)
GPGPU-Sim uArch: core:  2, cta: 7 initialized @(8,0)
GPGPU-Sim uArch: core:  3, cta: 7 initialized @(8,0)
GPGPU-Sim uArch: core:  4, cta: 7 initialized @(8,0)
GPGPU-Sim uArch: core:  5, cta: 7 initialized @(8,0)
GPGPU-Sim uArch: core:  6, cta: 7 initialized @(8,0)
GPGPU-Sim uArch: core:  7, cta: 7 initialized @(8,0)
GPGPU-Sim uArch: core:  8, cta: 7 initialized @(8,0)
GPGPU-Sim uArch: core:  9, cta: 7 initialized @(8,0)
GPGPU-Sim uArch: core: 10, cta: 7 initialized @(8,0)
GPGPU-Sim uArch: core: 11, cta: 7 initialized @(8,0)
GPGPU-Sim uArch: core: 12, cta: 7 initialized @(8,0)
GPGPU-Sim uArch: core: 13, cta: 7 initialized @(8,0)
GPGPU-Sim uArch: core: 14, cta: 7 initialized @(8,0)
GPGPU-Sim uArch: core:  0, cta: 7 initialized @(8,0)
GPGPU-Sim uArch: cycles simulated: 500  inst.: 53760 (ipc=107.5) sim_rate=4887 (inst/sec) elapsed = 0:0:00:11 / Tue Mar 22 12:52:13 2016
GPGPU-Sim PTX: 100000 instructions simulated : ctaid=(26,0,0) tid=(31,0,0)
GPGPU-Sim PTX: 200000 instructions simulated : ctaid=(22,0,0) tid=(31,0,0)
GPGPU-Sim uArch: cycles simulated: 1500  inst.: 229216 (ipc=152.8) sim_rate=19101 (inst/sec) elapsed = 0:0:00:12 / Tue Mar 22 12:52:14 2016
GPGPU-Sim PTX: 300000 instructions simulated : ctaid=(9,0,0) tid=(127,0,0)
GPGPU-Sim uArch: cycles simulated: 3000  inst.: 394560 (ipc=131.5) sim_rate=30350 (inst/sec) elapsed = 0:0:00:13 / Tue Mar 22 12:52:15 2016
GPGPU-Sim PTX: 400000 instructions simulated : ctaid=(30,0,0) tid=(191,0,0)
GPGPU-Sim uArch: Shader 0 finished CTA #0 (3153,0), 7 CTAs running
GPGPU-Sim uArch: core:  0, cta: 0 initialized @(3154,0)
GPGPU-Sim uArch: Shader 4 finished CTA #0 (3161,0), 7 CTAs running
GPGPU-Sim uArch: core:  4, cta: 0 initialized @(3162,0)
GPGPU-Sim uArch: Shader 1 finished CTA #1 (3309,0), 7 CTAs running
GPGPU-Sim uArch: core:  1, cta: 1 initialized @(3310,0)
GPGPU-Sim uArch: Shader 2 finished CTA #0 (3313,0), 7 CTAs running
GPGPU-Sim uArch: core:  2, cta: 0 initialized @(3314,0)
GPGPU-Sim uArch: Shader 4 finished CTA #1 (3378,0), 7 CTAs running
GPGPU-Sim uArch: core:  4, cta: 1 initialized @(3379,0)
GPGPU-Sim uArch: Shader 1 finished CTA #0 (3381,0), 7 CTAs running
GPGPU-Sim uArch: core:  1, cta: 0 initialized @(3382,0)
GPGPU-Sim uArch: Shader 3 finished CTA #0 (3383,0), 7 CTAs running
GPGPU-Sim uArch: core:  3, cta: 0 initialized @(3384,0)
GPGPU-Sim uArch: Shader 13 finished CTA #1 (3448,0), 7 CTAs running
GPGPU-Sim uArch: core: 13, cta: 1 initialized @(3449,0)
GPGPU-Sim uArch: Shader 12 finished CTA #0 (3475,0), 7 CTAs running
GPGPU-Sim uArch: core: 12, cta: 0 initialized @(3476,0)
GPGPU-Sim uArch: Shader 5 finished CTA #0 (3479,0), 7 CTAs running
GPGPU-Sim uArch: core:  5, cta: 0 initialized @(3480,0)
GPGPU-Sim uArch: Shader 2 finished CTA #1 (3591,0), 7 CTAs running
GPGPU-Sim uArch: core:  2, cta: 1 initialized @(3592,0)
GPGPU-Sim PTX: 500000 instructions simulated : ctaid=(115,0,0) tid=(31,0,0)
GPGPU-Sim uArch: Shader 10 finished CTA #0 (3641,0), 7 CTAs running
GPGPU-Sim uArch: core: 10, cta: 0 initialized @(3642,0)
GPGPU-Sim uArch: Shader 11 finished CTA #0 (3694,0), 7 CTAs running
GPGPU-Sim uArch: core: 11, cta: 0 initialized @(3695,0)
GPGPU-Sim uArch: Shader 6 finished CTA #0 (3699,0), 7 CTAs running
GPGPU-Sim uArch: Shader 13 finished CTA #0 (3699,0), 7 CTAs running
GPGPU-Sim uArch: core: 13, cta: 0 initialized @(3700,0)
GPGPU-Sim uArch: core:  6, cta: 0 initialized @(3700,0)
GPGPU-Sim uArch: Shader 5 finished CTA #1 (3753,0), 7 CTAs running
GPGPU-Sim uArch: core:  5, cta: 1 initialized @(3754,0)
GPGPU-Sim uArch: Shader 2 finished CTA #2 (3807,0), 7 CTAs running
GPGPU-Sim uArch: core:  2, cta: 2 initialized @(3808,0)
GPGPU-Sim uArch: Shader 8 finished CTA #0 (3811,0), 7 CTAs running
GPGPU-Sim uArch: core:  8, cta: 0 initialized @(3812,0)
GPGPU-Sim uArch: Shader 14 finished CTA #0 (3829,0), 7 CTAs running
GPGPU-Sim uArch: core: 14, cta: 0 initialized @(3830,0)
GPGPU-Sim uArch: Shader 9 finished CTA #0 (3869,0), 7 CTAs running
GPGPU-Sim uArch: core:  9, cta: 0 initialized @(3870,0)
GPGPU-Sim uArch: Shader 0 finished CTA #1 (3888,0), 7 CTAs running
GPGPU-Sim uArch: core:  0, cta: 1 initialized @(3889,0)
GPGPU-Sim uArch: Shader 3 finished CTA #1 (3942,0), 7 CTAs running
GPGPU-Sim uArch: core:  3, cta: 1 initialized @(3943,0)
GPGPU-Sim uArch: Shader 9 finished CTA #1 (3949,0), 7 CTAs running
GPGPU-Sim uArch: core:  9, cta: 1 initialized @(3950,0)
GPGPU-Sim uArch: Shader 7 finished CTA #0 (3958,0), 7 CTAs running
GPGPU-Sim uArch: core:  7, cta: 0 initialized @(3959,0)
GPGPU-Sim uArch: Shader 8 finished CTA #1 (3991,0), 7 CTAs running
GPGPU-Sim uArch: core:  8, cta: 1 initialized @(3992,0)
GPGPU-Sim uArch: cycles simulated: 4000  inst.: 518624 (ipc=129.7) sim_rate=37044 (inst/sec) elapsed = 0:0:00:14 / Tue Mar 22 12:52:16 2016
GPGPU-Sim uArch: Shader 14 finished CTA #1 (4053,0), 7 CTAs running
GPGPU-Sim uArch: core: 14, cta: 1 initialized @(4054,0)
GPGPU-Sim uArch: Shader 11 finished CTA #1 (4065,0), 7 CTAs running
GPGPU-Sim uArch: core: 11, cta: 1 initialized @(4066,0)
GPGPU-Sim uArch: Shader 6 finished CTA #1 (4102,0), 7 CTAs running
GPGPU-Sim uArch: core:  6, cta: 1 initialized @(4103,0)
GPGPU-Sim uArch: Shader 3 finished CTA #2 (4104,0), 7 CTAs running
GPGPU-Sim uArch: core:  3, cta: 2 initialized @(4105,0)
GPGPU-Sim uArch: Shader 12 finished CTA #1 (4228,0), 7 CTAs running
GPGPU-Sim uArch: core: 12, cta: 1 initialized @(4229,0)
GPGPU-Sim uArch: Shader 10 finished CTA #1 (4461,0), 7 CTAs running
GPGPU-Sim uArch: core: 10, cta: 1 initialized @(4462,0)
GPGPU-Sim uArch: Shader 1 finished CTA #2 (4493,0), 7 CTAs running
GPGPU-Sim uArch: core:  1, cta: 2 initialized @(4494,0)
GPGPU-Sim uArch: Shader 7 finished CTA #1 (4505,0), 7 CTAs running
GPGPU-Sim uArch: core:  7, cta: 1 initialized @(4506,0)
GPGPU-Sim PTX: 600000 instructions simulated : ctaid=(93,0,0) tid=(159,0,0)
GPGPU-Sim uArch: Shader 5 finished CTA #2 (4810,0), 7 CTAs running
GPGPU-Sim uArch: core:  5, cta: 2 initialized @(4811,0)
GPGPU-Sim uArch: Shader 4 finished CTA #2 (4925,0), 7 CTAs running
GPGPU-Sim uArch: core:  4, cta: 2 initialized @(4926,0)
GPGPU-Sim uArch: Shader 11 finished CTA #2 (4932,0), 7 CTAs running
GPGPU-Sim uArch: core: 11, cta: 2 initialized @(4933,0)
GPGPU-Sim uArch: Shader 10 finished CTA #2 (5119,0), 7 CTAs running
GPGPU-Sim uArch: core: 10, cta: 2 initialized @(5120,0)
GPGPU-Sim PTX: 700000 instructions simulated : ctaid=(62,0,0) tid=(127,0,0)
GPGPU-Sim uArch: Shader 13 finished CTA #2 (5418,0), 7 CTAs running
GPGPU-Sim uArch: core: 13, cta: 2 initialized @(5419,0)
GPGPU-Sim uArch: cycles simulated: 5500  inst.: 714592 (ipc=129.9) sim_rate=47639 (inst/sec) elapsed = 0:0:00:15 / Tue Mar 22 12:52:17 2016
GPGPU-Sim uArch: Shader 9 finished CTA #2 (5516,0), 7 CTAs running
GPGPU-Sim uArch: core:  9, cta: 2 initialized @(5517,0)
GPGPU-Sim uArch: Shader 14 finished CTA #2 (5660,0), 7 CTAs running
GPGPU-Sim uArch: core: 14, cta: 2 initialized @(5661,0)
GPGPU-Sim uArch: Shader 3 finished CTA #3 (5738,0), 7 CTAs running
GPGPU-Sim uArch: core:  3, cta: 3 initialized @(5739,0)
GPGPU-Sim uArch: Shader 6 finished CTA #2 (5762,0), 7 CTAs running
GPGPU-Sim uArch: core:  6, cta: 2 initialized @(5763,0)
GPGPU-Sim uArch: Shader 5 finished CTA #3 (5914,0), 7 CTAs running
GPGPU-Sim uArch: core:  5, cta: 3 initialized @(5915,0)
GPGPU-Sim uArch: Shader 12 finished CTA #2 (6027,0), 7 CTAs running
GPGPU-Sim uArch: core: 12, cta: 2 initialized @(6028,0)
GPGPU-Sim uArch: Shader 4 finished CTA #3 (6078,0), 7 CTAs running
GPGPU-Sim uArch: core:  4, cta: 3 initialized @(6079,0)
GPGPU-Sim PTX: 800000 instructions simulated : ctaid=(106,0,0) tid=(127,0,0)
GPGPU-Sim uArch: Shader 7 finished CTA #2 (6244,0), 7 CTAs running
GPGPU-Sim uArch: core:  7, cta: 2 initialized @(6245,0)
GPGPU-Sim uArch: Shader 2 finished CTA #3 (6247,0), 7 CTAs running
GPGPU-Sim uArch: core:  2, cta: 3 initialized @(6248,0)
GPGPU-Sim uArch: Shader 9 finished CTA #3 (6283,0), 7 CTAs running
GPGPU-Sim uArch: core:  9, cta: 3 initialized @(6284,0)
GPGPU-Sim uArch: Shader 0 finished CTA #2 (6298,0), 7 CTAs running
GPGPU-Sim uArch: core:  0, cta: 2 initialized @(6299,0)
GPGPU-Sim uArch: Shader 8 finished CTA #2 (6344,0), 7 CTAs running
GPGPU-Sim uArch: core:  8, cta: 2 initialized @(6345,0)
GPGPU-Sim uArch: Shader 12 finished CTA #3 (6396,0), 7 CTAs running
GPGPU-Sim uArch: core: 12, cta: 3 initialized @(6397,0)
GPGPU-Sim uArch: Shader 11 finished CTA #3 (6437,0), 7 CTAs running
GPGPU-Sim uArch: core: 11, cta: 3 initialized @(6438,0)
GPGPU-Sim uArch: Shader 0 finished CTA #3 (6482,0), 7 CTAs running
GPGPU-Sim uArch: core:  0, cta: 3 initialized @(6483,0)
GPGPU-Sim uArch: cycles simulated: 6500  inst.: 840320 (ipc=129.3) sim_rate=52520 (inst/sec) elapsed = 0:0:00:16 / Tue Mar 22 12:52:18 2016
GPGPU-Sim uArch: Shader 10 finished CTA #3 (6644,0), 7 CTAs running
GPGPU-Sim uArch: core: 10, cta: 3 initialized @(6645,0)
GPGPU-Sim uArch: Shader 13 finished CTA #3 (6686,0), 7 CTAs running
GPGPU-Sim uArch: core: 13, cta: 3 initialized @(6687,0)
GPGPU-Sim uArch: Shader 14 finished CTA #3 (6693,0), 7 CTAs running
GPGPU-Sim uArch: core: 14, cta: 3 initialized @(6694,0)
GPGPU-Sim PTX: 900000 instructions simulated : ctaid=(134,0,0) tid=(95,0,0)
GPGPU-Sim uArch: Shader 1 finished CTA #3 (6809,0), 7 CTAs running
GPGPU-Sim uArch: core:  1, cta: 3 initialized @(6810,0)
GPGPU-Sim uArch: Shader 7 finished CTA #3 (6853,0), 7 CTAs running
GPGPU-Sim uArch: core:  7, cta: 3 initialized @(6854,0)
GPGPU-Sim uArch: Shader 3 finished CTA #4 (6936,0), 7 CTAs running
GPGPU-Sim uArch: core:  3, cta: 4 initialized @(6937,0)
GPGPU-Sim uArch: Shader 2 finished CTA #4 (6990,0), 7 CTAs running
GPGPU-Sim uArch: core:  2, cta: 4 initialized @(6991,0)
GPGPU-Sim uArch: Shader 8 finished CTA #3 (7160,0), 7 CTAs running
GPGPU-Sim uArch: core:  8, cta: 3 initialized @(7161,0)
GPGPU-Sim uArch: Shader 7 finished CTA #4 (7499,0), 7 CTAs running
GPGPU-Sim uArch: core:  7, cta: 4 initialized @(7500,0)
GPGPU-Sim uArch: cycles simulated: 7500  inst.: 970080 (ipc=129.3) sim_rate=57063 (inst/sec) elapsed = 0:0:00:17 / Tue Mar 22 12:52:19 2016
GPGPU-Sim uArch: Shader 4 finished CTA #4 (7623,0), 7 CTAs running
GPGPU-Sim uArch: core:  4, cta: 4 initialized @(7624,0)
GPGPU-Sim uArch: Shader 5 finished CTA #4 (7650,0), 7 CTAs running
GPGPU-Sim uArch: core:  5, cta: 4 initialized @(7651,0)
GPGPU-Sim PTX: 1000000 instructions simulated : ctaid=(147,0,0) tid=(95,0,0)
GPGPU-Sim uArch: Shader 12 finished CTA #4 (7806,0), 7 CTAs running
GPGPU-Sim uArch: core: 12, cta: 4 initialized @(7807,0)
GPGPU-Sim uArch: Shader 6 finished CTA #3 (7881,0), 7 CTAs running
GPGPU-Sim uArch: core:  6, cta: 3 initialized @(7882,0)
GPGPU-Sim uArch: Shader 2 finished CTA #5 (7897,0), 7 CTAs running
GPGPU-Sim uArch: core:  2, cta: 5 initialized @(7898,0)
GPGPU-Sim uArch: Shader 9 finished CTA #4 (7940,0), 7 CTAs running
GPGPU-Sim uArch: core:  9, cta: 4 initialized @(7941,0)
GPGPU-Sim uArch: Shader 1 finished CTA #4 (7985,0), 7 CTAs running
GPGPU-Sim uArch: core:  1, cta: 4 initialized @(7986,0)
GPGPU-Sim uArch: Shader 10 finished CTA #4 (7996,0), 7 CTAs running
GPGPU-Sim uArch: core: 10, cta: 4 initialized @(7997,0)
GPGPU-Sim uArch: Shader 13 finished CTA #4 (8000,0), 7 CTAs running
GPGPU-Sim uArch: core: 13, cta: 4 initialized @(8001,0)
GPGPU-Sim uArch: Shader 8 finished CTA #4 (8078,0), 7 CTAs running
GPGPU-Sim uArch: core:  8, cta: 4 initialized @(8079,0)
GPGPU-Sim uArch: Shader 3 finished CTA #5 (8083,0), 7 CTAs running
GPGPU-Sim uArch: core:  3, cta: 5 initialized @(8084,0)
GPGPU-Sim uArch: Shader 11 finished CTA #4 (8236,0), 7 CTAs running
GPGPU-Sim uArch: Shader 14 finished CTA #4 (8236,0), 7 CTAs running
GPGPU-Sim uArch: core: 11, cta: 4 initialized @(8237,0)
GPGPU-Sim uArch: core: 14, cta: 4 initialized @(8237,0)
GPGPU-Sim PTX: 1100000 instructions simulated : ctaid=(108,0,0) tid=(63,0,0)
GPGPU-Sim uArch: Shader 0 finished CTA #4 (8429,0), 7 CTAs running
GPGPU-Sim uArch: core:  0, cta: 4 initialized @(8430,0)
GPGPU-Sim uArch: cycles simulated: 8500  inst.: 1123936 (ipc=132.2) sim_rate=62440 (inst/sec) elapsed = 0:0:00:18 / Tue Mar 22 12:52:20 2016
GPGPU-Sim uArch: Shader 6 finished CTA #4 (8605,0), 7 CTAs running
GPGPU-Sim uArch: core:  6, cta: 4 initialized @(8606,0)
GPGPU-Sim uArch: Shader 9 finished CTA #5 (8616,0), 7 CTAs running
GPGPU-Sim uArch: core:  9, cta: 5 initialized @(8617,0)
GPGPU-Sim uArch: Shader 4 finished CTA #5 (8682,0), 7 CTAs running
GPGPU-Sim uArch: core:  4, cta: 5 initialized @(8683,0)
GPGPU-Sim PTX: 1200000 instructions simulated : ctaid=(103,0,0) tid=(63,0,0)
GPGPU-Sim uArch: Shader 5 finished CTA #5 (8974,0), 7 CTAs running
GPGPU-Sim uArch: core:  5, cta: 5 initialized @(8975,0)
GPGPU-Sim uArch: Shader 8 finished CTA #5 (8980,0), 7 CTAs running
GPGPU-Sim uArch: core:  8, cta: 5 initialized @(8981,0)
GPGPU-Sim uArch: Shader 10 finished CTA #5 (9087,0), 7 CTAs running
GPGPU-Sim uArch: core: 10, cta: 5 initialized @(9088,0)
GPGPU-Sim uArch: Shader 3 finished CTA #6 (9242,0), 7 CTAs running
GPGPU-Sim uArch: core:  3, cta: 6 initialized @(9243,0)
GPGPU-Sim uArch: Shader 12 finished CTA #5 (9320,0), 7 CTAs running
GPGPU-Sim uArch: core: 12, cta: 5 initialized @(9321,0)
GPGPU-Sim uArch: Shader 4 finished CTA #6 (9453,0), 7 CTAs running
GPGPU-Sim uArch: core:  4, cta: 6 initialized @(9454,0)
GPGPU-Sim uArch: Shader 11 finished CTA #5 (9521,0), 7 CTAs running
GPGPU-Sim uArch: core: 11, cta: 5 initialized @(9522,0)
GPGPU-Sim uArch: Shader 14 finished CTA #5 (9603,0), 7 CTAs running
GPGPU-Sim uArch: core: 14, cta: 5 initialized @(9604,0)
GPGPU-Sim uArch: Shader 6 finished CTA #5 (9643,0), 7 CTAs running
GPGPU-Sim uArch: core:  6, cta: 5 initialized @(9644,0)
GPGPU-Sim uArch: Shader 13 finished CTA #5 (9653,0), 7 CTAs running
GPGPU-Sim uArch: core: 13, cta: 5 initialized @(9654,0)
GPGPU-Sim uArch: Shader 2 finished CTA #6 (9656,0), 7 CTAs running
GPGPU-Sim uArch: core:  2, cta: 6 initialized @(9657,0)
GPGPU-Sim uArch: Shader 4 finished CTA #7 (9691,0), 7 CTAs running
GPGPU-Sim uArch: core:  4, cta: 7 initialized @(9692,0)
GPGPU-Sim uArch: Shader 7 finished CTA #5 (9711,0), 7 CTAs running
GPGPU-Sim uArch: core:  7, cta: 5 initialized @(9712,0)
GPGPU-Sim PTX: 1300000 instructions simulated : ctaid=(105,0,0) tid=(63,0,0)
GPGPU-Sim uArch: Shader 11 finished CTA #6 (9860,0), 7 CTAs running
GPGPU-Sim uArch: core: 11, cta: 6 initialized @(9861,0)
GPGPU-Sim uArch: Shader 2 finished CTA #7 (9861,0), 7 CTAs running
GPGPU-Sim uArch: core:  2, cta: 7 initialized @(9862,0)
GPGPU-Sim uArch: Shader 12 finished CTA #6 (9875,0), 7 CTAs running
GPGPU-Sim uArch: core: 12, cta: 6 initialized @(9876,0)
GPGPU-Sim uArch: Shader 0 finished CTA #5 (9920,0), 7 CTAs running
GPGPU-Sim uArch: core:  0, cta: 5 initialized @(9921,0)
GPGPU-Sim uArch: Shader 9 finished CTA #6 (9991,0), 7 CTAs running
GPGPU-Sim uArch: core:  9, cta: 6 initialized @(9992,0)
GPGPU-Sim uArch: cycles simulated: 10000  inst.: 1342912 (ipc=134.3) sim_rate=70679 (inst/sec) elapsed = 0:0:00:19 / Tue Mar 22 12:52:21 2016
GPGPU-Sim uArch: Shader 14 finished CTA #6 (10159,0), 7 CTAs running
GPGPU-Sim uArch: core: 14, cta: 6 initialized @(10160,0)
GPGPU-Sim uArch: Shader 5 finished CTA #6 (10178,0), 7 CTAs running
GPGPU-Sim uArch: core:  5, cta: 6 initialized @(10179,0)
GPGPU-Sim uArch: Shader 1 finished CTA #5 (10195,0), 7 CTAs running
GPGPU-Sim uArch: core:  1, cta: 5 initialized @(10196,0)
GPGPU-Sim uArch: Shader 3 finished CTA #7 (10201,0), 7 CTAs running
GPGPU-Sim uArch: core:  3, cta: 7 initialized @(10202,0)
GPGPU-Sim uArch: Shader 8 finished CTA #6 (10219,0), 7 CTAs running
GPGPU-Sim uArch: core:  8, cta: 6 initialized @(10220,0)
GPGPU-Sim uArch: Shader 4 finished CTA #0 (10328,0), 7 CTAs running
GPGPU-Sim uArch: core:  4, cta: 0 initialized @(10329,0)
GPGPU-Sim PTX: 1400000 instructions simulated : ctaid=(166,0,0) tid=(191,0,0)
GPGPU-Sim uArch: Shader 10 finished CTA #6 (10390,0), 7 CTAs running
GPGPU-Sim uArch: core: 10, cta: 6 initialized @(10391,0)
GPGPU-Sim uArch: Shader 2 finished CTA #0 (10399,0), 7 CTAs running
GPGPU-Sim uArch: core:  2, cta: 0 initialized @(10400,0)
GPGPU-Sim uArch: Shader 0 finished CTA #6 (10470,0), 7 CTAs running
GPGPU-Sim uArch: core:  0, cta: 6 initialized @(10471,0)
GPGPU-Sim uArch: Shader 12 finished CTA #7 (10511,0), 7 CTAs running
GPGPU-Sim uArch: core: 12, cta: 7 initialized @(10512,0)
GPGPU-Sim uArch: Shader 2 finished CTA #1 (10540,0), 7 CTAs running
GPGPU-Sim uArch: core:  2, cta: 1 initialized @(10541,0)
GPGPU-Sim uArch: Shader 7 finished CTA #6 (10556,0), 7 CTAs running
GPGPU-Sim uArch: core:  7, cta: 6 initialized @(10557,0)
GPGPU-Sim uArch: Shader 1 finished CTA #6 (10561,0), 7 CTAs running
GPGPU-Sim uArch: core:  1, cta: 6 initialized @(10562,0)
GPGPU-Sim uArch: Shader 14 finished CTA #7 (10727,0), 7 CTAs running
GPGPU-Sim uArch: core: 14, cta: 7 initialized @(10728,0)
GPGPU-Sim uArch: Shader 13 finished CTA #6 (10731,0), 7 CTAs running
GPGPU-Sim uArch: core: 13, cta: 6 initialized @(10732,0)
GPGPU-Sim uArch: Shader 7 finished CTA #7 (10767,0), 7 CTAs running
GPGPU-Sim uArch: core:  7, cta: 7 initialized @(10768,0)
GPGPU-Sim uArch: Shader 9 finished CTA #7 (10849,0), 7 CTAs running
GPGPU-Sim uArch: core:  9, cta: 7 initialized @(10850,0)
GPGPU-Sim uArch: Shader 11 finished CTA #7 (10859,0), 7 CTAs running
GPGPU-Sim uArch: core: 11, cta: 7 initialized @(10860,0)
GPGPU-Sim uArch: Shader 5 finished CTA #7 (10908,0), 7 CTAs running
GPGPU-Sim uArch: core:  5, cta: 7 initialized @(10909,0)
GPGPU-Sim uArch: Shader 3 finished CTA #0 (10931,0), 7 CTAs running
GPGPU-Sim uArch: core:  3, cta: 0 initialized @(10932,0)
GPGPU-Sim uArch: Shader 10 finished CTA #7 (10952,0), 7 CTAs running
GPGPU-Sim uArch: core: 10, cta: 7 initialized @(10953,0)
GPGPU-Sim uArch: cycles simulated: 11000  inst.: 1493728 (ipc=135.8) sim_rate=74686 (inst/sec) elapsed = 0:0:00:20 / Tue Mar 22 12:52:22 2016
GPGPU-Sim uArch: Shader 0 finished CTA #7 (11000,0), 7 CTAs running
GPGPU-Sim uArch: core:  0, cta: 7 initialized @(11001,0)
GPGPU-Sim uArch: Shader 4 finished CTA #1 (11016,0), 7 CTAs running
GPGPU-Sim uArch: core:  4, cta: 1 initialized @(11017,0)
GPGPU-Sim PTX: 1500000 instructions simulated : ctaid=(228,0,0) tid=(31,0,0)
GPGPU-Sim uArch: Shader 11 finished CTA #0 (11070,0), 7 CTAs running
GPGPU-Sim uArch: core: 11, cta: 0 initialized @(11071,0)
GPGPU-Sim uArch: Shader 13 finished CTA #7 (11087,0), 7 CTAs running
GPGPU-Sim uArch: core: 13, cta: 7 initialized @(11088,0)
GPGPU-Sim uArch: Shader 14 finished CTA #0 (11124,0), 7 CTAs running
GPGPU-Sim uArch: core: 14, cta: 0 initialized @(11125,0)
GPGPU-Sim uArch: Shader 9 finished CTA #0 (11131,0), 7 CTAs running
GPGPU-Sim uArch: core:  9, cta: 0 initialized @(11132,0)
GPGPU-Sim uArch: Shader 1 finished CTA #7 (11209,0), 7 CTAs running
GPGPU-Sim uArch: core:  1, cta: 7 initialized @(11210,0)
GPGPU-Sim uArch: Shader 2 finished CTA #2 (11243,0), 7 CTAs running
GPGPU-Sim uArch: core:  2, cta: 2 initialized @(11244,0)
GPGPU-Sim uArch: Shader 5 finished CTA #0 (11260,0), 7 CTAs running
GPGPU-Sim uArch: core:  5, cta: 0 initialized @(11261,0)
GPGPU-Sim uArch: Shader 10 finished CTA #0 (11265,0), 7 CTAs running
GPGPU-Sim uArch: core: 10, cta: 0 initialized @(11266,0)
GPGPU-Sim uArch: Shader 8 finished CTA #7 (11292,0), 7 CTAs running
GPGPU-Sim uArch: core:  8, cta: 7 initialized @(11293,0)
GPGPU-Sim uArch: Shader 1 finished CTA #1 (11355,0), 7 CTAs running
GPGPU-Sim uArch: core:  1, cta: 1 initialized @(11356,0)
GPGPU-Sim uArch: Shader 6 finished CTA #6 (11374,0), 7 CTAs running
GPGPU-Sim uArch: core:  6, cta: 6 initialized @(11375,0)
GPGPU-Sim uArch: Shader 0 finished CTA #0 (11403,0), 7 CTAs running
GPGPU-Sim uArch: core:  0, cta: 0 initialized @(11404,0)
GPGPU-Sim uArch: Shader 12 finished CTA #0 (11456,0), 7 CTAs running
GPGPU-Sim uArch: core: 12, cta: 0 initialized @(11457,0)
GPGPU-Sim uArch: Shader 14 finished CTA #1 (11484,0), 7 CTAs running
GPGPU-Sim uArch: core: 14, cta: 1 initialized @(11485,0)
GPGPU-Sim uArch: Shader 9 finished CTA #1 (11561,0), 7 CTAs running
GPGPU-Sim uArch: core:  9, cta: 1 initialized @(11562,0)
GPGPU-Sim uArch: Shader 7 finished CTA #0 (11575,0), 7 CTAs running
GPGPU-Sim uArch: core:  7, cta: 0 initialized @(11576,0)
GPGPU-Sim uArch: Shader 10 finished CTA #1 (11663,0), 7 CTAs running
GPGPU-Sim uArch: core: 10, cta: 1 initialized @(11664,0)
GPGPU-Sim uArch: Shader 5 finished CTA #1 (11675,0), 7 CTAs running
GPGPU-Sim uArch: core:  5, cta: 1 initialized @(11676,0)
GPGPU-Sim uArch: Shader 13 finished CTA #1 (11778,0), 7 CTAs running
GPGPU-Sim uArch: core: 13, cta: 1 initialized @(11779,0)
GPGPU-Sim PTX: 1600000 instructions simulated : ctaid=(230,0,0) tid=(95,0,0)
GPGPU-Sim uArch: Shader 3 finished CTA #1 (11957,0), 7 CTAs running
GPGPU-Sim uArch: core:  3, cta: 1 initialized @(11958,0)
GPGPU-Sim uArch: cycles simulated: 12000  inst.: 1634336 (ipc=136.2) sim_rate=77825 (inst/sec) elapsed = 0:0:00:21 / Tue Mar 22 12:52:23 2016
GPGPU-Sim uArch: Shader 11 finished CTA #1 (12082,0), 7 CTAs running
GPGPU-Sim uArch: core: 11, cta: 1 initialized @(12083,0)
GPGPU-Sim uArch: Shader 6 finished CTA #7 (12113,0), 7 CTAs running
GPGPU-Sim uArch: core:  6, cta: 7 initialized @(12114,0)
GPGPU-Sim uArch: Shader 4 finished CTA #2 (12192,0), 7 CTAs running
GPGPU-Sim uArch: core:  4, cta: 2 initialized @(12193,0)
GPGPU-Sim uArch: Shader 0 finished CTA #1 (12265,0), 7 CTAs running
GPGPU-Sim uArch: core:  0, cta: 1 initialized @(12266,0)
GPGPU-Sim uArch: Shader 1 finished CTA #0 (12269,0), 7 CTAs running
GPGPU-Sim uArch: core:  1, cta: 0 initialized @(12270,0)
GPGPU-Sim uArch: Shader 7 finished CTA #1 (12322,0), 7 CTAs running
GPGPU-Sim uArch: core:  7, cta: 1 initialized @(12323,0)
GPGPU-Sim uArch: Shader 6 finished CTA #0 (12324,0), 7 CTAs running
GPGPU-Sim uArch: core:  6, cta: 0 initialized @(12325,0)
GPGPU-Sim uArch: Shader 12 finished CTA #1 (12328,0), 7 CTAs running
GPGPU-Sim uArch: core: 12, cta: 1 initialized @(12329,0)
GPGPU-Sim uArch: Shader 8 finished CTA #0 (12391,0), 7 CTAs running
GPGPU-Sim uArch: core:  8, cta: 0 initialized @(12392,0)
GPGPU-Sim uArch: Shader 13 finished CTA #0 (12393,0), 7 CTAs running
GPGPU-Sim uArch: core: 13, cta: 0 initialized @(12394,0)
GPGPU-Sim uArch: Shader 5 finished CTA #2 (12395,0), 7 CTAs running
GPGPU-Sim uArch: core:  5, cta: 2 initialized @(12396,0)
GPGPU-Sim uArch: Shader 9 finished CTA #2 (12591,0), 7 CTAs running
GPGPU-Sim uArch: core:  9, cta: 2 initialized @(12592,0)
GPGPU-Sim uArch: Shader 5 finished CTA #3 (12593,0), 7 CTAs running
GPGPU-Sim uArch: core:  5, cta: 3 initialized @(12594,0)
GPGPU-Sim PTX: 1700000 instructions simulated : ctaid=(259,0,0) tid=(31,0,0)
GPGPU-Sim uArch: Shader 6 finished CTA #1 (12621,0), 7 CTAs running
GPGPU-Sim uArch: core:  6, cta: 1 initialized @(12622,0)
GPGPU-Sim uArch: Shader 2 finished CTA #3 (12632,0), 7 CTAs running
GPGPU-Sim uArch: core:  2, cta: 3 initialized @(12633,0)
GPGPU-Sim uArch: Shader 10 finished CTA #2 (12659,0), 7 CTAs running
GPGPU-Sim uArch: core: 10, cta: 2 initialized @(12660,0)
GPGPU-Sim uArch: Shader 3 finished CTA #2 (12775,0), 7 CTAs running
GPGPU-Sim uArch: core:  3, cta: 2 initialized @(12776,0)
GPGPU-Sim uArch: Shader 8 finished CTA #1 (12822,0), 7 CTAs running
GPGPU-Sim uArch: core:  8, cta: 1 initialized @(12823,0)
GPGPU-Sim uArch: cycles simulated: 13000  inst.: 1747744 (ipc=134.4) sim_rate=79442 (inst/sec) elapsed = 0:0:00:22 / Tue Mar 22 12:52:24 2016
GPGPU-Sim uArch: Shader 14 finished CTA #2 (13058,0), 7 CTAs running
GPGPU-Sim uArch: core: 14, cta: 2 initialized @(13059,0)
GPGPU-Sim uArch: Shader 11 finished CTA #2 (13101,0), 7 CTAs running
GPGPU-Sim uArch: core: 11, cta: 2 initialized @(13102,0)
GPGPU-Sim uArch: Shader 6 finished CTA #2 (13116,0), 7 CTAs running
GPGPU-Sim uArch: core:  6, cta: 2 initialized @(13117,0)
GPGPU-Sim uArch: Shader 13 finished CTA #2 (13228,0), 7 CTAs running
GPGPU-Sim uArch: core: 13, cta: 2 initialized @(13229,0)
GPGPU-Sim uArch: Shader 0 finished CTA #2 (13241,0), 7 CTAs running
GPGPU-Sim uArch: core:  0, cta: 2 initialized @(13242,0)
GPGPU-Sim uArch: Shader 12 finished CTA #2 (13248,0), 7 CTAs running
GPGPU-Sim uArch: core: 12, cta: 2 initialized @(13249,0)
GPGPU-Sim uArch: Shader 3 finished CTA #3 (13256,0), 7 CTAs running
GPGPU-Sim uArch: core:  3, cta: 3 initialized @(13257,0)
GPGPU-Sim PTX: 1800000 instructions simulated : ctaid=(282,0,0) tid=(159,0,0)
GPGPU-Sim uArch: Shader 5 finished CTA #4 (13303,0), 7 CTAs running
GPGPU-Sim uArch: core:  5, cta: 4 initialized @(13304,0)
GPGPU-Sim uArch: Shader 10 finished CTA #3 (13533,0), 7 CTAs running
GPGPU-Sim uArch: core: 10, cta: 3 initialized @(13534,0)
GPGPU-Sim uArch: Shader 4 finished CTA #3 (13584,0), 7 CTAs running
GPGPU-Sim uArch: core:  4, cta: 3 initialized @(13585,0)
GPGPU-Sim uArch: Shader 8 finished CTA #2 (13717,0), 7 CTAs running
GPGPU-Sim uArch: core:  8, cta: 2 initialized @(13718,0)
GPGPU-Sim uArch: Shader 3 finished CTA #4 (13725,0), 7 CTAs running
GPGPU-Sim uArch: core:  3, cta: 4 initialized @(13726,0)
GPGPU-Sim uArch: Shader 7 finished CTA #2 (13773,0), 7 CTAs running
GPGPU-Sim uArch: core:  7, cta: 2 initialized @(13774,0)
GPGPU-Sim uArch: cycles simulated: 14000  inst.: 1886080 (ipc=134.7) sim_rate=82003 (inst/sec) elapsed = 0:0:00:23 / Tue Mar 22 12:52:25 2016
GPGPU-Sim uArch: Shader 1 finished CTA #2 (14080,0), 7 CTAs running
GPGPU-Sim uArch: core:  1, cta: 2 initialized @(14081,0)
GPGPU-Sim PTX: 1900000 instructions simulated : ctaid=(206,0,0) tid=(191,0,0)
GPGPU-Sim uArch: Shader 12 finished CTA #3 (14182,0), 7 CTAs running
GPGPU-Sim uArch: core: 12, cta: 3 initialized @(14183,0)
GPGPU-Sim uArch: Shader 0 finished CTA #3 (14207,0), 7 CTAs running
GPGPU-Sim uArch: core:  0, cta: 3 initialized @(14208,0)
GPGPU-Sim uArch: Shader 13 finished CTA #3 (14279,0), 7 CTAs running
GPGPU-Sim uArch: core: 13, cta: 3 initialized @(14280,0)
GPGPU-Sim uArch: Shader 4 finished CTA #4 (14355,0), 7 CTAs running
GPGPU-Sim uArch: core:  4, cta: 4 initialized @(14356,0)
GPGPU-Sim uArch: Shader 8 finished CTA #3 (14451,0), 7 CTAs running
GPGPU-Sim uArch: core:  8, cta: 3 initialized @(14452,0)
GPGPU-Sim uArch: Shader 7 finished CTA #3 (14457,0), 7 CTAs running
GPGPU-Sim uArch: core:  7, cta: 3 initialized @(14458,0)
GPGPU-Sim uArch: Shader 3 finished CTA #5 (14491,0), 7 CTAs running
GPGPU-Sim uArch: core:  3, cta: 5 initialized @(14492,0)
GPGPU-Sim uArch: Shader 9 finished CTA #3 (14563,0), 7 CTAs running
GPGPU-Sim uArch: core:  9, cta: 3 initialized @(14564,0)
GPGPU-Sim uArch: Shader 11 finished CTA #3 (14906,0), 7 CTAs running
GPGPU-Sim uArch: core: 11, cta: 3 initialized @(14907,0)
GPGPU-Sim uArch: Shader 6 finished CTA #3 (14958,0), 7 CTAs running
GPGPU-Sim uArch: core:  6, cta: 3 initialized @(14959,0)
GPGPU-Sim PTX: 2000000 instructions simulated : ctaid=(219,0,0) tid=(63,0,0)
GPGPU-Sim uArch: Shader 14 finished CTA #3 (15009,0), 7 CTAs running
GPGPU-Sim uArch: core: 14, cta: 3 initialized @(15010,0)
GPGPU-Sim uArch: Shader 7 finished CTA #4 (15049,0), 7 CTAs running
GPGPU-Sim uArch: core:  7, cta: 4 initialized @(15050,0)
GPGPU-Sim uArch: Shader 1 finished CTA #3 (15053,0), 7 CTAs running
GPGPU-Sim uArch: core:  1, cta: 3 initialized @(15054,0)
GPGPU-Sim uArch: Shader 2 finished CTA #4 (15082,0), 7 CTAs running
GPGPU-Sim uArch: core:  2, cta: 4 initialized @(15083,0)
GPGPU-Sim uArch: Shader 14 finished CTA #4 (15138,0), 7 CTAs running
GPGPU-Sim uArch: core: 14, cta: 4 initialized @(15139,0)
GPGPU-Sim uArch: Shader 4 finished CTA #5 (15206,0), 7 CTAs running
GPGPU-Sim uArch: core:  4, cta: 5 initialized @(15207,0)
GPGPU-Sim uArch: Shader 8 finished CTA #4 (15207,0), 7 CTAs running
GPGPU-Sim uArch: core:  8, cta: 4 initialized @(15208,0)
GPGPU-Sim uArch: Shader 12 finished CTA #4 (15259,0), 7 CTAs running
GPGPU-Sim uArch: core: 12, cta: 4 initialized @(15260,0)
GPGPU-Sim uArch: Shader 3 finished CTA #6 (15412,0), 7 CTAs running
GPGPU-Sim uArch: core:  3, cta: 6 initialized @(15413,0)
GPGPU-Sim uArch: Shader 0 finished CTA #4 (15468,0), 7 CTAs running
GPGPU-Sim uArch: core:  0, cta: 4 initialized @(15469,0)
GPGPU-Sim uArch: cycles simulated: 15500  inst.: 2062464 (ipc=133.1) sim_rate=85936 (inst/sec) elapsed = 0:0:00:24 / Tue Mar 22 12:52:26 2016
GPGPU-Sim uArch: Shader 9 finished CTA #4 (15513,0), 7 CTAs running
GPGPU-Sim uArch: Shader 11 finished CTA #4 (15513,0), 7 CTAs running
GPGPU-Sim uArch: core:  9, cta: 4 initialized @(15514,0)
GPGPU-Sim uArch: core: 11, cta: 4 initialized @(15514,0)
GPGPU-Sim uArch: Shader 14 finished CTA #5 (15572,0), 7 CTAs running
GPGPU-Sim uArch: core: 14, cta: 5 initialized @(15573,0)
GPGPU-Sim uArch: Shader 4 finished CTA #6 (15656,0), 7 CTAs running
GPGPU-Sim uArch: core:  4, cta: 6 initialized @(15657,0)
GPGPU-Sim uArch: Shader 7 finished CTA #5 (15661,0), 7 CTAs running
GPGPU-Sim uArch: core:  7, cta: 5 initialized @(15662,0)
GPGPU-Sim PTX: 2100000 instructions simulated : ctaid=(232,0,0) tid=(63,0,0)
GPGPU-Sim uArch: Shader 1 finished CTA #4 (15787,0), 7 CTAs running
GPGPU-Sim uArch: core:  1, cta: 4 initialized @(15788,0)
GPGPU-Sim uArch: Shader 9 finished CTA #5 (15813,0), 7 CTAs running
GPGPU-Sim uArch: core:  9, cta: 5 initialized @(15814,0)
GPGPU-Sim uArch: Shader 12 finished CTA #5 (15859,0), 7 CTAs running
GPGPU-Sim uArch: core: 12, cta: 5 initialized @(15860,0)
GPGPU-Sim uArch: Shader 13 finished CTA #4 (15960,0), 7 CTAs running
GPGPU-Sim uArch: core: 13, cta: 4 initialized @(15961,0)
GPGPU-Sim uArch: Shader 2 finished CTA #5 (15962,0), 7 CTAs running
GPGPU-Sim uArch: core:  2, cta: 5 initialized @(15963,0)
GPGPU-Sim uArch: Shader 6 finished CTA #4 (15978,0), 7 CTAs running
GPGPU-Sim uArch: core:  6, cta: 4 initialized @(15979,0)
GPGPU-Sim uArch: Shader 14 finished CTA #6 (16076,0), 7 CTAs running
GPGPU-Sim uArch: core: 14, cta: 6 initialized @(16077,0)
GPGPU-Sim uArch: Shader 5 finished CTA #5 (16163,0), 7 CTAs running
GPGPU-Sim uArch: core:  5, cta: 5 initialized @(16164,0)
GPGPU-Sim uArch: Shader 4 finished CTA #7 (16166,0), 7 CTAs running
GPGPU-Sim uArch: core:  4, cta: 7 initialized @(16167,0)
GPGPU-Sim uArch: Shader 0 finished CTA #5 (16197,0), 7 CTAs running
GPGPU-Sim uArch: core:  0, cta: 5 initialized @(16198,0)
GPGPU-Sim uArch: Shader 11 finished CTA #5 (16256,0), 7 CTAs running
GPGPU-Sim uArch: core: 11, cta: 5 initialized @(16257,0)
GPGPU-Sim uArch: Shader 8 finished CTA #5 (16284,0), 7 CTAs running
GPGPU-Sim uArch: core:  8, cta: 5 initialized @(16285,0)
GPGPU-Sim uArch: Shader 7 finished CTA #6 (16350,0), 7 CTAs running
GPGPU-Sim uArch: core:  7, cta: 6 initialized @(16351,0)
GPGPU-Sim PTX: 2200000 instructions simulated : ctaid=(320,0,0) tid=(95,0,0)
GPGPU-Sim uArch: Shader 9 finished CTA #6 (16463,0), 7 CTAs running
GPGPU-Sim uArch: core:  9, cta: 6 initialized @(16464,0)
GPGPU-Sim uArch: Shader 10 finished CTA #4 (16497,0), 7 CTAs running
GPGPU-Sim uArch: core: 10, cta: 4 initialized @(16498,0)
GPGPU-Sim uArch: cycles simulated: 16500  inst.: 2206016 (ipc=133.7) sim_rate=88240 (inst/sec) elapsed = 0:0:00:25 / Tue Mar 22 12:52:27 2016
GPGPU-Sim uArch: Shader 1 finished CTA #5 (16503,0), 7 CTAs running
GPGPU-Sim uArch: core:  1, cta: 5 initialized @(16504,0)
GPGPU-Sim uArch: Shader 14 finished CTA #7 (16510,0), 7 CTAs running
GPGPU-Sim uArch: core: 14, cta: 7 initialized @(16511,0)
GPGPU-Sim uArch: Shader 4 finished CTA #1 (16744,0), 7 CTAs running
GPGPU-Sim uArch: core:  4, cta: 1 initialized @(16745,0)
GPGPU-Sim uArch: Shader 4 finished CTA #0 (16753,0), 7 CTAs running
GPGPU-Sim uArch: core:  4, cta: 0 initialized @(16754,0)
GPGPU-Sim uArch: Shader 3 finished CTA #7 (16760,0), 7 CTAs running
GPGPU-Sim uArch: core:  3, cta: 7 initialized @(16761,0)
GPGPU-Sim uArch: Shader 0 finished CTA #6 (16881,0), 7 CTAs running
GPGPU-Sim uArch: core:  0, cta: 6 initialized @(16882,0)
GPGPU-Sim uArch: Shader 12 finished CTA #6 (16917,0), 7 CTAs running
GPGPU-Sim uArch: core: 12, cta: 6 initialized @(16918,0)
GPGPU-Sim uArch: Shader 8 finished CTA #6 (16944,0), 7 CTAs running
GPGPU-Sim uArch: core:  8, cta: 6 initialized @(16945,0)
GPGPU-Sim uArch: Shader 13 finished CTA #5 (17003,0), 7 CTAs running
GPGPU-Sim uArch: core: 13, cta: 5 initialized @(17004,0)
GPGPU-Sim uArch: Shader 2 finished CTA #6 (17055,0), 7 CTAs running
GPGPU-Sim uArch: core:  2, cta: 6 initialized @(17056,0)
GPGPU-Sim uArch: Shader 11 finished CTA #6 (17104,0), 7 CTAs running
GPGPU-Sim uArch: core: 11, cta: 6 initialized @(17105,0)
GPGPU-Sim uArch: Shader 13 finished CTA #6 (17241,0), 7 CTAs running
GPGPU-Sim uArch: core: 13, cta: 6 initialized @(17242,0)
GPGPU-Sim PTX: 2300000 instructions simulated : ctaid=(323,0,0) tid=(31,0,0)
GPGPU-Sim uArch: Shader 0 finished CTA #7 (17357,0), 7 CTAs running
GPGPU-Sim uArch: core:  0, cta: 7 initialized @(17358,0)
GPGPU-Sim uArch: Shader 14 finished CTA #0 (17427,0), 7 CTAs running
GPGPU-Sim uArch: core: 14, cta: 0 initialized @(17428,0)
GPGPU-Sim uArch: cycles simulated: 17500  inst.: 2316128 (ipc=132.4) sim_rate=89081 (inst/sec) elapsed = 0:0:00:26 / Tue Mar 22 12:52:28 2016
GPGPU-Sim uArch: Shader 7 finished CTA #7 (17573,0), 7 CTAs running
GPGPU-Sim uArch: core:  7, cta: 7 initialized @(17574,0)
GPGPU-Sim uArch: Shader 10 finished CTA #5 (17591,0), 7 CTAs running
GPGPU-Sim uArch: core: 10, cta: 5 initialized @(17592,0)
GPGPU-Sim uArch: Shader 5 finished CTA #6 (17592,0), 7 CTAs running
GPGPU-Sim uArch: Shader 11 finished CTA #7 (17592,0), 7 CTAs running
GPGPU-Sim uArch: core: 11, cta: 7 initialized @(17593,0)
GPGPU-Sim uArch: core:  5, cta: 6 initialized @(17593,0)
GPGPU-Sim uArch: Shader 6 finished CTA #5 (17743,0), 7 CTAs running
GPGPU-Sim uArch: core:  6, cta: 5 initialized @(17744,0)
GPGPU-Sim uArch: Shader 9 finished CTA #7 (17754,0), 7 CTAs running
GPGPU-Sim uArch: core:  9, cta: 7 initialized @(17755,0)
GPGPU-Sim uArch: Shader 3 finished CTA #0 (17788,0), 7 CTAs running
GPGPU-Sim uArch: core:  3, cta: 0 initialized @(17789,0)
GPGPU-Sim uArch: Shader 4 finished CTA #2 (17803,0), 7 CTAs running
GPGPU-Sim uArch: core:  4, cta: 2 initialized @(17804,0)
GPGPU-Sim uArch: Shader 10 finished CTA #6 (17862,0), 7 CTAs running
GPGPU-Sim uArch: core: 10, cta: 6 initialized @(17863,0)
GPGPU-Sim uArch: Shader 8 finished CTA #7 (17895,0), 7 CTAs running
GPGPU-Sim uArch: core:  8, cta: 7 initialized @(17896,0)
GPGPU-Sim uArch: Shader 7 finished CTA #0 (17992,0), 7 CTAs running
GPGPU-Sim uArch: core:  7, cta: 0 initialized @(17993,0)
GPGPU-Sim uArch: Shader 3 finished CTA #1 (18041,0), 7 CTAs running
GPGPU-Sim uArch: core:  3, cta: 1 initialized @(18042,0)
GPGPU-Sim uArch: Shader 6 finished CTA #6 (18131,0), 7 CTAs running
GPGPU-Sim uArch: core:  6, cta: 6 initialized @(18132,0)
GPGPU-Sim PTX: 2400000 instructions simulated : ctaid=(244,0,0) tid=(127,0,0)
GPGPU-Sim uArch: Shader 14 finished CTA #1 (18211,0), 7 CTAs running
GPGPU-Sim uArch: core: 14, cta: 1 initialized @(18212,0)
GPGPU-Sim uArch: Shader 5 finished CTA #7 (18217,0), 7 CTAs running
GPGPU-Sim uArch: core:  5, cta: 7 initialized @(18218,0)
GPGPU-Sim uArch: Shader 0 finished CTA #0 (18254,0), 7 CTAs running
GPGPU-Sim uArch: core:  0, cta: 0 initialized @(18255,0)
GPGPU-Sim uArch: Shader 2 finished CTA #7 (18337,0), 7 CTAs running
GPGPU-Sim uArch: core:  2, cta: 7 initialized @(18338,0)
GPGPU-Sim uArch: Shader 6 finished CTA #7 (18404,0), 7 CTAs running
GPGPU-Sim uArch: core:  6, cta: 7 initialized @(18405,0)
GPGPU-Sim uArch: Shader 10 finished CTA #7 (18409,0), 7 CTAs running
GPGPU-Sim uArch: core: 10, cta: 7 initialized @(18410,0)
GPGPU-Sim uArch: Shader 7 finished CTA #1 (18527,0), 7 CTAs running
GPGPU-Sim uArch: core:  7, cta: 1 initialized @(18528,0)
GPGPU-Sim uArch: Shader 3 finished CTA #2 (18560,0), 7 CTAs running
GPGPU-Sim uArch: core:  3, cta: 2 initialized @(18561,0)
GPGPU-Sim uArch: Shader 13 finished CTA #7 (18566,0), 7 CTAs running
GPGPU-Sim uArch: core: 13, cta: 7 initialized @(18567,0)
GPGPU-Sim uArch: Shader 12 finished CTA #7 (18794,0), 7 CTAs running
GPGPU-Sim uArch: core: 12, cta: 7 initialized @(18795,0)
GPGPU-Sim uArch: Shader 9 finished CTA #0 (18839,0), 7 CTAs running
GPGPU-Sim uArch: core:  9, cta: 0 initialized @(18840,0)
GPGPU-Sim uArch: Shader 1 finished CTA #6 (18841,0), 7 CTAs running
GPGPU-Sim uArch: core:  1, cta: 6 initialized @(18842,0)
GPGPU-Sim uArch: Shader 11 finished CTA #0 (18891,0), 7 CTAs running
GPGPU-Sim uArch: core: 11, cta: 0 initialized @(18892,0)
GPGPU-Sim uArch: Shader 5 finished CTA #0 (18903,0), 7 CTAs running
GPGPU-Sim uArch: core:  5, cta: 0 initialized @(18904,0)
GPGPU-Sim PTX: 2500000 instructions simulated : ctaid=(360,0,0) tid=(95,0,0)
GPGPU-Sim uArch: Shader 6 finished CTA #0 (18949,0), 7 CTAs running
GPGPU-Sim uArch: core:  6, cta: 0 initialized @(18950,0)
GPGPU-Sim uArch: cycles simulated: 19000  inst.: 2507456 (ipc=132.0) sim_rate=92868 (inst/sec) elapsed = 0:0:00:27 / Tue Mar 22 12:52:29 2016
GPGPU-Sim uArch: Shader 8 finished CTA #0 (19008,0), 7 CTAs running
GPGPU-Sim uArch: core:  8, cta: 0 initialized @(19009,0)
GPGPU-Sim uArch: Shader 4 finished CTA #3 (19091,0), 7 CTAs running
GPGPU-Sim uArch: core:  4, cta: 3 initialized @(19092,0)
GPGPU-Sim uArch: Shader 7 finished CTA #2 (19133,0), 7 CTAs running
GPGPU-Sim uArch: core:  7, cta: 2 initialized @(19134,0)
GPGPU-Sim uArch: Shader 11 finished CTA #1 (19174,0), 7 CTAs running
GPGPU-Sim uArch: core: 11, cta: 1 initialized @(19175,0)
GPGPU-Sim uArch: Shader 6 finished CTA #1 (19231,0), 7 CTAs running
GPGPU-Sim uArch: core:  6, cta: 1 initialized @(19232,0)
GPGPU-Sim uArch: Shader 9 finished CTA #1 (19378,0), 7 CTAs running
GPGPU-Sim uArch: core:  9, cta: 1 initialized @(19379,0)
GPGPU-Sim uArch: Shader 5 finished CTA #1 (19390,0), 7 CTAs running
GPGPU-Sim uArch: core:  5, cta: 1 initialized @(19391,0)
GPGPU-Sim uArch: Shader 13 finished CTA #1 (19424,0), 7 CTAs running
GPGPU-Sim uArch: core: 13, cta: 1 initialized @(19425,0)
GPGPU-Sim uArch: Shader 2 finished CTA #0 (19435,0), 7 CTAs running
GPGPU-Sim uArch: core:  2, cta: 0 initialized @(19436,0)
GPGPU-Sim uArch: Shader 8 finished CTA #1 (19466,0), 7 CTAs running
GPGPU-Sim uArch: core:  8, cta: 1 initialized @(19467,0)
GPGPU-Sim uArch: Shader 10 finished CTA #0 (19489,0), 7 CTAs running
GPGPU-Sim uArch: core: 10, cta: 0 initialized @(19490,0)
GPGPU-Sim uArch: Shader 1 finished CTA #7 (19557,0), 7 CTAs running
GPGPU-Sim uArch: core:  1, cta: 7 initialized @(19558,0)
GPGPU-Sim uArch: Shader 1 finished CTA #1 (19706,0), 7 CTAs running
GPGPU-Sim uArch: core:  1, cta: 1 initialized @(19707,0)
GPGPU-Sim uArch: Shader 1 finished CTA #0 (19726,0), 7 CTAs running
GPGPU-Sim uArch: core:  1, cta: 0 initialized @(19727,0)
GPGPU-Sim uArch: Shader 11 finished CTA #2 (19821,0), 7 CTAs running
GPGPU-Sim uArch: core: 11, cta: 2 initialized @(19822,0)
GPGPU-Sim PTX: 2600000 instructions simulated : ctaid=(366,0,0) tid=(159,0,0)
GPGPU-Sim uArch: cycles simulated: 20000  inst.: 2625856 (ipc=131.3) sim_rate=93780 (inst/sec) elapsed = 0:0:00:28 / Tue Mar 22 12:52:30 2016
GPGPU-Sim uArch: Shader 8 finished CTA #2 (20152,0), 7 CTAs running
GPGPU-Sim uArch: core:  8, cta: 2 initialized @(20153,0)
GPGPU-Sim uArch: Shader 3 finished CTA #3 (20211,0), 7 CTAs running
GPGPU-Sim uArch: core:  3, cta: 3 initialized @(20212,0)
GPGPU-Sim uArch: Shader 3 finished CTA #4 (20221,0), 7 CTAs running
GPGPU-Sim uArch: core:  3, cta: 4 initialized @(20222,0)
GPGPU-Sim uArch: Shader 5 finished CTA #2 (20267,0), 7 CTAs running
GPGPU-Sim uArch: core:  5, cta: 2 initialized @(20268,0)
GPGPU-Sim uArch: Shader 2 finished CTA #1 (20278,0), 7 CTAs running
GPGPU-Sim uArch: core:  2, cta: 1 initialized @(20279,0)
GPGPU-Sim uArch: Shader 6 finished CTA #2 (20281,0), 7 CTAs running
GPGPU-Sim uArch: core:  6, cta: 2 initialized @(20282,0)
GPGPU-Sim uArch: Shader 9 finished CTA #2 (20396,0), 7 CTAs running
GPGPU-Sim uArch: core:  9, cta: 2 initialized @(20397,0)
GPGPU-Sim uArch: Shader 10 finished CTA #1 (20397,0), 7 CTAs running
GPGPU-Sim uArch: core: 10, cta: 1 initialized @(20398,0)
GPGPU-Sim uArch: Shader 11 finished CTA #3 (20406,0), 7 CTAs running
GPGPU-Sim uArch: core: 11, cta: 3 initialized @(20407,0)
GPGPU-Sim uArch: Shader 12 finished CTA #0 (20461,0), 7 CTAs running
GPGPU-Sim uArch: core: 12, cta: 0 initialized @(20462,0)
GPGPU-Sim uArch: Shader 2 finished CTA #2 (20493,0), 7 CTAs running
GPGPU-Sim uArch: core:  2, cta: 2 initialized @(20494,0)
GPGPU-Sim uArch: Shader 1 finished CTA #2 (20497,0), 7 CTAs running
GPGPU-Sim uArch: core:  1, cta: 2 initialized @(20498,0)
GPGPU-Sim PTX: 2700000 instructions simulated : ctaid=(283,0,0) tid=(191,0,0)
GPGPU-Sim uArch: Shader 11 finished CTA #4 (20566,0), 7 CTAs running
GPGPU-Sim uArch: core: 11, cta: 4 initialized @(20567,0)
GPGPU-Sim uArch: Shader 4 finished CTA #4 (20604,0), 7 CTAs running
GPGPU-Sim uArch: core:  4, cta: 4 initialized @(20605,0)
GPGPU-Sim uArch: Shader 0 finished CTA #1 (20688,0), 7 CTAs running
GPGPU-Sim uArch: core:  0, cta: 1 initialized @(20689,0)
GPGPU-Sim uArch: Shader 14 finished CTA #2 (20753,0), 7 CTAs running
GPGPU-Sim uArch: core: 14, cta: 2 initialized @(20754,0)
GPGPU-Sim uArch: Shader 13 finished CTA #0 (20761,0), 7 CTAs running
GPGPU-Sim uArch: core: 13, cta: 0 initialized @(20762,0)
GPGPU-Sim uArch: Shader 2 finished CTA #3 (20809,0), 7 CTAs running
GPGPU-Sim uArch: core:  2, cta: 3 initialized @(20810,0)
GPGPU-Sim uArch: Shader 12 finished CTA #1 (20819,0), 7 CTAs running
GPGPU-Sim uArch: core: 12, cta: 1 initialized @(20820,0)
GPGPU-Sim uArch: Shader 7 finished CTA #3 (20825,0), 7 CTAs running
GPGPU-Sim uArch: core:  7, cta: 3 initialized @(20826,0)
GPGPU-Sim uArch: Shader 8 finished CTA #3 (20888,0), 7 CTAs running
GPGPU-Sim uArch: core:  8, cta: 3 initialized @(20889,0)
GPGPU-Sim uArch: cycles simulated: 21000  inst.: 2751008 (ipc=131.0) sim_rate=94862 (inst/sec) elapsed = 0:0:00:29 / Tue Mar 22 12:52:31 2016
GPGPU-Sim uArch: Shader 1 finished CTA #3 (21041,0), 7 CTAs running
GPGPU-Sim uArch: core:  1, cta: 3 initialized @(21042,0)
GPGPU-Sim uArch: Shader 3 finished CTA #5 (21120,0), 7 CTAs running
GPGPU-Sim uArch: core:  3, cta: 5 initialized @(21121,0)
GPGPU-Sim uArch: Shader 10 finished CTA #2 (21150,0), 7 CTAs running
GPGPU-Sim uArch: core: 10, cta: 2 initialized @(21151,0)
GPGPU-Sim uArch: Shader 6 finished CTA #3 (21171,0), 7 CTAs running
GPGPU-Sim uArch: core:  6, cta: 3 initialized @(21172,0)
GPGPU-Sim uArch: Shader 4 finished CTA #5 (21200,0), 7 CTAs running
GPGPU-Sim uArch: core:  4, cta: 5 initialized @(21201,0)
GPGPU-Sim uArch: Shader 3 finished CTA #6 (21231,0), 7 CTAs running
GPGPU-Sim uArch: core:  3, cta: 6 initialized @(21232,0)
GPGPU-Sim PTX: 2800000 instructions simulated : ctaid=(394,0,0) tid=(31,0,0)
GPGPU-Sim uArch: Shader 14 finished CTA #3 (21427,0), 7 CTAs running
[...]
traffic_breakdown_coretomem[INST_ACC_R] = 703208 {8:87901,}
traffic_breakdown_memtocore[CONST_ACC_R] = 6480 {72:90,}
traffic_breakdown_memtocore[GLOBAL_ACC_R] = 197622008 {136:1453103,}
traffic_breakdown_memtocore[GLOBAL_ACC_W] = 1016064 {8:127008,}
traffic_breakdown_memtocore[INST_ACC_R] = 11954536 {136:87901,}
maxmrqlatency = 1282 
maxdqlatency = 0 
maxmflatency = 2474 
averagemflatency = 399 
max_icnt2mem_latency = 1573 
max_icnt2sh_latency = 1468965 
mrq_lat_table:192258 	4809 	7680 	17897 	62278 	53278 	46418 	37162 	16609 	1057 	5 	0 	0 	0 	0 	0 	0 	0 	0 	0 	0 	0 	0 	0 	0 	0 	0 	0 	0 	0 	0 	0 	
dq_lat_table:0 	0 	0 	0 	0 	0 	0 	0 	0 	0 	0 	0 	0 	0 	0 	0 	0 	0 	0 	0 	0 	0 	0 	0 	0 	0 	0 	0 	0 	0 	0 	0 	
mf_lat_table:0 	0 	0 	0 	0 	0 	0 	325570 	959569 	258904 	36087 	71 	0 	0 	0 	0 	0 	0 	0 	0 	0 	0 	0 	0 	0 	0 	0 	0 	0 	0 	0 	0 	
icnt2mem_lat_table:0 	0 	0 	608384 	118499 	164771 	291404 	326155 	139897 	18577 	415 	0 	0 	0 	0 	0 	0 	0 	0 	0 	0 	0 	0 	0 	
icnt2sh_lat_table:0 	0 	0 	57029 	838924 	540576 	16646 	18 	0 	51 	419 	920 	2076 	4335 	8510 	16550 	33861 	31003 	6244 	12735 	10304 	0 	0 	0 	
mf_lat_pw_table:0 	0 	0 	0 	0 	0 	0 	21 	2559 	258 	96 	0 	0 	0 	0 	0 	0 	0 	0 	0 	0 	0 	0 	0 	0 	0 	0 	0 	0 	0 	0 	0 	
maximum concurrent accesses to same row:
dram[0]:        22        26        26        24        20        28        30        26        28        28        32        32        44        36        24        24 
dram[1]:        20        20        20        18        20        30        36        32        28        30        36        34        32        28        22        26 
dram[2]:        18        24        22        24        24        24        34        24        32        30        30        36        44        48        24        28 
dram[3]:        18        24        22        24        20        24        32        28        24        28        30        32        44        48        20        26 
dram[4]:        24        24        24        24        26        24        42        32        28        28        28        32        28        32        26        26 
dram[5]:        24        26        26        24        26        30        30        34        30        30        36        40        36        44        26        22 
maximum service time to same row:
dram[0]:     51870     18327     54879     32184     55042     43172     45399     26734     36565     48606     62218     57265     43516     42586     35759     31981 
dram[1]:     27438     45318     29320     56875     48384     26062     25725     35986     25490     27985     30973     36294     33802     44244     17925     30372 
dram[2]:     27674     51509     30269     58027     86085     29008     46158     46511     55054     49281     36712     51576     34892     30704     23958     40488 
dram[3]:     27596     17753     60116     42006     35993     51608     46147     27976     25876     27525     31893     38125     26874     29275     39394     21750 
dram[4]:     28209     19997     33195     51769     74688     31924     26369     24578     25680     34310     52368     62849     24788     27784     22105     26794 
dram[5]:     42512     31603     26831     42252     90248     46735     36721     31515     54433     61804     76689     43175     48530     29309     36443     24285 
average row accesses per activate:
dram[0]:  2.085155  2.100089  2.038512  2.092992  2.075413  2.009987  2.128955  2.182087  2.057971  2.120000  2.120895  2.148875  2.207063  2.179487  2.105263  2.120307 
dram[1]:  2.005942  2.093694  1.992848  2.052375  2.001266  1.976261  2.037899  2.048165  2.049819  2.049372  2.061083  2.102070  2.108966  2.096022  2.025751  2.041812 
dram[2]:  2.111314  2.080522  2.126416  2.065842  2.065668  2.064257  2.179753  2.173570  2.152080  2.158847  2.135885  2.192974  2.212092  2.349165  2.153244  2.192603 
dram[3]:  2.083822  2.034002  2.146240  2.051327  2.058590  1.999572  2.137566  2.105657  2.051491  2.111628  2.106323  2.107361  2.321373  2.314949  2.164722  2.117594 
dram[4]:  2.007689  2.088648  2.032614  1.998710  2.047220  1.999567  2.040751  2.077715  2.014706  2.114662  2.027778  2.052896  2.090370  2.074808  2.064617  2.080377 
dram[5]:  2.147664  2.093876  2.120658  2.096206  2.100761  2.055215  2.195340  2.178537  2.200886  2.126177  2.219390  2.171693  2.323805  2.229136  2.147114  2.145720 
average row locality = 439451/208955 = 2.103089
number of total memory accesses made:
dram[0]:         0         0         0         0         0         0         0         0         0         0         0         0         0         0         0         0 
dram[1]:         0         0         0         0         0         0         0         0         0         0         0         0         0         0         0         0 
dram[2]:         0         0         0         0         0         0         0         0         0         0         0         0         0         0         0         0 
dram[3]:         0         0         0         0         0         0         0         0         0         0         0         0         0         0         0         0 
dram[4]:         0         0         0         0         0         0         0         0         0         0         0         0         0         0         0         0 
dram[5]:         0         0         0         0         0         0         0         0         0         0         0         0         0         0         0         0 
total accesses: 0
min_bank_accesses = 0!
min_chip_accesses = 0!
number of total read accesses:
dram[0]:      3235      3356      3314      3315      3335      3313      3159      3152      3232      3193      3144      3177      3232      3260      3336      3344 
dram[1]:      3382      3304      3393      3280      3425      3346      3181      3183      3214      3254      3142      3157      3257      3254      3376      3344 
dram[2]:      3284      3281      3349      3331      3371      3314      3132      3124      3188      3105      3152      3120      3280      3169      3335      3221 
dram[3]:      3280      3322      3279      3292      3357      3363      3162      3220      3230      3228      3185      3183      3134      3159      3295      3374 
dram[4]:      3356      3274      3268      3305      3323      3303      3175      3154      3209      3188      3214      3190      3250      3272      3289      3289 
dram[5]:      3252      3340      3296      3297      3375      3378      3146      3182      3158      3204      3129      3153      3141      3289      3268      3368 
total reads: 312443
bank skew: 3425/3105 = 1.10
chip skew: 52492/51756 = 1.01
number of total write accesses:
dram[0]:      1344      1344      1344      1344      1316      1316      1282      1282      1312      1312      1312      1312      1330      1330      1344      1344 
dram[1]:      1344      1344      1344      1344      1316      1316      1282      1282      1312      1312      1312      1312      1330      1330      1344      1344 
dram[2]:      1344      1344      1344      1344      1316      1312      1282      1284      1312      1312      1312      1312      1330      1332      1344      1344 
dram[3]:      1344      1344      1344      1344      1316      1312      1282      1284      1312      1312      1312      1312      1330      1332      1344      1344 
dram[4]:      1344      1344      1344      1344      1316      1312      1282      1284      1312      1312      1312      1312      1330      1332      1344      1344 
dram[5]:      1344      1344      1344      1344      1316      1312      1282      1284      1312      1312      1312      1312      1330      1332      1344      1344 
total reads: 127008
bank skew: 1344/1282 = 1.05
chip skew: 21168/21168 = 1.00
average mf latency per bank:
dram[0]:       1430      1465      1469      1526      1497      1501      1462      1517      1370      1567      1278      1276      1317      1282      1346      1389
dram[1]:       1357      1488      1387      1556      1370      1572      1398      1585      1353      1460      1096      1237      1168      1357      1291      1429
dram[2]:       1406      1568      1438      1667      1468      1662      1510      1660      1506      1659      1210      1326      1251      1392      1403      1477
dram[3]:       1472      1386      1484      1420      1427      1449      1428      1466      1418      1477      1270      1257      1367      1331      1436      1329
dram[4]:       1427      1379      1530      1368      1631      1330      1689      1395      1580      1377      1300      1162      1397      1240      1474      1341
dram[5]:       1611      1543      1666      1577      1606      1560      1657      1552      1684      1484      1339      1259      1418      1349      1528      1508
maximum mf latency per bank:
dram[0]:       1942      1744      1853      1880      2024      1764      1775      2010      1852      1861      2135      1834      1999      1888      1613      1754
dram[1]:       1551      1526      1715      1641      1926      1832      1760      1697      1604      1551      1684      1775      1997      1968      1654      1591
dram[2]:       1951      2013      2474      2180      2352      2223      2046      2010      2266      2199      2003      2110      2166      2411      2094      2073
dram[3]:       1622      1747      1848      1930      1991      1822      2039      1798      1875      1823      1989      1735      1978      1973      1758      1674
dram[4]:       1609      1766      1955      1691      2432      1800      1735      2027      1679      1621      1612      1565      1800      1666      1640      1562
dram[5]:       1916      2091      2425      2054      2155      2227      2196      2345      2117      2235      2053      2170      1958      2131      1805      1897

Number of Memory Banks Accessed per Memory Operation per Warp (from 0):
0	0	0	0	0	0	0	0	0	0	0	0	0	0	0	0	0	0	0	0	0	0	0	0	0	0	0	0	0	0	0	0	0	0	0	0	0	0	0	0	0	0	0	0	0	0	0	0	0	0	0	0	0	0	0	0	0	0	0	0	0	0	0	0	0	0	0	0	0	0	0	0	0	0	0	0	0	0	0	0	0	0	0	0	0	0	0	0	0	0	0	0	0	0	0	0	
Average # of Memory Banks Accessed per Memory Operation per Warp=-nan

position of mrq chosen
0	0	0	0	0	0	0	0	0	0	0	0	0	0	0	0	

average position of mrq chosen = -nan
Memory Partition 0: 
Cache L2_bank_000:
MSHR contents

Cache L2_bank_001:
MSHR contents

In Dram Latency Queue (total = 0): 
DRAM[0]: 16 bks, busW=4 BL=8 CL=12, tRRD=2 tCCD=6, tRCD=12 tRAS=28 tRP=12 tRC=40
n_cmd=1939032 n_nop=1723044 n_act=34737 n_pre=34721 n_req=73265 n_rd=104194 n_write=42336 bw_util=0.1511
n_activity=1078506 dram_eff=0.2717
bk0: 6470a 1814896i bk1: 6712a 1809795i bk2: 6628a 1804412i bk3: 6630a 1803698i bk4: 6670a 1805484i bk5: 6626a 1804117i bk6: 6318a 1814129i bk7: 6304a 1814841i bk8: 6464a 1815658i bk9: 6386a 1816411i bk10: 6288a 1813179i bk11: 6354a 1812958i bk12: 6464a 1810962i bk13: 6520a 1810433i bk14: 6672a 1809631i bk15: 6688a 1807132i 
dram_util_bins: 0 0 0 0 0 0 0 0 0 0
dram_eff_bins: 0 0 0 0 0 0 0 0 0 0
mrqq: max=16 avg=2.40928
Memory Partition 1: 
Cache L2_bank_002:
MSHR contents
MSHR: tag=0x8179f980, atomic=0 1 entries : 0x7fd79e1c3b90 :  mf: uid=28075569, sid04:w11, part=1, addr=0x8179f980, load , size=128, unknown  status = IN_PARTITION_DRAM (1468962), 
MSHR: tag=0x81625980, atomic=0 1 entries : 0x7fd79e1d1b10 :  mf: uid=28075567, sid04:w11, part=1, addr=0x81625980, load , size=128, unknown  status = IN_PARTITION_DRAM (1468965), 

Cache L2_bank_003:
MSHR contents

In Dram Latency Queue (total = 0): 
DRAM[1]: 16 bks, busW=4 BL=8 CL=12, tRRD=2 tCCD=6, tRCD=12 tRAS=28 tRP=12 tRC=40
n_cmd=1939032 n_nop=1719697 n_act=36016 n_pre=36000 n_req=73660 n_rd=104983 n_write=42336 bw_util=0.152
n_activity=1106240 dram_eff=0.2663
bk0: 6764a 1807722i bk1: 6608a 1810129i bk2: 6786a 1801413i bk3: 6560a 1805330i bk4: 6850a 1801285i bk5: 6692a 1801561i bk6: 6361a 1812150i bk7: 6366a 1811863i bk8: 6428a 1814847i bk9: 6508a 1812669i bk10: 6284a 1812144i bk11: 6314a 1811176i bk12: 6514a 1808883i bk13: 6508a 1807765i bk14: 6752a 1806788i bk15: 6688a 1805602i 
dram_util_bins: 0 0 0 0 0 0 0 0 0 0
dram_eff_bins: 0 0 0 0 0 0 0 0 0 0
mrqq: max=16 avg=2.31937
Memory Partition 2: 
Cache L2_bank_004:
MSHR contents

Cache L2_bank_005:
MSHR contents

In Dram Latency Queue (total = 0): 
DRAM[2]: 16 bks, busW=4 BL=8 CL=12, tRRD=2 tCCD=6, tRCD=12 tRAS=28 tRP=12 tRC=40
n_cmd=1939032 n_nop=1725298 n_act=33951 n_pre=33935 n_req=72924 n_rd=103512 n_write=42336 bw_util=0.1504
n_activity=1062356 dram_eff=0.2746
bk0: 6568a 1814500i bk1: 6562a 1810894i bk2: 6698a 1805690i bk3: 6662a 1803883i bk4: 6742a 1805442i bk5: 6628a 1804866i bk6: 6264a 1815439i bk7: 6248a 1815339i bk8: 6376a 1817549i bk9: 6210a 1819612i bk10: 6304a 1813418i bk11: 6240a 1814188i bk12: 6560a 1810878i bk13: 6338a 1812772i bk14: 6670a 1810356i bk15: 6442a 1812378i 
dram_util_bins: 0 0 0 0 0 0 0 0 0 0
dram_eff_bins: 0 0 0 0 0 0 0 0 0 0
mrqq: max=16 avg=2.42021
Memory Partition 3: 
Cache L2_bank_006:
MSHR contents

Cache L2_bank_007:
MSHR contents

In Dram Latency Queue (total = 0): 
DRAM[3]: 16 bks, busW=4 BL=8 CL=12, tRRD=2 tCCD=6, tRCD=12 tRAS=28 tRP=12 tRC=40
n_cmd=1939032 n_nop=1723348 n_act=34619 n_pre=34603 n_req=73231 n_rd=104126 n_write=42336 bw_util=0.1511
n_activity=1082960 dram_eff=0.2705
bk0: 6560a 1812498i bk1: 6644a 1809409i bk2: 6558a 1807282i bk3: 6584a 1804200i bk4: 6714a 1805785i bk5: 6726a 1803156i bk6: 6324a 1814940i bk7: 6440a 1812112i bk8: 6460a 1815112i bk9: 6456a 1814232i bk10: 6370a 1811758i bk11: 6366a 1809538i bk12: 6268a 1815290i bk13: 6318a 1813245i bk14: 6590a 1812780i bk15: 6748a 1807859i 
dram_util_bins: 0 0 0 0 0 0 0 0 0 0
dram_eff_bins: 0 0 0 0 0 0 0 0 0 0
mrqq: max=16 avg=2.38311
Memory Partition 4: 
Cache L2_bank_008:
MSHR contents

Cache L2_bank_009:
MSHR contents

In Dram Latency Queue (total = 0): 
DRAM[4]: 16 bks, busW=4 BL=8 CL=12, tRRD=2 tCCD=6, tRCD=12 tRAS=28 tRP=12 tRC=40
n_cmd=1939032 n_nop=1721156 n_act=35719 n_pre=35703 n_req=73227 n_rd=104118 n_write=42336 bw_util=0.1511
n_activity=1103446 dram_eff=0.2654
bk0: 6712a 1809088i bk1: 6548a 1810938i bk2: 6536a 1804738i bk3: 6610a 1802935i bk4: 6646a 1804449i bk5: 6606a 1803476i bk6: 6350a 1813584i bk7: 6308a 1814988i bk8: 6418a 1815065i bk9: 6376a 1815571i bk10: 6428a 1809646i bk11: 6380a 1810435i bk12: 6500a 1808606i bk13: 6544a 1807382i bk14: 6578a 1808344i bk15: 6578a 1807909i 
dram_util_bins: 0 0 0 0 0 0 0 0 0 0
dram_eff_bins: 0 0 0 0 0 0 0 0 0 0
mrqq: max=16 avg=2.34043
Memory Partition 5: 
Cache L2_bank_010:
MSHR contents

Cache L2_bank_011:
MSHR contents

In Dram Latency Queue (total = 0): 
DRAM[5]: 16 bks, busW=4 BL=8 CL=12, tRRD=2 tCCD=6, tRCD=12 tRAS=28 tRP=12 tRC=40
n_cmd=1939032 n_nop=1724932 n_act=33914 n_pre=33898 n_req=73144 n_rd=103952 n_write=42336 bw_util=0.1509
n_activity=1064494 dram_eff=0.2748
bk0: 6504a 1814541i bk1: 6680a 1811073i bk2: 6592a 1805148i bk3: 6594a 1806070i bk4: 6750a 1806112i bk5: 6756a 1803128i bk6: 6292a 1816043i bk7: 6364a 1814540i bk8: 6316a 1820513i bk9: 6408a 1815549i bk10: 6258a 1814390i bk11: 6306a 1812060i bk12: 6282a 1814650i bk13: 6578a 1809887i bk14: 6536a 1811499i bk15: 6736a 1808644i 
dram_util_bins: 0 0 0 0 0 0 0 0 0 0
dram_eff_bins: 0 0 0 0 0 0 0 0 0 0
mrqq: max=16 avg=2.43331

========= L2 cache stats =========
L2_cache_bank[0]: Access = 139126, Miss = 25987, Miss_rate = 0.187, Pending_hits = 63, Reservation_fails = 1357
L2_cache_bank[1]: Access = 139381, Miss = 26110, Miss_rate = 0.187, Pending_hits = 44, Reservation_fails = 2035
L2_cache_bank[2]: Access = 136089, Miss = 26370, Miss_rate = 0.194, Pending_hits = 71, Reservation_fails = 1885
L2_cache_bank[3]: Access = 140740, Miss = 26122, Miss_rate = 0.186, Pending_hits = 67, Reservation_fails = 2544
L2_cache_bank[4]: Access = 134852, Miss = 26091, Miss_rate = 0.193, Pending_hits = 55, Reservation_fails = 2489
L2_cache_bank[5]: Access = 140891, Miss = 25665, Miss_rate = 0.182, Pending_hits = 45, Reservation_fails = 4481
L2_cache_bank[6]: Access = 139926, Miss = 25922, Miss_rate = 0.185, Pending_hits = 60, Reservation_fails = 2284
L2_cache_bank[7]: Access = 138711, Miss = 26141, Miss_rate = 0.188, Pending_hits = 47, Reservation_fails = 3517
L2_cache_bank[8]: Access = 142759, Miss = 26084, Miss_rate = 0.183, Pending_hits = 66, Reservation_fails = 2819
L2_cache_bank[9]: Access = 135586, Miss = 25975, Miss_rate = 0.192, Pending_hits = 67, Reservation_fails = 2017
L2_cache_bank[10]: Access = 140873, Miss = 25765, Miss_rate = 0.183, Pending_hits = 54, Reservation_fails = 1769
L2_cache_bank[11]: Access = 139168, Miss = 26211, Miss_rate = 0.188, Pending_hits = 53, Reservation_fails = 2129
L2_total_cache_accesses = 1668102
L2_total_cache_misses = 312443
L2_total_cache_miss_rate = 0.1873
L2_total_cache_pending_hits = 692
L2_total_cache_reservation_fails = 29326
L2_total_cache_breakdown:
	L2_cache_stats_breakdown[GLOBAL_ACC_R][HIT] = 1267221
	L2_cache_stats_breakdown[GLOBAL_ACC_R][HIT_RESERVED] = 567
	L2_cache_stats_breakdown[GLOBAL_ACC_R][MISS] = 185315
	L2_cache_stats_breakdown[GLOBAL_ACC_R][RESERVATION_FAIL] = 24951
	L2_cache_stats_breakdown[CONST_ACC_R][HIT] = 72
	L2_cache_stats_breakdown[CONST_ACC_R][HIT_RESERVED] = 8
	L2_cache_stats_breakdown[CONST_ACC_R][MISS] = 10
	L2_cache_stats_breakdown[CONST_ACC_R][RESERVATION_FAIL] = 209
	L2_cache_stats_breakdown[GLOBAL_ACC_W][MISS] = 127008
	L2_cache_stats_breakdown[GLOBAL_ACC_W][RESERVATION_FAIL] = 2088
	L2_cache_stats_breakdown[INST_ACC_R][HIT] = 87674
	L2_cache_stats_breakdown[INST_ACC_R][HIT_RESERVED] = 117
	L2_cache_stats_breakdown[INST_ACC_R][MISS] = 110
	L2_cache_stats_breakdown[INST_ACC_R][RESERVATION_FAIL] = 2078
L2_cache_data_port_util = 0.307
L2_cache_fill_port_util = 0.071

icnt_total_pkts_mem_to_simt=7832298
icnt_total_pkts_simt_to_mem=2176134
LD_mem_lat_dist  0 0 0 0 0 0 0 0 0 0 0 0 0 0 0 0 0 0 0 0 0 0 0 0 0 0 0
ST_mem_lat_dist  0 0 0 0 0 0 0 0 0 0 0 0 0 0 0 0 0 0 0 0 0 0 0 0 0 0 0
----------------------------Interconnect-DETAILS--------------------------------
Class 0:
Packet latency average = 39.9542
	minimum = 6
	maximum = 648
Network latency average = 29.5009
	minimum = 6
	maximum = 538
Slowest packet = 352569
Flit latency average = 19.3692
	minimum = 6
	maximum = 538
Slowest flit = 1986170
Fragmentation average = 0.0388045
	minimum = 0
	maximum = 471
Injected packet rate average = 0.0912482
	minimum = 0.0811632 (at node 6)
	maximum = 0.105673 (at node 23)
Accepted packet rate average = 0.0912482
	minimum = 0.0811632 (at node 6)
	maximum = 0.105673 (at node 23)
Injected flit rate average = 0.273741
	minimum = 0.0875195 (at node 6)
	maximum = 0.520277 (at node 23)
Accepted flit rate average= 0.273741
	minimum = 0.107393 (at node 19)
	maximum = 0.412511 (at node 11)
Injected packet length average = 2.99996
Accepted packet length average = 2.99996
Total in-flight flits = 0 (0 measured)
====== Overall Traffic Statistics ======
====== Traffic class 0 ======
Packet latency average = 40.7904 (5 samples)
	minimum = 6 (5 samples)
	maximum = 646.2 (5 samples)
Network latency average = 30.2771 (5 samples)
	minimum = 6 (5 samples)
	maximum = 602.2 (5 samples)
Flit latency average = 32.8123 (5 samples)
	minimum = 6 (5 samples)
	maximum = 599.8 (5 samples)
Fragmentation average = 1.2522 (5 samples)
	minimum = 0 (5 samples)
	maximum = 415.8 (5 samples)
Injected packet rate average = 0.0547895 (5 samples)
	minimum = 0.0477209 (5 samples)
	maximum = 0.0624823 (5 samples)
Accepted packet rate average = 0.0547895 (5 samples)
	minimum = 0.0477209 (5 samples)
	maximum = 0.0624823 (5 samples)
Injected flit rate average = 0.16436 (5 samples)
	minimum = 0.0622227 (5 samples)
	maximum = 0.281924 (5 samples)
Accepted flit rate average = 0.16436 (5 samples)
	minimum = 0.0651787 (5 samples)
	maximum = 0.266137 (5 samples)
Injected packet size average = 2.99985 (5 samples)
Accepted packet size average = 2.99985 (5 samples)
Hops average = 1 (5 samples)
