

        *** GPGPU-Sim Simulator Version 3.2.2  [build 0] ***


GPGPU-Sim PTX: simulation mode 0 (can change with PTX_SIM_MODE_FUNC environment variable:
               1=functional simulation only, 0=detailed performance simulator)
GPGPU-Sim: Configuration options:

-network_mode                           1 # Interconnection network mode
-inter_config_file   config_fermi_islip.icnt # Interconnection network config file
-gpgpu_ptx_use_cuobjdump                    1 # Use cuobjdump to extract ptx and sass from binaries
-gpgpu_experimental_lib_support                    0 # Try to extract code from cuda libraries [Broken because of unknown cudaGetExportTable]
-gpgpu_ptx_convert_to_ptxplus                    0 # Convert SASS (native ISA) to ptxplus and run ptxplus
-gpgpu_ptx_force_max_capability                   20 # Force maximum compute capability
-gpgpu_ptx_inst_debug_to_file                    0 # Dump executed instructions' debug information to file
-gpgpu_ptx_inst_debug_file       inst_debug.txt # Executed instructions' debug output file
-gpgpu_ptx_inst_debug_thread_uid                    1 # Thread UID for executed instructions' debug output
-gpgpu_simd_model                       1 # 1 = post-dominator
-gpgpu_shader_core_pipeline              1536:32 # shader core pipeline config, i.e., {<nthread>:<warpsize>}
-gpgpu_tex_cache:l1  4:128:24,L:R:m:N:L,F:128:4,128:2 # per-shader L1 texture cache  (READ-ONLY) config  {<nsets>:<bsize>:<assoc>,<rep>:<wr>:<alloc>:<wr_alloc>,<mshr>:<N>:<merge>,<mq>:<rf>}
-gpgpu_const_cache:l1 64:64:2,L:R:f:N:L,A:2:32,4 # per-shader L1 constant memory cache  (READ-ONLY) config  {<nsets>:<bsize>:<assoc>,<rep>:<wr>:<alloc>:<wr_alloc>,<mshr>:<N>:<merge>,<mq>} 
-gpgpu_cache:il1     4:128:4,L:R:f:N:L,A:2:32,4 # shader L1 instruction cache config  {<nsets>:<bsize>:<assoc>,<rep>:<wr>:<alloc>:<wr_alloc>,<mshr>:<N>:<merge>,<mq>} 
-gpgpu_cache:dl1     32:128:4,L:L:m:N:H,A:32:8,8:2,0,1:0:1:1:0:1,1:4:8:16:32:64,/sciclone/data10/hwang07/GPU_RESEARCH/swl/swl_outputs/RESULTS/twolevel601/ # per-shader L1 data cache config  {<nsets>:<bsize>:<assoc>,<rep>:<wr>:<alloc>:<wr_alloc>,<mshr>:<N>:<merge>,<mq> | none}
-gpgpu_cache:dl1PrefL1                 none # per-shader L1 data cache config  {<nsets>:<bsize>:<assoc>,<rep>:<wr>:<alloc>:<wr_alloc>,<mshr>:<N>:<merge>,<mq> | none}
-gpgpu_cache:dl1PreShared                 none # per-shader L1 data cache config  {<nsets>:<bsize>:<assoc>,<rep>:<wr>:<alloc>:<wr_alloc>,<mshr>:<N>:<merge>,<mq> | none}
-gmem_skip_L1D                          0 # global memory access skip L1D cache (implements -Xptxas -dlcm=cg, default=no skip)
-gpgpu_perfect_mem                      0 # enable perfect memory mode (no cache miss)
-n_regfile_gating_group                    4 # group of lanes that should be read/written together)
-gpgpu_clock_gated_reg_file                    0 # enable clock gated reg file for power calculations
-gpgpu_clock_gated_lanes                    0 # enable clock gated lanes for power calculations
-gpgpu_shader_registers                32768 # Number of registers per shader core. Limits number of concurrent CTAs. (default 8192)
-gpgpu_shader_cta                       8 # Maximum number of concurrent CTAs in shader (default 8)
-gpgpu_num_cta_barriers                   16 # Maximum number of named barriers per CTA (default 16)
-gpgpu_n_clusters                      15 # number of processing clusters
-gpgpu_n_cores_per_cluster                    1 # number of simd cores per cluster
-gpgpu_n_cluster_ejection_buffer_size                    8 # number of packets in ejection buffer
-gpgpu_n_ldst_response_buffer_size                    2 # number of response packets in ld/st unit ejection buffer
-gpgpu_shmem_size                   16384 # Size of shared memory per shader core (default 16kB)
-gpgpu_shmem_size                   49152 # Size of shared memory per shader core (default 16kB)
-gpgpu_shmem_size_PrefL1                16384 # Size of shared memory per shader core (default 16kB)
-gpgpu_shmem_size_PrefShared                16384 # Size of shared memory per shader core (default 16kB)
-gpgpu_shmem_num_banks                   32 # Number of banks in the shared memory in each shader core (default 16)
-gpgpu_shmem_limited_broadcast                    0 # Limit shared memory to do one broadcast per cycle (default on)
-gpgpu_shmem_warp_parts                    1 # Number of portions a warp is divided into for shared memory bank conflict check 
-gpgpu_warpdistro_shader                   -1 # Specify which shader core to collect the warp size distribution from
-gpgpu_warp_issue_shader                    0 # Specify which shader core to collect the warp issue distribution from
-gpgpu_local_mem_map                    1 # Mapping from local memory space address to simulated GPU physical address space (default = enabled)
-gpgpu_num_reg_banks                   16 # Number of register banks (default = 8)
-gpgpu_reg_bank_use_warp_id                    0 # Use warp ID in mapping registers to banks (default = off)
-gpgpu_operand_collector_num_units_sp                    6 # number of collector units (default = 4)
-gpgpu_operand_collector_num_units_sfu                    8 # number of collector units (default = 4)
-gpgpu_operand_collector_num_units_mem                    2 # number of collector units (default = 2)
-gpgpu_operand_collector_num_units_gen                    0 # number of collector units (default = 0)
-gpgpu_operand_collector_num_in_ports_sp                    2 # number of collector unit in ports (default = 1)
-gpgpu_operand_collector_num_in_ports_sfu                    1 # number of collector unit in ports (default = 1)
-gpgpu_operand_collector_num_in_ports_mem                    1 # number of collector unit in ports (default = 1)
-gpgpu_operand_collector_num_in_ports_gen                    0 # number of collector unit in ports (default = 0)
-gpgpu_operand_collector_num_out_ports_sp                    2 # number of collector unit in ports (default = 1)
-gpgpu_operand_collector_num_out_ports_sfu                    1 # number of collector unit in ports (default = 1)
-gpgpu_operand_collector_num_out_ports_mem                    1 # number of collector unit in ports (default = 1)
-gpgpu_operand_collector_num_out_ports_gen                    0 # number of collector unit in ports (default = 0)
-gpgpu_coalesce_arch                   13 # Coalescing arch (default = 13, anything else is off for now)
-gpgpu_num_sched_per_core                    2 # Number of warp schedulers per core
-gpgpu_max_insn_issue_per_warp                    1 # Max number of instructions that can be issued per warp in one cycle by scheduler
-gpgpu_simt_core_sim_order                    1 # Select the simulation order of cores in a cluster (0=Fix, 1=Round-Robin)
-gpgpu_pipeline_widths        2,1,1,2,1,1,2 # Pipeline widths ID_OC_SP,ID_OC_SFU,ID_OC_MEM,OC_EX_SP,OC_EX_SFU,OC_EX_MEM,EX_WB
-gpgpu_num_sp_units                     2 # Number of SP units (default=1)
-gpgpu_num_sfu_units                    1 # Number of SF units (default=1)
-gpgpu_num_mem_units                    1 # Number if ldst units (default=1) WARNING: not hooked up to anything
-gpgpu_scheduler     two_level_active:6:0:1 # Scheduler configuration: < lrr | gto | two_level_active > If two_level_active:<num_active_warps>:<inner_prioritization>:<outer_prioritization>For complete list of prioritization values see shader.h enum scheduler_prioritization_typeDefault: gto
-gpgpu_dram_scheduler                    1 # 0 = fifo, 1 = FR-FCFS (defaul)
-gpgpu_dram_partition_queues              8:8:8:8 # i2$:$2d:d2$:$2i
-l2_ideal                               0 # Use a ideal L2 cache that always hit
-gpgpu_cache:dl2     64:128:8,L:B:m:W:L,A:32:4,4:0,32 # unified banked L2 data cache config  {<nsets>:<bsize>:<assoc>,<rep>:<wr>:<alloc>:<wr_alloc>,<mshr>:<N>:<merge>,<mq>}
-gpgpu_cache:dl2_texture_only                    0 # L2 cache used for texture only
-gpgpu_n_mem                            6 # number of memory modules (e.g. memory controllers) in gpu
-gpgpu_n_sub_partition_per_mchannel                    2 # number of memory subpartition in each memory module
-gpgpu_n_mem_per_ctrlr                    2 # number of memory chips per memory controller
-gpgpu_memlatency_stat                   14 # track and display latency statistics 0x2 enables MC, 0x4 enables queue logs
-gpgpu_frfcfs_dram_sched_queue_size                   16 # 0 = unlimited (default); # entries per chip
-gpgpu_dram_return_queue_size                  116 # 0 = unlimited (default); # entries per chip
-gpgpu_dram_buswidth                    4 # default = 4 bytes (8 bytes per cycle at DDR)
-gpgpu_dram_burst_length                    8 # Burst length of each DRAM request (default = 4 data bus cycle)
-dram_data_command_freq_ratio                    4 # Frequency ratio between DRAM data bus and command bus (default = 2 times, i.e. DDR)
-gpgpu_dram_timing_opt nbk=16:CCD=2:RRD=6:RCD=12:RAS=28:RP=12:RC=40: CL=12:WL=4:CDLR=5:WR=12:nbkgrp=4:CCDL=3:RTPL=2 # DRAM timing parameters = {nbk:tCCD:tRRD:tRCD:tRAS:tRP:tRC:CL:WL:tCDLR:tWR:nbkgrp:tCCDL:tRTPL}
-rop_latency                          120 # ROP queue latency (default 85)
-dram_latency                         100 # DRAM latency (default 30)
-gpgpu_mem_addr_mapping dramid@8;00000000.00000000.00000000.00000000.0000RRRR.RRRRRRRR.BBBCCCCB.CCSSSSSS # mapping memory address to dram model {dramid@<start bit>;<memory address map>}
-gpgpu_mem_addr_test                    0 # run sweep test to check address mapping for aliased address
-gpgpu_mem_address_mask                    1 # 0 = old addressing mask, 1 = new addressing mask, 2 = new add. mask + flipped bank sel and chip sel bits
-gpuwattch_xml_file  gpuwattch_gtx480.xml # GPUWattch XML file
-power_simulation_enabled                    0 # Turn on power simulator (1=On, 0=Off)
-power_per_cycle_dump                    0 # Dump detailed power output each cycle
-power_trace_enabled                    0 # produce a file for the power trace (1=On, 0=Off)
-power_trace_zlevel                     6 # Compression level of the power trace output log (0=no comp, 9=highest)
-steady_power_levels_enabled                    0 # produce a file for the steady power levels (1=On, 0=Off)
-steady_state_definition                  8:4 # allowed deviation:number of samples
-gpgpu_max_cycle                        0 # terminates gpu simulation early (0 = no limit)
-gpgpu_max_insn                         0 # terminates gpu simulation early (0 = no limit)
-gpgpu_max_cta                          0 # terminates gpu simulation early (0 = no limit)
-gpgpu_runtime_stat                   500 # display runtime statistics such as dram utilization {<freq>:<flag>}
-liveness_message_freq                    1 # Minimum number of seconds between simulation liveness messages (0 = always print)
-gpgpu_flush_l1_cache                    0 # Flush L1 cache at the end of each kernel call
-gpgpu_flush_l2_cache                    0 # Flush L2 cache at the end of each kernel call
-gpgpu_deadlock_detect                    1 # Stop the simulation at deadlock (1=on (default), 0=off)
-gpgpu_ptx_instruction_classification                    0 # if enabled will classify ptx instruction types per kernel (Max 255 kernels now)
-gpgpu_ptx_sim_mode                     0 # Select between Performance (default) or Functional simulation (1)
-gpgpu_clock_domains 700.0:700.0:700.0:924.0 # Clock Domain Frequencies in MhZ {<Core Clock>:<ICNT Clock>:<L2 Clock>:<DRAM Clock>}
-gpgpu_max_concurrent_kernel                    8 # maximum kernels that can run concurrently on GPU
-gpgpu_cflog_interval                    0 # Interval between each snapshot in control flow logger
-visualizer_enabled                     0 # Turn on visualizer output (1=On, 0=Off)
-visualizer_outputfile                 NULL # Specifies the output log file for visualizer
-visualizer_zlevel                      6 # Compression level of the visualizer output log (0=no comp, 9=highest)
-trace_enabled                          0 # Turn on traces
-trace_components                    none # comma seperated list of traces to enable. Complete list found in trace_streams.tup. Default none
-trace_sampling_core                    0 # The core which is printed using CORE_DPRINTF. Default 0
-trace_sampling_memory_partition                   -1 # The memory partition which is printed using MEMPART_DPRINTF. Default -1 (i.e. all)
-enable_ptx_file_line_stats                    1 # Turn on PTX source line statistic profiling. (1 = On)
-ptx_line_stats_filename gpgpu_inst_stats.txt # Output file for PTX source line statistics.
-save_embedded_ptx                      0 # saves ptx files embedded in binary as <n>.ptx
-keep                                   0 # keep intermediate files created by GPGPU-Sim when interfacing with external programs
-gpgpu_ptx_save_converted_ptxplus                    0 # Saved converted ptxplus to a file
-ptx_opcode_latency_int         4,13,4,5,145 # Opcode latencies for integers <ADD,MAX,MUL,MAD,DIV>Default 1,1,19,25,145
-ptx_opcode_latency_fp          4,13,4,5,39 # Opcode latencies for single precision floating points <ADD,MAX,MUL,MAD,DIV>Default 1,1,1,1,30
-ptx_opcode_latency_dp         8,19,8,8,330 # Opcode latencies for double precision floating points <ADD,MAX,MUL,MAD,DIV>Default 8,8,8,8,335
-ptx_opcode_initiation_int            1,2,2,1,8 # Opcode initiation intervals for integers <ADD,MAX,MUL,MAD,DIV>Default 1,1,4,4,32
-ptx_opcode_initiation_fp            1,2,1,1,4 # Opcode initiation intervals for single precision floating points <ADD,MAX,MUL,MAD,DIV>Default 1,1,1,1,5
-ptx_opcode_initiation_dp         8,16,8,8,130 # Opcode initiation intervals for double precision floating points <ADD,MAX,MUL,MAD,DIV>Default 8,8,8,8,130
DRAM Timing Options:
nbk                                    16 # number of banks
CCD                                     2 # column to column delay
RRD                                     6 # minimal delay between activation of rows in different banks
RCD                                    12 # row to column delay
RAS                                    28 # time needed to activate row
RP                                     12 # time needed to precharge (deactivate) row
RC                                     40 # row cycle time
CDLR                                    5 # switching from write to read (changes tWTR)
WR                                     12 # last data-in to row precharge
CL                                     12 # CAS latency
WL                                      4 # Write latency
nbkgrp                                  4 # number of bank groups
CCDL                                    3 # column to column delay between accesses to different bank groups
RTPL                                    2 # read to precharge delay between accesses to different bank groups
Total number of memory sub partition = 12
addr_dec_mask[CHIP]  = 0000000000000000 	high:64 low:0
addr_dec_mask[BK]    = 000000000000e100 	high:16 low:8
addr_dec_mask[ROW]   = 000000000fff0000 	high:28 low:16
addr_dec_mask[COL]   = 0000000000001eff 	high:13 low:0
addr_dec_mask[BURST] = 000000000000003f 	high:6 low:0
sub_partition_id_mask = 0000000000000100
GPGPU-Sim uArch: clock freqs: 700000000.000000:700000000.000000:700000000.000000:924000000.000000
GPGPU-Sim uArch: clock periods: 0.00000000142857142857:0.00000000142857142857:0.00000000142857142857:0.00000000108225108225
*** Initializing Memory Statistics ***
GPGPU-Sim uArch: interconnect node map (shaderID+MemID to icntID)
GPGPU-Sim uArch: Memory nodes ID start from index: 15
GPGPU-Sim uArch:    0   1   2   3   4
GPGPU-Sim uArch:    5   6   7   8   9
GPGPU-Sim uArch:   10  11  12  13  14
GPGPU-Sim uArch:   15  16  17  18  19
GPGPU-Sim uArch:   20  21  22  23  24
GPGPU-Sim uArch:   25  26
GPGPU-Sim uArch: interconnect node reverse map (icntID to shaderID+MemID)
GPGPU-Sim uArch: Memory nodes start from ID: 15
GPGPU-Sim uArch:    0   1   2   3   4
GPGPU-Sim uArch:    5   6   7   8   9
GPGPU-Sim uArch:   10  11  12  13  14
GPGPU-Sim uArch:   15  16  17  18  19
GPGPU-Sim uArch:   20  21  22  23  24
GPGPU-Sim uArch:   25  26
55ec01d42c6b4a4b48f84741520f0415  /sciclone/data10/hwang07/adwait/applications/benchmarks/shoc/bin/Serial/CUDA/QTC
GPGPU-Sim uArch: performance model initialization complete.
GPGPU-Sim PTX: __cudaRegisterFatBinary, fat_cubin_handle = 1, filename=QTC.cu
self exe links to: /sciclone/data10/hwang07/adwait/applications/benchmarks/shoc/bin/Serial/CUDA/QTC
Running md5sum using "md5sum /sciclone/data10/hwang07/adwait/applications/benchmarks/shoc/bin/Serial/CUDA/QTC "
Parsing file _cuobjdump_complete_output_WrVv1g
######### cuobjdump parser ########
## Adding new section ELF
Adding arch: sm_12
Adding identifier: QTC.cu
## Adding new section ELF
Adding arch: sm_20
Adding identifier: QTC.cu
## Adding new section PTX
Adding ptx filename: _cuobjdump_1.ptx
Adding arch: sm_20
Adding identifier: QTC.cu
## Adding new section ELF
Adding arch: sm_13
Adding identifier: QTC.cu
Done parsing!!!
GPGPU-Sim PTX: __cudaRegisterFunction _Z10QTC_devicePfPcS0_PiS1_S1_S_S1_iiifiiiib : hostFun 0x0x406e30, fat_cubin_handle = 1
GPGPU-Sim PTX: allocating stack frame region for .param "__cudaretf__Z23closest_point_reductionffi" from 0x0 to 0x4
GPGPU-Sim PTX: allocating stack frame region for .param "__cudaparmf1__Z23closest_point_reductionffi" from 0x4 to 0x8
GPGPU-Sim PTX: allocating stack frame region for .param "__cudaparmf2__Z23closest_point_reductionffi" from 0x8 to 0xc
GPGPU-Sim PTX: allocating stack frame region for .param "__cudaparmf3__Z23closest_point_reductionffi" from 0xc to 0x10
GPGPU-Sim PTX: allocating stack frame region for .param "__cudaretf__Z29find_closest_point_to_clusteriiPcS_PfPiS0_iiifb" from 0x0 to 0x4
GPGPU-Sim PTX: allocating stack frame region for .param "__cudaparmf1__Z29find_closest_point_to_clusteriiPcS_PfPiS0_iiifb" from 0x4 to 0x8
GPGPU-Sim PTX: allocating stack frame region for .param "__cudaparmf2__Z29find_closest_point_to_clusteriiPcS_PfPiS0_iiifb" from 0x8 to 0xc
GPGPU-Sim PTX: allocating stack frame region for .param "__cudaparmf3__Z29find_closest_point_to_clusteriiPcS_PfPiS0_iiifb" from 0xc to 0x14
GPGPU-Sim PTX: allocating stack frame region for .param "__cudaparmf4__Z29find_closest_point_to_clusteriiPcS_PfPiS0_iiifb" from 0x14 to 0x1c
GPGPU-Sim PTX: allocating stack frame region for .param "__cudaparmf5__Z29find_closest_point_to_clusteriiPcS_PfPiS0_iiifb" from 0x1c to 0x24
GPGPU-Sim PTX: allocating stack frame region for .param "__cudaparmf6__Z29find_closest_point_to_clusteriiPcS_PfPiS0_iiifb" from 0x24 to 0x2c
GPGPU-Sim PTX: allocating stack frame region for .param "__cudaparmf7__Z29find_closest_point_to_clusteriiPcS_PfPiS0_iiifb" from 0x2c to 0x34
GPGPU-Sim PTX: allocating stack frame region for .param "__cudaparmf8__Z29find_closest_point_to_clusteriiPcS_PfPiS0_iiifb" from 0x34 to 0x38
GPGPU-Sim PTX: allocating stack frame region for .param "__cudaparmf9__Z29find_closest_point_to_clusteriiPcS_PfPiS0_iiifb" from 0x38 to 0x3c
GPGPU-Sim PTX: allocating stack frame region for .param "__cudaparmf10__Z29find_closest_point_to_clusteriiPcS_PfPiS0_iiifb" from 0x3c to 0x40
GPGPU-Sim PTX: allocating stack frame region for .param "__cudaparmf11__Z29find_closest_point_to_clusteriiPcS_PfPiS0_iiifb" from 0x40 to 0x44
GPGPU-Sim PTX: allocating stack frame region for .param "__cudaparmf12__Z29find_closest_point_to_clusteriiPcS_PfPiS0_iiifb" from 0x44 to 0x48
GPGPU-Sim PTX: allocating stack frame region for .param "__cudaretf__Z39generate_candidate_cluster_full_storageiiPcPfS_PiS0_iiiS1_fb" from 0x0 to 0x4
GPGPU-Sim PTX: allocating stack frame region for .param "__cudaparmf1__Z39generate_candidate_cluster_full_storageiiPcPfS_PiS0_iiiS1_fb" from 0x4 to 0x8
GPGPU-Sim PTX: allocating stack frame region for .param "__cudaparmf2__Z39generate_candidate_cluster_full_storageiiPcPfS_PiS0_iiiS1_fb" from 0x8 to 0xc
GPGPU-Sim PTX: allocating stack frame region for .param "__cudaparmf3__Z39generate_candidate_cluster_full_storageiiPcPfS_PiS0_iiiS1_fb" from 0xc to 0x14
GPGPU-Sim PTX: allocating stack frame region for .param "__cudaparmf4__Z39generate_candidate_cluster_full_storageiiPcPfS_PiS0_iiiS1_fb" from 0x14 to 0x1c
GPGPU-Sim PTX: allocating stack frame region for .param "__cudaparmf5__Z39generate_candidate_cluster_full_storageiiPcPfS_PiS0_iiiS1_fb" from 0x1c to 0x24
GPGPU-Sim PTX: allocating stack frame region for .param "__cudaparmf6__Z39generate_candidate_cluster_full_storageiiPcPfS_PiS0_iiiS1_fb" from 0x24 to 0x2c
GPGPU-Sim PTX: allocating stack frame region for .param "__cudaparmf7__Z39generate_candidate_cluster_full_storageiiPcPfS_PiS0_iiiS1_fb" from 0x2c to 0x34
GPGPU-Sim PTX: allocating stack frame region for .param "__cudaparmf8__Z39generate_candidate_cluster_full_storageiiPcPfS_PiS0_iiiS1_fb" from 0x34 to 0x38
GPGPU-Sim PTX: allocating stack frame region for .param "__cudaparmf9__Z39generate_candidate_cluster_full_storageiiPcPfS_PiS0_iiiS1_fb" from 0x38 to 0x3c
GPGPU-Sim PTX: allocating stack frame region for .param "__cudaparmf10__Z39generate_candidate_cluster_full_storageiiPcPfS_PiS0_iiiS1_fb" from 0x3c to 0x40
GPGPU-Sim PTX: allocating stack frame region for .param "__cudaparmf11__Z39generate_candidate_cluster_full_storageiiPcPfS_PiS0_iiiS1_fb" from 0x40 to 0x48
GPGPU-Sim PTX: allocating stack frame region for .param "__cudaparmf12__Z39generate_candidate_cluster_full_storageiiPcPfS_PiS0_iiiS1_fb" from 0x48 to 0x4c
GPGPU-Sim PTX: allocating stack frame region for .param "__cudaparmf13__Z39generate_candidate_cluster_full_storageiiPcPfS_PiS0_iiiS1_fb" from 0x4c to 0x50
GPGPU-Sim PTX: allocating stack frame region for .param "__cudaretf__Z42generate_candidate_cluster_compact_storageiiPcPfS_PiS0_iiiS1_fb" from 0x0 to 0x4
GPGPU-Sim PTX: allocating stack frame region for .param "__cudaparmf1__Z42generate_candidate_cluster_compact_storageiiPcPfS_PiS0_iiiS1_fb" from 0x4 to 0x8
GPGPU-Sim PTX: allocating stack frame region for .param "__cudaparmf2__Z42generate_candidate_cluster_compact_storageiiPcPfS_PiS0_iiiS1_fb" from 0x8 to 0xc
GPGPU-Sim PTX: allocating stack frame region for .param "__cudaparmf3__Z42generate_candidate_cluster_compact_storageiiPcPfS_PiS0_iiiS1_fb" from 0xc to 0x14
GPGPU-Sim PTX: allocating stack frame region for .param "__cudaparmf4__Z42generate_candidate_cluster_compact_storageiiPcPfS_PiS0_iiiS1_fb" from 0x14 to 0x1c
GPGPU-Sim PTX: allocating stack frame region for .param "__cudaparmf5__Z42generate_candidate_cluster_compact_storageiiPcPfS_PiS0_iiiS1_fb" from 0x1c to 0x24
GPGPU-Sim PTX: allocating stack frame region for .param "__cudaparmf6__Z42generate_candidate_cluster_compact_storageiiPcPfS_PiS0_iiiS1_fb" from 0x24 to 0x2c
GPGPU-Sim PTX: allocating stack frame region for .param "__cudaparmf7__Z42generate_candidate_cluster_compact_storageiiPcPfS_PiS0_iiiS1_fb" from 0x2c to 0x34
GPGPU-Sim PTX: allocating stack frame region for .param "__cudaparmf8__Z42generate_candidate_cluster_compact_storageiiPcPfS_PiS0_iiiS1_fb" from 0x34 to 0x38
GPGPU-Sim PTX: allocating stack frame region for .param "__cudaparmf9__Z42generate_candidate_cluster_compact_storageiiPcPfS_PiS0_iiiS1_fb" from 0x38 to 0x3c
GPGPU-Sim PTX: allocating stack frame region for .param "__cudaparmf10__Z42generate_candidate_cluster_compact_storageiiPcPfS_PiS0_iiiS1_fb" from 0x3c to 0x40
GPGPU-Sim PTX: allocating stack frame region for .param "__cudaparmf11__Z42generate_candidate_cluster_compact_storageiiPcPfS_PiS0_iiiS1_fb" from 0x40 to 0x48
GPGPU-Sim PTX: allocating stack frame region for .param "__cudaparmf12__Z42generate_candidate_cluster_compact_storageiiPcPfS_PiS0_iiiS1_fb" from 0x48 to 0x4c
GPGPU-Sim PTX: allocating stack frame region for .param "__cudaparmf13__Z42generate_candidate_cluster_compact_storageiiPcPfS_PiS0_iiiS1_fb" from 0x4c to 0x50
GPGPU-Sim PTX: allocating shared region for "__cuda_local_var_81511_35_non_const_dist_array__0" from 0x0 to 0x100 (shared memory space)
GPGPU-Sim PTX: allocating shared region for "__cuda_local_var_81512_33_non_const_point_index_array__1" from 0x100 to 0x200 (shared memory space)
GPGPU-Sim PTX: instruction assembly for function '_Z23closest_point_reductionffi'...   done.
GPGPU-Sim PTX: finding reconvergence points for '_Z23closest_point_reductionffi'...
GPGPU-Sim PTX: Finding dominators for '_Z23closest_point_reductionffi'...
GPGPU-Sim PTX: Finding immediate dominators for '_Z23closest_point_reductionffi'...
GPGPU-Sim PTX: Finding postdominators for '_Z23closest_point_reductionffi'...
GPGPU-Sim PTX: Finding immediate postdominators for '_Z23closest_point_reductionffi'...
GPGPU-Sim PTX: pre-decoding instructions for '_Z23closest_point_reductionffi'...
GPGPU-Sim PTX: reconvergence points for _Z23closest_point_reductionffi...
GPGPU-Sim PTX:  1 (potential) branch divergence @  PC=0x090 (_1.ptx:93) @%p1 bra $Lt_0_6146;
GPGPU-Sim PTX:    immediate post dominator      @  PC=0x1b8 (_1.ptx:144) bar.sync 0;
GPGPU-Sim PTX:  2 (potential) branch divergence @  PC=0x0d0 (_1.ptx:101) @%p2 bra $Lt_0_5122;
GPGPU-Sim PTX:    immediate post dominator      @  PC=0x198 (_1.ptx:136) setp.gt.f32 %p7, %f2, %f4;
GPGPU-Sim PTX:  3 (potential) branch divergence @  PC=0x110 (_1.ptx:112) @%p3 bra $Lt_0_6914;
GPGPU-Sim PTX:    immediate post dominator      @  PC=0x178 (_1.ptx:131) add.s32 %r12, %r12, 1;
GPGPU-Sim PTX:  4 (potential) branch divergence @  PC=0x120 (_1.ptx:114) @!%p4 bra $Lt_0_7170;
GPGPU-Sim PTX:    immediate post dominator      @  PC=0x178 (_1.ptx:131) add.s32 %r12, %r12, 1;
GPGPU-Sim PTX:  5 (potential) branch divergence @  PC=0x148 (_1.ptx:119) @%p5 bra $Lt_0_7170;
GPGPU-Sim PTX:    immediate post dominator      @  PC=0x178 (_1.ptx:131) add.s32 %r12, %r12, 1;
GPGPU-Sim PTX:  6 (potential) branch divergence @  PC=0x150 (_1.ptx:120) bra.uni $L_0_4354;
GPGPU-Sim PTX:    immediate post dominator      @  PC=0x168 (_1.ptx:126) mov.f32 %f2, %f5;
GPGPU-Sim PTX:  7 (potential) branch divergence @  PC=0x190 (_1.ptx:134) @%p6 bra $Lt_0_5634;
GPGPU-Sim PTX:    immediate post dominator      @  PC=0x198 (_1.ptx:136) setp.gt.f32 %p7, %f2, %f4;
GPGPU-Sim PTX:  8 (potential) branch divergence @  PC=0x1a0 (_1.ptx:137) @!%p7 bra $Lt_0_6146;
GPGPU-Sim PTX:    immediate post dominator      @  PC=0x1b8 (_1.ptx:144) bar.sync 0;
GPGPU-Sim PTX: ... end of reconvergence points for _Z23closest_point_reductionffi
GPGPU-Sim PTX: ... done pre-decoding instructions for '_Z23closest_point_reductionffi'.
GPGPU-Sim PTX: allocating global region for "texDistance" from 0x100 to 0x104 (global memory space)
GPGPU-Sim PTX: instruction assembly for function '_Z29find_closest_point_to_clusteriiPcS_PfPiS0_iiifb'...   done.
GPGPU-Sim PTX: finding reconvergence points for '_Z29find_closest_point_to_clusteriiPcS_PfPiS0_iiifb'...
GPGPU-Sim PTX: Finding dominators for '_Z29find_closest_point_to_clusteriiPcS_PfPiS0_iiifb'...
GPGPU-Sim PTX: Finding immediate dominators for '_Z29find_closest_point_to_clusteriiPcS_PfPiS0_iiifb'...
GPGPU-Sim PTX: Finding postdominators for '_Z29find_closest_point_to_clusteriiPcS_PfPiS0_iiifb'...
GPGPU-Sim PTX: Finding immediate postdominators for '_Z29find_closest_point_to_clusteriiPcS_PfPiS0_iiifb'...
GPGPU-Sim PTX: pre-decoding instructions for '_Z29find_closest_point_to_clusteriiPcS_PfPiS0_iiifb'...
GPGPU-Sim PTX: reconvergence points for _Z29find_closest_point_to_clusteriiPcS_PfPiS0_iiifb...
GPGPU-Sim PTX:  1 (potential) branch divergence @  PC=0x2a0 (_1.ptx:187) @%p1 bra $Lt_1_14594;
GPGPU-Sim PTX:    immediate post dominator      @  PC=0x4f8 (_1.ptx:283) cvta.shared.u64 %rd25, __cuda_local_var_81511_35_non_const_dist_array__0;
GPGPU-Sim PTX:  2 (potential) branch divergence @  PC=0x330 (_1.ptx:208) @%p2 bra $Lt_1_15106;
GPGPU-Sim PTX:    immediate post dominator      @  PC=0x4c8 (_1.ptx:274) add.u64 %rd15, %rd12, %rd15;
GPGPU-Sim PTX:  3 (potential) branch divergence @  PC=0x360 (_1.ptx:214) @%p3 bra $Lt_1_15106;
GPGPU-Sim PTX:    immediate post dominator      @  PC=0x4c8 (_1.ptx:274) add.u64 %rd15, %rd12, %rd15;
GPGPU-Sim PTX:  4 (potential) branch divergence @  PC=0x388 (_1.ptx:219) @%p4 bra $Lt_1_15106;
GPGPU-Sim PTX:    immediate post dominator      @  PC=0x4c8 (_1.ptx:274) add.u64 %rd15, %rd12, %rd15;
GPGPU-Sim PTX:  5 (potential) branch divergence @  PC=0x3c0 (_1.ptx:227) @%p5 bra $Lt_1_11010;
GPGPU-Sim PTX:    immediate post dominator      @  PC=0x478 (_1.ptx:254) setp.lt.f32 %p6, %f4, %f22;
GPGPU-Sim PTX:  6 (potential) branch divergence @  PC=0x440 (_1.ptx:244) bra.uni $Lt_1_10754;
GPGPU-Sim PTX:    immediate post dominator      @  PC=0x478 (_1.ptx:254) setp.lt.f32 %p6, %f4, %f22;
GPGPU-Sim PTX:  7 (potential) branch divergence @  PC=0x480 (_1.ptx:255) @!%p6 bra $Lt_1_11522;
GPGPU-Sim PTX:    immediate post dominator      @  PC=0x4a8 (_1.ptx:265) setp.gt.f32 %p7, %f3, %f23;
GPGPU-Sim PTX:  8 (potential) branch divergence @  PC=0x498 (_1.ptx:260) bra.uni $Lt_1_11266;
GPGPU-Sim PTX:    immediate post dominator      @  PC=0x4a8 (_1.ptx:265) setp.gt.f32 %p7, %f3, %f23;
GPGPU-Sim PTX:  9 (potential) branch divergence @  PC=0x4b0 (_1.ptx:266) @!%p7 bra $Lt_1_15106;
GPGPU-Sim PTX:    immediate post dominator      @  PC=0x4c8 (_1.ptx:274) add.u64 %rd15, %rd12, %rd15;
GPGPU-Sim PTX: 10 (potential) branch divergence @  PC=0x4e0 (_1.ptx:277) @%p8 bra $Lt_1_10498;
GPGPU-Sim PTX:    immediate post dominator      @  PC=0x4e8 (_1.ptx:278) bra.uni $Lt_1_9986;
GPGPU-Sim PTX: 11 (potential) branch divergence @  PC=0x4e8 (_1.ptx:278) bra.uni $Lt_1_9986;
GPGPU-Sim PTX:    immediate post dominator      @  PC=0x4f8 (_1.ptx:283) cvta.shared.u64 %rd25, __cuda_local_var_81511_35_non_const_dist_array__0;
GPGPU-Sim PTX: 12 (potential) branch divergence @  PC=0x558 (_1.ptx:298) @%p9 bra $Lt_1_14082;
GPGPU-Sim PTX:    immediate post dominator      @  PC=0x680 (_1.ptx:349) bar.sync 0;
GPGPU-Sim PTX: 13 (potential) branch divergence @  PC=0x598 (_1.ptx:306) @%p10 bra $Lt_1_13058;
GPGPU-Sim PTX:    immediate post dominator      @  PC=0x660 (_1.ptx:341) setp.lt.f32 %p15, %f2, %f24;
GPGPU-Sim PTX: 14 (potential) branch divergence @  PC=0x5d8 (_1.ptx:317) @%p11 bra $Lt_1_15874;
GPGPU-Sim PTX:    immediate post dominator      @  PC=0x640 (_1.ptx:336) add.s32 %r37, %r37, 1;
GPGPU-Sim PTX: 15 (potential) branch divergence @  PC=0x5e8 (_1.ptx:319) @!%p12 bra $Lt_1_16130;
GPGPU-Sim PTX:    immediate post dominator      @  PC=0x640 (_1.ptx:336) add.s32 %r37, %r37, 1;
GPGPU-Sim PTX: 16 (potential) branch divergence @  PC=0x610 (_1.ptx:324) @%p13 bra $Lt_1_16130;
GPGPU-Sim PTX:    immediate post dominator      @  PC=0x640 (_1.ptx:336) add.s32 %r37, %r37, 1;
GPGPU-Sim PTX: 17 (potential) branch divergence @  PC=0x618 (_1.ptx:325) bra.uni $L_1_9730;
GPGPU-Sim PTX:    immediate post dominator      @  PC=0x630 (_1.ptx:331) mov.f32 %f24, %f25;
GPGPU-Sim PTX: 18 (potential) branch divergence @  PC=0x658 (_1.ptx:339) @%p14 bra $Lt_1_13570;
GPGPU-Sim PTX:    immediate post dominator      @  PC=0x660 (_1.ptx:341) setp.lt.f32 %p15, %f2, %f24;
GPGPU-Sim PTX: 19 (potential) branch divergence @  PC=0x668 (_1.ptx:342) @!%p15 bra $Lt_1_14082;
GPGPU-Sim PTX:    immediate post dominator      @  PC=0x680 (_1.ptx:349) bar.sync 0;
GPGPU-Sim PTX: ... end of reconvergence points for _Z29find_closest_point_to_clusteriiPcS_PfPiS0_iiifb
GPGPU-Sim PTX: ... done pre-decoding instructions for '_Z29find_closest_point_to_clusteriiPcS_PfPiS0_iiifb'.
GPGPU-Sim PTX: instruction assembly for function '_Z39generate_candidate_cluster_full_storageiiPcPfS_PiS0_iiiS1_fb'...   done.
GPGPU-Sim PTX: finding reconvergence points for '_Z39generate_candidate_cluster_full_storageiiPcPfS_PiS0_iiiS1_fb'...
GPGPU-Sim PTX: Finding dominators for '_Z39generate_candidate_cluster_full_storageiiPcPfS_PiS0_iiiS1_fb'...
GPGPU-Sim PTX: Finding immediate dominators for '_Z39generate_candidate_cluster_full_storageiiPcPfS_PiS0_iiiS1_fb'...
GPGPU-Sim PTX: Finding postdominators for '_Z39generate_candidate_cluster_full_storageiiPcPfS_PiS0_iiiS1_fb'...
GPGPU-Sim PTX: Finding immediate postdominators for '_Z39generate_candidate_cluster_full_storageiiPcPfS_PiS0_iiiS1_fb'...
GPGPU-Sim PTX: pre-decoding instructions for '_Z39generate_candidate_cluster_full_storageiiPcPfS_PiS0_iiiS1_fb'...
GPGPU-Sim PTX: reconvergence points for _Z39generate_candidate_cluster_full_storageiiPcPfS_PiS0_iiiS1_fb...
GPGPU-Sim PTX:  1 (potential) branch divergence @  PC=0x780 (_1.ptx:393) @%p1 bra $Lt_2_104706;
GPGPU-Sim PTX:    immediate post dominator      @  PC=0x800 (_1.ptx:413) setp.lt.s32 %p3, %r13, %r10;
GPGPU-Sim PTX:  2 (potential) branch divergence @  PC=0x7f8 (_1.ptx:411) @%p2 bra $Lt_2_105218;
GPGPU-Sim PTX:    immediate post dominator      @  PC=0x800 (_1.ptx:413) setp.lt.s32 %p3, %r13, %r10;
GPGPU-Sim PTX:  3 (potential) branch divergence @  PC=0x808 (_1.ptx:414) @!%p3 bra $Lt_2_105730;
GPGPU-Sim PTX:    immediate post dominator      @  PC=0x898 (_1.ptx:436) mov.s32 %r25, 0;
GPGPU-Sim PTX:  4 (potential) branch divergence @  PC=0x890 (_1.ptx:434) @%p4 bra $Lt_2_106242;
GPGPU-Sim PTX:    immediate post dominator      @  PC=0x898 (_1.ptx:436) mov.s32 %r25, 0;
GPGPU-Sim PTX:  5 (potential) branch divergence @  PC=0x8a8 (_1.ptx:438) @!%p5 bra $Lt_2_106754;
GPGPU-Sim PTX:    immediate post dominator      @  PC=0x8f0 (_1.ptx:452) bar.sync 0;
GPGPU-Sim PTX:  6 (potential) branch divergence @  PC=0x8c0 (_1.ptx:441) @%p6 bra $Lt_2_107266;
GPGPU-Sim PTX:    immediate post dominator      @  PC=0x8d0 (_1.ptx:446) mov.s32 %r26, 1;
GPGPU-Sim PTX:  7 (potential) branch divergence @  PC=0x920 (_1.ptx:459) @%p8 bra $Lt_2_108034;
GPGPU-Sim PTX:    immediate post dominator      @  PC=0x2b30 (_1.ptx:1788) mov.s32 %r243, %r93;
GPGPU-Sim PTX:  8 (potential) branch divergence @  PC=0x930 (_1.ptx:462) @%p9 bra $Lt_2_139010;
GPGPU-Sim PTX:    immediate post dominator      @  PC=0xfc0 (_1.ptx:709) bar.sync 0;
GPGPU-Sim PTX:  9 (potential) branch divergence @  PC=0x9a0 (_1.ptx:478) @%p10 bra $Lt_2_139266;
GPGPU-Sim PTX:    immediate post dominator      @  PC=0xfc0 (_1.ptx:709) bar.sync 0;
GPGPU-Sim PTX: 10 (potential) branch divergence @  PC=0x9e8 (_1.ptx:489) @%p11 bra $Lt_2_139522;
GPGPU-Sim PTX:    immediate post dominator      @  PC=0xfc0 (_1.ptx:709) bar.sync 0;
GPGPU-Sim PTX: 11 (potential) branch divergence @  PC=0xa38 (_1.ptx:501) @%p12 bra $Lt_2_139778;
GPGPU-Sim PTX:    immediate post dominator      @  PC=0xfc0 (_1.ptx:709) bar.sync 0;
GPGPU-Sim PTX: 12 (potential) branch divergence @  PC=0xa88 (_1.ptx:513) @%p13 bra $Lt_2_140034;
GPGPU-Sim PTX:    immediate post dominator      @  PC=0xfc0 (_1.ptx:709) bar.sync 0;
GPGPU-Sim PTX: 13 (potential) branch divergence @  PC=0xad8 (_1.ptx:525) @%p14 bra $Lt_2_140290;
GPGPU-Sim PTX:    immediate post dominator      @  PC=0xfc0 (_1.ptx:709) bar.sync 0;
GPGPU-Sim PTX: 14 (potential) branch divergence @  PC=0xb28 (_1.ptx:537) @%p15 bra $Lt_2_140546;
GPGPU-Sim PTX:    immediate post dominator      @  PC=0xfc0 (_1.ptx:709) bar.sync 0;
GPGPU-Sim PTX: 15 (potential) branch divergence @  PC=0xb78 (_1.ptx:549) @%p16 bra $Lt_2_140802;
GPGPU-Sim PTX:    immediate post dominator      @  PC=0xfc0 (_1.ptx:709) bar.sync 0;
GPGPU-Sim PTX: 16 (potential) branch divergence @  PC=0xbc8 (_1.ptx:561) @%p17 bra $Lt_2_141058;
GPGPU-Sim PTX:    immediate post dominator      @  PC=0xfc0 (_1.ptx:709) bar.sync 0;
GPGPU-Sim PTX: 17 (potential) branch divergence @  PC=0xc18 (_1.ptx:573) @%p18 bra $Lt_2_141314;
GPGPU-Sim PTX:    immediate post dominator      @  PC=0xfc0 (_1.ptx:709) bar.sync 0;
GPGPU-Sim PTX: 18 (potential) branch divergence @  PC=0xc68 (_1.ptx:585) @%p19 bra $Lt_2_141570;
GPGPU-Sim PTX:    immediate post dominator      @  PC=0xfc0 (_1.ptx:709) bar.sync 0;
GPGPU-Sim PTX: 19 (potential) branch divergence @  PC=0xcb8 (_1.ptx:597) @%p20 bra $Lt_2_141826;
GPGPU-Sim PTX:    immediate post dominator      @  PC=0xfc0 (_1.ptx:709) bar.sync 0;
GPGPU-Sim PTX: 20 (potential) branch divergence @  PC=0xcf0 (_1.ptx:605) bra.uni $Lt_2_258;
GPGPU-Sim PTX:    immediate post dominator      @  PC=0xfc0 (_1.ptx:709) bar.sync 0;
GPGPU-Sim PTX: 21 (potential) branch divergence @  PC=0xd58 (_1.ptx:619) bra.uni $Lt_2_258;
GPGPU-Sim PTX:    immediate post dominator      @  PC=0xfc0 (_1.ptx:709) bar.sync 0;
GPGPU-Sim PTX: 22 (potential) branch divergence @  PC=0xdb8 (_1.ptx:632) bra.uni $Lt_2_258;
GPGPU-Sim PTX:    immediate post dominator      @  PC=0xfc0 (_1.ptx:709) bar.sync 0;
GPGPU-Sim PTX: 23 (potential) branch divergence @  PC=0xe10 (_1.ptx:644) bra.uni $Lt_2_258;
GPGPU-Sim PTX:    immediate post dominator      @  PC=0xfc0 (_1.ptx:709) bar.sync 0;
GPGPU-Sim PTX: 24 (potential) branch divergence @  PC=0xe60 (_1.ptx:655) bra.uni $Lt_2_258;
GPGPU-Sim PTX:    immediate post dominator      @  PC=0xfc0 (_1.ptx:709) bar.sync 0;
GPGPU-Sim PTX: 25 (potential) branch divergence @  PC=0xea8 (_1.ptx:665) bra.uni $Lt_2_258;
GPGPU-Sim PTX:    immediate post dominator      @  PC=0xfc0 (_1.ptx:709) bar.sync 0;
GPGPU-Sim PTX: 26 (potential) branch divergence @  PC=0xee8 (_1.ptx:674) bra.uni $Lt_2_258;
GPGPU-Sim PTX:    immediate post dominator      @  PC=0xfc0 (_1.ptx:709) bar.sync 0;
GPGPU-Sim PTX: 27 (potential) branch divergence @  PC=0xf20 (_1.ptx:682) bra.uni $Lt_2_258;
GPGPU-Sim PTX:    immediate post dominator      @  PC=0xfc0 (_1.ptx:709) bar.sync 0;
GPGPU-Sim PTX: 28 (potential) branch divergence @  PC=0xf50 (_1.ptx:689) bra.uni $Lt_2_258;
GPGPU-Sim PTX:    immediate post dominator      @  PC=0xfc0 (_1.ptx:709) bar.sync 0;
GPGPU-Sim PTX: 29 (potential) branch divergence @  PC=0xf78 (_1.ptx:695) bra.uni $Lt_2_258;
GPGPU-Sim PTX:    immediate post dominator      @  PC=0xfc0 (_1.ptx:709) bar.sync 0;
GPGPU-Sim PTX: 30 (potential) branch divergence @  PC=0xf98 (_1.ptx:700) bra.uni $Lt_2_258;
GPGPU-Sim PTX:    immediate post dominator      @  PC=0xfc0 (_1.ptx:709) bar.sync 0;
GPGPU-Sim PTX: 31 (potential) branch divergence @  PC=0xfb0 (_1.ptx:704) bra.uni $Lt_2_258;
GPGPU-Sim PTX:    immediate post dominator      @  PC=0xfc0 (_1.ptx:709) bar.sync 0;
GPGPU-Sim PTX: 32 (potential) branch divergence @  PC=0xfc8 (_1.ptx:711) @!%p7 bra $Lt_2_142082;
GPGPU-Sim PTX:    immediate post dominator      @  PC=0x2b30 (_1.ptx:1788) mov.s32 %r243, %r93;
GPGPU-Sim PTX: 33 (potential) branch divergence @  PC=0x10d0 (_1.ptx:746) @%p22 bra $Lt_2_108546;
GPGPU-Sim PTX:    immediate post dominator      @  PC=0x1260 (_1.ptx:805) mov.u32 %r104, 0;
GPGPU-Sim PTX: 34 (potential) branch divergence @  PC=0x1100 (_1.ptx:753) @%p23 bra $L_2_95490;
GPGPU-Sim PTX:    immediate post dominator      @  PC=0x1260 (_1.ptx:805) mov.u32 %r104, 0;
GPGPU-Sim PTX: 35 (potential) branch divergence @  PC=0x1128 (_1.ptx:758) @%p24 bra $L_2_95234;
GPGPU-Sim PTX:    immediate post dominator      @  PC=0x1260 (_1.ptx:805) mov.u32 %r104, 0;
GPGPU-Sim PTX: 36 (potential) branch divergence @  PC=0x1140 (_1.ptx:762) bra.uni $Lt_2_108290;
GPGPU-Sim PTX:    immediate post dominator      @  PC=0x1260 (_1.ptx:805) mov.u32 %r104, 0;
GPGPU-Sim PTX: 37 (potential) branch divergence @  PC=0x1158 (_1.ptx:766) @%p25 bra $Lt_2_109058;
GPGPU-Sim PTX:    immediate post dominator      @  PC=0x1210 (_1.ptx:791) setp.gt.f32 %p26, %f35, %f16;
GPGPU-Sim PTX: 38 (potential) branch divergence @  PC=0x11d8 (_1.ptx:782) bra.uni $Lt_2_108802;
GPGPU-Sim PTX:    immediate post dominator      @  PC=0x1210 (_1.ptx:791) setp.gt.f32 %p26, %f35, %f16;
GPGPU-Sim PTX: 39 (potential) branch divergence @  PC=0x1228 (_1.ptx:794) @!%p27 bra $Lt_2_109570;
GPGPU-Sim PTX:    immediate post dominator      @  PC=0x1260 (_1.ptx:805) mov.u32 %r104, 0;
GPGPU-Sim PTX: 40 (potential) branch divergence @  PC=0x1240 (_1.ptx:797) bra.uni $Lt_2_108290;
GPGPU-Sim PTX:    immediate post dominator      @  PC=0x1260 (_1.ptx:805) mov.u32 %r104, 0;
GPGPU-Sim PTX: 41 (potential) branch divergence @  PC=0x1250 (_1.ptx:800) bra.uni $Lt_2_108290;
GPGPU-Sim PTX:    immediate post dominator      @  PC=0x1260 (_1.ptx:805) mov.u32 %r104, 0;
GPGPU-Sim PTX: 42 (potential) branch divergence @  PC=0x1270 (_1.ptx:807) @%p28 bra $Lt_2_110850;
GPGPU-Sim PTX:    immediate post dominator      @  PC=0x13d8 (_1.ptx:860) mov.u32 %r112, 0;
GPGPU-Sim PTX: 43 (potential) branch divergence @  PC=0x12a0 (_1.ptx:814) @%p29 bra $L_2_96002;
GPGPU-Sim PTX:    immediate post dominator      @  PC=0x13d8 (_1.ptx:860) mov.u32 %r112, 0;
GPGPU-Sim PTX: 44 (potential) branch divergence @  PC=0x12c8 (_1.ptx:819) @%p30 bra $L_2_95746;
GPGPU-Sim PTX:    immediate post dominator      @  PC=0x13d8 (_1.ptx:860) mov.u32 %r112, 0;
GPGPU-Sim PTX: 45 (potential) branch divergence @  PC=0x12d8 (_1.ptx:822) bra.uni $Lt_2_110850;
GPGPU-Sim PTX:    immediate post dominator      @  PC=0x13d8 (_1.ptx:860) mov.u32 %r112, 0;
GPGPU-Sim PTX: 46 (potential) branch divergence @  PC=0x12f0 (_1.ptx:826) @%p31 bra $Lt_2_110594;
GPGPU-Sim PTX:    immediate post dominator      @  PC=0x13a8 (_1.ptx:851) setp.gt.f32 %p32, %f53, %f15;
GPGPU-Sim PTX: 47 (potential) branch divergence @  PC=0x1370 (_1.ptx:842) bra.uni $Lt_2_110338;
GPGPU-Sim PTX:    immediate post dominator      @  PC=0x13a8 (_1.ptx:851) setp.gt.f32 %p32, %f53, %f15;
GPGPU-Sim PTX: 48 (potential) branch divergence @  PC=0x13c0 (_1.ptx:854) @!%p33 bra $Lt_2_110850;
GPGPU-Sim PTX:    immediate post dominator      @  PC=0x13d8 (_1.ptx:860) mov.u32 %r112, 0;
GPGPU-Sim PTX: 49 (potential) branch divergence @  PC=0x13e8 (_1.ptx:862) @%p34 bra $Lt_2_112386;
GPGPU-Sim PTX:    immediate post dominator      @  PC=0x1550 (_1.ptx:915) mov.u32 %r120, 0;
GPGPU-Sim PTX: 50 (potential) branch divergence @  PC=0x1418 (_1.ptx:869) @%p35 bra $L_2_96514;
GPGPU-Sim PTX:    immediate post dominator      @  PC=0x1550 (_1.ptx:915) mov.u32 %r120, 0;
GPGPU-Sim PTX: 51 (potential) branch divergence @  PC=0x1440 (_1.ptx:874) @%p36 bra $L_2_96258;
GPGPU-Sim PTX:    immediate post dominator      @  PC=0x1550 (_1.ptx:915) mov.u32 %r120, 0;
GPGPU-Sim PTX: 52 (potential) branch divergence @  PC=0x1450 (_1.ptx:877) bra.uni $Lt_2_112386;
GPGPU-Sim PTX:    immediate post dominator      @  PC=0x1550 (_1.ptx:915) mov.u32 %r120, 0;
GPGPU-Sim PTX: 53 (potential) branch divergence @  PC=0x1468 (_1.ptx:881) @%p37 bra $Lt_2_112130;
GPGPU-Sim PTX:    immediate post dominator      @  PC=0x1520 (_1.ptx:906) setp.gt.f32 %p38, %f71, %f14;
GPGPU-Sim PTX: 54 (potential) branch divergence @  PC=0x14e8 (_1.ptx:897) bra.uni $Lt_2_111874;
GPGPU-Sim PTX:    immediate post dominator      @  PC=0x1520 (_1.ptx:906) setp.gt.f32 %p38, %f71, %f14;
GPGPU-Sim PTX: 55 (potential) branch divergence @  PC=0x1538 (_1.ptx:909) @!%p39 bra $Lt_2_112386;
GPGPU-Sim PTX:    immediate post dominator      @  PC=0x1550 (_1.ptx:915) mov.u32 %r120, 0;
GPGPU-Sim PTX: 56 (potential) branch divergence @  PC=0x1560 (_1.ptx:917) @%p40 bra $Lt_2_113922;
GPGPU-Sim PTX:    immediate post dominator      @  PC=0x16c8 (_1.ptx:970) mov.u32 %r128, 0;
GPGPU-Sim PTX: 57 (potential) branch divergence @  PC=0x1590 (_1.ptx:924) @%p41 bra $L_2_97026;
GPGPU-Sim PTX:    immediate post dominator      @  PC=0x16c8 (_1.ptx:970) mov.u32 %r128, 0;
GPGPU-Sim PTX: 58 (potential) branch divergence @  PC=0x15b8 (_1.ptx:929) @%p42 bra $L_2_96770;
GPGPU-Sim PTX:    immediate post dominator      @  PC=0x16c8 (_1.ptx:970) mov.u32 %r128, 0;
GPGPU-Sim PTX: 59 (potential) branch divergence @  PC=0x15c8 (_1.ptx:932) bra.uni $Lt_2_113922;
GPGPU-Sim PTX:    immediate post dominator      @  PC=0x16c8 (_1.ptx:970) mov.u32 %r128, 0;
GPGPU-Sim PTX: 60 (potential) branch divergence @  PC=0x15e0 (_1.ptx:936) @%p43 bra $Lt_2_113666;
GPGPU-Sim PTX:    immediate post dominator      @  PC=0x1698 (_1.ptx:961) setp.gt.f32 %p44, %f89, %f13;
GPGPU-Sim PTX: 61 (potential) branch divergence @  PC=0x1660 (_1.ptx:952) bra.uni $Lt_2_113410;
GPGPU-Sim PTX:    immediate post dominator      @  PC=0x1698 (_1.ptx:961) setp.gt.f32 %p44, %f89, %f13;
GPGPU-Sim PTX: 62 (potential) branch divergence @  PC=0x16b0 (_1.ptx:964) @!%p45 bra $Lt_2_113922;
GPGPU-Sim PTX:    immediate post dominator      @  PC=0x16c8 (_1.ptx:970) mov.u32 %r128, 0;
GPGPU-Sim PTX: 63 (potential) branch divergence @  PC=0x16d8 (_1.ptx:972) @%p46 bra $Lt_2_115458;
GPGPU-Sim PTX:    immediate post dominator      @  PC=0x1840 (_1.ptx:1025) mov.u32 %r136, 0;
GPGPU-Sim PTX: 64 (potential) branch divergence @  PC=0x1708 (_1.ptx:979) @%p47 bra $L_2_97538;
GPGPU-Sim PTX:    immediate post dominator      @  PC=0x1840 (_1.ptx:1025) mov.u32 %r136, 0;
GPGPU-Sim PTX: 65 (potential) branch divergence @  PC=0x1730 (_1.ptx:984) @%p48 bra $L_2_97282;
GPGPU-Sim PTX:    immediate post dominator      @  PC=0x1840 (_1.ptx:1025) mov.u32 %r136, 0;
GPGPU-Sim PTX: 66 (potential) branch divergence @  PC=0x1740 (_1.ptx:987) bra.uni $Lt_2_115458;
GPGPU-Sim PTX:    immediate post dominator      @  PC=0x1840 (_1.ptx:1025) mov.u32 %r136, 0;
GPGPU-Sim PTX: 67 (potential) branch divergence @  PC=0x1758 (_1.ptx:991) @%p49 bra $Lt_2_115202;
GPGPU-Sim PTX:    immediate post dominator      @  PC=0x1810 (_1.ptx:1016) setp.gt.f32 %p50, %f107, %f12;
GPGPU-Sim PTX: 68 (potential) branch divergence @  PC=0x17d8 (_1.ptx:1007) bra.uni $Lt_2_114946;
GPGPU-Sim PTX:    immediate post dominator      @  PC=0x1810 (_1.ptx:1016) setp.gt.f32 %p50, %f107, %f12;
GPGPU-Sim PTX: 69 (potential) branch divergence @  PC=0x1828 (_1.ptx:1019) @!%p51 bra $Lt_2_115458;
GPGPU-Sim PTX:    immediate post dominator      @  PC=0x1840 (_1.ptx:1025) mov.u32 %r136, 0;
GPGPU-Sim PTX: 70 (potential) branch divergence @  PC=0x1850 (_1.ptx:1027) @%p52 bra $Lt_2_116994;
GPGPU-Sim PTX:    immediate post dominator      @  PC=0x19b8 (_1.ptx:1080) mov.u32 %r144, 0;
GPGPU-Sim PTX: 71 (potential) branch divergence @  PC=0x1880 (_1.ptx:1034) @%p53 bra $L_2_98050;
GPGPU-Sim PTX:    immediate post dominator      @  PC=0x19b8 (_1.ptx:1080) mov.u32 %r144, 0;
GPGPU-Sim PTX: 72 (potential) branch divergence @  PC=0x18a8 (_1.ptx:1039) @%p54 bra $L_2_97794;
GPGPU-Sim PTX:    immediate post dominator      @  PC=0x19b8 (_1.ptx:1080) mov.u32 %r144, 0;
GPGPU-Sim PTX: 73 (potential) branch divergence @  PC=0x18b8 (_1.ptx:1042) bra.uni $Lt_2_116994;
GPGPU-Sim PTX:    immediate post dominator      @  PC=0x19b8 (_1.ptx:1080) mov.u32 %r144, 0;
GPGPU-Sim PTX: 74 (potential) branch divergence @  PC=0x18d0 (_1.ptx:1046) @%p55 bra $Lt_2_116738;
GPGPU-Sim PTX:    immediate post dominator      @  PC=0x1988 (_1.ptx:1071) setp.gt.f32 %p56, %f125, %f11;
GPGPU-Sim PTX: 75 (potential) branch divergence @  PC=0x1950 (_1.ptx:1062) bra.uni $Lt_2_116482;
GPGPU-Sim PTX:    immediate post dominator      @  PC=0x1988 (_1.ptx:1071) setp.gt.f32 %p56, %f125, %f11;
GPGPU-Sim PTX: 76 (potential) branch divergence @  PC=0x19a0 (_1.ptx:1074) @!%p57 bra $Lt_2_116994;
GPGPU-Sim PTX:    immediate post dominator      @  PC=0x19b8 (_1.ptx:1080) mov.u32 %r144, 0;
GPGPU-Sim PTX: 77 (potential) branch divergence @  PC=0x19c8 (_1.ptx:1082) @%p58 bra $Lt_2_118530;
GPGPU-Sim PTX:    immediate post dominator      @  PC=0x1b30 (_1.ptx:1135) mov.u32 %r152, 0;
GPGPU-Sim PTX: 78 (potential) branch divergence @  PC=0x19f8 (_1.ptx:1089) @%p59 bra $L_2_98562;
GPGPU-Sim PTX:    immediate post dominator      @  PC=0x1b30 (_1.ptx:1135) mov.u32 %r152, 0;
GPGPU-Sim PTX: 79 (potential) branch divergence @  PC=0x1a20 (_1.ptx:1094) @%p60 bra $L_2_98306;
GPGPU-Sim PTX:    immediate post dominator      @  PC=0x1b30 (_1.ptx:1135) mov.u32 %r152, 0;
GPGPU-Sim PTX: 80 (potential) branch divergence @  PC=0x1a30 (_1.ptx:1097) bra.uni $Lt_2_118530;
GPGPU-Sim PTX:    immediate post dominator      @  PC=0x1b30 (_1.ptx:1135) mov.u32 %r152, 0;
GPGPU-Sim PTX: 81 (potential) branch divergence @  PC=0x1a48 (_1.ptx:1101) @%p61 bra $Lt_2_118274;
GPGPU-Sim PTX:    immediate post dominator      @  PC=0x1b00 (_1.ptx:1126) setp.gt.f32 %p62, %f143, %f10;
GPGPU-Sim PTX: 82 (potential) branch divergence @  PC=0x1ac8 (_1.ptx:1117) bra.uni $Lt_2_118018;
GPGPU-Sim PTX:    immediate post dominator      @  PC=0x1b00 (_1.ptx:1126) setp.gt.f32 %p62, %f143, %f10;
GPGPU-Sim PTX: 83 (potential) branch divergence @  PC=0x1b18 (_1.ptx:1129) @!%p63 bra $Lt_2_118530;
GPGPU-Sim PTX:    immediate post dominator      @  PC=0x1b30 (_1.ptx:1135) mov.u32 %r152, 0;
GPGPU-Sim PTX: 84 (potential) branch divergence @  PC=0x1b40 (_1.ptx:1137) @%p64 bra $Lt_2_120066;
GPGPU-Sim PTX:    immediate post dominator      @  PC=0x1ca8 (_1.ptx:1190) mov.u32 %r160, 0;
GPGPU-Sim PTX: 85 (potential) branch divergence @  PC=0x1b70 (_1.ptx:1144) @%p65 bra $L_2_99074;
GPGPU-Sim PTX:    immediate post dominator      @  PC=0x1ca8 (_1.ptx:1190) mov.u32 %r160, 0;
GPGPU-Sim PTX: 86 (potential) branch divergence @  PC=0x1b98 (_1.ptx:1149) @%p66 bra $L_2_98818;
GPGPU-Sim PTX:    immediate post dominator      @  PC=0x1ca8 (_1.ptx:1190) mov.u32 %r160, 0;
GPGPU-Sim PTX: 87 (potential) branch divergence @  PC=0x1ba8 (_1.ptx:1152) bra.uni $Lt_2_120066;
GPGPU-Sim PTX:    immediate post dominator      @  PC=0x1ca8 (_1.ptx:1190) mov.u32 %r160, 0;
GPGPU-Sim PTX: 88 (potential) branch divergence @  PC=0x1bc0 (_1.ptx:1156) @%p67 bra $Lt_2_119810;
GPGPU-Sim PTX:    immediate post dominator      @  PC=0x1c78 (_1.ptx:1181) setp.gt.f32 %p68, %f161, %f9;
GPGPU-Sim PTX: 89 (potential) branch divergence @  PC=0x1c40 (_1.ptx:1172) bra.uni $Lt_2_119554;
GPGPU-Sim PTX:    immediate post dominator      @  PC=0x1c78 (_1.ptx:1181) setp.gt.f32 %p68, %f161, %f9;
GPGPU-Sim PTX: 90 (potential) branch divergence @  PC=0x1c90 (_1.ptx:1184) @!%p69 bra $Lt_2_120066;
GPGPU-Sim PTX:    immediate post dominator      @  PC=0x1ca8 (_1.ptx:1190) mov.u32 %r160, 0;
GPGPU-Sim PTX: 91 (potential) branch divergence @  PC=0x1cb8 (_1.ptx:1192) @%p70 bra $Lt_2_121602;
GPGPU-Sim PTX:    immediate post dominator      @  PC=0x1e20 (_1.ptx:1245) mov.u32 %r168, 0;
GPGPU-Sim PTX: 92 (potential) branch divergence @  PC=0x1ce8 (_1.ptx:1199) @%p71 bra $L_2_99586;
GPGPU-Sim PTX:    immediate post dominator      @  PC=0x1e20 (_1.ptx:1245) mov.u32 %r168, 0;
GPGPU-Sim PTX: 93 (potential) branch divergence @  PC=0x1d10 (_1.ptx:1204) @%p72 bra $L_2_99330;
GPGPU-Sim PTX:    immediate post dominator      @  PC=0x1e20 (_1.ptx:1245) mov.u32 %r168, 0;
GPGPU-Sim PTX: 94 (potential) branch divergence @  PC=0x1d20 (_1.ptx:1207) bra.uni $Lt_2_121602;
GPGPU-Sim PTX:    immediate post dominator      @  PC=0x1e20 (_1.ptx:1245) mov.u32 %r168, 0;
GPGPU-Sim PTX: 95 (potential) branch divergence @  PC=0x1d38 (_1.ptx:1211) @%p73 bra $Lt_2_121346;
GPGPU-Sim PTX:    immediate post dominator      @  PC=0x1df0 (_1.ptx:1236) setp.gt.f32 %p74, %f179, %f8;
GPGPU-Sim PTX: 96 (potential) branch divergence @  PC=0x1db8 (_1.ptx:1227) bra.uni $Lt_2_121090;
GPGPU-Sim PTX:    immediate post dominator      @  PC=0x1df0 (_1.ptx:1236) setp.gt.f32 %p74, %f179, %f8;
GPGPU-Sim PTX: 97 (potential) branch divergence @  PC=0x1e08 (_1.ptx:1239) @!%p75 bra $Lt_2_121602;
GPGPU-Sim PTX:    immediate post dominator      @  PC=0x1e20 (_1.ptx:1245) mov.u32 %r168, 0;
GPGPU-Sim PTX: 98 (potential) branch divergence @  PC=0x1e30 (_1.ptx:1247) @%p76 bra $Lt_2_123138;
GPGPU-Sim PTX:    immediate post dominator      @  PC=0x1f98 (_1.ptx:1300) mov.u32 %r176, 0;
GPGPU-Sim PTX: 99 (potential) branch divergence @  PC=0x1e60 (_1.ptx:1254) @%p77 bra $L_2_100098;
GPGPU-Sim PTX:    immediate post dominator      @  PC=0x1f98 (_1.ptx:1300) mov.u32 %r176, 0;
GPGPU-Sim PTX: 100 (potential) branch divergence @  PC=0x1e88 (_1.ptx:1259) @%p78 bra $L_2_99842;
GPGPU-Sim PTX:    immediate post dominator      @  PC=0x1f98 (_1.ptx:1300) mov.u32 %r176, 0;
GPGPU-Sim PTX: 101 (potential) branch divergence @  PC=0x1e98 (_1.ptx:1262) bra.uni $Lt_2_123138;
GPGPU-Sim PTX:    immediate post dominator      @  PC=0x1f98 (_1.ptx:1300) mov.u32 %r176, 0;
GPGPU-Sim PTX: 102 (potential) branch divergence @  PC=0x1eb0 (_1.ptx:1266) @%p79 bra $Lt_2_122882;
GPGPU-Sim PTX:    immediate post dominator      @  PC=0x1f68 (_1.ptx:1291) setp.gt.f32 %p80, %f197, %f7;
GPGPU-Sim PTX: 103 (potential) branch divergence @  PC=0x1f30 (_1.ptx:1282) bra.uni $Lt_2_122626;
GPGPU-Sim PTX:    immediate post dominator      @  PC=0x1f68 (_1.ptx:1291) setp.gt.f32 %p80, %f197, %f7;
GPGPU-Sim PTX: 104 (potential) branch divergence @  PC=0x1f80 (_1.ptx:1294) @!%p81 bra $Lt_2_123138;
GPGPU-Sim PTX:    immediate post dominator      @  PC=0x1f98 (_1.ptx:1300) mov.u32 %r176, 0;
GPGPU-Sim PTX: 105 (potential) branch divergence @  PC=0x1fa8 (_1.ptx:1302) @%p82 bra $Lt_2_124674;
GPGPU-Sim PTX:    immediate post dominator      @  PC=0x2110 (_1.ptx:1355) mov.u32 %r184, 0;
GPGPU-Sim PTX: 106 (potential) branch divergence @  PC=0x1fd8 (_1.ptx:1309) @%p83 bra $L_2_100610;
GPGPU-Sim PTX:    immediate post dominator      @  PC=0x2110 (_1.ptx:1355) mov.u32 %r184, 0;
GPGPU-Sim PTX: 107 (potential) branch divergence @  PC=0x2000 (_1.ptx:1314) @%p84 bra $L_2_100354;
GPGPU-Sim PTX:    immediate post dominator      @  PC=0x2110 (_1.ptx:1355) mov.u32 %r184, 0;
GPGPU-Sim PTX: 108 (potential) branch divergence @  PC=0x2010 (_1.ptx:1317) bra.uni $Lt_2_124674;
GPGPU-Sim PTX:    immediate post dominator      @  PC=0x2110 (_1.ptx:1355) mov.u32 %r184, 0;
GPGPU-Sim PTX: 109 (potential) branch divergence @  PC=0x2028 (_1.ptx:1321) @%p85 bra $Lt_2_124418;
GPGPU-Sim PTX:    immediate post dominator      @  PC=0x20e0 (_1.ptx:1346) setp.gt.f32 %p86, %f215, %f6;
GPGPU-Sim PTX: 110 (potential) branch divergence @  PC=0x20a8 (_1.ptx:1337) bra.uni $Lt_2_124162;
GPGPU-Sim PTX:    immediate post dominator      @  PC=0x20e0 (_1.ptx:1346) setp.gt.f32 %p86, %f215, %f6;
GPGPU-Sim PTX: 111 (potential) branch divergence @  PC=0x20f8 (_1.ptx:1349) @!%p87 bra $Lt_2_124674;
GPGPU-Sim PTX:    immediate post dominator      @  PC=0x2110 (_1.ptx:1355) mov.u32 %r184, 0;
GPGPU-Sim PTX: 112 (potential) branch divergence @  PC=0x2120 (_1.ptx:1357) @%p88 bra $Lt_2_126210;
GPGPU-Sim PTX:    immediate post dominator      @  PC=0x2288 (_1.ptx:1410) @!%p21 bra $Lt_2_126722;
GPGPU-Sim PTX: 113 (potential) branch divergence @  PC=0x2150 (_1.ptx:1364) @%p89 bra $L_2_101122;
GPGPU-Sim PTX:    immediate post dominator      @  PC=0x2288 (_1.ptx:1410) @!%p21 bra $Lt_2_126722;
GPGPU-Sim PTX: 114 (potential) branch divergence @  PC=0x2178 (_1.ptx:1369) @%p90 bra $L_2_100866;
GPGPU-Sim PTX:    immediate post dominator      @  PC=0x2288 (_1.ptx:1410) @!%p21 bra $Lt_2_126722;
GPGPU-Sim PTX: 115 (potential) branch divergence @  PC=0x2188 (_1.ptx:1372) bra.uni $Lt_2_126210;
GPGPU-Sim PTX:    immediate post dominator      @  PC=0x2288 (_1.ptx:1410) @!%p21 bra $Lt_2_126722;
GPGPU-Sim PTX: 116 (potential) branch divergence @  PC=0x21a0 (_1.ptx:1376) @%p91 bra $Lt_2_125954;
GPGPU-Sim PTX:    immediate post dominator      @  PC=0x2258 (_1.ptx:1401) setp.gt.f32 %p92, %f233, %f5;
GPGPU-Sim PTX: 117 (potential) branch divergence @  PC=0x2220 (_1.ptx:1392) bra.uni $Lt_2_125698;
GPGPU-Sim PTX:    immediate post dominator      @  PC=0x2258 (_1.ptx:1401) setp.gt.f32 %p92, %f233, %f5;
GPGPU-Sim PTX: 118 (potential) branch divergence @  PC=0x2270 (_1.ptx:1404) @!%p93 bra $Lt_2_126210;
GPGPU-Sim PTX:    immediate post dominator      @  PC=0x2288 (_1.ptx:1410) @!%p21 bra $Lt_2_126722;
GPGPU-Sim PTX: 119 (potential) branch divergence @  PC=0x2288 (_1.ptx:1410) @!%p21 bra $Lt_2_126722;
GPGPU-Sim PTX:    immediate post dominator      @  PC=0x2490 (_1.ptx:1489) mov.f32 %f254, %f17;
GPGPU-Sim PTX: 120 (potential) branch divergence @  PC=0x22d8 (_1.ptx:1423) @%p94 bra $Lt_2_129026;
GPGPU-Sim PTX:    immediate post dominator      @  PC=0x2478 (_1.ptx:1484) add.s32 %r192, %r192, %r19;
GPGPU-Sim PTX: 121 (potential) branch divergence @  PC=0x2308 (_1.ptx:1430) @%p95 bra $Lt_2_129026;
GPGPU-Sim PTX:    immediate post dominator      @  PC=0x2478 (_1.ptx:1484) add.s32 %r192, %r192, %r19;
GPGPU-Sim PTX: 122 (potential) branch divergence @  PC=0x2330 (_1.ptx:1435) @%p96 bra $L_2_101378;
GPGPU-Sim PTX:    immediate post dominator      @  PC=0x2478 (_1.ptx:1484) add.s32 %r192, %r192, %r19;
GPGPU-Sim PTX: 123 (potential) branch divergence @  PC=0x2338 (_1.ptx:1436) bra.uni $Lt_2_129026;
GPGPU-Sim PTX:    immediate post dominator      @  PC=0x2478 (_1.ptx:1484) add.s32 %r192, %r192, %r19;
GPGPU-Sim PTX: 124 (potential) branch divergence @  PC=0x2370 (_1.ptx:1444) @%p97 bra $Lt_2_128258;
GPGPU-Sim PTX:    immediate post dominator      @  PC=0x2428 (_1.ptx:1469) setp.lt.f32 %p98, %f234, %f252;
GPGPU-Sim PTX: 125 (potential) branch divergence @  PC=0x23f0 (_1.ptx:1460) bra.uni $Lt_2_128002;
GPGPU-Sim PTX:    immediate post dominator      @  PC=0x2428 (_1.ptx:1469) setp.lt.f32 %p98, %f234, %f252;
GPGPU-Sim PTX: 126 (potential) branch divergence @  PC=0x2430 (_1.ptx:1470) @!%p98 bra $Lt_2_128770;
GPGPU-Sim PTX:    immediate post dominator      @  PC=0x2458 (_1.ptx:1477) setp.gt.f32 %p99, %f17, %f253;
GPGPU-Sim PTX: 127 (potential) branch divergence @  PC=0x2448 (_1.ptx:1473) bra.uni $Lt_2_128514;
GPGPU-Sim PTX:    immediate post dominator      @  PC=0x2458 (_1.ptx:1477) setp.gt.f32 %p99, %f17, %f253;
GPGPU-Sim PTX: 128 (potential) branch divergence @  PC=0x2460 (_1.ptx:1478) @!%p99 bra $Lt_2_129026;
GPGPU-Sim PTX:    immediate post dominator      @  PC=0x2478 (_1.ptx:1484) add.s32 %r192, %r192, %r19;
GPGPU-Sim PTX: 129 (potential) branch divergence @  PC=0x2488 (_1.ptx:1486) @%p100 bra $Lt_2_127234;
GPGPU-Sim PTX:    immediate post dominator      @  PC=0x2490 (_1.ptx:1489) mov.f32 %f254, %f17;
GPGPU-Sim PTX: 130 (potential) branch divergence @  PC=0x24b0 (_1.ptx:1496) @!%p5 bra $Lt_2_131330;
GPGPU-Sim PTX:    immediate post dominator      @  PC=0x25b0 (_1.ptx:1542) bar.sync 0;
GPGPU-Sim PTX: 131 (potential) branch divergence @  PC=0x24c8 (_1.ptx:1499) @%p101 bra $Lt_2_130306;
GPGPU-Sim PTX:    immediate post dominator      @  PC=0x2590 (_1.ptx:1534) setp.lt.f32 %p106, %f2, %f254;
GPGPU-Sim PTX: 132 (potential) branch divergence @  PC=0x2508 (_1.ptx:1510) @%p102 bra $Lt_2_146178;
GPGPU-Sim PTX:    immediate post dominator      @  PC=0x2570 (_1.ptx:1529) add.s32 %r205, %r205, 1;
GPGPU-Sim PTX: 133 (potential) branch divergence @  PC=0x2518 (_1.ptx:1512) @!%p103 bra $Lt_2_146434;
GPGPU-Sim PTX:    immediate post dominator      @  PC=0x2570 (_1.ptx:1529) add.s32 %r205, %r205, 1;
GPGPU-Sim PTX: 134 (potential) branch divergence @  PC=0x2540 (_1.ptx:1517) @%p104 bra $Lt_2_146434;
GPGPU-Sim PTX:    immediate post dominator      @  PC=0x2570 (_1.ptx:1529) add.s32 %r205, %r205, 1;
GPGPU-Sim PTX: 135 (potential) branch divergence @  PC=0x2548 (_1.ptx:1518) bra.uni $L_2_102146;
GPGPU-Sim PTX:    immediate post dominator      @  PC=0x2560 (_1.ptx:1524) mov.f32 %f254, %f255;
GPGPU-Sim PTX: 136 (potential) branch divergence @  PC=0x2588 (_1.ptx:1532) @%p105 bra $Lt_2_130818;
GPGPU-Sim PTX:    immediate post dominator      @  PC=0x2590 (_1.ptx:1534) setp.lt.f32 %p106, %f2, %f254;
GPGPU-Sim PTX: 137 (potential) branch divergence @  PC=0x2598 (_1.ptx:1535) @!%p106 bra $Lt_2_131330;
GPGPU-Sim PTX:    immediate post dominator      @  PC=0x25b0 (_1.ptx:1542) bar.sync 0;
GPGPU-Sim PTX: 138 (potential) branch divergence @  PC=0x25d0 (_1.ptx:1548) @%p107 bra $Lt_2_132098;
GPGPU-Sim PTX:    immediate post dominator      @  PC=0x2620 (_1.ptx:1566) bar.sync 0;
GPGPU-Sim PTX: 139 (potential) branch divergence @  PC=0x25d8 (_1.ptx:1549) @!%p5 bra $Lt_2_132354;
GPGPU-Sim PTX:    immediate post dominator      @  PC=0x2600 (_1.ptx:1557) mov.s32 %r27, %r210;
GPGPU-Sim PTX: 140 (potential) branch divergence @  PC=0x2610 (_1.ptx:1560) bra.uni $Lt_2_131842;
GPGPU-Sim PTX:    immediate post dominator      @  PC=0x2620 (_1.ptx:1566) bar.sync 0;
GPGPU-Sim PTX: 141 (potential) branch divergence @  PC=0x2630 (_1.ptx:1569) @%p108 bra $L_2_102658;
GPGPU-Sim PTX:    immediate post dominator      @  PC=0x2b30 (_1.ptx:1788) mov.s32 %r243, %r93;
GPGPU-Sim PTX: 142 (potential) branch divergence @  PC=0x2648 (_1.ptx:1572) @%p109 bra $L_2_94210;
GPGPU-Sim PTX:    immediate post dominator      @  PC=0x2b30 (_1.ptx:1788) mov.s32 %r243, %r93;
GPGPU-Sim PTX: 143 (potential) branch divergence @  PC=0x2650 (_1.ptx:1573) bra.uni $L_2_102658;
GPGPU-Sim PTX:    immediate post dominator      @  PC=0x2b30 (_1.ptx:1788) mov.s32 %r243, %r93;
GPGPU-Sim PTX: 144 (potential) branch divergence @  PC=0x2660 (_1.ptx:1576) bra.uni $L_2_102658;
GPGPU-Sim PTX:    immediate post dominator      @  PC=0x2b30 (_1.ptx:1788) mov.s32 %r243, %r93;
GPGPU-Sim PTX: 145 (potential) branch divergence @  PC=0x2668 (_1.ptx:1579) @!%p7 bra $Lt_2_147202;
GPGPU-Sim PTX:    immediate post dominator      @  PC=0x2b30 (_1.ptx:1788) mov.s32 %r243, %r93;
GPGPU-Sim PTX: 146 (potential) branch divergence @  PC=0x26c0 (_1.ptx:1592) @!%p3 bra $Lt_2_147458;
GPGPU-Sim PTX:    immediate post dominator      @  PC=0x2918 (_1.ptx:1688) mov.f32 %f278, %f257;
GPGPU-Sim PTX: 147 (potential) branch divergence @  PC=0x2750 (_1.ptx:1613) @%p110 bra $Lt_2_147970;
GPGPU-Sim PTX:    immediate post dominator      @  PC=0x28e8 (_1.ptx:1679) add.u64 %rd166, %rd166, %rd19;
GPGPU-Sim PTX: 148 (potential) branch divergence @  PC=0x2780 (_1.ptx:1619) @%p111 bra $Lt_2_147970;
GPGPU-Sim PTX:    immediate post dominator      @  PC=0x28e8 (_1.ptx:1679) add.u64 %rd166, %rd166, %rd19;
GPGPU-Sim PTX: 149 (potential) branch divergence @  PC=0x27a8 (_1.ptx:1624) @%p112 bra $Lt_2_147970;
GPGPU-Sim PTX:    immediate post dominator      @  PC=0x28e8 (_1.ptx:1679) add.u64 %rd166, %rd166, %rd19;
GPGPU-Sim PTX: 150 (potential) branch divergence @  PC=0x27e0 (_1.ptx:1632) @%p113 bra $Lt_2_133890;
GPGPU-Sim PTX:    immediate post dominator      @  PC=0x2898 (_1.ptx:1659) setp.lt.f32 %p114, %f258, %f276;
GPGPU-Sim PTX: 151 (potential) branch divergence @  PC=0x2860 (_1.ptx:1649) bra.uni $Lt_2_133634;
GPGPU-Sim PTX:    immediate post dominator      @  PC=0x2898 (_1.ptx:1659) setp.lt.f32 %p114, %f258, %f276;
GPGPU-Sim PTX: 152 (potential) branch divergence @  PC=0x28a0 (_1.ptx:1660) @!%p114 bra $Lt_2_134402;
GPGPU-Sim PTX:    immediate post dominator      @  PC=0x28c8 (_1.ptx:1670) setp.gt.f32 %p115, %f257, %f277;
GPGPU-Sim PTX: 153 (potential) branch divergence @  PC=0x28b8 (_1.ptx:1665) bra.uni $Lt_2_134146;
GPGPU-Sim PTX:    immediate post dominator      @  PC=0x28c8 (_1.ptx:1670) setp.gt.f32 %p115, %f257, %f277;
GPGPU-Sim PTX: 154 (potential) branch divergence @  PC=0x28d0 (_1.ptx:1671) @!%p115 bra $Lt_2_147970;
GPGPU-Sim PTX:    immediate post dominator      @  PC=0x28e8 (_1.ptx:1679) add.u64 %rd166, %rd166, %rd19;
GPGPU-Sim PTX: 155 (potential) branch divergence @  PC=0x2900 (_1.ptx:1682) @%p116 bra $Lt_2_133378;
GPGPU-Sim PTX:    immediate post dominator      @  PC=0x2908 (_1.ptx:1683) bra.uni $Lt_2_132866;
GPGPU-Sim PTX: 156 (potential) branch divergence @  PC=0x2908 (_1.ptx:1683) bra.uni $Lt_2_132866;
GPGPU-Sim PTX:    immediate post dominator      @  PC=0x2918 (_1.ptx:1688) mov.f32 %f278, %f257;
GPGPU-Sim PTX: 157 (potential) branch divergence @  PC=0x2938 (_1.ptx:1695) @!%p5 bra $Lt_2_136962;
GPGPU-Sim PTX:    immediate post dominator      @  PC=0x2a60 (_1.ptx:1746) bar.sync 0;
GPGPU-Sim PTX: 158 (potential) branch divergence @  PC=0x2978 (_1.ptx:1703) @%p117 bra $Lt_2_135938;
GPGPU-Sim PTX:    immediate post dominator      @  PC=0x2a40 (_1.ptx:1738) setp.lt.f32 %p122, %f2, %f278;
GPGPU-Sim PTX: 159 (potential) branch divergence @  PC=0x29b8 (_1.ptx:1714) @%p118 bra $Lt_2_148738;
GPGPU-Sim PTX:    immediate post dominator      @  PC=0x2a20 (_1.ptx:1733) add.s32 %r234, %r234, 1;
GPGPU-Sim PTX: 160 (potential) branch divergence @  PC=0x29c8 (_1.ptx:1716) @!%p119 bra $Lt_2_148994;
GPGPU-Sim PTX:    immediate post dominator      @  PC=0x2a20 (_1.ptx:1733) add.s32 %r234, %r234, 1;
GPGPU-Sim PTX: 161 (potential) branch divergence @  PC=0x29f0 (_1.ptx:1721) @%p120 bra $Lt_2_148994;
GPGPU-Sim PTX:    immediate post dominator      @  PC=0x2a20 (_1.ptx:1733) add.s32 %r234, %r234, 1;
GPGPU-Sim PTX: 162 (potential) branch divergence @  PC=0x29f8 (_1.ptx:1722) bra.uni $L_2_104450;
GPGPU-Sim PTX:    immediate post dominator      @  PC=0x2a10 (_1.ptx:1728) mov.f32 %f278, %f279;
GPGPU-Sim PTX: 163 (potential) branch divergence @  PC=0x2a38 (_1.ptx:1736) @%p121 bra $Lt_2_136450;
GPGPU-Sim PTX:    immediate post dominator      @  PC=0x2a40 (_1.ptx:1738) setp.lt.f32 %p122, %f2, %f278;
GPGPU-Sim PTX: 164 (potential) branch divergence @  PC=0x2a48 (_1.ptx:1739) @!%p122 bra $Lt_2_136962;
GPGPU-Sim PTX:    immediate post dominator      @  PC=0x2a60 (_1.ptx:1746) bar.sync 0;
GPGPU-Sim PTX: 165 (potential) branch divergence @  PC=0x2a80 (_1.ptx:1752) @%p123 bra $Lt_2_137730;
GPGPU-Sim PTX:    immediate post dominator      @  PC=0x2af0 (_1.ptx:1775) bar.sync 0;
GPGPU-Sim PTX: 166 (potential) branch divergence @  PC=0x2a88 (_1.ptx:1753) @!%p5 bra $Lt_2_137986;
GPGPU-Sim PTX:    immediate post dominator      @  PC=0x2ad0 (_1.ptx:1766) mov.s32 %r27, %r239;
GPGPU-Sim PTX: 167 (potential) branch divergence @  PC=0x2ae0 (_1.ptx:1769) bra.uni $Lt_2_137474;
GPGPU-Sim PTX:    immediate post dominator      @  PC=0x2af0 (_1.ptx:1775) bar.sync 0;
GPGPU-Sim PTX: 168 (potential) branch divergence @  PC=0x2b00 (_1.ptx:1778) @%p124 bra $L_2_102658;
GPGPU-Sim PTX:    immediate post dominator      @  PC=0x2b30 (_1.ptx:1788) mov.s32 %r243, %r93;
GPGPU-Sim PTX: 169 (potential) branch divergence @  PC=0x2b18 (_1.ptx:1781) @%p125 bra $L_2_102402;
GPGPU-Sim PTX:    immediate post dominator      @  PC=0x2b30 (_1.ptx:1788) mov.s32 %r243, %r93;
GPGPU-Sim PTX: 170 (potential) branch divergence @  PC=0x2b20 (_1.ptx:1782) bra.uni $L_2_102658;
GPGPU-Sim PTX:    immediate post dominator      @  PC=0x2b30 (_1.ptx:1788) mov.s32 %r243, %r93;
GPGPU-Sim PTX: ... end of reconvergence points for _Z39generate_candidate_cluster_full_storageiiPcPfS_PiS0_iiiS1_fb
GPGPU-Sim PTX: ... done pre-decoding instructions for '_Z39generate_candidate_cluster_full_storageiiPcPfS_PiS0_iiiS1_fb'.
GPGPU-Sim PTX: instruction assembly for function '_Z42generate_candidate_cluster_compact_storageiiPcPfS_PiS0_iiiS1_fb'...   done.
GPGPU-Sim PTX: finding reconvergence points for '_Z42generate_candidate_cluster_compact_storageiiPcPfS_PiS0_iiiS1_fb'...
GPGPU-Sim PTX: Finding dominators for '_Z42generate_candidate_cluster_compact_storageiiPcPfS_PiS0_iiiS1_fb'...
GPGPU-Sim PTX: Finding immediate dominators for '_Z42generate_candidate_cluster_compact_storageiiPcPfS_PiS0_iiiS1_fb'...
GPGPU-Sim PTX: Finding postdominators for '_Z42generate_candidate_cluster_compact_storageiiPcPfS_PiS0_iiiS1_fb'...
GPGPU-Sim PTX: Finding immediate postdominators for '_Z42generate_candidate_cluster_compact_storageiiPcPfS_PiS0_iiiS1_fb'...
GPGPU-Sim PTX: pre-decoding instructions for '_Z42generate_candidate_cluster_compact_storageiiPcPfS_PiS0_iiiS1_fb'...
GPGPU-Sim PTX: reconvergence points for _Z42generate_candidate_cluster_compact_storageiiPcPfS_PiS0_iiiS1_fb...
GPGPU-Sim PTX:  1 (potential) branch divergence @  PC=0x2c18 (_1.ptx:1828) @%p1 bra $Lt_3_139266;
GPGPU-Sim PTX:    immediate post dominator      @  PC=0x2c98 (_1.ptx:1848) setp.ge.s32 %p3, %r11, %r8;
GPGPU-Sim PTX:  2 (potential) branch divergence @  PC=0x2c90 (_1.ptx:1846) @%p2 bra $Lt_3_139778;
GPGPU-Sim PTX:    immediate post dominator      @  PC=0x2c98 (_1.ptx:1848) setp.ge.s32 %p3, %r11, %r8;
GPGPU-Sim PTX:  3 (potential) branch divergence @  PC=0x2ca0 (_1.ptx:1849) @%p3 bra $Lt_3_140290;
GPGPU-Sim PTX:    immediate post dominator      @  PC=0x2d30 (_1.ptx:1871) mov.s32 %r23, 0;
GPGPU-Sim PTX:  4 (potential) branch divergence @  PC=0x2d28 (_1.ptx:1869) @%p4 bra $Lt_3_140802;
GPGPU-Sim PTX:    immediate post dominator      @  PC=0x2d30 (_1.ptx:1871) mov.s32 %r23, 0;
GPGPU-Sim PTX:  5 (potential) branch divergence @  PC=0x2d40 (_1.ptx:1873) @!%p5 bra $Lt_3_141314;
GPGPU-Sim PTX:    immediate post dominator      @  PC=0x2d88 (_1.ptx:1887) bar.sync 0;
GPGPU-Sim PTX:  6 (potential) branch divergence @  PC=0x2d58 (_1.ptx:1876) @%p6 bra $Lt_3_141826;
GPGPU-Sim PTX:    immediate post dominator      @  PC=0x2d68 (_1.ptx:1881) mov.s32 %r24, 1;
GPGPU-Sim PTX:  7 (potential) branch divergence @  PC=0x2da0 (_1.ptx:1892) @%p7 bra $Lt_3_194050;
GPGPU-Sim PTX:    immediate post dominator      @  PC=0x3750 (_1.ptx:2238) bar.sync 0;
GPGPU-Sim PTX:  8 (potential) branch divergence @  PC=0x2de8 (_1.ptx:1901) @%p8 bra $Lt_3_194306;
GPGPU-Sim PTX:    immediate post dominator      @  PC=0x3750 (_1.ptx:2238) bar.sync 0;
GPGPU-Sim PTX:  9 (potential) branch divergence @  PC=0x2e28 (_1.ptx:1910) @%p9 bra $Lt_3_194562;
GPGPU-Sim PTX:    immediate post dominator      @  PC=0x3750 (_1.ptx:2238) bar.sync 0;
GPGPU-Sim PTX: 10 (potential) branch divergence @  PC=0x2e68 (_1.ptx:1918) @%p10 bra $Lt_3_194818;
GPGPU-Sim PTX:    immediate post dominator      @  PC=0x3750 (_1.ptx:2238) bar.sync 0;
GPGPU-Sim PTX: 11 (potential) branch divergence @  PC=0x2e88 (_1.ptx:1923) @%p11 bra $Lt_3_195074;
GPGPU-Sim PTX:    immediate post dominator      @  PC=0x3750 (_1.ptx:2238) bar.sync 0;
GPGPU-Sim PTX: 12 (potential) branch divergence @  PC=0x2ec8 (_1.ptx:1931) @%p12 bra $Lt_3_195330;
GPGPU-Sim PTX:    immediate post dominator      @  PC=0x3750 (_1.ptx:2238) bar.sync 0;
GPGPU-Sim PTX: 13 (potential) branch divergence @  PC=0x2ee8 (_1.ptx:1936) @%p13 bra $Lt_3_195586;
GPGPU-Sim PTX:    immediate post dominator      @  PC=0x3750 (_1.ptx:2238) bar.sync 0;
GPGPU-Sim PTX: 14 (potential) branch divergence @  PC=0x2f28 (_1.ptx:1944) @%p14 bra $Lt_3_195842;
GPGPU-Sim PTX:    immediate post dominator      @  PC=0x3750 (_1.ptx:2238) bar.sync 0;
GPGPU-Sim PTX: 15 (potential) branch divergence @  PC=0x2f48 (_1.ptx:1949) @%p15 bra $Lt_3_196098;
GPGPU-Sim PTX:    immediate post dominator      @  PC=0x3750 (_1.ptx:2238) bar.sync 0;
GPGPU-Sim PTX: 16 (potential) branch divergence @  PC=0x2f88 (_1.ptx:1957) @%p16 bra $Lt_3_196354;
GPGPU-Sim PTX:    immediate post dominator      @  PC=0x3750 (_1.ptx:2238) bar.sync 0;
GPGPU-Sim PTX: 17 (potential) branch divergence @  PC=0x2fa8 (_1.ptx:1962) @%p17 bra $Lt_3_196610;
GPGPU-Sim PTX:    immediate post dominator      @  PC=0x3750 (_1.ptx:2238) bar.sync 0;
GPGPU-Sim PTX: 18 (potential) branch divergence @  PC=0x2fe8 (_1.ptx:1970) @%p18 bra $Lt_3_196866;
GPGPU-Sim PTX:    immediate post dominator      @  PC=0x3750 (_1.ptx:2238) bar.sync 0;
GPGPU-Sim PTX: 19 (potential) branch divergence @  PC=0x3008 (_1.ptx:1975) @%p19 bra $Lt_3_197122;
GPGPU-Sim PTX:    immediate post dominator      @  PC=0x3750 (_1.ptx:2238) bar.sync 0;
GPGPU-Sim PTX: 20 (potential) branch divergence @  PC=0x3048 (_1.ptx:1983) @%p20 bra $Lt_3_197378;
GPGPU-Sim PTX:    immediate post dominator      @  PC=0x3750 (_1.ptx:2238) bar.sync 0;
GPGPU-Sim PTX: 21 (potential) branch divergence @  PC=0x3068 (_1.ptx:1988) @%p21 bra $Lt_3_197634;
GPGPU-Sim PTX:    immediate post dominator      @  PC=0x3750 (_1.ptx:2238) bar.sync 0;
GPGPU-Sim PTX: 22 (potential) branch divergence @  PC=0x30a8 (_1.ptx:1996) @%p22 bra $Lt_3_197890;
GPGPU-Sim PTX:    immediate post dominator      @  PC=0x3750 (_1.ptx:2238) bar.sync 0;
GPGPU-Sim PTX: 23 (potential) branch divergence @  PC=0x30c8 (_1.ptx:2001) @%p23 bra $Lt_3_198146;
GPGPU-Sim PTX:    immediate post dominator      @  PC=0x3750 (_1.ptx:2238) bar.sync 0;
GPGPU-Sim PTX: 24 (potential) branch divergence @  PC=0x3108 (_1.ptx:2009) @%p24 bra $Lt_3_198402;
GPGPU-Sim PTX:    immediate post dominator      @  PC=0x3750 (_1.ptx:2238) bar.sync 0;
GPGPU-Sim PTX: 25 (potential) branch divergence @  PC=0x3128 (_1.ptx:2014) @%p25 bra $Lt_3_198658;
GPGPU-Sim PTX:    immediate post dominator      @  PC=0x3750 (_1.ptx:2238) bar.sync 0;
GPGPU-Sim PTX: 26 (potential) branch divergence @  PC=0x3168 (_1.ptx:2022) @%p26 bra $Lt_3_198914;
GPGPU-Sim PTX:    immediate post dominator      @  PC=0x3750 (_1.ptx:2238) bar.sync 0;
GPGPU-Sim PTX: 27 (potential) branch divergence @  PC=0x3188 (_1.ptx:2027) @%p27 bra $Lt_3_199170;
GPGPU-Sim PTX:    immediate post dominator      @  PC=0x3750 (_1.ptx:2238) bar.sync 0;
GPGPU-Sim PTX: 28 (potential) branch divergence @  PC=0x31c8 (_1.ptx:2035) @%p28 bra $Lt_3_199426;
GPGPU-Sim PTX:    immediate post dominator      @  PC=0x3750 (_1.ptx:2238) bar.sync 0;
GPGPU-Sim PTX: 29 (potential) branch divergence @  PC=0x31e8 (_1.ptx:2040) @%p29 bra $Lt_3_199682;
GPGPU-Sim PTX:    immediate post dominator      @  PC=0x3750 (_1.ptx:2238) bar.sync 0;
GPGPU-Sim PTX: 30 (potential) branch divergence @  PC=0x3218 (_1.ptx:2046) bra.uni $Lt_3_258;
GPGPU-Sim PTX:    immediate post dominator      @  PC=0x3750 (_1.ptx:2238) bar.sync 0;
GPGPU-Sim PTX: 31 (potential) branch divergence @  PC=0x3280 (_1.ptx:2060) bra.uni $Lt_3_258;
GPGPU-Sim PTX:    immediate post dominator      @  PC=0x3750 (_1.ptx:2238) bar.sync 0;
GPGPU-Sim PTX: 32 (potential) branch divergence @  PC=0x32e0 (_1.ptx:2073) bra.uni $Lt_3_258;
GPGPU-Sim PTX:    immediate post dominator      @  PC=0x3750 (_1.ptx:2238) bar.sync 0;
GPGPU-Sim PTX: 33 (potential) branch divergence @  PC=0x3340 (_1.ptx:2086) bra.uni $Lt_3_258;
GPGPU-Sim PTX:    immediate post dominator      @  PC=0x3750 (_1.ptx:2238) bar.sync 0;
GPGPU-Sim PTX: 34 (potential) branch divergence @  PC=0x3398 (_1.ptx:2098) bra.uni $Lt_3_258;
GPGPU-Sim PTX:    immediate post dominator      @  PC=0x3750 (_1.ptx:2238) bar.sync 0;
GPGPU-Sim PTX: 35 (potential) branch divergence @  PC=0x33f0 (_1.ptx:2110) bra.uni $Lt_3_258;
GPGPU-Sim PTX:    immediate post dominator      @  PC=0x3750 (_1.ptx:2238) bar.sync 0;
GPGPU-Sim PTX: 36 (potential) branch divergence @  PC=0x3440 (_1.ptx:2121) bra.uni $Lt_3_258;
GPGPU-Sim PTX:    immediate post dominator      @  PC=0x3750 (_1.ptx:2238) bar.sync 0;
GPGPU-Sim PTX: 37 (potential) branch divergence @  PC=0x3490 (_1.ptx:2132) bra.uni $Lt_3_258;
GPGPU-Sim PTX:    immediate post dominator      @  PC=0x3750 (_1.ptx:2238) bar.sync 0;
GPGPU-Sim PTX: 38 (potential) branch divergence @  PC=0x34d8 (_1.ptx:2142) bra.uni $Lt_3_258;
GPGPU-Sim PTX:    immediate post dominator      @  PC=0x3750 (_1.ptx:2238) bar.sync 0;
GPGPU-Sim PTX: 39 (potential) branch divergence @  PC=0x3520 (_1.ptx:2152) bra.uni $Lt_3_258;
GPGPU-Sim PTX:    immediate post dominator      @  PC=0x3750 (_1.ptx:2238) bar.sync 0;
GPGPU-Sim PTX: 40 (potential) branch divergence @  PC=0x3560 (_1.ptx:2161) bra.uni $Lt_3_258;
GPGPU-Sim PTX:    immediate post dominator      @  PC=0x3750 (_1.ptx:2238) bar.sync 0;
GPGPU-Sim PTX: 41 (potential) branch divergence @  PC=0x35a0 (_1.ptx:2170) bra.uni $Lt_3_258;
GPGPU-Sim PTX:    immediate post dominator      @  PC=0x3750 (_1.ptx:2238) bar.sync 0;
GPGPU-Sim PTX: 42 (potential) branch divergence @  PC=0x35d8 (_1.ptx:2178) bra.uni $Lt_3_258;
GPGPU-Sim PTX:    immediate post dominator      @  PC=0x3750 (_1.ptx:2238) bar.sync 0;
GPGPU-Sim PTX: 43 (potential) branch divergence @  PC=0x3610 (_1.ptx:2186) bra.uni $Lt_3_258;
GPGPU-Sim PTX:    immediate post dominator      @  PC=0x3750 (_1.ptx:2238) bar.sync 0;
GPGPU-Sim PTX: 44 (potential) branch divergence @  PC=0x3640 (_1.ptx:2193) bra.uni $Lt_3_258;
GPGPU-Sim PTX:    immediate post dominator      @  PC=0x3750 (_1.ptx:2238) bar.sync 0;
GPGPU-Sim PTX: 45 (potential) branch divergence @  PC=0x3670 (_1.ptx:2200) bra.uni $Lt_3_258;
GPGPU-Sim PTX:    immediate post dominator      @  PC=0x3750 (_1.ptx:2238) bar.sync 0;
GPGPU-Sim PTX: 46 (potential) branch divergence @  PC=0x3698 (_1.ptx:2206) bra.uni $Lt_3_258;
GPGPU-Sim PTX:    immediate post dominator      @  PC=0x3750 (_1.ptx:2238) bar.sync 0;
GPGPU-Sim PTX: 47 (potential) branch divergence @  PC=0x36c0 (_1.ptx:2212) bra.uni $Lt_3_258;
GPGPU-Sim PTX:    immediate post dominator      @  PC=0x3750 (_1.ptx:2238) bar.sync 0;
GPGPU-Sim PTX: 48 (potential) branch divergence @  PC=0x36e0 (_1.ptx:2217) bra.uni $Lt_3_258;
GPGPU-Sim PTX:    immediate post dominator      @  PC=0x3750 (_1.ptx:2238) bar.sync 0;
GPGPU-Sim PTX: 49 (potential) branch divergence @  PC=0x3700 (_1.ptx:2222) bra.uni $Lt_3_258;
GPGPU-Sim PTX:    immediate post dominator      @  PC=0x3750 (_1.ptx:2238) bar.sync 0;
GPGPU-Sim PTX: 50 (potential) branch divergence @  PC=0x3718 (_1.ptx:2226) bra.uni $Lt_3_258;
GPGPU-Sim PTX:    immediate post dominator      @  PC=0x3750 (_1.ptx:2238) bar.sync 0;
GPGPU-Sim PTX: 51 (potential) branch divergence @  PC=0x3730 (_1.ptx:2230) bra.uni $Lt_3_258;
GPGPU-Sim PTX:    immediate post dominator      @  PC=0x3750 (_1.ptx:2238) bar.sync 0;
GPGPU-Sim PTX: 52 (potential) branch divergence @  PC=0x3740 (_1.ptx:2233) bra.uni $Lt_3_258;
GPGPU-Sim PTX:    immediate post dominator      @  PC=0x3750 (_1.ptx:2238) bar.sync 0;
GPGPU-Sim PTX: 53 (potential) branch divergence @  PC=0x3768 (_1.ptx:2242) @%p30 bra $Lt_3_199938;
GPGPU-Sim PTX:    immediate post dominator      @  PC=0x5e18 (_1.ptx:3720) mov.s32 %r369, %r92;
GPGPU-Sim PTX: 54 (potential) branch divergence @  PC=0x3818 (_1.ptx:2267) @%p32 bra $Lt_3_200194;
GPGPU-Sim PTX:    immediate post dominator      @  PC=0x58e8 (_1.ptx:3500) bar.sync 0;
GPGPU-Sim PTX: 55 (potential) branch divergence @  PC=0x3828 (_1.ptx:2269) @%p33 bra $Lt_3_200450;
GPGPU-Sim PTX:    immediate post dominator      @  PC=0x3af0 (_1.ptx:2375) mov.u32 %r116, 0;
GPGPU-Sim PTX: 56 (potential) branch divergence @  PC=0x3848 (_1.ptx:2273) @%p34 bra $Lt_3_200706;
GPGPU-Sim PTX:    immediate post dominator      @  PC=0x3af0 (_1.ptx:2375) mov.u32 %r116, 0;
GPGPU-Sim PTX: 57 (potential) branch divergence @  PC=0x3878 (_1.ptx:2279) @%p35 bra $Lt_3_200706;
GPGPU-Sim PTX:    immediate post dominator      @  PC=0x3af0 (_1.ptx:2375) mov.u32 %r116, 0;
GPGPU-Sim PTX: 58 (potential) branch divergence @  PC=0x38a0 (_1.ptx:2284) @%p36 bra $L_3_128770;
GPGPU-Sim PTX:    immediate post dominator      @  PC=0x3af0 (_1.ptx:2375) mov.u32 %r116, 0;
GPGPU-Sim PTX: 59 (potential) branch divergence @  PC=0x38c0 (_1.ptx:2290) bra.uni $Lt_3_770;
GPGPU-Sim PTX:    immediate post dominator      @  PC=0x3af0 (_1.ptx:2375) mov.u32 %r116, 0;
GPGPU-Sim PTX: 60 (potential) branch divergence @  PC=0x38e8 (_1.ptx:2296) @%p37 bra $Lt_3_142338;
GPGPU-Sim PTX:    immediate post dominator      @  PC=0x3a78 (_1.ptx:2354) setp.lt.f32 %p42, %f7, %f9;
GPGPU-Sim PTX: 61 (potential) branch divergence @  PC=0x3978 (_1.ptx:2316) @%p38 bra $Lt_3_143106;
GPGPU-Sim PTX:    immediate post dominator      @  PC=0x3a78 (_1.ptx:2354) setp.lt.f32 %p42, %f7, %f9;
GPGPU-Sim PTX: 62 (potential) branch divergence @  PC=0x3988 (_1.ptx:2318) bra.uni $Lt_3_1026;
GPGPU-Sim PTX:    immediate post dominator      @  PC=0x3a78 (_1.ptx:2354) setp.lt.f32 %p42, %f7, %f9;
GPGPU-Sim PTX: 63 (potential) branch divergence @  PC=0x3998 (_1.ptx:2321) @%p39 bra $Lt_3_143618;
GPGPU-Sim PTX:    immediate post dominator      @  PC=0x3a78 (_1.ptx:2354) setp.lt.f32 %p42, %f7, %f9;
GPGPU-Sim PTX: 64 (potential) branch divergence @  PC=0x39b0 (_1.ptx:2324) @%p40 bra $Lt_3_144386;
GPGPU-Sim PTX:    immediate post dominator      @  PC=0x3a48 (_1.ptx:2345) mov.s32 %r99, 0;
GPGPU-Sim PTX: 65 (potential) branch divergence @  PC=0x3a30 (_1.ptx:2340) bra.uni $Lt_3_144130;
GPGPU-Sim PTX:    immediate post dominator      @  PC=0x3a48 (_1.ptx:2345) mov.s32 %r99, 0;
GPGPU-Sim PTX: 66 (potential) branch divergence @  PC=0x3a50 (_1.ptx:2346) bra.uni $Lt_3_1026;
GPGPU-Sim PTX:    immediate post dominator      @  PC=0x3a78 (_1.ptx:2354) setp.lt.f32 %p42, %f7, %f9;
GPGPU-Sim PTX: 67 (potential) branch divergence @  PC=0x3a68 (_1.ptx:2350) @%p41 bra $Lt_3_142850;
GPGPU-Sim PTX:    immediate post dominator      @  PC=0x3a78 (_1.ptx:2354) setp.lt.f32 %p42, %f7, %f9;
GPGPU-Sim PTX: 68 (potential) branch divergence @  PC=0x3a80 (_1.ptx:2355) @!%p42 bra $Lt_3_145154;
GPGPU-Sim PTX:    immediate post dominator      @  PC=0x3aa8 (_1.ptx:2362) setp.gt.f32 %p43, %f5, %f27;
GPGPU-Sim PTX: 69 (potential) branch divergence @  PC=0x3a98 (_1.ptx:2358) bra.uni $Lt_3_144898;
GPGPU-Sim PTX:    immediate post dominator      @  PC=0x3aa8 (_1.ptx:2362) setp.gt.f32 %p43, %f5, %f27;
GPGPU-Sim PTX: 70 (potential) branch divergence @  PC=0x3ab0 (_1.ptx:2363) @!%p43 bra $Lt_3_145666;
GPGPU-Sim PTX:    immediate post dominator      @  PC=0x3af0 (_1.ptx:2375) mov.u32 %r116, 0;
GPGPU-Sim PTX: 71 (potential) branch divergence @  PC=0x3ac8 (_1.ptx:2366) bra.uni $Lt_3_770;
GPGPU-Sim PTX:    immediate post dominator      @  PC=0x3af0 (_1.ptx:2375) mov.u32 %r116, 0;
GPGPU-Sim PTX: 72 (potential) branch divergence @  PC=0x3ad8 (_1.ptx:2369) bra.uni $Lt_3_770;
GPGPU-Sim PTX:    immediate post dominator      @  PC=0x3af0 (_1.ptx:2375) mov.u32 %r116, 0;
GPGPU-Sim PTX: 73 (potential) branch divergence @  PC=0x3b00 (_1.ptx:2377) @%p44 bra $Lt_3_212994;
[...]
traffic_breakdown_memtocore[GLOBAL_ACC_R] = 581953520 {136:4279070,}
traffic_breakdown_memtocore[GLOBAL_ACC_W] = 2479048 {8:309881,}
traffic_breakdown_memtocore[INST_ACC_R] = 77580248 {136:570443,}
maxmrqlatency = 947 
maxdqlatency = 0 
maxmflatency = 1859 
averagemflatency = 313 
max_icnt2mem_latency = 1494 
max_icnt2sh_latency = 7958420 
mrq_lat_table:2293738 	47567 	77252 	177673 	300049 	193338 	87528 	19312 	1646 	15 	0 	0 	0 	0 	0 	0 	0 	0 	0 	0 	0 	0 	0 	0 	0 	0 	0 	0 	0 	0 	0 	0 	
dq_lat_table:0 	0 	0 	0 	0 	0 	0 	0 	0 	0 	0 	0 	0 	0 	0 	0 	0 	0 	0 	0 	0 	0 	0 	0 	0 	0 	0 	0 	0 	0 	0 	0 	
mf_lat_table:0 	0 	0 	0 	0 	0 	0 	1194075 	3179290 	213643 	1973 	0 	0 	0 	0 	0 	0 	0 	0 	0 	0 	0 	0 	0 	0 	0 	0 	0 	0 	0 	0 	0 	
icnt2mem_lat_table:0 	0 	0 	3540635 	976960 	319873 	143206 	133431 	42605 	2648 	66 	0 	0 	0 	0 	0 	0 	0 	0 	0 	0 	0 	0 	0 	
icnt2sh_lat_table:0 	0 	0 	635612 	2081451 	1455858 	106069 	110 	0 	0 	0 	0 	0 	0 	0 	0 	120 	16897 	21625 	22872 	42104 	106031 	100232 	0 	
mf_lat_pw_table:0 	0 	0 	0 	0 	0 	0 	1458 	13679 	46 	0 	0 	0 	0 	0 	0 	0 	0 	0 	0 	0 	0 	0 	0 	0 	0 	0 	0 	0 	0 	0 	0 	
maximum concurrent accesses to same row:
dram[0]:        39        46        94        88        97        95        95        95        67        60        84        83        43        66        42        50 
dram[1]:        38        40        96        89        95        96        96        96        71        59        84        84        42        65        41        56 
dram[2]:        45        42        83        96        97       100        95        97        65        70        77        82        42        61        42        50 
dram[3]:        38        41        94        89        95        95        95        95        63        71        74        83        42        60        46        50 
dram[4]:        43        42        97        96        96        96        98        96        61        72        84        84        66        60        39        50 
dram[5]:        46        42        96        89        97        95        96        96        60        70        84        83        65        60        54        50 
maximum service time to same row:
dram[0]:     67026     90521     68109     89614     67035     90525     68388     90262     70431     90286    103694     90750     89813     90540     68199     91244 
dram[1]:     72006     70806     71782     70500     72012     70516     66028     63330     72539     70528     72509    135530     70566     70482    104626     70550 
dram[2]:     90545     67032     90513     67022     90384     68278     87044     67026     90434     68287     99357    173536    135230     69452     90310     67723 
dram[3]:     70546     70577     70567     71998     70523     70582     70403     72034     88627     70588     70547     70552     79448    106016     71576     70973 
dram[4]:     72540     90866     95047     90419     69428     90518     94853     90570     67703     90585    102513    100627     67014     90265     94891     90553 
dram[5]:    138698     71753     70565     71622     70620     70470     72034     71600     72528     70504     73152     79422    103229    115675     70562     71549 
average row accesses per activate:
dram[0]:  1.094365  1.102943  1.092839  1.097952  1.103521  1.104828  1.095745  1.097911  1.087062  1.080864  1.088697  1.085922  1.107292  1.116440  1.095297  1.097969 
dram[1]:  1.108128  1.107022  1.108088  1.088334  1.113900  1.096707  1.111575  1.091323  1.114245  1.071422  1.102687  1.068590  1.134513  1.093362  1.116573  1.091806 
dram[2]:  1.092851  1.104625  1.097263  1.095297  1.105258  1.104565  1.091364  1.085663  1.094765  1.072108  1.103623  1.090886  1.113792  1.100942  1.105438  1.116475 
dram[3]:  1.099793  1.112103  1.097806  1.116356  1.095598  1.123577  1.084323  1.099594  1.082892  1.084577  1.080434  1.106235  1.089691  1.122180  1.089353  1.117127 
dram[4]:  1.093528  1.089161  1.090507  1.095036  1.090755  1.106315  1.091100  1.090721  1.087911  1.086581  1.087869  1.096200  1.095459  1.109346  1.092947  1.100646 
dram[5]:  1.108337  1.082408  1.106800  1.095679  1.116370  1.099118  1.108704  1.088601  1.099444  1.075125  1.106714  1.089672  1.124085  1.099982  1.112319  1.100665 
average row locality = 3198118/2913860 = 1.097554
number of total memory accesses made:
dram[0]:         0         0         0         0         0         0         0         0         0         0         0         0         0         0         0         0 
dram[1]:         0         0         0         0         0         0         0         0         0         0         0         0         0         0         0         0 
dram[2]:         0         0         0         0         0         0         0         0         0         0         0         0         0         0         0         0 
dram[3]:         0         0         0         0         0         0         0         0         0         0         0         0         0         0         0         0 
dram[4]:         0         0         0         0         0         0         0         0         0         0         0         0         0         0         0         0 
dram[5]:         0         0         0         0         0         0         0         0         0         0         0         0         0         0         0         0 
total accesses: 0
min_bank_accesses = 0!
min_chip_accesses = 0!
number of total read accesses:
dram[0]:     36798     27572     35211     29268     37131     29329     33985     27366     36199     29404     33468     29545     36073     29135     35154     27334 
dram[1]:     25957     29590     26672     36010     26464     35179     23931     32061     22039     35447     24553     34154     25072     35546     24855     30897 
dram[2]:     29540     32764     29359     34884     30109     36899     27457     37122     25790     40998     26875     35855     29887     36721     26279     30490 
dram[3]:     31357     27254     32498     25782     36853     25267     33280     26099     30372     28560     31870     23981     37216     27462     32703     25127 
dram[4]:     36802     31090     39138     30624     41229     29483     34533     28547     37364     29997     35854     26776     43730     29942     37752     27809 
dram[5]:     27673     37017     27326     33292     27119     33511     24463     29480     26801     34204     23948     28002     28405     34315     25111     29120 
total reads: 2978566
bank skew: 43730/22039 = 1.98
chip skew: 540670/468427 = 1.15
number of total write accesses:
dram[0]:      2261      2449      2316      2420      2513      2616      2019      2114      1896      1927      2017      2026      2680      2899      2292      2287 
dram[1]:      2318      2207      2402      2332      2562      2494      2171      1961      2061      1786      2121      1803      2938      2585      2472      2176 
dram[2]:      2333      2246      2477      2332      2642      2471      1988      1989      2005      1852      2243      2038      2932      2674      2385      2331 
dram[3]:      2135      2527      2331      2502      2525      2573      1954      2077      1765      2024      1913      2135      2646      2884      2238      2542 
dram[4]:      2296      2271      2322      2445      2423      2578      1937      2075      1952      2093      1944      2156      2781      2807      2169      2352 
dram[5]:      2425      2190      2427      2311      2601      2495      2096      1912      2055      1774      2062      1782      2912      2607      2321      2151 
total reads: 219552
bank skew: 2938/1765 = 1.66
chip skew: 36938/36121 = 1.02
average mf latency per bank:
dram[0]:        461       425       450       418       461       427       471       418       457       413       453       417       555       636       466       428
dram[1]:        416       425       406       414       412       416       405       418       397       412       393       416       483       589       411       424
dram[2]:        413       448       398       439       408       450       399       453       395       454       396       449       482       540       410       457
dram[3]:        429       418       422       430       424       419       414       414       416       412       415       411       519       514       423       426
dram[4]:        510       410       511       416       511       414       508       407       509       401       507       397       694       496       530       415
dram[5]:        420       425       424       439       423       424       421       427       407       419       409       425       594       512       434       444
maximum mf latency per bank:
dram[0]:       1795       960      1859       859      1546      1146      1535       869      1725      1056      1704       899      1656       871      1712       907
dram[1]:       1012       944       922       933       888       916      1208      1024       950       874       874       872      1002       956       896      1032
dram[2]:       1126      1673       812      1368       832      1497       867      1428       822      1504       890      1510       939      1554       881      1581
dram[3]:       1132       971      1118       969      1067       871       969       946      1332       939      1044      1214      1042       969       943       971
dram[4]:       1476      1001      1532       784      1539       846      1420       866      1671       807      1438       835      1527       895      1552       822
dram[5]:       1007       989       978       956      1232       950       945       939      1226      1291      1214       917      1195      1000       932       946

Number of Memory Banks Accessed per Memory Operation per Warp (from 0):
0	0	0	0	0	0	0	0	0	0	0	0	0	0	0	0	0	0	0	0	0	0	0	0	0	0	0	0	0	0	0	0	0	0	0	0	0	0	0	0	0	0	0	0	0	0	0	0	0	0	0	0	0	0	0	0	0	0	0	0	0	0	0	0	0	0	0	0	0	0	0	0	0	0	0	0	0	0	0	0	0	0	0	0	0	0	0	0	0	0	0	0	0	0	0	0	
Average # of Memory Banks Accessed per Memory Operation per Warp=-nan

position of mrq chosen
0	0	0	0	0	0	0	0	0	0	0	0	0	0	0	0	

average position of mrq chosen = -nan
Memory Partition 0: 
Cache L2_bank_000:
MSHR contents

Cache L2_bank_001:
MSHR contents

In Dram Latency Queue (total = 0): 
DRAM[0]: 16 bks, busW=4 BL=8 CL=12, tRRD=2 tCCD=6, tRCD=12 tRAS=28 tRP=12 tRC=40
n_cmd=10505114 n_nop=8431490 n_act=501214 n_pre=501198 n_req=549704 n_rd=1025944 n_write=45268 bw_util=0.2039
n_activity=7110279 dram_eff=0.3013
bk0: 73596a 9130068i bk1: 55144a 9429572i bk2: 70422a 9178178i bk3: 58536a 9378259i bk4: 74262a 9102753i bk5: 58658a 9358621i bk6: 67970a 9227994i bk7: 54732a 9444937i bk8: 72398a 9166990i bk9: 58808a 9363753i bk10: 66936a 9241505i bk11: 59090a 9368378i bk12: 72146a 9136151i bk13: 58270a 9359659i bk14: 70308a 9174038i bk15: 54668a 9430034i 
dram_util_bins: 0 0 0 0 0 0 0 0 0 0
dram_eff_bins: 0 0 0 0 0 0 0 0 0 0
mrqq: max=16 avg=0.621784
Memory Partition 1: 
Cache L2_bank_002:
MSHR contents

Cache L2_bank_003:
MSHR contents

In Dram Latency Queue (total = 0): 
DRAM[1]: 16 bks, busW=4 BL=8 CL=12, tRRD=2 tCCD=6, tRCD=12 tRAS=28 tRP=12 tRC=40
n_cmd=10505114 n_nop=8604793 n_act=459322 n_pre=459306 n_req=504816 n_rd=936854 n_write=44839 bw_util=0.1869
n_activity=6951713 dram_eff=0.2824
bk0: 51914a 9532396i bk1: 59180a 9424260i bk2: 53344a 9516440i bk3: 72020a 9182947i bk4: 52928a 9497830i bk5: 70358a 9194817i bk6: 47862a 9593676i bk7: 64122a 9319783i bk8: 44078a 9678658i bk9: 70894a 9203332i bk10: 49106a 9572512i bk11: 68308a 9233135i bk12: 50144a 9550005i bk13: 71092a 9185928i bk14: 49710a 9554679i bk15: 61794a 9352550i 
dram_util_bins: 0 0 0 0 0 0 0 0 0 0
dram_eff_bins: 0 0 0 0 0 0 0 0 0 0
mrqq: max=16 avg=0.508776
Memory Partition 2: 
Cache L2_bank_004:
MSHR contents

Cache L2_bank_005:
MSHR contents

In Dram Latency Queue (total = 0): 
DRAM[2]: 16 bks, busW=4 BL=8 CL=12, tRRD=2 tCCD=6, tRCD=12 tRAS=28 tRP=12 tRC=40
n_cmd=10505114 n_nop=8438985 n_act=499184 n_pre=499168 n_req=547967 n_rd=1022058 n_write=45719 bw_util=0.2033
n_activity=7118528 dram_eff=0.3
bk0: 59080a 9372705i bk1: 65528a 9287941i bk2: 58718a 9388404i bk3: 69768a 9209265i bk4: 60218a 9349726i bk5: 73798a 9120900i bk6: 54914a 9454962i bk7: 74244a 9112335i bk8: 51580a 9514290i bk9: 81996a 8959719i bk10: 53750a 9463685i bk11: 71710a 9154715i bk12: 59774a 9332148i bk13: 73442a 9099832i bk14: 52558a 9475841i bk15: 60980a 9362467i 
dram_util_bins: 0 0 0 0 0 0 0 0 0 0
dram_eff_bins: 0 0 0 0 0 0 0 0 0 0
mrqq: max=16 avg=0.61886
Memory Partition 3: 
Cache L2_bank_006:
MSHR contents

Cache L2_bank_007:
MSHR contents

In Dram Latency Queue (total = 0): 
DRAM[3]: 16 bks, busW=4 BL=8 CL=12, tRRD=2 tCCD=6, tRCD=12 tRAS=28 tRP=12 tRC=40
n_cmd=10505114 n_nop=8575634 n_act=466350 n_pre=466334 n_req=512452 n_rd=951362 n_write=45434 bw_util=0.1898
n_activity=6952723 dram_eff=0.2867
bk0: 62714a 9355834i bk1: 54508a 9471655i bk2: 64996a 9304405i bk3: 51564a 9527439i bk4: 73706a 9133311i bk5: 50534a 9526120i bk6: 66560a 9273457i bk7: 52198a 9506249i bk8: 60744a 9391127i bk9: 57120a 9420443i bk10: 63740a 9317218i bk11: 47962a 9590663i bk12: 74432a 9102238i bk13: 54924a 9441088i bk14: 65406a 9278619i bk15: 50254a 9536261i 
dram_util_bins: 0 0 0 0 0 0 0 0 0 0
dram_eff_bins: 0 0 0 0 0 0 0 0 0 0
mrqq: max=16 avg=0.534258
Memory Partition 4: 
Cache L2_bank_008:
MSHR contents

Cache L2_bank_009:
MSHR contents

In Dram Latency Queue (total = 0): 
DRAM[4]: 16 bks, busW=4 BL=8 CL=12, tRRD=2 tCCD=6, tRCD=12 tRAS=28 tRP=12 tRC=40
n_cmd=10505114 n_nop=8322733 n_act=527820 n_pre=527804 n_req=577271 n_rd=1081340 n_write=45417 bw_util=0.2145
n_activity=7149750 dram_eff=0.3152
bk0: 73604a 9082351i bk1: 62180a 9292512i bk2: 78276a 8986655i bk3: 61248a 9298983i bk4: 82458a 8902456i bk5: 58966a 9325054i bk6: 69066a 9159580i bk7: 57094a 9385989i bk8: 74728a 9061812i bk9: 59994a 9329628i bk10: 71708a 9119964i bk11: 53552a 9451781i bk12: 87460a 8791846i bk13: 59884a 9309551i bk14: 75504a 9028520i bk15: 55618a 9400653i 
dram_util_bins: 0 0 0 0 0 0 0 0 0 0
dram_eff_bins: 0 0 0 0 0 0 0 0 0 0
mrqq: max=16 avg=0.769346
Memory Partition 5: 
Cache L2_bank_010:
MSHR contents

Cache L2_bank_011:
MSHR contents

In Dram Latency Queue (total = 0): 
DRAM[5]: 16 bks, busW=4 BL=8 CL=12, tRRD=2 tCCD=6, tRCD=12 tRAS=28 tRP=12 tRC=40
n_cmd=10505114 n_nop=8601062 n_act=459971 n_pre=459955 n_req=505908 n_rd=939574 n_write=44552 bw_util=0.1874
n_activity=6894988 dram_eff=0.2855
bk0: 55346a 9467050i bk1: 74034a 9133174i bk2: 54652a 9455643i bk3: 66584a 9259131i bk4: 54238a 9458604i bk5: 67022a 9239317i bk6: 48926a 9565993i bk7: 58960a 9408189i bk8: 53602a 9495309i bk9: 68408a 9250247i bk10: 47896a 9589202i bk11: 56004a 9468401i bk12: 56810a 9428494i bk13: 68630a 9228323i bk14: 50222a 9545341i bk15: 58240a 9427189i 
dram_util_bins: 0 0 0 0 0 0 0 0 0 0
dram_eff_bins: 0 0 0 0 0 0 0 0 0 0
mrqq: max=16 avg=0.531451

========= L2 cache stats =========
L2_cache_bank[0]: Access = 514462, Miss = 284019, Miss_rate = 0.552, Pending_hits = 17108, Reservation_fails = 84227
L2_cache_bank[1]: Access = 439946, Miss = 228953, Miss_rate = 0.520, Pending_hits = 11016, Reservation_fails = 42767
L2_cache_bank[2]: Access = 354511, Miss = 199543, Miss_rate = 0.563, Pending_hits = 11380, Reservation_fails = 27200
L2_cache_bank[3]: Access = 426097, Miss = 268884, Miss_rate = 0.631, Pending_hits = 11016, Reservation_fails = 50967
L2_cache_bank[4]: Access = 378900, Miss = 225296, Miss_rate = 0.595, Pending_hits = 10916, Reservation_fails = 29521
L2_cache_bank[5]: Access = 477486, Miss = 285733, Miss_rate = 0.598, Pending_hits = 17535, Reservation_fails = 83692
L2_cache_bank[6]: Access = 449772, Miss = 266149, Miss_rate = 0.592, Pending_hits = 10803, Reservation_fails = 53021
L2_cache_bank[7]: Access = 385297, Miss = 209532, Miss_rate = 0.544, Pending_hits = 11457, Reservation_fails = 31823
L2_cache_bank[8]: Access = 510634, Miss = 306402, Miss_rate = 0.600, Pending_hits = 18585, Reservation_fails = 171116
L2_cache_bank[9]: Access = 396459, Miss = 234268, Miss_rate = 0.591, Pending_hits = 11122, Reservation_fails = 43221
L2_cache_bank[10]: Access = 367992, Miss = 210846, Miss_rate = 0.573, Pending_hits = 11757, Reservation_fails = 50170
L2_cache_bank[11]: Access = 457868, Miss = 258941, Miss_rate = 0.566, Pending_hits = 11091, Reservation_fails = 46537
L2_total_cache_accesses = 5159424
L2_total_cache_misses = 2978566
L2_total_cache_miss_rate = 0.5773
L2_total_cache_pending_hits = 153786
L2_total_cache_reservation_fails = 714262
L2_total_cache_breakdown:
	L2_cache_stats_breakdown[GLOBAL_ACC_R][HIT] = 1326470
	L2_cache_stats_breakdown[GLOBAL_ACC_R][HIT_RESERVED] = 51323
	L2_cache_stats_breakdown[GLOBAL_ACC_R][MISS] = 2901277
	L2_cache_stats_breakdown[GLOBAL_ACC_R][RESERVATION_FAIL] = 705940
	L2_cache_stats_breakdown[CONST_ACC_R][HIT] = 22
	L2_cache_stats_breakdown[CONST_ACC_R][HIT_RESERVED] = 6
	L2_cache_stats_breakdown[CONST_ACC_R][MISS] = 2
	L2_cache_stats_breakdown[CONST_ACC_R][RESERVATION_FAIL] = 210
	L2_cache_stats_breakdown[GLOBAL_ACC_W][HIT] = 136115
	L2_cache_stats_breakdown[GLOBAL_ACC_W][HIT_RESERVED] = 101302
	L2_cache_stats_breakdown[GLOBAL_ACC_W][MISS] = 72464
	L2_cache_stats_breakdown[GLOBAL_ACC_W][RESERVATION_FAIL] = 2274
	L2_cache_stats_breakdown[INST_ACC_R][HIT] = 564465
	L2_cache_stats_breakdown[INST_ACC_R][HIT_RESERVED] = 1155
	L2_cache_stats_breakdown[INST_ACC_R][MISS] = 4823
	L2_cache_stats_breakdown[INST_ACC_R][RESERVATION_FAIL] = 5838
L2_cache_data_port_util = 0.083
L2_cache_fill_port_util = 0.125

icnt_total_pkts_mem_to_simt=24557536
icnt_total_pkts_simt_to_mem=5497157
LD_mem_lat_dist  0 0 0 0 0 0 0 0 0 0 0 0 0 0 0 0 0 0 0 0 0 0 0 0 0 0 0
ST_mem_lat_dist  0 0 0 0 0 0 0 0 0 0 0 0 0 0 0 0 0 0 0 0 0 0 0 0 0 0 0
----------------------------Interconnect-DETAILS--------------------------------
Class 0:
Packet latency average = 20.4826
	minimum = 6
	maximum = 1039
Network latency average = 16.4362
	minimum = 6
	maximum = 881
Slowest packet = 535485
Flit latency average = 14.7749
	minimum = 6
	maximum = 881
Slowest flit = 1571067
Fragmentation average = 0.00204935
	minimum = 0
	maximum = 521
Injected packet rate average = 0.0470157
	minimum = 0.0389261 (at node 7)
	maximum = 0.0637657 (at node 15)
Accepted packet rate average = 0.0470157
	minimum = 0.0389261 (at node 7)
	maximum = 0.0637657 (at node 15)
Injected flit rate average = 0.136731
	minimum = 0.0414102 (at node 7)
	maximum = 0.30606 (at node 15)
Accepted flit rate average= 0.136731
	minimum = 0.0469789 (at node 17)
	maximum = 0.227154 (at node 13)
Injected packet length average = 2.90821
Accepted packet length average = 2.90821
Total in-flight flits = 0 (0 measured)
====== Overall Traffic Statistics ======
====== Traffic class 0 ======
Packet latency average = 23.6529 (2 samples)
	minimum = 6 (2 samples)
	maximum = 705 (2 samples)
Network latency average = 18.9279 (2 samples)
	minimum = 6 (2 samples)
	maximum = 607.5 (2 samples)
Flit latency average = 15.6037 (2 samples)
	minimum = 6 (2 samples)
	maximum = 607.5 (2 samples)
Fragmentation average = 0.00128662 (2 samples)
	minimum = 0 (2 samples)
	maximum = 322.5 (2 samples)
Injected packet rate average = 0.0649245 (2 samples)
	minimum = 0.0530014 (2 samples)
	maximum = 0.0793897 (2 samples)
Accepted packet rate average = 0.0649245 (2 samples)
	minimum = 0.0530014 (2 samples)
	maximum = 0.0793897 (2 samples)
Injected flit rate average = 0.192571 (2 samples)
	minimum = 0.0543239 (2 samples)
	maximum = 0.390318 (2 samples)
Accepted flit rate average = 0.192571 (2 samples)
	minimum = 0.0696323 (2 samples)
	maximum = 0.33827 (2 samples)
Injected packet size average = 2.96607 (2 samples)
Accepted packet size average = 2.96607 (2 samples)
Hops average = 1 (2 samples)
----------------------------END-of-Interconnect-DETAILS-------------------------
GPGPU-Sim API: Stream Manager State
