

        *** GPGPU-Sim Simulator Version 3.2.2  [build 0] ***


GPGPU-Sim PTX: simulation mode 0 (can change with PTX_SIM_MODE_FUNC environment variable:
               1=functional simulation only, 0=detailed performance simulator)
GPGPU-Sim: Configuration options:

-network_mode                           1 # Interconnection network mode
-inter_config_file   config_fermi_islip.icnt # Interconnection network config file
-gpgpu_ptx_use_cuobjdump                    1 # Use cuobjdump to extract ptx and sass from binaries
-gpgpu_experimental_lib_support                    0 # Try to extract code from cuda libraries [Broken because of unknown cudaGetExportTable]
-gpgpu_ptx_convert_to_ptxplus                    0 # Convert SASS (native ISA) to ptxplus and run ptxplus
-gpgpu_ptx_force_max_capability                   20 # Force maximum compute capability
-gpgpu_ptx_inst_debug_to_file                    0 # Dump executed instructions' debug information to file
-gpgpu_ptx_inst_debug_file       inst_debug.txt # Executed instructions' debug output file
-gpgpu_ptx_inst_debug_thread_uid                    1 # Thread UID for executed instructions' debug output
-gpgpu_simd_model                       1 # 1 = post-dominator
-gpgpu_shader_core_pipeline              1536:32 # shader core pipeline config, i.e., {<nthread>:<warpsize>}
-gpgpu_tex_cache:l1  4:128:24,L:R:m:N:L,F:128:4,128:2 # per-shader L1 texture cache  (READ-ONLY) config  {<nsets>:<bsize>:<assoc>,<rep>:<wr>:<alloc>:<wr_alloc>,<mshr>:<N>:<merge>,<mq>:<rf>}
-gpgpu_const_cache:l1 64:64:2,L:R:f:N:L,A:2:32,4 # per-shader L1 constant memory cache  (READ-ONLY) config  {<nsets>:<bsize>:<assoc>,<rep>:<wr>:<alloc>:<wr_alloc>,<mshr>:<N>:<merge>,<mq>} 
-gpgpu_cache:il1     4:128:4,L:R:f:N:L,A:2:32,4 # shader L1 instruction cache config  {<nsets>:<bsize>:<assoc>,<rep>:<wr>:<alloc>:<wr_alloc>,<mshr>:<N>:<merge>,<mq>} 
-gpgpu_cache:dl1     32:128:4,L:L:m:N:H,A:32:8,8:2,0,1:0:1:1:0:1,1:4:8:16:32:64,/sciclone/data10/hwang07/GPU_RESEARCH/swl/swl_outputs/RESULTS/gto/ # per-shader L1 data cache config  {<nsets>:<bsize>:<assoc>,<rep>:<wr>:<alloc>:<wr_alloc>,<mshr>:<N>:<merge>,<mq> | none}
-gpgpu_cache:dl1PrefL1                 none # per-shader L1 data cache config  {<nsets>:<bsize>:<assoc>,<rep>:<wr>:<alloc>:<wr_alloc>,<mshr>:<N>:<merge>,<mq> | none}
-gpgpu_cache:dl1PreShared                 none # per-shader L1 data cache config  {<nsets>:<bsize>:<assoc>,<rep>:<wr>:<alloc>:<wr_alloc>,<mshr>:<N>:<merge>,<mq> | none}
-gmem_skip_L1D                          0 # global memory access skip L1D cache (implements -Xptxas -dlcm=cg, default=no skip)
-gpgpu_perfect_mem                      0 # enable perfect memory mode (no cache miss)
-n_regfile_gating_group                    4 # group of lanes that should be read/written together)
-gpgpu_clock_gated_reg_file                    0 # enable clock gated reg file for power calculations
-gpgpu_clock_gated_lanes                    0 # enable clock gated lanes for power calculations
-gpgpu_shader_registers                32768 # Number of registers per shader core. Limits number of concurrent CTAs. (default 8192)
-gpgpu_shader_cta                       8 # Maximum number of concurrent CTAs in shader (default 8)
-gpgpu_num_cta_barriers                   16 # Maximum number of named barriers per CTA (default 16)
-gpgpu_n_clusters                      15 # number of processing clusters
-gpgpu_n_cores_per_cluster                    1 # number of simd cores per cluster
-gpgpu_n_cluster_ejection_buffer_size                    8 # number of packets in ejection buffer
-gpgpu_n_ldst_response_buffer_size                    2 # number of response packets in ld/st unit ejection buffer
-gpgpu_shmem_size                   16384 # Size of shared memory per shader core (default 16kB)
-gpgpu_shmem_size                   49152 # Size of shared memory per shader core (default 16kB)
-gpgpu_shmem_size_PrefL1                16384 # Size of shared memory per shader core (default 16kB)
-gpgpu_shmem_size_PrefShared                16384 # Size of shared memory per shader core (default 16kB)
-gpgpu_shmem_num_banks                   32 # Number of banks in the shared memory in each shader core (default 16)
-gpgpu_shmem_limited_broadcast                    0 # Limit shared memory to do one broadcast per cycle (default on)
-gpgpu_shmem_warp_parts                    1 # Number of portions a warp is divided into for shared memory bank conflict check 
-gpgpu_warpdistro_shader                   -1 # Specify which shader core to collect the warp size distribution from
-gpgpu_warp_issue_shader                    0 # Specify which shader core to collect the warp issue distribution from
-gpgpu_local_mem_map                    1 # Mapping from local memory space address to simulated GPU physical address space (default = enabled)
-gpgpu_num_reg_banks                   16 # Number of register banks (default = 8)
-gpgpu_reg_bank_use_warp_id                    0 # Use warp ID in mapping registers to banks (default = off)
-gpgpu_operand_collector_num_units_sp                    6 # number of collector units (default = 4)
-gpgpu_operand_collector_num_units_sfu                    8 # number of collector units (default = 4)
-gpgpu_operand_collector_num_units_mem                    2 # number of collector units (default = 2)
-gpgpu_operand_collector_num_units_gen                    0 # number of collector units (default = 0)
-gpgpu_operand_collector_num_in_ports_sp                    2 # number of collector unit in ports (default = 1)
-gpgpu_operand_collector_num_in_ports_sfu                    1 # number of collector unit in ports (default = 1)
-gpgpu_operand_collector_num_in_ports_mem                    1 # number of collector unit in ports (default = 1)
-gpgpu_operand_collector_num_in_ports_gen                    0 # number of collector unit in ports (default = 0)
-gpgpu_operand_collector_num_out_ports_sp                    2 # number of collector unit in ports (default = 1)
-gpgpu_operand_collector_num_out_ports_sfu                    1 # number of collector unit in ports (default = 1)
-gpgpu_operand_collector_num_out_ports_mem                    1 # number of collector unit in ports (default = 1)
-gpgpu_operand_collector_num_out_ports_gen                    0 # number of collector unit in ports (default = 0)
-gpgpu_coalesce_arch                   13 # Coalescing arch (default = 13, anything else is off for now)
-gpgpu_num_sched_per_core                    2 # Number of warp schedulers per core
-gpgpu_max_insn_issue_per_warp                    1 # Max number of instructions that can be issued per warp in one cycle by scheduler
-gpgpu_simt_core_sim_order                    1 # Select the simulation order of cores in a cluster (0=Fix, 1=Round-Robin)
-gpgpu_pipeline_widths        2,1,1,2,1,1,2 # Pipeline widths ID_OC_SP,ID_OC_SFU,ID_OC_MEM,OC_EX_SP,OC_EX_SFU,OC_EX_MEM,EX_WB
-gpgpu_num_sp_units                     2 # Number of SP units (default=1)
-gpgpu_num_sfu_units                    1 # Number of SF units (default=1)
-gpgpu_num_mem_units                    1 # Number if ldst units (default=1) WARNING: not hooked up to anything
-gpgpu_scheduler                      gto # Scheduler configuration: < lrr | gto | two_level_active > If two_level_active:<num_active_warps>:<inner_prioritization>:<outer_prioritization>For complete list of prioritization values see shader.h enum scheduler_prioritization_typeDefault: gto
-gpgpu_dram_scheduler                    1 # 0 = fifo, 1 = FR-FCFS (defaul)
-gpgpu_dram_partition_queues              8:8:8:8 # i2$:$2d:d2$:$2i
-l2_ideal                               0 # Use a ideal L2 cache that always hit
-gpgpu_cache:dl2     64:128:8,L:B:m:W:L,A:32:4,4:0,32 # unified banked L2 data cache config  {<nsets>:<bsize>:<assoc>,<rep>:<wr>:<alloc>:<wr_alloc>,<mshr>:<N>:<merge>,<mq>}
-gpgpu_cache:dl2_texture_only                    0 # L2 cache used for texture only
-gpgpu_n_mem                            6 # number of memory modules (e.g. memory controllers) in gpu
-gpgpu_n_sub_partition_per_mchannel                    2 # number of memory subpartition in each memory module
-gpgpu_n_mem_per_ctrlr                    2 # number of memory chips per memory controller
-gpgpu_memlatency_stat                   14 # track and display latency statistics 0x2 enables MC, 0x4 enables queue logs
-gpgpu_frfcfs_dram_sched_queue_size                   16 # 0 = unlimited (default); # entries per chip
-gpgpu_dram_return_queue_size                  116 # 0 = unlimited (default); # entries per chip
-gpgpu_dram_buswidth                    4 # default = 4 bytes (8 bytes per cycle at DDR)
-gpgpu_dram_burst_length                    8 # Burst length of each DRAM request (default = 4 data bus cycle)
-dram_data_command_freq_ratio                    4 # Frequency ratio between DRAM data bus and command bus (default = 2 times, i.e. DDR)
-gpgpu_dram_timing_opt nbk=16:CCD=2:RRD=6:RCD=12:RAS=28:RP=12:RC=40: CL=12:WL=4:CDLR=5:WR=12:nbkgrp=4:CCDL=3:RTPL=2 # DRAM timing parameters = {nbk:tCCD:tRRD:tRCD:tRAS:tRP:tRC:CL:WL:tCDLR:tWR:nbkgrp:tCCDL:tRTPL}
-rop_latency                          120 # ROP queue latency (default 85)
-dram_latency                         100 # DRAM latency (default 30)
-gpgpu_mem_addr_mapping dramid@8;00000000.00000000.00000000.00000000.0000RRRR.RRRRRRRR.BBBCCCCB.CCSSSSSS # mapping memory address to dram model {dramid@<start bit>;<memory address map>}
-gpgpu_mem_addr_test                    0 # run sweep test to check address mapping for aliased address
-gpgpu_mem_address_mask                    1 # 0 = old addressing mask, 1 = new addressing mask, 2 = new add. mask + flipped bank sel and chip sel bits
-gpuwattch_xml_file  gpuwattch_gtx480.xml # GPUWattch XML file
-power_simulation_enabled                    0 # Turn on power simulator (1=On, 0=Off)
-power_per_cycle_dump                    0 # Dump detailed power output each cycle
-power_trace_enabled                    0 # produce a file for the power trace (1=On, 0=Off)
-power_trace_zlevel                     6 # Compression level of the power trace output log (0=no comp, 9=highest)
-steady_power_levels_enabled                    0 # produce a file for the steady power levels (1=On, 0=Off)
-steady_state_definition                  8:4 # allowed deviation:number of samples
-gpgpu_max_cycle                        0 # terminates gpu simulation early (0 = no limit)
-gpgpu_max_insn                         0 # terminates gpu simulation early (0 = no limit)
-gpgpu_max_cta                          0 # terminates gpu simulation early (0 = no limit)
-gpgpu_runtime_stat                   500 # display runtime statistics such as dram utilization {<freq>:<flag>}
-liveness_message_freq                    1 # Minimum number of seconds between simulation liveness messages (0 = always print)
-gpgpu_flush_l1_cache                    0 # Flush L1 cache at the end of each kernel call
-gpgpu_flush_l2_cache                    0 # Flush L2 cache at the end of each kernel call
-gpgpu_deadlock_detect                    1 # Stop the simulation at deadlock (1=on (default), 0=off)
-gpgpu_ptx_instruction_classification                    0 # if enabled will classify ptx instruction types per kernel (Max 255 kernels now)
-gpgpu_ptx_sim_mode                     0 # Select between Performance (default) or Functional simulation (1)
-gpgpu_clock_domains 700.0:700.0:700.0:924.0 # Clock Domain Frequencies in MhZ {<Core Clock>:<ICNT Clock>:<L2 Clock>:<DRAM Clock>}
-gpgpu_max_concurrent_kernel                    8 # maximum kernels that can run concurrently on GPU
-gpgpu_cflog_interval                    0 # Interval between each snapshot in control flow logger
-visualizer_enabled                     0 # Turn on visualizer output (1=On, 0=Off)
-visualizer_outputfile                 NULL # Specifies the output log file for visualizer
-visualizer_zlevel                      6 # Compression level of the visualizer output log (0=no comp, 9=highest)
-trace_enabled                          0 # Turn on traces
-trace_components                    none # comma seperated list of traces to enable. Complete list found in trace_streams.tup. Default none
-trace_sampling_core                    0 # The core which is printed using CORE_DPRINTF. Default 0
-trace_sampling_memory_partition                   -1 # The memory partition which is printed using MEMPART_DPRINTF. Default -1 (i.e. all)
-enable_ptx_file_line_stats                    1 # Turn on PTX source line statistic profiling. (1 = On)
-ptx_line_stats_filename gpgpu_inst_stats.txt # Output file for PTX source line statistics.
-save_embedded_ptx                      0 # saves ptx files embedded in binary as <n>.ptx
-keep                                   0 # keep intermediate files created by GPGPU-Sim when interfacing with external programs
-gpgpu_ptx_save_converted_ptxplus                    0 # Saved converted ptxplus to a file
-ptx_opcode_latency_int         4,13,4,5,145 # Opcode latencies for integers <ADD,MAX,MUL,MAD,DIV>Default 1,1,19,25,145
-ptx_opcode_latency_fp          4,13,4,5,39 # Opcode latencies for single precision floating points <ADD,MAX,MUL,MAD,DIV>Default 1,1,1,1,30
-ptx_opcode_latency_dp         8,19,8,8,330 # Opcode latencies for double precision floating points <ADD,MAX,MUL,MAD,DIV>Default 8,8,8,8,335
-ptx_opcode_initiation_int            1,2,2,1,8 # Opcode initiation intervals for integers <ADD,MAX,MUL,MAD,DIV>Default 1,1,4,4,32
-ptx_opcode_initiation_fp            1,2,1,1,4 # Opcode initiation intervals for single precision floating points <ADD,MAX,MUL,MAD,DIV>Default 1,1,1,1,5
-ptx_opcode_initiation_dp         8,16,8,8,130 # Opcode initiation intervals for double precision floating points <ADD,MAX,MUL,MAD,DIV>Default 8,8,8,8,130
DRAM Timing Options:
nbk                                    16 # number of banks
CCD                                     2 # column to column delay
RRD                                     6 # minimal delay between activation of rows in different banks
RCD                                    12 # row to column delay
RAS                                    28 # time needed to activate row
RP                                     12 # time needed to precharge (deactivate) row
RC                                     40 # row cycle time
CDLR                                    5 # switching from write to read (changes tWTR)
WR                                     12 # last data-in to row precharge
CL                                     12 # CAS latency
WL                                      4 # Write latency
nbkgrp                                  4 # number of bank groups
CCDL                                    3 # column to column delay between accesses to different bank groups
RTPL                                    2 # read to precharge delay between accesses to different bank groups
Total number of memory sub partition = 12
addr_dec_mask[CHIP]  = 0000000000000000 	high:64 low:0
addr_dec_mask[BK]    = 000000000000e100 	high:16 low:8
addr_dec_mask[ROW]   = 000000000fff0000 	high:28 low:16
addr_dec_mask[COL]   = 0000000000001eff 	high:13 low:0
addr_dec_mask[BURST] = 000000000000003f 	high:6 low:0
sub_partition_id_mask = 0000000000000100
GPGPU-Sim uArch: clock freqs: 700000000.000000:700000000.000000:700000000.000000:924000000.000000
GPGPU-Sim uArch: clock periods: 0.00000000142857142857:0.00000000142857142857:0.00000000142857142857:0.00000000108225108225
*** Initializing Memory Statistics ***
GPGPU-Sim uArch: interconnect node map (shaderID+MemID to icntID)
GPGPU-Sim uArch: Memory nodes ID start from index: 15
GPGPU-Sim uArch:    0   1   2   3   4
GPGPU-Sim uArch:    5   6   7   8   9
GPGPU-Sim uArch:   10  11  12  13  14
GPGPU-Sim uArch:   15  16  17  18  19
GPGPU-Sim uArch:   20  21  22  23  24
GPGPU-Sim uArch:   25  26
GPGPU-Sim uArch: interconnect node reverse map (icntID to shaderID+MemID)
GPGPU-Sim uArch: Memory nodes start from ID: 15
GPGPU-Sim uArch:    0   1   2   3   4
GPGPU-Sim uArch:    5   6   7   8   9
GPGPU-Sim uArch:   10  11  12  13  14
GPGPU-Sim uArch:   15  16  17  18  19
GPGPU-Sim uArch:   20  21  22  23  24
GPGPU-Sim uArch:   25  26
d007b7a73b72a11fe6517fea3ca88680  /sciclone/data10/hwang07/adwait/applications/benchmarks/Mars/sample_apps/PageViewRank/gpgpu_ptx_sim__PageViewRank
GPGPU-Sim uArch: performance model initialization complete.
GPGPU-Sim PTX: __cudaRegisterFatBinary, fat_cubin_handle = 1, filename=MarsSort.cu
self exe links to: /sciclone/data10/hwang07/adwait/applications/benchmarks/Mars/sample_apps/PageViewRank/gpgpu_ptx_sim__PageViewRank
Running md5sum using "md5sum /sciclone/data10/hwang07/adwait/applications/benchmarks/Mars/sample_apps/PageViewRank/gpgpu_ptx_sim__PageViewRank "
Parsing file _cuobjdump_complete_output_5h0W5t
######### cuobjdump parser ########
## Adding new section ELF
Adding arch: sm_20
Adding identifier: main.cu
## Adding new section PTX
Adding ptx filename: _cuobjdump_1.ptx
Adding arch: sm_20
Adding identifier: main.cu
## Adding new section ELF
Adding arch: sm_20
Adding identifier: MarsLib.cu
## Adding new section PTX
Adding ptx filename: _cuobjdump_2.ptx
Adding arch: sm_20
Adding identifier: MarsLib.cu
## Adding new section ELF
Adding arch: sm_20
Adding identifier: MarsScan.cu
## Adding new section PTX
Adding ptx filename: _cuobjdump_3.ptx
Adding arch: sm_20
Adding identifier: MarsScan.cu
## Adding new section ELF
Adding arch: sm_20
Adding identifier: MarsSort.cu
## Adding new section PTX
Adding ptx filename: _cuobjdump_4.ptx
Adding arch: sm_20
Adding identifier: MarsSort.cu
Done parsing!!!
GPGPU-Sim PTX: __cudaRegisterFunction _Z20writeBoundary_kerneliiPiS_S_ : hostFun 0x0x408b47, fat_cubin_handle = 1
GPGPU-Sim PTX: allocating stack frame region for .param "__cudaretf__Z7comparePKviS0_i" from 0x0 to 0x4
GPGPU-Sim PTX: allocating stack frame region for .param "__cudaparmf1__Z7comparePKviS0_i" from 0x4 to 0xc
GPGPU-Sim PTX: allocating stack frame region for .param "__cudaparmf2__Z7comparePKviS0_i" from 0xc to 0x10
GPGPU-Sim PTX: allocating stack frame region for .param "__cudaparmf3__Z7comparePKviS0_i" from 0x10 to 0x18
GPGPU-Sim PTX: allocating stack frame region for .param "__cudaparmf4__Z7comparePKviS0_i" from 0x18 to 0x1c
GPGPU-Sim PTX: allocating stack frame region for .param "__cudaretf__Z15getCompareValuePv4int4S0_" from 0x0 to 0x4
GPGPU-Sim PTX: allocating stack frame region for .param "__cudaparmf1__Z15getCompareValuePv4int4S0_" from 0x4 to 0xc
GPGPU-Sim PTX: allocating stack frame region for .param "__cudaparmf2__Z15getCompareValuePv4int4S0_" from 0xc to 0x1c
GPGPU-Sim PTX: allocating stack frame region for .param "__cudaparmf3__Z15getCompareValuePv4int4S0_" from 0x1c to 0x2c
GPGPU-Sim PTX: instruction assembly for function '_Z7comparePKviS0_i'...   done.
GPGPU-Sim PTX: finding reconvergence points for '_Z7comparePKviS0_i'...
GPGPU-Sim PTX: Finding dominators for '_Z7comparePKviS0_i'...
GPGPU-Sim PTX: Finding immediate dominators for '_Z7comparePKviS0_i'...
GPGPU-Sim PTX: Finding postdominators for '_Z7comparePKviS0_i'...
GPGPU-Sim PTX: Finding immediate postdominators for '_Z7comparePKviS0_i'...
GPGPU-Sim PTX: pre-decoding instructions for '_Z7comparePKviS0_i'...
GPGPU-Sim PTX: reconvergence points for _Z7comparePKviS0_i...
GPGPU-Sim PTX:  1 (potential) branch divergence @  PC=0x038 (_1.ptx:73) @%p1 bra $Lt_0_1794;
GPGPU-Sim PTX:    immediate post dominator      @  PC=0x078 (_1.ptx:87) mov.s32 %r4, %r3;
GPGPU-Sim PTX:  2 (potential) branch divergence @  PC=0x048 (_1.ptx:76) bra.uni $LBB6__Z7comparePKviS0_i;
GPGPU-Sim PTX:    immediate post dominator      @  PC=0x078 (_1.ptx:87) mov.s32 %r4, %r3;
GPGPU-Sim PTX:  3 (potential) branch divergence @  PC=0x058 (_1.ptx:79) @%p2 bra $Lt_0_2306;
GPGPU-Sim PTX:    immediate post dominator      @  PC=0x078 (_1.ptx:87) mov.s32 %r4, %r3;
GPGPU-Sim PTX:  4 (potential) branch divergence @  PC=0x068 (_1.ptx:82) bra.uni $LBB6__Z7comparePKviS0_i;
GPGPU-Sim PTX:    immediate post dominator      @  PC=0x078 (_1.ptx:87) mov.s32 %r4, %r3;
GPGPU-Sim PTX: ... end of reconvergence points for _Z7comparePKviS0_i
GPGPU-Sim PTX: ... done pre-decoding instructions for '_Z7comparePKviS0_i'.
GPGPU-Sim PTX: instruction assembly for function '_Z15getCompareValuePv4int4S0_'...   done.
GPGPU-Sim PTX: finding reconvergence points for '_Z15getCompareValuePv4int4S0_'...
GPGPU-Sim PTX: Finding dominators for '_Z15getCompareValuePv4int4S0_'...
GPGPU-Sim PTX: Finding immediate dominators for '_Z15getCompareValuePv4int4S0_'...
GPGPU-Sim PTX: Finding postdominators for '_Z15getCompareValuePv4int4S0_'...
GPGPU-Sim PTX: Finding immediate postdominators for '_Z15getCompareValuePv4int4S0_'...
GPGPU-Sim PTX: pre-decoding instructions for '_Z15getCompareValuePv4int4S0_'...
GPGPU-Sim PTX: reconvergence points for _Z15getCompareValuePv4int4S0_...
GPGPU-Sim PTX:  1 (potential) branch divergence @  PC=0x108 (_1.ptx:115) @%p2 bra $Lt_1_5122;
GPGPU-Sim PTX:    immediate post dominator      @  PC=0x1d0 (_1.ptx:154) mov.s32 %r18, %r12;
GPGPU-Sim PTX:  2 (potential) branch divergence @  PC=0x118 (_1.ptx:117) @%p3 bra $Lt_1_5634;
GPGPU-Sim PTX:    immediate post dominator      @  PC=0x1d0 (_1.ptx:154) mov.s32 %r18, %r12;
GPGPU-Sim PTX:  3 (potential) branch divergence @  PC=0x128 (_1.ptx:119) bra.uni $Lt_1_4866;
GPGPU-Sim PTX:    immediate post dominator      @  PC=0x1d0 (_1.ptx:154) mov.s32 %r18, %r12;
GPGPU-Sim PTX:  4 (potential) branch divergence @  PC=0x148 (_1.ptx:125) bra.uni $Lt_1_4866;
GPGPU-Sim PTX:    immediate post dominator      @  PC=0x1d0 (_1.ptx:154) mov.s32 %r18, %r12;
GPGPU-Sim PTX:  5 (potential) branch divergence @  PC=0x188 (_1.ptx:136) @%p4 bra $Lt_1_5890;
GPGPU-Sim PTX:    immediate post dominator      @  PC=0x1c8 (_1.ptx:151) mov.s32 %r12, %r17;
GPGPU-Sim PTX:  6 (potential) branch divergence @  PC=0x198 (_1.ptx:139) bra.uni $LDWendi__Z7comparePKviS0_i_181_1;
GPGPU-Sim PTX:    immediate post dominator      @  PC=0x1c8 (_1.ptx:151) mov.s32 %r12, %r17;
GPGPU-Sim PTX:  7 (potential) branch divergence @  PC=0x1a8 (_1.ptx:142) @%p5 bra $Lt_1_6402;
GPGPU-Sim PTX:    immediate post dominator      @  PC=0x1c8 (_1.ptx:151) mov.s32 %r12, %r17;
GPGPU-Sim PTX:  8 (potential) branch divergence @  PC=0x1b8 (_1.ptx:145) bra.uni $LDWendi__Z7comparePKviS0_i_181_1;
GPGPU-Sim PTX:    immediate post dominator      @  PC=0x1c8 (_1.ptx:151) mov.s32 %r12, %r17;
GPGPU-Sim PTX: ... end of reconvergence points for _Z15getCompareValuePv4int4S0_
GPGPU-Sim PTX: ... done pre-decoding instructions for '_Z15getCompareValuePv4int4S0_'.
GPGPU-Sim PTX: allocating shared region for "__cuda___cuda_local_var_45738_37_non_const_shared48" from 0x0 to 0x1000 (shared memory space)
GPGPU-Sim PTX: instruction assembly for function '_Z21partBitonicSortKernelPviP4int4jii'...   done.
GPGPU-Sim PTX: finding reconvergence points for '_Z21partBitonicSortKernelPviP4int4jii'...
GPGPU-Sim PTX: Finding dominators for '_Z21partBitonicSortKernelPviP4int4jii'...
GPGPU-Sim PTX: Finding immediate dominators for '_Z21partBitonicSortKernelPviP4int4jii'...
GPGPU-Sim PTX: Finding postdominators for '_Z21partBitonicSortKernelPviP4int4jii'...
GPGPU-Sim PTX: Finding immediate postdominators for '_Z21partBitonicSortKernelPviP4int4jii'...
GPGPU-Sim PTX: pre-decoding instructions for '_Z21partBitonicSortKernelPviP4int4jii'...
GPGPU-Sim PTX: reconvergence points for _Z21partBitonicSortKernelPviP4int4jii...
GPGPU-Sim PTX:  1 (potential) branch divergence @  PC=0x2b8 (_1.ptx:202) @%p1 bra $Lt_2_24322;
GPGPU-Sim PTX:    immediate post dominator      @  PC=0x6c8 (_1.ptx:384) ld.shared.v4.s32 {%r73,%r74,%r75,%r76}, [%rd4+0];
GPGPU-Sim PTX:  2 (potential) branch divergence @  PC=0x300 (_1.ptx:214) @%p2 bra $Lt_2_23298;
GPGPU-Sim PTX:    immediate post dominator      @  PC=0x498 (_1.ptx:286) bar.sync 0;
GPGPU-Sim PTX:  3 (potential) branch divergence @  PC=0x350 (_1.ptx:225) @%p4 bra $Lt_2_20482;
GPGPU-Sim PTX:    immediate post dominator      @  PC=0x420 (_1.ptx:265) and.b32 %r42, %r6, 256;
GPGPU-Sim PTX:  4 (potential) branch divergence @  PC=0x360 (_1.ptx:227) @%p5 bra $Lt_2_20994;
GPGPU-Sim PTX:    immediate post dominator      @  PC=0x420 (_1.ptx:265) and.b32 %r42, %r6, 256;
GPGPU-Sim PTX:  5 (potential) branch divergence @  PC=0x370 (_1.ptx:229) bra.uni $Lt_2_20226;
GPGPU-Sim PTX:    immediate post dominator      @  PC=0x420 (_1.ptx:265) and.b32 %r42, %r6, 256;
GPGPU-Sim PTX:  6 (potential) branch divergence @  PC=0x390 (_1.ptx:235) bra.uni $Lt_2_20226;
GPGPU-Sim PTX:    immediate post dominator      @  PC=0x420 (_1.ptx:265) and.b32 %r42, %r6, 256;
GPGPU-Sim PTX:  7 (potential) branch divergence @  PC=0x3d8 (_1.ptx:247) @%p6 bra $Lt_2_21250;
GPGPU-Sim PTX:    immediate post dominator      @  PC=0x418 (_1.ptx:262) mov.s32 %r36, %r41;
GPGPU-Sim PTX:  8 (potential) branch divergence @  PC=0x3e8 (_1.ptx:250) bra.uni $LDWendi__Z7comparePKviS0_i_182_3;
GPGPU-Sim PTX:    immediate post dominator      @  PC=0x418 (_1.ptx:262) mov.s32 %r36, %r41;
GPGPU-Sim PTX:  9 (potential) branch divergence @  PC=0x3f8 (_1.ptx:253) @%p7 bra $Lt_2_21762;
GPGPU-Sim PTX:    immediate post dominator      @  PC=0x418 (_1.ptx:262) mov.s32 %r36, %r41;
GPGPU-Sim PTX: 10 (potential) branch divergence @  PC=0x408 (_1.ptx:256) bra.uni $LDWendi__Z7comparePKviS0_i_182_3;
GPGPU-Sim PTX:    immediate post dominator      @  PC=0x418 (_1.ptx:262) mov.s32 %r36, %r41;
GPGPU-Sim PTX: 11 (potential) branch divergence @  PC=0x438 (_1.ptx:268) @%p8 bra $Lt_2_22530;
GPGPU-Sim PTX:    immediate post dominator      @  PC=0x498 (_1.ptx:286) bar.sync 0;
GPGPU-Sim PTX: 12 (potential) branch divergence @  PC=0x450 (_1.ptx:271) @%p9 bra $Lt_2_23298;
GPGPU-Sim PTX:    immediate post dominator      @  PC=0x498 (_1.ptx:286) bar.sync 0;
GPGPU-Sim PTX: 13 (potential) branch divergence @  PC=0x468 (_1.ptx:274) bra.uni $Lt_2_23298;
GPGPU-Sim PTX:    immediate post dominator      @  PC=0x498 (_1.ptx:286) bar.sync 0;
GPGPU-Sim PTX: 14 (potential) branch divergence @  PC=0x480 (_1.ptx:279) @%p10 bra $Lt_2_23298;
GPGPU-Sim PTX:    immediate post dominator      @  PC=0x498 (_1.ptx:286) bar.sync 0;
GPGPU-Sim PTX: 15 (potential) branch divergence @  PC=0x4b8 (_1.ptx:291) @%p11 bra $Lt_2_19458;
GPGPU-Sim PTX:    immediate post dominator      @  PC=0x4c0 (_1.ptx:292) bra.uni $Lt_2_18434;
GPGPU-Sim PTX: 16 (potential) branch divergence @  PC=0x4c0 (_1.ptx:292) bra.uni $Lt_2_18434;
GPGPU-Sim PTX:    immediate post dominator      @  PC=0x6c8 (_1.ptx:384) ld.shared.v4.s32 {%r73,%r74,%r75,%r76}, [%rd4+0];
GPGPU-Sim PTX: 17 (potential) branch divergence @  PC=0x508 (_1.ptx:305) @%p12 bra $Lt_2_28418;
GPGPU-Sim PTX:    immediate post dominator      @  PC=0x6a0 (_1.ptx:377) bar.sync 0;
GPGPU-Sim PTX: 18 (potential) branch divergence @  PC=0x558 (_1.ptx:316) @%p14 bra $Lt_2_25602;
GPGPU-Sim PTX:    immediate post dominator      @  PC=0x628 (_1.ptx:356) and.b32 %r68, %r6, 256;
GPGPU-Sim PTX: 19 (potential) branch divergence @  PC=0x568 (_1.ptx:318) @%p15 bra $Lt_2_26114;
GPGPU-Sim PTX:    immediate post dominator      @  PC=0x628 (_1.ptx:356) and.b32 %r68, %r6, 256;
GPGPU-Sim PTX: 20 (potential) branch divergence @  PC=0x578 (_1.ptx:320) bra.uni $Lt_2_25346;
GPGPU-Sim PTX:    immediate post dominator      @  PC=0x628 (_1.ptx:356) and.b32 %r68, %r6, 256;
GPGPU-Sim PTX: 21 (potential) branch divergence @  PC=0x598 (_1.ptx:326) bra.uni $Lt_2_25346;
GPGPU-Sim PTX:    immediate post dominator      @  PC=0x628 (_1.ptx:356) and.b32 %r68, %r6, 256;
GPGPU-Sim PTX: 22 (potential) branch divergence @  PC=0x5e0 (_1.ptx:338) @%p16 bra $Lt_2_26370;
GPGPU-Sim PTX:    immediate post dominator      @  PC=0x620 (_1.ptx:353) mov.s32 %r36, %r41;
GPGPU-Sim PTX: 23 (potential) branch divergence @  PC=0x5f0 (_1.ptx:341) bra.uni $LDWendi__Z7comparePKviS0_i_182_1;
GPGPU-Sim PTX:    immediate post dominator      @  PC=0x620 (_1.ptx:353) mov.s32 %r36, %r41;
GPGPU-Sim PTX: 24 (potential) branch divergence @  PC=0x600 (_1.ptx:344) @%p17 bra $Lt_2_26882;
GPGPU-Sim PTX:    immediate post dominator      @  PC=0x620 (_1.ptx:353) mov.s32 %r36, %r41;
GPGPU-Sim PTX: 25 (potential) branch divergence @  PC=0x610 (_1.ptx:347) bra.uni $LDWendi__Z7comparePKviS0_i_182_1;
GPGPU-Sim PTX:    immediate post dominator      @  PC=0x620 (_1.ptx:353) mov.s32 %r36, %r41;
GPGPU-Sim PTX: 26 (potential) branch divergence @  PC=0x640 (_1.ptx:359) @%p18 bra $Lt_2_27650;
GPGPU-Sim PTX:    immediate post dominator      @  PC=0x6a0 (_1.ptx:377) bar.sync 0;
GPGPU-Sim PTX: 27 (potential) branch divergence @  PC=0x658 (_1.ptx:362) @%p19 bra $Lt_2_28418;
GPGPU-Sim PTX:    immediate post dominator      @  PC=0x6a0 (_1.ptx:377) bar.sync 0;
GPGPU-Sim PTX: 28 (potential) branch divergence @  PC=0x670 (_1.ptx:365) bra.uni $Lt_2_28418;
GPGPU-Sim PTX:    immediate post dominator      @  PC=0x6a0 (_1.ptx:377) bar.sync 0;
GPGPU-Sim PTX: 29 (potential) branch divergence @  PC=0x688 (_1.ptx:370) @%p20 bra $Lt_2_28418;
GPGPU-Sim PTX:    immediate post dominator      @  PC=0x6a0 (_1.ptx:377) bar.sync 0;
GPGPU-Sim PTX: 30 (potential) branch divergence @  PC=0x6c0 (_1.ptx:382) @%p21 bra $Lt_2_24578;
GPGPU-Sim PTX:    immediate post dominator      @  PC=0x6c8 (_1.ptx:384) ld.shared.v4.s32 {%r73,%r74,%r75,%r76}, [%rd4+0];
GPGPU-Sim PTX: ... end of reconvergence points for _Z21partBitonicSortKernelPviP4int4jii
GPGPU-Sim PTX: ... done pre-decoding instructions for '_Z21partBitonicSortKernelPviP4int4jii'.
GPGPU-Sim PTX: allocating shared region for "__cuda___cuda_local_var_45821_37_non_const_shared4176" from 0x0 to 0x1000 (shared memory space)
GPGPU-Sim PTX: instruction assembly for function '_Z21unitBitonicSortKernelPviP4int4ji'...   done.
GPGPU-Sim PTX: finding reconvergence points for '_Z21unitBitonicSortKernelPviP4int4ji'...
GPGPU-Sim PTX: Finding dominators for '_Z21unitBitonicSortKernelPviP4int4ji'...
GPGPU-Sim PTX: Finding immediate dominators for '_Z21unitBitonicSortKernelPviP4int4ji'...
GPGPU-Sim PTX: Finding postdominators for '_Z21unitBitonicSortKernelPviP4int4ji'...
GPGPU-Sim PTX: Finding immediate postdominators for '_Z21unitBitonicSortKernelPviP4int4ji'...
GPGPU-Sim PTX: pre-decoding instructions for '_Z21unitBitonicSortKernelPviP4int4ji'...
GPGPU-Sim PTX: reconvergence points for _Z21unitBitonicSortKernelPviP4int4ji...
GPGPU-Sim PTX:  1 (potential) branch divergence @  PC=0x7a0 (_1.ptx:430) @%p1 bra $Lt_3_27394;
GPGPU-Sim PTX:    immediate post dominator      @  PC=0xc40 (_1.ptx:638) ld.shared.v4.s32 {%r79,%r80,%r81,%r82}, [%rd4+0];
GPGPU-Sim PTX:  2 (potential) branch divergence @  PC=0x7d0 (_1.ptx:439) @%p2 bra $Lt_3_21762;
GPGPU-Sim PTX:    immediate post dominator      @  PC=0x9d0 (_1.ptx:529) shl.b32 %r17, %r17, 1;
GPGPU-Sim PTX:  3 (potential) branch divergence @  PC=0x810 (_1.ptx:449) @%p3 bra $Lt_3_26114;
GPGPU-Sim PTX:    immediate post dominator      @  PC=0x9a8 (_1.ptx:521) bar.sync 0;
GPGPU-Sim PTX:  4 (potential) branch divergence @  PC=0x860 (_1.ptx:460) @%p5 bra $Lt_3_23298;
GPGPU-Sim PTX:    immediate post dominator      @  PC=0x930 (_1.ptx:500) and.b32 %r43, %r17, %r6;
GPGPU-Sim PTX:  5 (potential) branch divergence @  PC=0x870 (_1.ptx:462) @%p6 bra $Lt_3_23810;
GPGPU-Sim PTX:    immediate post dominator      @  PC=0x930 (_1.ptx:500) and.b32 %r43, %r17, %r6;
GPGPU-Sim PTX:  6 (potential) branch divergence @  PC=0x880 (_1.ptx:464) bra.uni $Lt_3_23042;
GPGPU-Sim PTX:    immediate post dominator      @  PC=0x930 (_1.ptx:500) and.b32 %r43, %r17, %r6;
GPGPU-Sim PTX:  7 (potential) branch divergence @  PC=0x8a0 (_1.ptx:470) bra.uni $Lt_3_23042;
GPGPU-Sim PTX:    immediate post dominator      @  PC=0x930 (_1.ptx:500) and.b32 %r43, %r17, %r6;
GPGPU-Sim PTX:  8 (potential) branch divergence @  PC=0x8e8 (_1.ptx:482) @%p7 bra $Lt_3_24066;
GPGPU-Sim PTX:    immediate post dominator      @  PC=0x928 (_1.ptx:497) mov.s32 %r37, %r42;
GPGPU-Sim PTX:  9 (potential) branch divergence @  PC=0x8f8 (_1.ptx:485) bra.uni $LDWendi__Z7comparePKviS0_i_183_3;
GPGPU-Sim PTX:    immediate post dominator      @  PC=0x928 (_1.ptx:497) mov.s32 %r37, %r42;
GPGPU-Sim PTX: 10 (potential) branch divergence @  PC=0x908 (_1.ptx:488) @%p8 bra $Lt_3_24578;
GPGPU-Sim PTX:    immediate post dominator      @  PC=0x928 (_1.ptx:497) mov.s32 %r37, %r42;
GPGPU-Sim PTX: 11 (potential) branch divergence @  PC=0x918 (_1.ptx:491) bra.uni $LDWendi__Z7comparePKviS0_i_183_3;
GPGPU-Sim PTX:    immediate post dominator      @  PC=0x928 (_1.ptx:497) mov.s32 %r37, %r42;
GPGPU-Sim PTX: 12 (potential) branch divergence @  PC=0x948 (_1.ptx:503) @%p9 bra $Lt_3_25346;
GPGPU-Sim PTX:    immediate post dominator      @  PC=0x9a8 (_1.ptx:521) bar.sync 0;
GPGPU-Sim PTX: 13 (potential) branch divergence @  PC=0x960 (_1.ptx:506) @%p10 bra $Lt_3_26114;
GPGPU-Sim PTX:    immediate post dominator      @  PC=0x9a8 (_1.ptx:521) bar.sync 0;
GPGPU-Sim PTX: 14 (potential) branch divergence @  PC=0x978 (_1.ptx:509) bra.uni $Lt_3_26114;
GPGPU-Sim PTX:    immediate post dominator      @  PC=0x9a8 (_1.ptx:521) bar.sync 0;
GPGPU-Sim PTX: 15 (potential) branch divergence @  PC=0x990 (_1.ptx:514) @%p11 bra $Lt_3_26114;
GPGPU-Sim PTX:    immediate post dominator      @  PC=0x9a8 (_1.ptx:521) bar.sync 0;
GPGPU-Sim PTX: 16 (potential) branch divergence @  PC=0x9c8 (_1.ptx:526) @%p12 bra $Lt_3_22274;
GPGPU-Sim PTX:    immediate post dominator      @  PC=0x9d0 (_1.ptx:529) shl.b32 %r17, %r17, 1;
GPGPU-Sim PTX: 17 (potential) branch divergence @  PC=0x9e8 (_1.ptx:532) @%p13 bra $Lt_3_21506;
GPGPU-Sim PTX:    immediate post dominator      @  PC=0x9f0 (_1.ptx:533) bra.uni $Lt_3_20482;
GPGPU-Sim PTX: 18 (potential) branch divergence @  PC=0x9f0 (_1.ptx:533) bra.uni $Lt_3_20482;
GPGPU-Sim PTX:    immediate post dominator      @  PC=0xc40 (_1.ptx:638) ld.shared.v4.s32 {%r79,%r80,%r81,%r82}, [%rd4+0];
GPGPU-Sim PTX: 19 (potential) branch divergence @  PC=0xa20 (_1.ptx:543) @%p14 bra $Lt_3_27906;
GPGPU-Sim PTX:    immediate post dominator      @  PC=0xc20 (_1.ptx:633) shl.b32 %r49, %r49, 1;
GPGPU-Sim PTX: 20 (potential) branch divergence @  PC=0xa60 (_1.ptx:553) @%p15 bra $Lt_3_32258;
GPGPU-Sim PTX:    immediate post dominator      @  PC=0xbf8 (_1.ptx:625) bar.sync 0;
GPGPU-Sim PTX: 21 (potential) branch divergence @  PC=0xab0 (_1.ptx:564) @%p17 bra $Lt_3_29442;
GPGPU-Sim PTX:    immediate post dominator      @  PC=0xb80 (_1.ptx:604) and.b32 %r73, %r49, %r6;
GPGPU-Sim PTX: 22 (potential) branch divergence @  PC=0xac0 (_1.ptx:566) @%p18 bra $Lt_3_29954;
GPGPU-Sim PTX:    immediate post dominator      @  PC=0xb80 (_1.ptx:604) and.b32 %r73, %r49, %r6;
GPGPU-Sim PTX: 23 (potential) branch divergence @  PC=0xad0 (_1.ptx:568) bra.uni $Lt_3_29186;
GPGPU-Sim PTX:    immediate post dominator      @  PC=0xb80 (_1.ptx:604) and.b32 %r73, %r49, %r6;
GPGPU-Sim PTX: 24 (potential) branch divergence @  PC=0xaf0 (_1.ptx:574) bra.uni $Lt_3_29186;
GPGPU-Sim PTX:    immediate post dominator      @  PC=0xb80 (_1.ptx:604) and.b32 %r73, %r49, %r6;
GPGPU-Sim PTX: 25 (potential) branch divergence @  PC=0xb38 (_1.ptx:586) @%p19 bra $Lt_3_30210;
GPGPU-Sim PTX:    immediate post dominator      @  PC=0xb78 (_1.ptx:601) mov.s32 %r37, %r42;
GPGPU-Sim PTX: 26 (potential) branch divergence @  PC=0xb48 (_1.ptx:589) bra.uni $LDWendi__Z7comparePKviS0_i_183_1;
GPGPU-Sim PTX:    immediate post dominator      @  PC=0xb78 (_1.ptx:601) mov.s32 %r37, %r42;
GPGPU-Sim PTX: 27 (potential) branch divergence @  PC=0xb58 (_1.ptx:592) @%p20 bra $Lt_3_30722;
GPGPU-Sim PTX:    immediate post dominator      @  PC=0xb78 (_1.ptx:601) mov.s32 %r37, %r42;
GPGPU-Sim PTX: 28 (potential) branch divergence @  PC=0xb68 (_1.ptx:595) bra.uni $LDWendi__Z7comparePKviS0_i_183_1;
GPGPU-Sim PTX:    immediate post dominator      @  PC=0xb78 (_1.ptx:601) mov.s32 %r37, %r42;
GPGPU-Sim PTX: 29 (potential) branch divergence @  PC=0xb98 (_1.ptx:607) @%p21 bra $Lt_3_31490;
GPGPU-Sim PTX:    immediate post dominator      @  PC=0xbf8 (_1.ptx:625) bar.sync 0;
GPGPU-Sim PTX: 30 (potential) branch divergence @  PC=0xbb0 (_1.ptx:610) @%p22 bra $Lt_3_32258;
GPGPU-Sim PTX:    immediate post dominator      @  PC=0xbf8 (_1.ptx:625) bar.sync 0;
GPGPU-Sim PTX: 31 (potential) branch divergence @  PC=0xbc8 (_1.ptx:613) bra.uni $Lt_3_32258;
GPGPU-Sim PTX:    immediate post dominator      @  PC=0xbf8 (_1.ptx:625) bar.sync 0;
GPGPU-Sim PTX: 32 (potential) branch divergence @  PC=0xbe0 (_1.ptx:618) @%p23 bra $Lt_3_32258;
GPGPU-Sim PTX:    immediate post dominator      @  PC=0xbf8 (_1.ptx:625) bar.sync 0;
GPGPU-Sim PTX: 33 (potential) branch divergence @  PC=0xc18 (_1.ptx:630) @%p24 bra $Lt_3_28418;
GPGPU-Sim PTX:    immediate post dominator      @  PC=0xc20 (_1.ptx:633) shl.b32 %r49, %r49, 1;
GPGPU-Sim PTX: 34 (potential) branch divergence @  PC=0xc38 (_1.ptx:636) @%p25 bra $Lt_3_27650;
GPGPU-Sim PTX:    immediate post dominator      @  PC=0xc40 (_1.ptx:638) ld.shared.v4.s32 {%r79,%r80,%r81,%r82}, [%rd4+0];
GPGPU-Sim PTX: ... end of reconvergence points for _Z21unitBitonicSortKernelPviP4int4ji
GPGPU-Sim PTX: ... done pre-decoding instructions for '_Z21unitBitonicSortKernelPviP4int4ji'.
GPGPU-Sim PTX: instruction assembly for function '_Z13bitonicKernelPviP4int4jii'...   done.
GPGPU-Sim PTX: finding reconvergence points for '_Z13bitonicKernelPviP4int4jii'...
GPGPU-Sim PTX: Finding dominators for '_Z13bitonicKernelPviP4int4jii'...
GPGPU-Sim PTX: Finding immediate dominators for '_Z13bitonicKernelPviP4int4jii'...
GPGPU-Sim PTX: Finding postdominators for '_Z13bitonicKernelPviP4int4jii'...
GPGPU-Sim PTX: Finding immediate postdominators for '_Z13bitonicKernelPviP4int4jii'...
GPGPU-Sim PTX: pre-decoding instructions for '_Z13bitonicKernelPviP4int4jii'...
GPGPU-Sim PTX: reconvergence points for _Z13bitonicKernelPviP4int4jii...
GPGPU-Sim PTX:  1 (potential) branch divergence @  PC=0xcb8 (_1.ptx:670) @%p1 bra $Lt_4_18178;
GPGPU-Sim PTX:    immediate post dominator      @  PC=0xf80 (_1.ptx:796) exit;
GPGPU-Sim PTX:  2 (potential) branch divergence @  PC=0xd60 (_1.ptx:693) @%p4 bra $Lt_4_13314;
GPGPU-Sim PTX:    immediate post dominator      @  PC=0xf80 (_1.ptx:796) exit;
GPGPU-Sim PTX:  3 (potential) branch divergence @  PC=0xd78 (_1.ptx:697) @%p5 bra $Lt_4_13826;
GPGPU-Sim PTX:    immediate post dominator      @  PC=0xe48 (_1.ptx:737) mov.u32 %r35, 1;
GPGPU-Sim PTX:  4 (potential) branch divergence @  PC=0xd88 (_1.ptx:699) @%p6 bra $Lt_4_14338;
GPGPU-Sim PTX:    immediate post dominator      @  PC=0xe48 (_1.ptx:737) mov.u32 %r35, 1;
GPGPU-Sim PTX:  5 (potential) branch divergence @  PC=0xd98 (_1.ptx:701) bra.uni $Lt_4_13570;
GPGPU-Sim PTX:    immediate post dominator      @  PC=0xe48 (_1.ptx:737) mov.u32 %r35, 1;
GPGPU-Sim PTX:  6 (potential) branch divergence @  PC=0xdb8 (_1.ptx:707) bra.uni $Lt_4_13570;
GPGPU-Sim PTX:    immediate post dominator      @  PC=0xe48 (_1.ptx:737) mov.u32 %r35, 1;
GPGPU-Sim PTX:  7 (potential) branch divergence @  PC=0xe00 (_1.ptx:719) @%p7 bra $Lt_4_14594;
GPGPU-Sim PTX:    immediate post dominator      @  PC=0xe40 (_1.ptx:734) mov.s32 %r29, %r34;
GPGPU-Sim PTX:  8 (potential) branch divergence @  PC=0xe10 (_1.ptx:722) bra.uni $LDWendi__Z7comparePKviS0_i_184_3;
GPGPU-Sim PTX:    immediate post dominator      @  PC=0xe40 (_1.ptx:734) mov.s32 %r29, %r34;
GPGPU-Sim PTX:  9 (potential) branch divergence @  PC=0xe20 (_1.ptx:725) @%p8 bra $Lt_4_15106;
GPGPU-Sim PTX:    immediate post dominator      @  PC=0xe40 (_1.ptx:734) mov.s32 %r29, %r34;
GPGPU-Sim PTX: 10 (potential) branch divergence @  PC=0xe30 (_1.ptx:728) bra.uni $LDWendi__Z7comparePKviS0_i_184_3;
GPGPU-Sim PTX:    immediate post dominator      @  PC=0xe40 (_1.ptx:734) mov.s32 %r29, %r34;
GPGPU-Sim PTX: 11 (potential) branch divergence @  PC=0xe58 (_1.ptx:739) @%p9 bra $Lt_4_18178;
GPGPU-Sim PTX:    immediate post dominator      @  PC=0xf80 (_1.ptx:796) exit;
GPGPU-Sim PTX: 12 (potential) branch divergence @  PC=0xe70 (_1.ptx:742) bra.uni $Lt_4_18178;
GPGPU-Sim PTX:    immediate post dominator      @  PC=0xf80 (_1.ptx:796) exit;
GPGPU-Sim PTX: 13 (potential) branch divergence @  PC=0xe88 (_1.ptx:747) @%p10 bra $Lt_4_16386;
GPGPU-Sim PTX:    immediate post dominator      @  PC=0xf58 (_1.ptx:787) mov.u32 %r41, -1;
GPGPU-Sim PTX: 14 (potential) branch divergence @  PC=0xe98 (_1.ptx:749) @%p11 bra $Lt_4_16898;
GPGPU-Sim PTX:    immediate post dominator      @  PC=0xf58 (_1.ptx:787) mov.u32 %r41, -1;
GPGPU-Sim PTX: 15 (potential) branch divergence @  PC=0xea8 (_1.ptx:751) bra.uni $Lt_4_16130;
GPGPU-Sim PTX:    immediate post dominator      @  PC=0xf58 (_1.ptx:787) mov.u32 %r41, -1;
GPGPU-Sim PTX: 16 (potential) branch divergence @  PC=0xec8 (_1.ptx:757) bra.uni $Lt_4_16130;
GPGPU-Sim PTX:    immediate post dominator      @  PC=0xf58 (_1.ptx:787) mov.u32 %r41, -1;
GPGPU-Sim PTX: 17 (potential) branch divergence @  PC=0xf10 (_1.ptx:769) @%p12 bra $Lt_4_17154;
GPGPU-Sim PTX:    immediate post dominator      @  PC=0xf50 (_1.ptx:784) mov.s32 %r29, %r34;
GPGPU-Sim PTX: 18 (potential) branch divergence @  PC=0xf20 (_1.ptx:772) bra.uni $LDWendi__Z7comparePKviS0_i_184_1;
GPGPU-Sim PTX:    immediate post dominator      @  PC=0xf50 (_1.ptx:784) mov.s32 %r29, %r34;
GPGPU-Sim PTX: 19 (potential) branch divergence @  PC=0xf30 (_1.ptx:775) @%p13 bra $Lt_4_17666;
GPGPU-Sim PTX:    immediate post dominator      @  PC=0xf50 (_1.ptx:784) mov.s32 %r29, %r34;
GPGPU-Sim PTX: 20 (potential) branch divergence @  PC=0xf40 (_1.ptx:778) bra.uni $LDWendi__Z7comparePKviS0_i_184_1;
GPGPU-Sim PTX:    immediate post dominator      @  PC=0xf50 (_1.ptx:784) mov.s32 %r29, %r34;
GPGPU-Sim PTX: 21 (potential) branch divergence @  PC=0xf68 (_1.ptx:789) @%p14 bra $Lt_4_18178;
GPGPU-Sim PTX:    immediate post dominator      @  PC=0xf80 (_1.ptx:796) exit;
GPGPU-Sim PTX: ... end of reconvergence points for _Z13bitonicKernelPviP4int4jii
GPGPU-Sim PTX: ... done pre-decoding instructions for '_Z13bitonicKernelPviP4int4jii'.
GPGPU-Sim PTX: allocating shared region for "__cuda___cuda_local_var_45958_37_non_const_bs_cmpbuf8352" from 0x0 to 0x1000 (shared memory space)
GPGPU-Sim PTX: instruction assembly for function '_Z29bitonicSortSingleBlock_kernelPviP4int4iS1_'...   done.
GPGPU-Sim PTX: finding reconvergence points for '_Z29bitonicSortSingleBlock_kernelPviP4int4iS1_'...
GPGPU-Sim PTX: Finding dominators for '_Z29bitonicSortSingleBlock_kernelPviP4int4iS1_'...
GPGPU-Sim PTX: Finding immediate dominators for '_Z29bitonicSortSingleBlock_kernelPviP4int4iS1_'...
GPGPU-Sim PTX: Finding postdominators for '_Z29bitonicSortSingleBlock_kernelPviP4int4iS1_'...
GPGPU-Sim PTX: Finding immediate postdominators for '_Z29bitonicSortSingleBlock_kernelPviP4int4iS1_'...
GPGPU-Sim PTX: pre-decoding instructions for '_Z29bitonicSortSingleBlock_kernelPviP4int4iS1_'...
GPGPU-Sim PTX: reconvergence points for _Z29bitonicSortSingleBlock_kernelPviP4int4iS1_...
GPGPU-Sim PTX:  1 (potential) branch divergence @  PC=0xfe0 (_1.ptx:824) @%p1 bra $Lt_5_16386;
GPGPU-Sim PTX:    immediate post dominator      @  PC=0x1020 (_1.ptx:837) bar.sync 0;
GPGPU-Sim PTX:  2 (potential) branch divergence @  PC=0x1008 (_1.ptx:830) bra.uni $Lt_5_16130;
GPGPU-Sim PTX:    immediate post dominator      @  PC=0x1020 (_1.ptx:837) bar.sync 0;
GPGPU-Sim PTX:  3 (potential) branch divergence @  PC=0x1070 (_1.ptx:850) @%p2 bra $Lt_5_17410;
GPGPU-Sim PTX:    immediate post dominator      @  PC=0x13c8 (_1.ptx:996) mul.lo.s32 %r12, %r12, 2;
GPGPU-Sim PTX:  4 (potential) branch divergence @  PC=0x1088 (_1.ptx:854) @%p3 bra $Lt_5_23810;
GPGPU-Sim PTX:    immediate post dominator      @  PC=0x1380 (_1.ptx:984) bar.sync 0;
GPGPU-Sim PTX:  5 (potential) branch divergence @  PC=0x10d0 (_1.ptx:863) @%p4 bra $Lt_5_18946;
GPGPU-Sim PTX:    immediate post dominator      @  PC=0x1380 (_1.ptx:984) bar.sync 0;
GPGPU-Sim PTX:  6 (potential) branch divergence @  PC=0x1120 (_1.ptx:874) @%p6 bra $Lt_5_19458;
GPGPU-Sim PTX:    immediate post dominator      @  PC=0x11f0 (_1.ptx:914) mov.u32 %r38, 0;
GPGPU-Sim PTX:  7 (potential) branch divergence @  PC=0x1130 (_1.ptx:876) @%p7 bra $Lt_5_19970;
GPGPU-Sim PTX:    immediate post dominator      @  PC=0x11f0 (_1.ptx:914) mov.u32 %r38, 0;
GPGPU-Sim PTX:  8 (potential) branch divergence @  PC=0x1140 (_1.ptx:878) bra.uni $Lt_5_19202;
GPGPU-Sim PTX:    immediate post dominator      @  PC=0x11f0 (_1.ptx:914) mov.u32 %r38, 0;
GPGPU-Sim PTX:  9 (potential) branch divergence @  PC=0x1160 (_1.ptx:884) bra.uni $Lt_5_19202;
GPGPU-Sim PTX:    immediate post dominator      @  PC=0x11f0 (_1.ptx:914) mov.u32 %r38, 0;
GPGPU-Sim PTX: 10 (potential) branch divergence @  PC=0x11a8 (_1.ptx:896) @%p8 bra $Lt_5_20226;
GPGPU-Sim PTX:    immediate post dominator      @  PC=0x11e8 (_1.ptx:911) mov.s32 %r32, %r37;
GPGPU-Sim PTX: 11 (potential) branch divergence @  PC=0x11b8 (_1.ptx:899) bra.uni $LDWendi__Z7comparePKviS0_i_185_3;
GPGPU-Sim PTX:    immediate post dominator      @  PC=0x11e8 (_1.ptx:911) mov.s32 %r32, %r37;
GPGPU-Sim PTX: 12 (potential) branch divergence @  PC=0x11c8 (_1.ptx:902) @%p9 bra $Lt_5_20738;
GPGPU-Sim PTX:    immediate post dominator      @  PC=0x11e8 (_1.ptx:911) mov.s32 %r32, %r37;
GPGPU-Sim PTX: 13 (potential) branch divergence @  PC=0x11d8 (_1.ptx:905) bra.uni $LDWendi__Z7comparePKviS0_i_185_3;
GPGPU-Sim PTX:    immediate post dominator      @  PC=0x11e8 (_1.ptx:911) mov.s32 %r32, %r37;
GPGPU-Sim PTX: 14 (potential) branch divergence @  PC=0x1200 (_1.ptx:916) @%p10 bra $Lt_5_23810;
GPGPU-Sim PTX:    immediate post dominator      @  PC=0x1380 (_1.ptx:984) bar.sync 0;
GPGPU-Sim PTX: 15 (potential) branch divergence @  PC=0x1228 (_1.ptx:921) bra.uni $Lt_5_23810;
GPGPU-Sim PTX:    immediate post dominator      @  PC=0x1380 (_1.ptx:984) bar.sync 0;
GPGPU-Sim PTX: 16 (potential) branch divergence @  PC=0x1278 (_1.ptx:933) @%p11 bra $Lt_5_22018;
GPGPU-Sim PTX:    immediate post dominator      @  PC=0x1348 (_1.ptx:973) mov.u32 %r54, 0;
GPGPU-Sim PTX: 17 (potential) branch divergence @  PC=0x1288 (_1.ptx:935) @%p12 bra $Lt_5_22530;
GPGPU-Sim PTX:    immediate post dominator      @  PC=0x1348 (_1.ptx:973) mov.u32 %r54, 0;
GPGPU-Sim PTX: 18 (potential) branch divergence @  PC=0x1298 (_1.ptx:937) bra.uni $Lt_5_21762;
GPGPU-Sim PTX:    immediate post dominator      @  PC=0x1348 (_1.ptx:973) mov.u32 %r54, 0;
GPGPU-Sim PTX: 19 (potential) branch divergence @  PC=0x12b8 (_1.ptx:943) bra.uni $Lt_5_21762;
GPGPU-Sim PTX:    immediate post dominator      @  PC=0x1348 (_1.ptx:973) mov.u32 %r54, 0;
GPGPU-Sim PTX: 20 (potential) branch divergence @  PC=0x1300 (_1.ptx:955) @%p13 bra $Lt_5_22786;
GPGPU-Sim PTX:    immediate post dominator      @  PC=0x1340 (_1.ptx:970) mov.s32 %r32, %r37;
GPGPU-Sim PTX: 21 (potential) branch divergence @  PC=0x1310 (_1.ptx:958) bra.uni $LDWendi__Z7comparePKviS0_i_185_1;
GPGPU-Sim PTX:    immediate post dominator      @  PC=0x1340 (_1.ptx:970) mov.s32 %r32, %r37;
GPGPU-Sim PTX: 22 (potential) branch divergence @  PC=0x1320 (_1.ptx:961) @%p14 bra $Lt_5_23298;
GPGPU-Sim PTX:    immediate post dominator      @  PC=0x1340 (_1.ptx:970) mov.s32 %r32, %r37;
GPGPU-Sim PTX: 23 (potential) branch divergence @  PC=0x1330 (_1.ptx:964) bra.uni $LDWendi__Z7comparePKviS0_i_185_1;
GPGPU-Sim PTX:    immediate post dominator      @  PC=0x1340 (_1.ptx:970) mov.s32 %r32, %r37;
GPGPU-Sim PTX: 24 (potential) branch divergence @  PC=0x1358 (_1.ptx:975) @%p15 bra $Lt_5_23810;
GPGPU-Sim PTX:    immediate post dominator      @  PC=0x1380 (_1.ptx:984) bar.sync 0;
GPGPU-Sim PTX: 25 (potential) branch divergence @  PC=0x13c0 (_1.ptx:993) @%p16 bra $Lt_5_17922;
GPGPU-Sim PTX:    immediate post dominator      @  PC=0x13c8 (_1.ptx:996) mul.lo.s32 %r12, %r12, 2;
GPGPU-Sim PTX: 26 (potential) branch divergence @  PC=0x13e0 (_1.ptx:999) @%p17 bra $Lt_5_17154;
GPGPU-Sim PTX:    immediate post dominator      @  PC=0x13e8 (_1.ptx:1000) mov.s32 %r67, 256;
GPGPU-Sim PTX: 27 (potential) branch divergence @  PC=0x1400 (_1.ptx:1003) @%p18 bra $Lt_5_24834;
GPGPU-Sim PTX:    immediate post dominator      @  PC=0x1440 (_1.ptx:1014) exit;
GPGPU-Sim PTX: ... end of reconvergence points for _Z29bitonicSortSingleBlock_kernelPviP4int4iS1_
GPGPU-Sim PTX: ... done pre-decoding instructions for '_Z29bitonicSortSingleBlock_kernelPviP4int4iS1_'.
GPGPU-Sim PTX: allocating shared region for "__cuda___cuda_local_var_46033_40_non_const_bs_shared12496" from 0x0 to 0x1000 (shared memory space)
GPGPU-Sim PTX: allocating shared region for "__cuda_local_var_46030_30_non_const_bs_pStart" from 0x1000 to 0x1004 (shared memory space)
GPGPU-Sim PTX: allocating shared region for "__cuda_local_var_46031_30_non_const_bs_pEnd" from 0x1004 to 0x1008 (shared memory space)
GPGPU-Sim PTX: allocating shared region for "__cuda_local_var_46032_30_non_const_bs_numElement" from 0x1008 to 0x100c (shared memory space)
GPGPU-Sim PTX: instruction assembly for function '_Z32bitonicSortMultipleBlocks_kernelPviP4int4PiiiS1_'...   done.
GPGPU-Sim PTX: finding reconvergence points for '_Z32bitonicSortMultipleBlocks_kernelPviP4int4PiiiS1_'...
GPGPU-Sim PTX: Finding dominators for '_Z32bitonicSortMultipleBlocks_kernelPviP4int4PiiiS1_'...
GPGPU-Sim PTX: Finding immediate dominators for '_Z32bitonicSortMultipleBlocks_kernelPviP4int4PiiiS1_'...
GPGPU-Sim PTX: Finding postdominators for '_Z32bitonicSortMultipleBlocks_kernelPviP4int4PiiiS1_'...
GPGPU-Sim PTX: Finding immediate postdominators for '_Z32bitonicSortMultipleBlocks_kernelPviP4int4PiiiS1_'...
GPGPU-Sim PTX: pre-decoding instructions for '_Z32bitonicSortMultipleBlocks_kernelPviP4int4PiiiS1_'...
GPGPU-Sim PTX: reconvergence points for _Z32bitonicSortMultipleBlocks_kernelPviP4int4PiiiS1_...
GPGPU-Sim PTX:  1 (potential) branch divergence @  PC=0x1480 (_1.ptx:1043) @%p1 bra $Lt_6_17666;
GPGPU-Sim PTX:    immediate post dominator      @  PC=0x19e8 (_1.ptx:1273) exit;
GPGPU-Sim PTX:  2 (potential) branch divergence @  PC=0x1488 (_1.ptx:1044) bra.uni $LBB44__Z32bitonicSortMultipleBlocks_kernelPviP4int4PiiiS1_;
GPGPU-Sim PTX:    immediate post dominator      @  PC=0x19e8 (_1.ptx:1273) exit;
GPGPU-Sim PTX:  3 (potential) branch divergence @  PC=0x14c8 (_1.ptx:1054) @%p2 bra $Lt_6_18178;
GPGPU-Sim PTX:    immediate post dominator      @  PC=0x1538 (_1.ptx:1073) bar.sync 0;
GPGPU-Sim PTX:  4 (potential) branch divergence @  PC=0x1570 (_1.ptx:1080) @%p3 bra $Lt_6_18946;
GPGPU-Sim PTX:    immediate post dominator      @  PC=0x15d0 (_1.ptx:1097) bar.sync 0;
GPGPU-Sim PTX:  5 (potential) branch divergence @  PC=0x15b8 (_1.ptx:1090) bra.uni $Lt_6_18690;
GPGPU-Sim PTX:    immediate post dominator      @  PC=0x15d0 (_1.ptx:1097) bar.sync 0;
GPGPU-Sim PTX:  6 (potential) branch divergence @  PC=0x1620 (_1.ptx:1110) @%p4 bra $Lt_6_19970;
GPGPU-Sim PTX:    immediate post dominator      @  PC=0x1978 (_1.ptx:1256) mul.lo.s32 %r27, %r27, 2;
GPGPU-Sim PTX:  7 (potential) branch divergence @  PC=0x1638 (_1.ptx:1114) @%p5 bra $Lt_6_26370;
GPGPU-Sim PTX:    immediate post dominator      @  PC=0x1930 (_1.ptx:1244) bar.sync 0;
GPGPU-Sim PTX:  8 (potential) branch divergence @  PC=0x1680 (_1.ptx:1123) @%p6 bra $Lt_6_21506;
GPGPU-Sim PTX:    immediate post dominator      @  PC=0x1930 (_1.ptx:1244) bar.sync 0;
GPGPU-Sim PTX:  9 (potential) branch divergence @  PC=0x16d0 (_1.ptx:1134) @%p8 bra $Lt_6_22018;
GPGPU-Sim PTX:    immediate post dominator      @  PC=0x17a0 (_1.ptx:1174) mov.u32 %r53, 0;
GPGPU-Sim PTX: 10 (potential) branch divergence @  PC=0x16e0 (_1.ptx:1136) @%p9 bra $Lt_6_22530;
GPGPU-Sim PTX:    immediate post dominator      @  PC=0x17a0 (_1.ptx:1174) mov.u32 %r53, 0;
GPGPU-Sim PTX: 11 (potential) branch divergence @  PC=0x16f0 (_1.ptx:1138) bra.uni $Lt_6_21762;
GPGPU-Sim PTX:    immediate post dominator      @  PC=0x17a0 (_1.ptx:1174) mov.u32 %r53, 0;
GPGPU-Sim PTX: 12 (potential) branch divergence @  PC=0x1710 (_1.ptx:1144) bra.uni $Lt_6_21762;
GPGPU-Sim PTX:    immediate post dominator      @  PC=0x17a0 (_1.ptx:1174) mov.u32 %r53, 0;
GPGPU-Sim PTX: 13 (potential) branch divergence @  PC=0x1758 (_1.ptx:1156) @%p10 bra $Lt_6_22786;
GPGPU-Sim PTX:    immediate post dominator      @  PC=0x1798 (_1.ptx:1171) mov.s32 %r47, %r52;
GPGPU-Sim PTX: 14 (potential) branch divergence @  PC=0x1768 (_1.ptx:1159) bra.uni $LDWendi__Z7comparePKviS0_i_186_3;
GPGPU-Sim PTX:    immediate post dominator      @  PC=0x1798 (_1.ptx:1171) mov.s32 %r47, %r52;
GPGPU-Sim PTX: 15 (potential) branch divergence @  PC=0x1778 (_1.ptx:1162) @%p11 bra $Lt_6_23298;
GPGPU-Sim PTX:    immediate post dominator      @  PC=0x1798 (_1.ptx:1171) mov.s32 %r47, %r52;
GPGPU-Sim PTX: 16 (potential) branch divergence @  PC=0x1788 (_1.ptx:1165) bra.uni $LDWendi__Z7comparePKviS0_i_186_3;
GPGPU-Sim PTX:    immediate post dominator      @  PC=0x1798 (_1.ptx:1171) mov.s32 %r47, %r52;
GPGPU-Sim PTX: 17 (potential) branch divergence @  PC=0x17b0 (_1.ptx:1176) @%p12 bra $Lt_6_26370;
GPGPU-Sim PTX:    immediate post dominator      @  PC=0x1930 (_1.ptx:1244) bar.sync 0;
GPGPU-Sim PTX: 18 (potential) branch divergence @  PC=0x17d8 (_1.ptx:1181) bra.uni $Lt_6_26370;
GPGPU-Sim PTX:    immediate post dominator      @  PC=0x1930 (_1.ptx:1244) bar.sync 0;
GPGPU-Sim PTX: 19 (potential) branch divergence @  PC=0x1828 (_1.ptx:1193) @%p13 bra $Lt_6_24578;
GPGPU-Sim PTX:    immediate post dominator      @  PC=0x18f8 (_1.ptx:1233) mov.u32 %r69, 0;
GPGPU-Sim PTX: 20 (potential) branch divergence @  PC=0x1838 (_1.ptx:1195) @%p14 bra $Lt_6_25090;
GPGPU-Sim PTX:    immediate post dominator      @  PC=0x18f8 (_1.ptx:1233) mov.u32 %r69, 0;
GPGPU-Sim PTX: 21 (potential) branch divergence @  PC=0x1848 (_1.ptx:1197) bra.uni $Lt_6_24322;
GPGPU-Sim PTX:    immediate post dominator      @  PC=0x18f8 (_1.ptx:1233) mov.u32 %r69, 0;
GPGPU-Sim PTX: 22 (potential) branch divergence @  PC=0x1868 (_1.ptx:1203) bra.uni $Lt_6_24322;
GPGPU-Sim PTX:    immediate post dominator      @  PC=0x18f8 (_1.ptx:1233) mov.u32 %r69, 0;
GPGPU-Sim PTX: 23 (potential) branch divergence @  PC=0x18b0 (_1.ptx:1215) @%p15 bra $Lt_6_25346;
GPGPU-Sim PTX:    immediate post dominator      @  PC=0x18f0 (_1.ptx:1230) mov.s32 %r47, %r52;
GPGPU-Sim PTX: 24 (potential) branch divergence @  PC=0x18c0 (_1.ptx:1218) bra.uni $LDWendi__Z7comparePKviS0_i_186_1;
GPGPU-Sim PTX:    immediate post dominator      @  PC=0x18f0 (_1.ptx:1230) mov.s32 %r47, %r52;
GPGPU-Sim PTX: 25 (potential) branch divergence @  PC=0x18d0 (_1.ptx:1221) @%p16 bra $Lt_6_25858;
GPGPU-Sim PTX:    immediate post dominator      @  PC=0x18f0 (_1.ptx:1230) mov.s32 %r47, %r52;
GPGPU-Sim PTX: 26 (potential) branch divergence @  PC=0x18e0 (_1.ptx:1224) bra.uni $LDWendi__Z7comparePKviS0_i_186_1;
GPGPU-Sim PTX:    immediate post dominator      @  PC=0x18f0 (_1.ptx:1230) mov.s32 %r47, %r52;
GPGPU-Sim PTX: 27 (potential) branch divergence @  PC=0x1908 (_1.ptx:1235) @%p17 bra $Lt_6_26370;
GPGPU-Sim PTX:    immediate post dominator      @  PC=0x1930 (_1.ptx:1244) bar.sync 0;
GPGPU-Sim PTX: 28 (potential) branch divergence @  PC=0x1970 (_1.ptx:1253) @%p18 bra $Lt_6_20482;
GPGPU-Sim PTX:    immediate post dominator      @  PC=0x1978 (_1.ptx:1256) mul.lo.s32 %r27, %r27, 2;
GPGPU-Sim PTX: 29 (potential) branch divergence @  PC=0x1990 (_1.ptx:1259) @%p19 bra $Lt_6_19714;
GPGPU-Sim PTX:    immediate post dominator      @  PC=0x1998 (_1.ptx:1260) ld.shared.s32 %r82, [__cuda_local_var_46032_30_non_const_bs_numElement];
GPGPU-Sim PTX: 30 (potential) branch divergence @  PC=0x19a8 (_1.ptx:1262) @%p20 bra $LBB44__Z32bitonicSortMultipleBlocks_kernelPviP4int4PiiiS1_;
GPGPU-Sim PTX:    immediate post dominator      @  PC=0x19e8 (_1.ptx:1273) exit;
GPGPU-Sim PTX: ... end of reconvergence points for _Z32bitonicSortMultipleBlocks_kernelPviP4int4PiiiS1_
GPGPU-Sim PTX: ... done pre-decoding instructions for '_Z32bitonicSortMultipleBlocks_kernelPviP4int4PiiiS1_'.
GPGPU-Sim PTX: instruction assembly for function '_Z17initialize_kernelP4int4iiS_'...   done.
GPGPU-Sim PTX: finding reconvergence points for '_Z17initialize_kernelP4int4iiS_'...
GPGPU-Sim PTX: Finding dominators for '_Z17initialize_kernelP4int4iiS_'...
GPGPU-Sim PTX: Finding immediate dominators for '_Z17initialize_kernelP4int4iiS_'...
GPGPU-Sim PTX: Finding postdominators for '_Z17initialize_kernelP4int4iiS_'...
GPGPU-Sim PTX: Finding immediate postdominators for '_Z17initialize_kernelP4int4iiS_'...
GPGPU-Sim PTX: pre-decoding instructions for '_Z17initialize_kernelP4int4iiS_'...
GPGPU-Sim PTX: reconvergence points for _Z17initialize_kernelP4int4iiS_...
GPGPU-Sim PTX:  1 (potential) branch divergence @  PC=0x1a78 (_1.ptx:1305) @%p1 bra $Lt_7_1026;
GPGPU-Sim PTX:    immediate post dominator      @  PC=0x1ac8 (_1.ptx:1318) exit;
GPGPU-Sim PTX: ... end of reconvergence points for _Z17initialize_kernelP4int4iiS_
GPGPU-Sim PTX: ... done pre-decoding instructions for '_Z17initialize_kernelP4int4iiS_'.
GPGPU-Sim PTX: instruction assembly for function '_Z19getIntYArray_kernelP4int2iiPi'...   done.
GPGPU-Sim PTX: finding reconvergence points for '_Z19getIntYArray_kernelP4int2iiPi'...
GPGPU-Sim PTX: Finding dominators for '_Z19getIntYArray_kernelP4int2iiPi'...
GPGPU-Sim PTX: Finding immediate dominators for '_Z19getIntYArray_kernelP4int2iiPi'...
GPGPU-Sim PTX: Finding postdominators for '_Z19getIntYArray_kernelP4int2iiPi'...
GPGPU-Sim PTX: Finding immediate postdominators for '_Z19getIntYArray_kernelP4int2iiPi'...
GPGPU-Sim PTX: pre-decoding instructions for '_Z19getIntYArray_kernelP4int2iiPi'...
GPGPU-Sim PTX: reconvergence points for _Z19getIntYArray_kernelP4int2iiPi...
GPGPU-Sim PTX:  1 (potential) branch divergence @  PC=0x1b58 (_1.ptx:1350) @%p1 bra $Lt_8_1026;
GPGPU-Sim PTX:    immediate post dominator      @  PC=0x1ba8 (_1.ptx:1363) exit;
GPGPU-Sim PTX: ... end of reconvergence points for _Z19getIntYArray_kernelP4int2iiPi
GPGPU-Sim PTX: ... done pre-decoding instructions for '_Z19getIntYArray_kernelP4int2iiPi'.
GPGPU-Sim PTX: instruction assembly for function '_Z17getXYArray_kernelP4int4iiP4int2'...   done.
GPGPU-Sim PTX: finding reconvergence points for '_Z17getXYArray_kernelP4int4iiP4int2'...
GPGPU-Sim PTX: Finding dominators for '_Z17getXYArray_kernelP4int4iiP4int2'...
GPGPU-Sim PTX: Finding immediate dominators for '_Z17getXYArray_kernelP4int4iiP4int2'...
GPGPU-Sim PTX: Finding postdominators for '_Z17getXYArray_kernelP4int4iiP4int2'...
GPGPU-Sim PTX: Finding immediate postdominators for '_Z17getXYArray_kernelP4int4iiP4int2'...
GPGPU-Sim PTX: pre-decoding instructions for '_Z17getXYArray_kernelP4int4iiP4int2'...
GPGPU-Sim PTX: reconvergence points for _Z17getXYArray_kernelP4int4iiP4int2...
GPGPU-Sim PTX:  1 (potential) branch divergence @  PC=0x1c38 (_1.ptx:1395) @%p1 bra $Lt_9_1026;
GPGPU-Sim PTX:    immediate post dominator      @  PC=0x1c88 (_1.ptx:1409) exit;
GPGPU-Sim PTX: ... end of reconvergence points for _Z17getXYArray_kernelP4int4iiP4int2
GPGPU-Sim PTX: ... done pre-decoding instructions for '_Z17getXYArray_kernelP4int4iiP4int2'.
GPGPU-Sim PTX: instruction assembly for function '_Z17getZWArray_kernelP4int4iiP4int2'...   done.
GPGPU-Sim PTX: finding reconvergence points for '_Z17getZWArray_kernelP4int4iiP4int2'...
GPGPU-Sim PTX: Finding dominators for '_Z17getZWArray_kernelP4int4iiP4int2'...
GPGPU-Sim PTX: Finding immediate dominators for '_Z17getZWArray_kernelP4int4iiP4int2'...
GPGPU-Sim PTX: Finding postdominators for '_Z17getZWArray_kernelP4int4iiP4int2'...
GPGPU-Sim PTX: Finding immediate postdominators for '_Z17getZWArray_kernelP4int4iiP4int2'...
GPGPU-Sim PTX: pre-decoding instructions for '_Z17getZWArray_kernelP4int4iiP4int2'...
GPGPU-Sim PTX: reconvergence points for _Z17getZWArray_kernelP4int4iiP4int2...
GPGPU-Sim PTX:  1 (potential) branch divergence @  PC=0x1d18 (_1.ptx:1441) @%p1 bra $Lt_10_1026;
GPGPU-Sim PTX:    immediate post dominator      @  PC=0x1d68 (_1.ptx:1455) exit;
GPGPU-Sim PTX: ... end of reconvergence points for _Z17getZWArray_kernelP4int4iiP4int2
GPGPU-Sim PTX: ... done pre-decoding instructions for '_Z17getZWArray_kernelP4int4iiP4int2'.
GPGPU-Sim PTX: instruction assembly for function '_Z17setXYArray_kernelP4int4iiP4int2'...   done.
GPGPU-Sim PTX: finding reconvergence points for '_Z17setXYArray_kernelP4int4iiP4int2'...
GPGPU-Sim PTX: Finding dominators for '_Z17setXYArray_kernelP4int4iiP4int2'...
GPGPU-Sim PTX: Finding immediate dominators for '_Z17setXYArray_kernelP4int4iiP4int2'...
GPGPU-Sim PTX: Finding postdominators for '_Z17setXYArray_kernelP4int4iiP4int2'...
GPGPU-Sim PTX: Finding immediate postdominators for '_Z17setXYArray_kernelP4int4iiP4int2'...
GPGPU-Sim PTX: pre-decoding instructions for '_Z17setXYArray_kernelP4int4iiP4int2'...
GPGPU-Sim PTX: reconvergence points for _Z17setXYArray_kernelP4int4iiP4int2...
GPGPU-Sim PTX:  1 (potential) branch divergence @  PC=0x1df8 (_1.ptx:1487) @%p1 bra $Lt_11_1026;
GPGPU-Sim PTX:    immediate post dominator      @  PC=0x1e50 (_1.ptx:1502) exit;
GPGPU-Sim PTX: ... end of reconvergence points for _Z17setXYArray_kernelP4int4iiP4int2
GPGPU-Sim PTX: ... done pre-decoding instructions for '_Z17setXYArray_kernelP4int4iiP4int2'.
GPGPU-Sim PTX: instruction assembly for function '_Z17setZWArray_kernelP4int4iiP4int2'...   done.
GPGPU-Sim PTX: finding reconvergence points for '_Z17setZWArray_kernelP4int4iiP4int2'...
GPGPU-Sim PTX: Finding dominators for '_Z17setZWArray_kernelP4int4iiP4int2'...
GPGPU-Sim PTX: Finding immediate dominators for '_Z17setZWArray_kernelP4int4iiP4int2'...
GPGPU-Sim PTX: Finding postdominators for '_Z17setZWArray_kernelP4int4iiP4int2'...
GPGPU-Sim PTX: Finding immediate postdominators for '_Z17setZWArray_kernelP4int4iiP4int2'...
GPGPU-Sim PTX: pre-decoding instructions for '_Z17setZWArray_kernelP4int4iiP4int2'...
GPGPU-Sim PTX: reconvergence points for _Z17setZWArray_kernelP4int4iiP4int2...
GPGPU-Sim PTX:  1 (potential) branch divergence @  PC=0x1ee0 (_1.ptx:1534) @%p1 bra $Lt_12_1026;
GPGPU-Sim PTX:    immediate post dominator      @  PC=0x1f40 (_1.ptx:1551) exit;
GPGPU-Sim PTX: ... end of reconvergence points for _Z17setZWArray_kernelP4int4iiP4int2
GPGPU-Sim PTX: ... done pre-decoding instructions for '_Z17setZWArray_kernelP4int4iiP4int2'.
GPGPU-Sim PTX: instruction assembly for function '_Z17copyChunks_kernelPviP4int2iPiS_'...   done.
GPGPU-Sim PTX: finding reconvergence points for '_Z17copyChunks_kernelPviP4int2iPiS_'...
GPGPU-Sim PTX: Finding dominators for '_Z17copyChunks_kernelPviP4int2iPiS_'...
GPGPU-Sim PTX: Finding immediate dominators for '_Z17copyChunks_kernelPviP4int2iPiS_'...
GPGPU-Sim PTX: Finding postdominators for '_Z17copyChunks_kernelPviP4int2iPiS_'...
GPGPU-Sim PTX: Finding immediate postdominators for '_Z17copyChunks_kernelPviP4int2iPiS_'...
GPGPU-Sim PTX: pre-decoding instructions for '_Z17copyChunks_kernelPviP4int2iPiS_'...
GPGPU-Sim PTX: reconvergence points for _Z17copyChunks_kernelPviP4int2iPiS_...
GPGPU-Sim PTX:  1 (potential) branch divergence @  PC=0x1fd0 (_1.ptx:1585) @%p1 bra $Lt_13_2050;
GPGPU-Sim PTX:    immediate post dominator      @  PC=0x20c8 (_1.ptx:1624) exit;
GPGPU-Sim PTX:  2 (potential) branch divergence @  PC=0x2030 (_1.ptx:1599) @%p2 bra $Lt_13_2562;
GPGPU-Sim PTX:    immediate post dominator      @  PC=0x20c0 (_1.ptx:1621) st.global.v2.s32 [%rd4+0], {%r19,%r18};
GPGPU-Sim PTX:  3 (potential) branch divergence @  PC=0x20b8 (_1.ptx:1619) @%p3 bra $Lt_13_3074;
GPGPU-Sim PTX:    immediate post dominator      @  PC=0x20c0 (_1.ptx:1621) st.global.v2.s32 [%rd4+0], {%r19,%r18};
GPGPU-Sim PTX: ... end of reconvergence points for _Z17copyChunks_kernelPviP4int2iPiS_
GPGPU-Sim PTX: ... done pre-decoding instructions for '_Z17copyChunks_kernelPviP4int2iPiS_'.
GPGPU-Sim PTX: instruction assembly for function '_Z23getChunkBoundary_kernelPviP4int4iPi'...   done.
GPGPU-Sim PTX: finding reconvergence points for '_Z23getChunkBoundary_kernelPviP4int4iPi'...
GPGPU-Sim PTX: Finding dominators for '_Z23getChunkBoundary_kernelPviP4int4iPi'...
GPGPU-Sim PTX: Finding immediate dominators for '_Z23getChunkBoundary_kernelPviP4int4iPi'...
GPGPU-Sim PTX: Finding postdominators for '_Z23getChunkBoundary_kernelPviP4int4iPi'...
GPGPU-Sim PTX: Finding immediate postdominators for '_Z23getChunkBoundary_kernelPviP4int4iPi'...
GPGPU-Sim PTX: pre-decoding instructions for '_Z23getChunkBoundary_kernelPviP4int4iPi'...
GPGPU-Sim PTX: reconvergence points for _Z23getChunkBoundary_kernelPviP4int4iPi...
GPGPU-Sim PTX:  1 (potential) branch divergence @  PC=0x2158 (_1.ptx:1657) @%p1 bra $Lt_14_7170;
GPGPU-Sim PTX:    immediate post dominator      @  PC=0x2308 (_1.ptx:1733) exit;
GPGPU-Sim PTX:  2 (potential) branch divergence @  PC=0x2178 (_1.ptx:1661) @%p2 bra $Lt_14_7938;
GPGPU-Sim PTX:    immediate post dominator      @  PC=0x22e8 (_1.ptx:1727) ld.param.u64 %rd10, [__cudaparm__Z23getChunkBoundary_kernelPviP4int4iPi_d_startArray];
GPGPU-Sim PTX:  3 (potential) branch divergence @  PC=0x2188 (_1.ptx:1663) bra.uni $Lt_14_7682;
GPGPU-Sim PTX:    immediate post dominator      @  PC=0x22e8 (_1.ptx:1727) ld.param.u64 %rd10, [__cudaparm__Z23getChunkBoundary_kernelPviP4int4iPi_d_startArray];
GPGPU-Sim PTX:  4 (potential) branch divergence @  PC=0x2200 (_1.ptx:1682) @%p4 bra $Lt_14_8450;
GPGPU-Sim PTX:    immediate post dominator      @  PC=0x22d0 (_1.ptx:1722) mov.s32 %r34, 0;
GPGPU-Sim PTX:  5 (potential) branch divergence @  PC=0x2210 (_1.ptx:1684) @%p5 bra $Lt_14_8962;
GPGPU-Sim PTX:    immediate post dominator      @  PC=0x22d0 (_1.ptx:1722) mov.s32 %r34, 0;
GPGPU-Sim PTX:  6 (potential) branch divergence @  PC=0x2220 (_1.ptx:1686) bra.uni $Lt_14_8194;
GPGPU-Sim PTX:    immediate post dominator      @  PC=0x22d0 (_1.ptx:1722) mov.s32 %r34, 0;
GPGPU-Sim PTX:  7 (potential) branch divergence @  PC=0x2240 (_1.ptx:1692) bra.uni $Lt_14_8194;
GPGPU-Sim PTX:    immediate post dominator      @  PC=0x22d0 (_1.ptx:1722) mov.s32 %r34, 0;
GPGPU-Sim PTX:  8 (potential) branch divergence @  PC=0x2288 (_1.ptx:1704) @%p6 bra $Lt_14_9218;
GPGPU-Sim PTX:    immediate post dominator      @  PC=0x22c8 (_1.ptx:1719) mov.s32 %r28, %r33;
GPGPU-Sim PTX:  9 (potential) branch divergence @  PC=0x2298 (_1.ptx:1707) bra.uni $LDWendi__Z7comparePKviS0_i_194_1;
GPGPU-Sim PTX:    immediate post dominator      @  PC=0x22c8 (_1.ptx:1719) mov.s32 %r28, %r33;
GPGPU-Sim PTX: 10 (potential) branch divergence @  PC=0x22a8 (_1.ptx:1710) @%p7 bra $Lt_14_9730;
GPGPU-Sim PTX:    immediate post dominator      @  PC=0x22c8 (_1.ptx:1719) mov.s32 %r28, %r33;
GPGPU-Sim PTX: 11 (potential) branch divergence @  PC=0x22b8 (_1.ptx:1713) bra.uni $LDWendi__Z7comparePKviS0_i_194_1;
GPGPU-Sim PTX:    immediate post dominator      @  PC=0x22c8 (_1.ptx:1719) mov.s32 %r28, %r33;
GPGPU-Sim PTX: ... end of reconvergence points for _Z23getChunkBoundary_kernelPviP4int4iPi
GPGPU-Sim PTX: ... done pre-decoding instructions for '_Z23getChunkBoundary_kernelPviP4int4iPi'.
GPGPU-Sim PTX: instruction assembly for function '_Z22setBoundaryInt2_kernelPiiiiP4int2'...   done.
GPGPU-Sim PTX: finding reconvergence points for '_Z22setBoundaryInt2_kernelPiiiiP4int2'...
GPGPU-Sim PTX: Finding dominators for '_Z22setBoundaryInt2_kernelPiiiiP4int2'...
GPGPU-Sim PTX: Finding immediate dominators for '_Z22setBoundaryInt2_kernelPiiiiP4int2'...
GPGPU-Sim PTX: Finding postdominators for '_Z22setBoundaryInt2_kernelPiiiiP4int2'...
GPGPU-Sim PTX: Finding immediate postdominators for '_Z22setBoundaryInt2_kernelPiiiiP4int2'...
GPGPU-Sim PTX: pre-decoding instructions for '_Z22setBoundaryInt2_kernelPiiiiP4int2'...
GPGPU-Sim PTX: reconvergence points for _Z22setBoundaryInt2_kernelPiiiiP4int2...
GPGPU-Sim PTX:  1 (potential) branch divergence @  PC=0x2398 (_1.ptx:1766) @%p1 bra $Lt_15_1794;
GPGPU-Sim PTX:    immediate post dominator      @  PC=0x2418 (_1.ptx:1789) exit;
GPGPU-Sim PTX:  2 (potential) branch divergence @  PC=0x23d0 (_1.ptx:1773) @%p2 bra $Lt_15_2562;
GPGPU-Sim PTX:    immediate post dominator      @  PC=0x23f0 (_1.ptx:1782) ld.param.u64 %rd5, [__cudaparm__Z22setBoundaryInt2_kernelPiiiiP4int2_d_boundaryRange];
GPGPU-Sim PTX:  3 (potential) branch divergence @  PC=0x23e0 (_1.ptx:1776) bra.uni $Lt_15_2306;
GPGPU-Sim PTX:    immediate post dominator      @  PC=0x23f0 (_1.ptx:1782) ld.param.u64 %rd5, [__cudaparm__Z22setBoundaryInt2_kernelPiiiiP4int2_d_boundaryRange];
GPGPU-Sim PTX: ... end of reconvergence points for _Z22setBoundaryInt2_kernelPiiiiP4int2
GPGPU-Sim PTX: ... done pre-decoding instructions for '_Z22setBoundaryInt2_kernelPiiiiP4int2'.
GPGPU-Sim PTX: instruction assembly for function '_Z20writeBoundary_kerneliiPiS_S_'...   done.
GPGPU-Sim PTX: finding reconvergence points for '_Z20writeBoundary_kerneliiPiS_S_'...
GPGPU-Sim PTX: Finding dominators for '_Z20writeBoundary_kerneliiPiS_S_'...
GPGPU-Sim PTX: Finding immediate dominators for '_Z20writeBoundary_kerneliiPiS_S_'...
GPGPU-Sim PTX: Finding postdominators for '_Z20writeBoundary_kerneliiPiS_S_'...
GPGPU-Sim PTX: Finding immediate postdominators for '_Z20writeBoundary_kerneliiPiS_S_'...
GPGPU-Sim PTX: pre-decoding instructions for '_Z20writeBoundary_kerneliiPiS_S_'...
GPGPU-Sim PTX: reconvergence points for _Z20writeBoundary_kerneliiPiS_S_...
GPGPU-Sim PTX:  1 (potential) branch divergence @  PC=0x24a8 (_1.ptx:1822) @%p1 bra $Lt_16_1794;
GPGPU-Sim PTX:    immediate post dominator      @  PC=0x2530 (_1.ptx:1843) exit;
GPGPU-Sim PTX:  2 (potential) branch divergence @  PC=0x24e8 (_1.ptx:1830) @%p2 bra $Lt_16_2306;
GPGPU-Sim PTX:    immediate post dominator      @  PC=0x2530 (_1.ptx:1843) exit;
GPGPU-Sim PTX: ... end of reconvergence points for _Z20writeBoundary_kerneliiPiS_S_
GPGPU-Sim PTX: ... done pre-decoding instructions for '_Z20writeBoundary_kerneliiPiS_S_'.
GPGPU-Sim PTX: finished parsing EMBEDDED .ptx file _1.ptx
Adding _cuobjdump_4.ptx with cubin handle 1
GPGPU-Sim PTX: extracting embedded .ptx to temporary file "_ptx_RnMayr"
Running: cat _ptx_RnMayr | sed 's/.version 1.5/.version 1.4/' | sed 's/, texmode_independent//' | sed 's/\(\.extern \.const\[1\] .b8 \w\+\)\[\]/\1\[1\]/' | sed 's/const\[.\]/const\[0\]/g' > _ptx2_Mx4rQu
GPGPU-Sim PTX: generating ptxinfo using "$CUDA_INSTALL_PATH/bin/ptxas --gpu-name=sm_20 -v _ptx2_Mx4rQu --output-file  /dev/null 2> _ptx_RnMayrinfo"
GPGPU-Sim PTX: Kernel '_Z20writeBoundary_kerneliiPiS_S_' : regs=8, lmem=0, smem=0, cmem=64
GPGPU-Sim PTX: Kernel '_Z22setBoundaryInt2_kernelPiiiiP4int2' : regs=9, lmem=0, smem=0, cmem=64
GPGPU-Sim PTX: Kernel '_Z23getChunkBoundary_kernelPviP4int4iPi' : regs=8, lmem=0, smem=0, cmem=72
GPGPU-Sim PTX: Kernel '_Z17copyChunks_kernelPviP4int2iPiS_' : regs=12, lmem=0, smem=0, cmem=80
GPGPU-Sim PTX: Kernel '_Z17setZWArray_kernelP4int4iiP4int2' : regs=8, lmem=0, smem=0, cmem=56
GPGPU-Sim PTX: Kernel '_Z17setXYArray_kernelP4int4iiP4int2' : regs=10, lmem=0, smem=0, cmem=56
GPGPU-Sim PTX: Kernel '_Z17getZWArray_kernelP4int4iiP4int2' : regs=10, lmem=0, smem=0, cmem=56
GPGPU-Sim PTX: Kernel '_Z17getXYArray_kernelP4int4iiP4int2' : regs=10, lmem=0, smem=0, cmem=56
GPGPU-Sim PTX: Kernel '_Z19getIntYArray_kernelP4int2iiPi' : regs=8, lmem=0, smem=0, cmem=56
GPGPU-Sim PTX: Kernel '_Z17initialize_kernelP4int4iiS_' : regs=10, lmem=0, smem=0, cmem=64
GPGPU-Sim PTX: Kernel '_Z32bitonicSortMultipleBlocks_kernelPviP4int4PiiiS1_' : regs=23, lmem=0, smem=4108, cmem=80
GPGPU-Sim PTX: Kernel '_Z29bitonicSortSingleBlock_kernelPviP4int4iS1_' : regs=23, lmem=0, smem=4096, cmem=72
GPGPU-Sim PTX: Kernel '_Z13bitonicKernelPviP4int4jii' : regs=18, lmem=0, smem=0, cmem=68
GPGPU-Sim PTX: Kernel '_Z21unitBitonicSortKernelPviP4int4ji' : regs=21, lmem=0, smem=4096, cmem=64
GPGPU-Sim PTX: Kernel '_Z21partBitonicSortKernelPviP4int4jii' : regs=19, lmem=0, smem=4096, cmem=68
GPGPU-Sim PTX: removing ptxinfo using "rm -f _ptx_RnMayr _ptx2_Mx4rQu _ptx_RnMayrinfo"
GPGPU-Sim PTX: loading globals with explicit initializers... 
GPGPU-Sim PTX: finished loading globals (0 bytes total).
GPGPU-Sim PTX: loading constants with explicit initializers...  done.
GPGPU-Sim PTX: __cudaRegisterFunction _Z22setBoundaryInt2_kernelPiiiiP4int2 : hostFun 0x0x408a25, fat_cubin_handle = 1
GPGPU-Sim PTX: __cudaRegisterFunction _Z23getChunkBoundary_kernelPviP4int4iPi : hostFun 0x0x408902, fat_cubin_handle = 1
GPGPU-Sim PTX: __cudaRegisterFunction _Z17copyChunks_kernelPviP4int2iPiS_ : hostFun 0x0x4087d3, fat_cubin_handle = 1
GPGPU-Sim PTX: __cudaRegisterFunction _Z17setZWArray_kernelP4int4iiP4int2 : hostFun 0x0x408690, fat_cubin_handle = 1
GPGPU-Sim PTX: __cudaRegisterFunction _Z17setXYArray_kernelP4int4iiP4int2 : hostFun 0x0x4085a1, fat_cubin_handle = 1
GPGPU-Sim PTX: __cudaRegisterFunction _Z17getZWArray_kernelP4int4iiP4int2 : hostFun 0x0x4084b2, fat_cubin_handle = 1
GPGPU-Sim PTX: __cudaRegisterFunction _Z17getXYArray_kernelP4int4iiP4int2 : hostFun 0x0x4083c3, fat_cubin_handle = 1
GPGPU-Sim PTX: __cudaRegisterFunction _Z19getIntYArray_kernelP4int2iiPi : hostFun 0x0x4082d4, fat_cubin_handle = 1
GPGPU-Sim PTX: __cudaRegisterFunction _Z17initialize_kernelP4int4iiS_ : hostFun 0x0x4081db, fat_cubin_handle = 1
GPGPU-Sim PTX: __cudaRegisterFunction _Z32bitonicSortMultipleBlocks_kernelPviP4int4PiiiS1_ : hostFun 0x0x4080c1, fat_cubin_handle = 1
GPGPU-Sim PTX: __cudaRegisterFunction _Z29bitonicSortSingleBlock_kernelPviP4int4iS1_ : hostFun 0x0x407f4f, fat_cubin_handle = 1
GPGPU-Sim PTX: __cudaRegisterFunction _Z13bitonicKernelPviP4int4jii : hostFun 0x0x407e22, fat_cubin_handle = 1
GPGPU-Sim PTX: __cudaRegisterFunction _Z21unitBitonicSortKernelPviP4int4ji : hostFun 0x0x407cd5, fat_cubin_handle = 1
GPGPU-Sim PTX: __cudaRegisterFunction _Z21partBitonicSortKernelPviP4int4jii : hostFun 0x0x407ba8, fat_cubin_handle = 1
GPGPU-Sim PTX: __cudaRegisterFatBinary, fat_cubin_handle = 2, filename=MarsScan.cu
GPGPU-Sim PTX: __cudaRegisterFunction _Z7prescanILb0ELb1EEvPiPKiS0_iii : hostFun 0x0x405e07, fat_cubin_handle = 2
GPGPU-Sim PTX: allocating stack frame region for .param "__cudaretf__Z8buildSumPi" from 0x0 to 0x4
GPGPU-Sim PTX: allocating stack frame region for .param "__cudaparmf1__Z8buildSumPi" from 0x4 to 0xc
GPGPU-Sim PTX: allocating stack frame region for .param "__cudaparmf1__Z16scanRootToLeavesPij" from 0x0 to 0x8
GPGPU-Sim PTX: allocating stack frame region for .param "__cudaparmf2__Z16scanRootToLeavesPij" from 0x8 to 0xc
GPGPU-Sim PTX: allocating stack frame region for .param "__cudaparmf1__Z22loadSharedChunkFromMemILb0EEvPiPKiiiRiS3_S3_S3_S3_S3_" from 0x0 to 0x8
GPGPU-Sim PTX: allocating stack frame region for .param "__cudaparmf2__Z22loadSharedChunkFromMemILb0EEvPiPKiiiRiS3_S3_S3_S3_S3_" from 0x8 to 0x10
GPGPU-Sim PTX: allocating stack frame region for .param "__cudaparmf3__Z22loadSharedChunkFromMemILb0EEvPiPKiiiRiS3_S3_S3_S3_S3_" from 0x10 to 0x14
GPGPU-Sim PTX: allocating stack frame region for .param "__cudaparmf4__Z22loadSharedChunkFromMemILb0EEvPiPKiiiRiS3_S3_S3_S3_S3_" from 0x14 to 0x18
GPGPU-Sim PTX: allocating stack frame region for .param "__cudaparmf5__Z22loadSharedChunkFromMemILb0EEvPiPKiiiRiS3_S3_S3_S3_S3_" from 0x18 to 0x20
GPGPU-Sim PTX: allocating stack frame region for .param "__cudaparmf6__Z22loadSharedChunkFromMemILb0EEvPiPKiiiRiS3_S3_S3_S3_S3_" from 0x20 to 0x28
GPGPU-Sim PTX: allocating stack frame region for .param "__cudaparmf7__Z22loadSharedChunkFromMemILb0EEvPiPKiiiRiS3_S3_S3_S3_S3_" from 0x28 to 0x30
GPGPU-Sim PTX: allocating stack frame region for .param "__cudaparmf8__Z22loadSharedChunkFromMemILb0EEvPiPKiiiRiS3_S3_S3_S3_S3_" from 0x30 to 0x38
GPGPU-Sim PTX: allocating stack frame region for .param "__cudaparmf9__Z22loadSharedChunkFromMemILb0EEvPiPKiiiRiS3_S3_S3_S3_S3_" from 0x38 to 0x40
GPGPU-Sim PTX: allocating stack frame region for .param "__cudaparmf10__Z22loadSharedChunkFromMemILb0EEvPiPKiiiRiS3_S3_S3_S3_S3_" from 0x40 to 0x48
GPGPU-Sim PTX: allocating stack frame region for .param "__cudaparmf1__Z12prescanBlockILb1EEvPiiS0_" from 0x0 to 0x8
GPGPU-Sim PTX: allocating stack frame region for .param "__cudaparmf2__Z12prescanBlockILb1EEvPiiS0_" from 0x8 to 0xc
GPGPU-Sim PTX: allocating stack frame region for .param "__cudaparmf3__Z12prescanBlockILb1EEvPiiS0_" from 0xc to 0x14
GPGPU-Sim PTX: allocating stack frame region for .param "__cudaparmf1__Z16clearLastElementILb1EEvPiS0_i" from 0x0 to 0x8
GPGPU-Sim PTX: allocating stack frame region for .param "__cudaparmf2__Z16clearLastElementILb1EEvPiS0_i" from 0x8 to 0x10
GPGPU-Sim PTX: allocating stack frame region for .param "__cudaparmf3__Z16clearLastElementILb1EEvPiS0_i" from 0x10 to 0x14
GPGPU-Sim PTX: allocating stack frame region for .param "__cudaparmf1__Z21storeSharedChunkToMemILb0EEvPiPKiiiiiiii" from 0x0 to 0x8
GPGPU-Sim PTX: allocating stack frame region for .param "__cudaparmf2__Z21storeSharedChunkToMemILb0EEvPiPKiiiiiiii" from 0x8 to 0x10
GPGPU-Sim PTX: allocating stack frame region for .param "__cudaparmf3__Z21storeSharedChunkToMemILb0EEvPiPKiiiiiiii" from 0x10 to 0x14
GPGPU-Sim PTX: allocating stack frame region for .param "__cudaparmf4__Z21storeSharedChunkToMemILb0EEvPiPKiiiiiiii" from 0x14 to 0x18
GPGPU-Sim PTX: allocating stack frame region for .param "__cudaparmf5__Z21storeSharedChunkToMemILb0EEvPiPKiiiiiiii" from 0x18 to 0x1c
GPGPU-Sim PTX: allocating stack frame region for .param "__cudaparmf6__Z21storeSharedChunkToMemILb0EEvPiPKiiiiiiii" from 0x1c to 0x20
GPGPU-Sim PTX: allocating stack frame region for .param "__cudaparmf7__Z21storeSharedChunkToMemILb0EEvPiPKiiiiiiii" from 0x20 to 0x24
GPGPU-Sim PTX: allocating stack frame region for .param "__cudaparmf8__Z21storeSharedChunkToMemILb0EEvPiPKiiiiiiii" from 0x24 to 0x28
GPGPU-Sim PTX: allocating stack frame region for .param "__cudaparmf9__Z21storeSharedChunkToMemILb0EEvPiPKiiiiiiii" from 0x28 to 0x2c
GPGPU-Sim PTX: allocating stack frame region for .param "__cudaparmf1__Z22loadSharedChunkFromMemILb1EEvPiPKiiiRiS3_S3_S3_S3_S3_" from 0x0 to 0x8
GPGPU-Sim PTX: allocating stack frame region for .param "__cudaparmf2__Z22loadSharedChunkFromMemILb1EEvPiPKiiiRiS3_S3_S3_S3_S3_" from 0x8 to 0x10
GPGPU-Sim PTX: allocating stack frame region for .param "__cudaparmf3__Z22loadSharedChunkFromMemILb1EEvPiPKiiiRiS3_S3_S3_S3_S3_" from 0x10 to 0x14
GPGPU-Sim PTX: allocating stack frame region for .param "__cudaparmf4__Z22loadSharedChunkFromMemILb1EEvPiPKiiiRiS3_S3_S3_S3_S3_" from 0x14 to 0x18
GPGPU-Sim PTX: allocating stack frame region for .param "__cudaparmf5__Z22loadSharedChunkFromMemILb1EEvPiPKiiiRiS3_S3_S3_S3_S3_" from 0x18 to 0x20
GPGPU-Sim PTX: allocating stack frame region for .param "__cudaparmf6__Z22loadSharedChunkFromMemILb1EEvPiPKiiiRiS3_S3_S3_S3_S3_" from 0x20 to 0x28
GPGPU-Sim PTX: allocating stack frame region for .param "__cudaparmf7__Z22loadSharedChunkFromMemILb1EEvPiPKiiiRiS3_S3_S3_S3_S3_" from 0x28 to 0x30
GPGPU-Sim PTX: allocating stack frame region for .param "__cudaparmf8__Z22loadSharedChunkFromMemILb1EEvPiPKiiiRiS3_S3_S3_S3_S3_" from 0x30 to 0x38
GPGPU-Sim PTX: allocating stack frame region for .param "__cudaparmf9__Z22loadSharedChunkFromMemILb1EEvPiPKiiiRiS3_S3_S3_S3_S3_" from 0x38 to 0x40
GPGPU-Sim PTX: allocating stack frame region for .param "__cudaparmf10__Z22loadSharedChunkFromMemILb1EEvPiPKiiiRiS3_S3_S3_S3_S3_" from 0x40 to 0x48
GPGPU-Sim PTX: allocating stack frame region for .param "__cudaparmf1__Z21storeSharedChunkToMemILb1EEvPiPKiiiiiiii" from 0x0 to 0x8
GPGPU-Sim PTX: allocating stack frame region for .param "__cudaparmf2__Z21storeSharedChunkToMemILb1EEvPiPKiiiiiiii" from 0x8 to 0x10
GPGPU-Sim PTX: allocating stack frame region for .param "__cudaparmf3__Z21storeSharedChunkToMemILb1EEvPiPKiiiiiiii" from 0x10 to 0x14
GPGPU-Sim PTX: allocating stack frame region for .param "__cudaparmf4__Z21storeSharedChunkToMemILb1EEvPiPKiiiiiiii" from 0x14 to 0x18
GPGPU-Sim PTX: allocating stack frame region for .param "__cudaparmf5__Z21storeSharedChunkToMemILb1EEvPiPKiiiiiiii" from 0x18 to 0x1c
GPGPU-Sim PTX: allocating stack frame region for .param "__cudaparmf6__Z21storeSharedChunkToMemILb1EEvPiPKiiiiiiii" from 0x1c to 0x20
GPGPU-Sim PTX: allocating stack frame region for .param "__cudaparmf7__Z21storeSharedChunkToMemILb1EEvPiPKiiiiiiii" from 0x20 to 0x24
GPGPU-Sim PTX: allocating stack frame region for .param "__cudaparmf8__Z21storeSharedChunkToMemILb1EEvPiPKiiiiiiii" from 0x24 to 0x28
GPGPU-Sim PTX: allocating stack frame region for .param "__cudaparmf9__Z21storeSharedChunkToMemILb1EEvPiPKiiiiiiii" from 0x28 to 0x2c
GPGPU-Sim PTX: allocating stack frame region for .param "__cudaparmf1__Z12prescanBlockILb0EEvPiiS0_" from 0x0 to 0x8
GPGPU-Sim PTX: allocating stack frame region for .param "__cudaparmf2__Z12prescanBlockILb0EEvPiiS0_" from 0x8 to 0xc
[...]
traffic_breakdown_coretomem[INST_ACC_R] = 1680 {8:210,}
traffic_breakdown_memtocore[CONST_ACC_R] = 1080 {72:15,}
traffic_breakdown_memtocore[GLOBAL_ACC_R] = 16999728 {136:124998,}
traffic_breakdown_memtocore[GLOBAL_ACC_W] = 1015608 {8:126951,}
traffic_breakdown_memtocore[INST_ACC_R] = 28560 {136:210,}
maxmrqlatency = 1434 
maxdqlatency = 0 
maxmflatency = 2149 
averagemflatency = 395 
max_icnt2mem_latency = 1374 
max_icnt2sh_latency = 331903 
mrq_lat_table:96801 	9699 	9649 	16202 	28113 	36675 	45530 	34985 	3562 	254 	22 	0 	0 	0 	0 	0 	0 	0 	0 	0 	0 	0 	0 	0 	0 	0 	0 	0 	0 	0 	0 	0 	
dq_lat_table:0 	0 	0 	0 	0 	0 	0 	0 	0 	0 	0 	0 	0 	0 	0 	0 	0 	0 	0 	0 	0 	0 	0 	0 	0 	0 	0 	0 	0 	0 	0 	0 	
mf_lat_table:0 	0 	0 	0 	0 	0 	0 	42722 	146202 	61354 	1684 	2 	0 	0 	0 	0 	0 	0 	0 	0 	0 	0 	0 	0 	0 	0 	0 	0 	0 	0 	0 	0 	
icnt2mem_lat_table:0 	0 	0 	40735 	26580 	40667 	87857 	44605 	10931 	770 	29 	0 	0 	0 	0 	0 	0 	0 	0 	0 	0 	0 	0 	0 	
icnt2sh_lat_table:0 	0 	0 	45385 	63266 	16217 	145 	0 	0 	0 	8 	1771 	3571 	5876 	11410 	22661 	45300 	23809 	12545 	0 	0 	0 	0 	0 	
mf_lat_pw_table:0 	0 	0 	0 	0 	0 	0 	15 	619 	11 	8 	0 	0 	0 	0 	0 	0 	0 	0 	0 	0 	0 	0 	0 	0 	0 	0 	0 	0 	0 	0 	0 	
maximum concurrent accesses to same row:
dram[0]:        62        64        54        56        64        56        64        64        60        52        56        60        56        56        56        60 
dram[1]:        64        64        56        56        64        56        60        64        60        56        64        60        58        56        56        60 
dram[2]:        64        64        64        56        64        64        60        64        60        56        64        60        64        60        64        60 
dram[3]:        64        64        64        56        64        64        64        64        60        56        64        60        64        60        64        60 
dram[4]:        64        64        64        56        64        64        64        64        60        60        64        60        64        64        64        60 
dram[5]:        64        64        64        60        64        64        64        64        64        60        64        60        64        64        64        60 
maximum service time to same row:
dram[0]:     16640     16416     16690     16534     16603     16287     16536     16344     16369     16581     16655     16616     18837     18883     16613     16247 
dram[1]:     17159     16640     16605     16781     16604     16278     16500     16388     16362     16628     16558     16561     18884     16383     16522     16222 
dram[2]:     16372     16636     16789     16772     16541     16258     16460     16309     16240     16556     16863     16569     19403     16392     16633     16178 
dram[3]:     16306     16625     16790     16793     16549     16236     16533     16387     16224     16635     16871     16536     19795     18863     16633     16179 
dram[4]:     16554     16861     17247     17925     16574     16545     16527     16486     16252     16267     16885     16653     19365     16692     16575     16437 
dram[5]:     16785     17242     17379     17863     16568     16594     16475     16484     16206     16259     16828     16576     19385     18783     16479     16438 
average row accesses per activate:
dram[0]:  5.768628  6.771889  6.025105  7.058824  5.647059  6.649770  6.161491  7.240876  5.384335  6.506608  6.171908  6.542222  6.290598  6.878505  6.137787  7.767810 
dram[1]:  5.704280  6.386957  5.829959  6.697674  5.454545  6.427617  6.148760  6.872979  5.259787  6.421739  5.876247  6.743119  6.304069  6.721461  6.336207  7.510204 
dram[2]:  6.240938  6.282051  6.923077  6.776471  6.000000  6.500000  7.188406  6.857143  5.931727  6.053279  6.146138  6.336207  6.630630  6.675737  7.145631  7.145631 
dram[3]:  6.060041  6.389978  6.442953  6.651270  5.926078  6.413333  6.628062  6.657718  6.008147  6.053279  6.210970  6.309013  6.690909  6.675737  6.513274  7.043062 
dram[4]:  5.798020  6.769053  6.012526  7.441861  5.528736  6.574032  6.305085  7.402985  5.728155  6.421739  5.971602  6.721461  6.427948  6.943396  6.660634  7.434343 
dram[5]:  5.901210  6.524445  5.975104  6.792453  5.445283  6.696056  6.073469  7.223301  6.032720  6.053279  5.554717  6.721461  6.304069  7.251232  6.660634  7.313433 
average row locality = 281492/44020 = 6.394639
number of total memory accesses made:
dram[0]:         0         0         0         0         0         0         0         0         0         0         0         0         0         0         0         0 
dram[1]:         0         0         0         0         0         0         0         0         0         0         0         0         0         0         0         0 
dram[2]:         0         0         0         0         0         0         0         0         0         0         0         0         0         0         0         0 
dram[3]:         0         0         0         0         0         0         0         0         0         0         0         0         0         0         0         0 
dram[4]:         0         0         0         0         0         0         0         0         0         0         0         0         0         0         0         0 
dram[5]:         0         0         0         0         0         0         0         0         0         0         0         0         0         0         0         0 
total accesses: 0
min_bank_accesses = 0!
min_chip_accesses = 0!
number of total read accesses:
dram[0]:      1625      1623      1600      1600      1600      1604      1664      1664      1644      1642      1632      1632      1632      1632      1630      1632 
dram[1]:      1622      1624      1600      1600      1600      1604      1664      1664      1644      1642      1632      1630      1632      1632      1630      1632 
dram[2]:      1621      1624      1600      1600      1604      1604      1664      1664      1642      1642      1632      1630      1632      1632      1632      1632 
dram[3]:      1622      1624      1600      1600      1604      1604      1664      1664      1640      1642      1632      1630      1632      1632      1632      1632 
dram[4]:      1621      1624      1600      1600      1604      1604      1664      1664      1640      1642      1632      1632      1632      1632      1632      1632 
dram[5]:      1620      1623      1600      1600      1604      1604      1664      1664      1640      1642      1632      1632      1632      1632      1632      1630 
total reads: 156323
bank skew: 1664/1600 = 1.04
chip skew: 26056/26051 = 1.00
number of total write accesses:
dram[0]:      1317      1316      1280      1280      1280      1282      1312      1312      1312      1312      1312      1312      1312      1312      1310      1312 
dram[1]:      1310      1314      1280      1280      1280      1282      1312      1312      1312      1312      1312      1310      1312      1312      1310      1312 
dram[2]:      1306      1316      1280      1280      1282      1282      1312      1312      1312      1312      1312      1310      1312      1312      1312      1312 
dram[3]:      1305      1309      1280      1280      1282      1282      1312      1312      1310      1312      1312      1310      1312      1312      1312      1312 
dram[4]:      1307      1307      1280      1280      1282      1282      1312      1312      1310      1312      1312      1312      1312      1312      1312      1312 
dram[5]:      1307      1313      1280      1280      1282      1282      1312      1312      1310      1312      1312      1312      1312      1312      1312      1310 
total reads: 125169
bank skew: 1317/1280 = 1.03
chip skew: 20873/20854 = 1.00
average mf latency per bank:
dram[0]:        346       348       347       353       355       353       348       354       343       336       341       339       340       345       341       348
dram[1]:        355       360       358       364       361       372       359       366       359       349       358       349       352       356       353       361
dram[2]:        346       352       347       357       345       359       341       359       335       339       343       342       345       346       349       350
dram[3]:        356       367       359       373       360       374       355       373       346       350       354       350       360       359       358       365
dram[4]:        342       348       347       348       348       353       345       359       337       353       344       349       344       348       347       351
dram[5]:        349       365       355       371       362       368       363       372       352       359       354       357       356       355       358       364
maximum mf latency per bank:
dram[0]:       1497      1776      1702      1930      1635      1837      1019      1332      1032       948      1176       899      1440      1722      1449      1575
dram[1]:       1555      1802      1689      1884      1552      1922      1058      1097      1034      1014      1149       902      1544      1780      1758      1605
dram[2]:       1751      1773      2136      1904      1870      1830       987      1163       898       903       910      1063      1626      1381      1876      1580
dram[3]:       1775      1846      2149      1798      1824      1674      1014      1105       904      1046      1005      1002      1773      1335      1674      1547
dram[4]:       1629      1808      1949      1872      1589      1665      1072      1060       972       954       914      1311      1513      1953      1554      1754
dram[5]:       1463      1798      1818      1835      1533      1724      1032      1054       918      1071       979      1365      1561      1715      1734      1646

Number of Memory Banks Accessed per Memory Operation per Warp (from 0):
0	0	0	0	0	0	0	0	0	0	0	0	0	0	0	0	0	0	0	0	0	0	0	0	0	0	0	0	0	0	0	0	0	0	0	0	0	0	0	0	0	0	0	0	0	0	0	0	0	0	0	0	0	0	0	0	0	0	0	0	0	0	0	0	0	0	0	0	0	0	0	0	0	0	0	0	0	0	0	0	0	0	0	0	0	0	0	0	0	0	0	0	0	0	0	0	
Average # of Memory Banks Accessed per Memory Operation per Warp=-nan

position of mrq chosen
0	0	0	0	0	0	0	0	0	0	0	0	0	0	0	0	

average position of mrq chosen = -nan
Memory Partition 0: 
Cache L2_bank_000:
MSHR contents
MSHR: tag=0x82624880, atomic=0 1 entries : 0x7f02312d9870 :  mf: uid=5354847, sid01:w29, part=0, addr=0x82624880, load , size=128, unknown  status = IN_PARTITION_DRAM (331900), 

Cache L2_bank_001:
MSHR contents

In Dram Latency Queue (total = 0): 
DRAM[0]: 16 bks, busW=4 BL=8 CL=12, tRRD=2 tCCD=6, tRCD=12 tRAS=28 tRP=12 tRC=40
n_cmd=438111 n_nop=329592 n_act=7353 n_pre=7337 n_req=46929 n_rd=52112 n_write=41717 bw_util=0.4283
n_activity=364243 dram_eff=0.5152
bk0: 3250a 345512i bk1: 3246a 340152i bk2: 3200a 337089i bk3: 3200a 330994i bk4: 3200a 331851i bk5: 3208a 329256i bk6: 3328a 330373i bk7: 3328a 322483i bk8: 3288a 342540i bk9: 3284a 336475i bk10: 3264a 333652i bk11: 3264a 330770i bk12: 3264a 333466i bk13: 3264a 329153i bk14: 3260a 333362i bk15: 3264a 327019i 
dram_util_bins: 0 0 0 0 0 0 0 0 0 0
dram_eff_bins: 0 0 0 0 0 0 0 0 0 0
mrqq: max=16 avg=6.94246
Memory Partition 1: 
Cache L2_bank_002:
MSHR contents
MSHR: tag=0x82624980, atomic=0 1 entries : 0x7f023146b000 :  mf: uid=5354845, sid01:w31, part=1, addr=0x82624980, load , size=128, unknown  status = IN_PARTITION_DRAM (331898), 

Cache L2_bank_003:
MSHR contents

In Dram Latency Queue (total = 0): 
DRAM[1]: 16 bks, busW=4 BL=8 CL=12, tRRD=2 tCCD=6, tRCD=12 tRAS=28 tRP=12 tRC=40
n_cmd=438111 n_nop=329295 n_act=7512 n_pre=7496 n_req=46914 n_rd=52104 n_write=41704 bw_util=0.4282
n_activity=364511 dram_eff=0.5147
bk0: 3244a 344717i bk1: 3248a 337641i bk2: 3200a 334025i bk3: 3200a 329634i bk4: 3200a 330930i bk5: 3208a 326973i bk6: 3328a 327190i bk7: 3328a 323392i bk8: 3288a 341170i bk9: 3284a 334987i bk10: 3264a 333777i bk11: 3260a 330219i bk12: 3264a 334600i bk13: 3264a 328121i bk14: 3260a 333382i bk15: 3264a 323643i 
dram_util_bins: 0 0 0 0 0 0 0 0 0 0
dram_eff_bins: 0 0 0 0 0 0 0 0 0 0
mrqq: max=16 avg=7.04007
Memory Partition 2: 
Cache L2_bank_004:
MSHR contents

Cache L2_bank_005:
MSHR contents

In Dram Latency Queue (total = 0): 
DRAM[2]: 16 bks, busW=4 BL=8 CL=12, tRRD=2 tCCD=6, tRCD=12 tRAS=28 tRP=12 tRC=40
n_cmd=438111 n_nop=329931 n_act=7189 n_pre=7173 n_req=46919 n_rd=52110 n_write=41708 bw_util=0.4283
n_activity=363425 dram_eff=0.5163
bk0: 3242a 347149i bk1: 3248a 337955i bk2: 3200a 339956i bk3: 3200a 331098i bk4: 3208a 331875i bk5: 3208a 327148i bk6: 3328a 331509i bk7: 3328a 323340i bk8: 3284a 342813i bk9: 3284a 334864i bk10: 3264a 334201i bk11: 3260a 328459i bk12: 3264a 336716i bk13: 3264a 330310i bk14: 3264a 334224i bk15: 3264a 328480i 
dram_util_bins: 0 0 0 0 0 0 0 0 0 0
dram_eff_bins: 0 0 0 0 0 0 0 0 0 0
mrqq: max=16 avg=6.94007
Memory Partition 3: 
Cache L2_bank_006:
MSHR contents

Cache L2_bank_007:
MSHR contents

In Dram Latency Queue (total = 0): 
DRAM[3]: 16 bks, busW=4 BL=8 CL=12, tRRD=2 tCCD=6, tRCD=12 tRAS=28 tRP=12 tRC=40
n_cmd=438111 n_nop=329675 n_act=7325 n_pre=7309 n_req=46908 n_rd=52108 n_write=41694 bw_util=0.4282
n_activity=363510 dram_eff=0.5161
bk0: 3244a 345717i bk1: 3248a 339412i bk2: 3200a 337525i bk3: 3200a 329275i bk4: 3208a 333410i bk5: 3208a 327346i bk6: 3328a 330912i bk7: 3328a 323002i bk8: 3280a 343904i bk9: 3284a 335123i bk10: 3264a 333976i bk11: 3260a 327037i bk12: 3264a 337246i bk13: 3264a 327683i bk14: 3264a 332484i bk15: 3264a 325066i 
dram_util_bins: 0 0 0 0 0 0 0 0 0 0
dram_eff_bins: 0 0 0 0 0 0 0 0 0 0
mrqq: max=16 avg=7.07171
Memory Partition 4: 
Cache L2_bank_008:
MSHR contents

Cache L2_bank_009:
MSHR contents

In Dram Latency Queue (total = 0): 
DRAM[4]: 16 bks, busW=4 BL=8 CL=12, tRRD=2 tCCD=6, tRCD=12 tRAS=28 tRP=12 tRC=40
n_cmd=438111 n_nop=329789 n_act=7265 n_pre=7249 n_req=46911 n_rd=52110 n_write=41698 bw_util=0.4282
n_activity=363361 dram_eff=0.5163
bk0: 3242a 344994i bk1: 3248a 339574i bk2: 3200a 336895i bk3: 3200a 332777i bk4: 3208a 332177i bk5: 3208a 330164i bk6: 3328a 330053i bk7: 3328a 325035i bk8: 3280a 342523i bk9: 3284a 335841i bk10: 3264a 331908i bk11: 3264a 329455i bk12: 3264a 335692i bk13: 3264a 327300i bk14: 3264a 334426i bk15: 3264a 326310i 
dram_util_bins: 0 0 0 0 0 0 0 0 0 0
dram_eff_bins: 0 0 0 0 0 0 0 0 0 0
mrqq: max=16 avg=7.00322
Memory Partition 5: 
Cache L2_bank_010:
MSHR contents

Cache L2_bank_011:
MSHR contents
MSHR: tag=0x82624780, atomic=0 1 entries : 0x7f02314631a0 :  mf: uid=5354846, sid01:w27, part=5, addr=0x82624780, load , size=128, unknown  status = IN_PARTITION_MC_RETURNQ (331903), 

In Dram Latency Queue (total = 0): 
DRAM[5]: 16 bks, busW=4 BL=8 CL=12, tRRD=2 tCCD=6, tRCD=12 tRAS=28 tRP=12 tRC=40
n_cmd=438111 n_nop=329571 n_act=7377 n_pre=7361 n_req=46911 n_rd=52102 n_write=41700 bw_util=0.4282
n_activity=362408 dram_eff=0.5177
bk0: 3240a 343554i bk1: 3246a 341638i bk2: 3200a 334813i bk3: 3200a 329676i bk4: 3208a 331842i bk5: 3208a 327059i bk6: 3328a 328360i bk7: 3328a 323858i bk8: 3280a 343663i bk9: 3284a 332447i bk10: 3264a 331585i bk11: 3264a 328123i bk12: 3264a 334426i bk13: 3264a 328488i bk14: 3264a 331334i bk15: 3260a 326874i 
dram_util_bins: 0 0 0 0 0 0 0 0 0 0
dram_eff_bins: 0 0 0 0 0 0 0 0 0 0
mrqq: max=16 avg=7.12496

========= L2 cache stats =========
L2_cache_bank[0]: Access = 21008, Miss = 13027, Miss_rate = 0.620, Pending_hits = 12, Reservation_fails = 266
L2_cache_bank[1]: Access = 21043, Miss = 13029, Miss_rate = 0.619, Pending_hits = 11, Reservation_fails = 692
L2_cache_bank[2]: Access = 20960, Miss = 13024, Miss_rate = 0.621, Pending_hits = 4, Reservation_fails = 97
L2_cache_bank[3]: Access = 21054, Miss = 13028, Miss_rate = 0.619, Pending_hits = 12, Reservation_fails = 919
L2_cache_bank[4]: Access = 20979, Miss = 13027, Miss_rate = 0.621, Pending_hits = 5, Reservation_fails = 257
L2_cache_bank[5]: Access = 21054, Miss = 13028, Miss_rate = 0.619, Pending_hits = 14, Reservation_fails = 1005
L2_cache_bank[6]: Access = 20990, Miss = 13026, Miss_rate = 0.621, Pending_hits = 7, Reservation_fails = 377
L2_cache_bank[7]: Access = 21054, Miss = 13028, Miss_rate = 0.619, Pending_hits = 9, Reservation_fails = 339
L2_cache_bank[8]: Access = 20975, Miss = 13025, Miss_rate = 0.621, Pending_hits = 6, Reservation_fails = 131
L2_cache_bank[9]: Access = 21058, Miss = 13030, Miss_rate = 0.619, Pending_hits = 6, Reservation_fails = 493
L2_cache_bank[10]: Access = 20960, Miss = 13024, Miss_rate = 0.621, Pending_hits = 3, Reservation_fails = 54
L2_cache_bank[11]: Access = 21039, Miss = 13027, Miss_rate = 0.619, Pending_hits = 10, Reservation_fails = 422
L2_total_cache_accesses = 252174
L2_total_cache_misses = 156323
L2_total_cache_miss_rate = 0.6199
L2_total_cache_pending_hits = 99
L2_total_cache_reservation_fails = 5052
L2_total_cache_breakdown:
	L2_cache_stats_breakdown[GLOBAL_ACC_R][MISS] = 124998
	L2_cache_stats_breakdown[GLOBAL_ACC_R][RESERVATION_FAIL] = 2450
	L2_cache_stats_breakdown[CONST_ACC_R][HIT] = 11
	L2_cache_stats_breakdown[CONST_ACC_R][HIT_RESERVED] = 3
	L2_cache_stats_breakdown[CONST_ACC_R][MISS] = 1
	L2_cache_stats_breakdown[CONST_ACC_R][RESERVATION_FAIL] = 96
	L2_cache_stats_breakdown[GLOBAL_ACC_W][HIT] = 95586
	L2_cache_stats_breakdown[GLOBAL_ACC_W][HIT_RESERVED] = 55
	L2_cache_stats_breakdown[GLOBAL_ACC_W][MISS] = 31310
	L2_cache_stats_breakdown[GLOBAL_ACC_W][RESERVATION_FAIL] = 412
	L2_cache_stats_breakdown[INST_ACC_R][HIT] = 155
	L2_cache_stats_breakdown[INST_ACC_R][HIT_RESERVED] = 41
	L2_cache_stats_breakdown[INST_ACC_R][MISS] = 14
	L2_cache_stats_breakdown[INST_ACC_R][RESERVATION_FAIL] = 2094
L2_cache_data_port_util = 0.187
L2_cache_fill_port_util = 0.157

icnt_total_pkts_mem_to_simt=753036
icnt_total_pkts_simt_to_mem=754119
LD_mem_lat_dist  0 0 0 0 0 0 0 0 0 0 0 0 0 0 0 0 0 0 0 0 0 0 0 0 0 0 0
ST_mem_lat_dist  0 0 0 0 0 0 0 0 0 0 0 0 0 0 0 0 0 0 0 0 0 0 0 0 0 0 0
----------------------------Interconnect-DETAILS--------------------------------
Class 0:
Packet latency average = 14.3777
	minimum = 6
	maximum = 1153
Network latency average = 11.9862
	minimum = 6
	maximum = 793
Slowest packet = 380211
Flit latency average = 9.88066
	minimum = 6
	maximum = 793
Slowest flit = 1143001
Fragmentation average = 0.0991037
	minimum = 0
	maximum = 545
Injected packet rate average = 0.0243776
	minimum = 0.0219063 (at node 0)
	maximum = 0.027663 (at node 18)
Accepted packet rate average = 0.0243776
	minimum = 0.0219063 (at node 0)
	maximum = 0.027663 (at node 18)
Injected flit rate average = 0.0720274
	minimum = 0.0649546 (at node 0)
	maximum = 0.0813384 (at node 18)
Accepted flit rate average= 0.0720274
	minimum = 0.0644961 (at node 0)
	maximum = 0.0817052 (at node 18)
Injected packet length average = 2.95465
Accepted packet length average = 2.95465
Total in-flight flits = 0 (0 measured)
====== Overall Traffic Statistics ======
====== Traffic class 0 ======
Packet latency average = 25.0986 (2 samples)
	minimum = 6 (2 samples)
	maximum = 814 (2 samples)
Network latency average = 18.345 (2 samples)
	minimum = 6 (2 samples)
	maximum = 603 (2 samples)
Flit latency average = 15.0358 (2 samples)
	minimum = 6 (2 samples)
	maximum = 601 (2 samples)
Fragmentation average = 0.128135 (2 samples)
	minimum = 0 (2 samples)
	maximum = 395.5 (2 samples)
Injected packet rate average = 0.0634171 (2 samples)
	minimum = 0.056277 (2 samples)
	maximum = 0.0715472 (2 samples)
Accepted packet rate average = 0.0634171 (2 samples)
	minimum = 0.056277 (2 samples)
	maximum = 0.0715472 (2 samples)
Injected flit rate average = 0.189694 (2 samples)
	minimum = 0.168412 (2 samples)
	maximum = 0.214038 (2 samples)
Accepted flit rate average = 0.189694 (2 samples)
	minimum = 0.168249 (2 samples)
	maximum = 0.213779 (2 samples)
Injected packet size average = 2.99122 (2 samples)
Accepted packet size average = 2.99122 (2 samples)
Hops average = 1 (2 samples)
