

        *** GPGPU-Sim Simulator Version 3.2.2  [build 0] ***


GPGPU-Sim PTX: simulation mode 0 (can change with PTX_SIM_MODE_FUNC environment variable:
               1=functional simulation only, 0=detailed performance simulator)
GPGPU-Sim: Configuration options:

-network_mode                           1 # Interconnection network mode
-inter_config_file   config_fermi_islip.icnt # Interconnection network config file
-gpgpu_ptx_use_cuobjdump                    1 # Use cuobjdump to extract ptx and sass from binaries
-gpgpu_experimental_lib_support                    0 # Try to extract code from cuda libraries [Broken because of unknown cudaGetExportTable]
-gpgpu_ptx_convert_to_ptxplus                    0 # Convert SASS (native ISA) to ptxplus and run ptxplus
-gpgpu_ptx_force_max_capability                   20 # Force maximum compute capability
-gpgpu_ptx_inst_debug_to_file                    0 # Dump executed instructions' debug information to file
-gpgpu_ptx_inst_debug_file       inst_debug.txt # Executed instructions' debug output file
-gpgpu_ptx_inst_debug_thread_uid                    1 # Thread UID for executed instructions' debug output
-gpgpu_simd_model                       1 # 1 = post-dominator
-gpgpu_shader_core_pipeline              1536:32 # shader core pipeline config, i.e., {<nthread>:<warpsize>}
-gpgpu_tex_cache:l1  4:128:24,L:R:m:N:L,F:128:4,128:2 # per-shader L1 texture cache  (READ-ONLY) config  {<nsets>:<bsize>:<assoc>,<rep>:<wr>:<alloc>:<wr_alloc>,<mshr>:<N>:<merge>,<mq>:<rf>}
-gpgpu_const_cache:l1 64:64:2,L:R:f:N:L,A:2:32,4 # per-shader L1 constant memory cache  (READ-ONLY) config  {<nsets>:<bsize>:<assoc>,<rep>:<wr>:<alloc>:<wr_alloc>,<mshr>:<N>:<merge>,<mq>} 
-gpgpu_cache:il1     4:128:4,L:R:f:N:L,A:2:32,4 # shader L1 instruction cache config  {<nsets>:<bsize>:<assoc>,<rep>:<wr>:<alloc>:<wr_alloc>,<mshr>:<N>:<merge>,<mq>} 
-gpgpu_cache:dl1     32:128:4,L:L:m:N:H,A:32:8,8:2,0,1:0:1:1:0:1,1:4:8:16:32:64,/sciclone/data10/hwang07/GPU_RESEARCH/swl/swl_outputs/RESULTS/swl1/ # per-shader L1 data cache config  {<nsets>:<bsize>:<assoc>,<rep>:<wr>:<alloc>:<wr_alloc>,<mshr>:<N>:<merge>,<mq> | none}
-gpgpu_cache:dl1PrefL1                 none # per-shader L1 data cache config  {<nsets>:<bsize>:<assoc>,<rep>:<wr>:<alloc>:<wr_alloc>,<mshr>:<N>:<merge>,<mq> | none}
-gpgpu_cache:dl1PreShared                 none # per-shader L1 data cache config  {<nsets>:<bsize>:<assoc>,<rep>:<wr>:<alloc>:<wr_alloc>,<mshr>:<N>:<merge>,<mq> | none}
-gmem_skip_L1D                          0 # global memory access skip L1D cache (implements -Xptxas -dlcm=cg, default=no skip)
-gpgpu_perfect_mem                      0 # enable perfect memory mode (no cache miss)
-n_regfile_gating_group                    4 # group of lanes that should be read/written together)
-gpgpu_clock_gated_reg_file                    0 # enable clock gated reg file for power calculations
-gpgpu_clock_gated_lanes                    0 # enable clock gated lanes for power calculations
-gpgpu_shader_registers                32768 # Number of registers per shader core. Limits number of concurrent CTAs. (default 8192)
-gpgpu_shader_cta                       8 # Maximum number of concurrent CTAs in shader (default 8)
-gpgpu_num_cta_barriers                   16 # Maximum number of named barriers per CTA (default 16)
-gpgpu_n_clusters                      15 # number of processing clusters
-gpgpu_n_cores_per_cluster                    1 # number of simd cores per cluster
-gpgpu_n_cluster_ejection_buffer_size                    8 # number of packets in ejection buffer
-gpgpu_n_ldst_response_buffer_size                    2 # number of response packets in ld/st unit ejection buffer
-gpgpu_shmem_size                   16384 # Size of shared memory per shader core (default 16kB)
-gpgpu_shmem_size                   49152 # Size of shared memory per shader core (default 16kB)
-gpgpu_shmem_size_PrefL1                16384 # Size of shared memory per shader core (default 16kB)
-gpgpu_shmem_size_PrefShared                16384 # Size of shared memory per shader core (default 16kB)
-gpgpu_shmem_num_banks                   32 # Number of banks in the shared memory in each shader core (default 16)
-gpgpu_shmem_limited_broadcast                    0 # Limit shared memory to do one broadcast per cycle (default on)
-gpgpu_shmem_warp_parts                    1 # Number of portions a warp is divided into for shared memory bank conflict check 
-gpgpu_warpdistro_shader                   -1 # Specify which shader core to collect the warp size distribution from
-gpgpu_warp_issue_shader                    0 # Specify which shader core to collect the warp issue distribution from
-gpgpu_local_mem_map                    1 # Mapping from local memory space address to simulated GPU physical address space (default = enabled)
-gpgpu_num_reg_banks                   16 # Number of register banks (default = 8)
-gpgpu_reg_bank_use_warp_id                    0 # Use warp ID in mapping registers to banks (default = off)
-gpgpu_operand_collector_num_units_sp                    6 # number of collector units (default = 4)
-gpgpu_operand_collector_num_units_sfu                    8 # number of collector units (default = 4)
-gpgpu_operand_collector_num_units_mem                    2 # number of collector units (default = 2)
-gpgpu_operand_collector_num_units_gen                    0 # number of collector units (default = 0)
-gpgpu_operand_collector_num_in_ports_sp                    2 # number of collector unit in ports (default = 1)
-gpgpu_operand_collector_num_in_ports_sfu                    1 # number of collector unit in ports (default = 1)
-gpgpu_operand_collector_num_in_ports_mem                    1 # number of collector unit in ports (default = 1)
-gpgpu_operand_collector_num_in_ports_gen                    0 # number of collector unit in ports (default = 0)
-gpgpu_operand_collector_num_out_ports_sp                    2 # number of collector unit in ports (default = 1)
-gpgpu_operand_collector_num_out_ports_sfu                    1 # number of collector unit in ports (default = 1)
-gpgpu_operand_collector_num_out_ports_mem                    1 # number of collector unit in ports (default = 1)
-gpgpu_operand_collector_num_out_ports_gen                    0 # number of collector unit in ports (default = 0)
-gpgpu_coalesce_arch                   13 # Coalescing arch (default = 13, anything else is off for now)
-gpgpu_num_sched_per_core                    2 # Number of warp schedulers per core
-gpgpu_max_insn_issue_per_warp                    1 # Max number of instructions that can be issued per warp in one cycle by scheduler
-gpgpu_simt_core_sim_order                    1 # Select the simulation order of cores in a cluster (0=Fix, 1=Round-Robin)
-gpgpu_pipeline_widths        2,1,1,2,1,1,2 # Pipeline widths ID_OC_SP,ID_OC_SFU,ID_OC_MEM,OC_EX_SP,OC_EX_SFU,OC_EX_MEM,EX_WB
-gpgpu_num_sp_units                     2 # Number of SP units (default=1)
-gpgpu_num_sfu_units                    1 # Number of SF units (default=1)
-gpgpu_num_mem_units                    1 # Number if ldst units (default=1) WARNING: not hooked up to anything
-gpgpu_scheduler        warp_limiting:2:1 # Scheduler configuration: < lrr | gto | two_level_active > If two_level_active:<num_active_warps>:<inner_prioritization>:<outer_prioritization>For complete list of prioritization values see shader.h enum scheduler_prioritization_typeDefault: gto
-gpgpu_dram_scheduler                    1 # 0 = fifo, 1 = FR-FCFS (defaul)
-gpgpu_dram_partition_queues              8:8:8:8 # i2$:$2d:d2$:$2i
-l2_ideal                               0 # Use a ideal L2 cache that always hit
-gpgpu_cache:dl2     64:128:8,L:B:m:W:L,A:32:4,4:0,32 # unified banked L2 data cache config  {<nsets>:<bsize>:<assoc>,<rep>:<wr>:<alloc>:<wr_alloc>,<mshr>:<N>:<merge>,<mq>}
-gpgpu_cache:dl2_texture_only                    0 # L2 cache used for texture only
-gpgpu_n_mem                            6 # number of memory modules (e.g. memory controllers) in gpu
-gpgpu_n_sub_partition_per_mchannel                    2 # number of memory subpartition in each memory module
-gpgpu_n_mem_per_ctrlr                    2 # number of memory chips per memory controller
-gpgpu_memlatency_stat                   14 # track and display latency statistics 0x2 enables MC, 0x4 enables queue logs
-gpgpu_frfcfs_dram_sched_queue_size                   16 # 0 = unlimited (default); # entries per chip
-gpgpu_dram_return_queue_size                  116 # 0 = unlimited (default); # entries per chip
-gpgpu_dram_buswidth                    4 # default = 4 bytes (8 bytes per cycle at DDR)
-gpgpu_dram_burst_length                    8 # Burst length of each DRAM request (default = 4 data bus cycle)
-dram_data_command_freq_ratio                    4 # Frequency ratio between DRAM data bus and command bus (default = 2 times, i.e. DDR)
-gpgpu_dram_timing_opt nbk=16:CCD=2:RRD=6:RCD=12:RAS=28:RP=12:RC=40: CL=12:WL=4:CDLR=5:WR=12:nbkgrp=4:CCDL=3:RTPL=2 # DRAM timing parameters = {nbk:tCCD:tRRD:tRCD:tRAS:tRP:tRC:CL:WL:tCDLR:tWR:nbkgrp:tCCDL:tRTPL}
-rop_latency                          120 # ROP queue latency (default 85)
-dram_latency                         100 # DRAM latency (default 30)
-gpgpu_mem_addr_mapping dramid@8;00000000.00000000.00000000.00000000.0000RRRR.RRRRRRRR.BBBCCCCB.CCSSSSSS # mapping memory address to dram model {dramid@<start bit>;<memory address map>}
-gpgpu_mem_addr_test                    0 # run sweep test to check address mapping for aliased address
-gpgpu_mem_address_mask                    1 # 0 = old addressing mask, 1 = new addressing mask, 2 = new add. mask + flipped bank sel and chip sel bits
-gpuwattch_xml_file  gpuwattch_gtx480.xml # GPUWattch XML file
-power_simulation_enabled                    0 # Turn on power simulator (1=On, 0=Off)
-power_per_cycle_dump                    0 # Dump detailed power output each cycle
-power_trace_enabled                    0 # produce a file for the power trace (1=On, 0=Off)
-power_trace_zlevel                     6 # Compression level of the power trace output log (0=no comp, 9=highest)
-steady_power_levels_enabled                    0 # produce a file for the steady power levels (1=On, 0=Off)
-steady_state_definition                  8:4 # allowed deviation:number of samples
-gpgpu_max_cycle                        0 # terminates gpu simulation early (0 = no limit)
-gpgpu_max_insn                         0 # terminates gpu simulation early (0 = no limit)
-gpgpu_max_cta                          0 # terminates gpu simulation early (0 = no limit)
-gpgpu_runtime_stat                   500 # display runtime statistics such as dram utilization {<freq>:<flag>}
-liveness_message_freq                    1 # Minimum number of seconds between simulation liveness messages (0 = always print)
-gpgpu_flush_l1_cache                    0 # Flush L1 cache at the end of each kernel call
-gpgpu_flush_l2_cache                    0 # Flush L2 cache at the end of each kernel call
-gpgpu_deadlock_detect                    1 # Stop the simulation at deadlock (1=on (default), 0=off)
-gpgpu_ptx_instruction_classification                    0 # if enabled will classify ptx instruction types per kernel (Max 255 kernels now)
-gpgpu_ptx_sim_mode                     0 # Select between Performance (default) or Functional simulation (1)
-gpgpu_clock_domains 700.0:700.0:700.0:924.0 # Clock Domain Frequencies in MhZ {<Core Clock>:<ICNT Clock>:<L2 Clock>:<DRAM Clock>}
-gpgpu_max_concurrent_kernel                    8 # maximum kernels that can run concurrently on GPU
-gpgpu_cflog_interval                    0 # Interval between each snapshot in control flow logger
-visualizer_enabled                     0 # Turn on visualizer output (1=On, 0=Off)
-visualizer_outputfile                 NULL # Specifies the output log file for visualizer
-visualizer_zlevel                      6 # Compression level of the visualizer output log (0=no comp, 9=highest)
-trace_enabled                          0 # Turn on traces
-trace_components                    none # comma seperated list of traces to enable. Complete list found in trace_streams.tup. Default none
-trace_sampling_core                    0 # The core which is printed using CORE_DPRINTF. Default 0
-trace_sampling_memory_partition                   -1 # The memory partition which is printed using MEMPART_DPRINTF. Default -1 (i.e. all)
-enable_ptx_file_line_stats                    1 # Turn on PTX source line statistic profiling. (1 = On)
-ptx_line_stats_filename gpgpu_inst_stats.txt # Output file for PTX source line statistics.
-save_embedded_ptx                      0 # saves ptx files embedded in binary as <n>.ptx
-keep                                   0 # keep intermediate files created by GPGPU-Sim when interfacing with external programs
-gpgpu_ptx_save_converted_ptxplus                    0 # Saved converted ptxplus to a file
-ptx_opcode_latency_int         4,13,4,5,145 # Opcode latencies for integers <ADD,MAX,MUL,MAD,DIV>Default 1,1,19,25,145
-ptx_opcode_latency_fp          4,13,4,5,39 # Opcode latencies for single precision floating points <ADD,MAX,MUL,MAD,DIV>Default 1,1,1,1,30
-ptx_opcode_latency_dp         8,19,8,8,330 # Opcode latencies for double precision floating points <ADD,MAX,MUL,MAD,DIV>Default 8,8,8,8,335
-ptx_opcode_initiation_int            1,2,2,1,8 # Opcode initiation intervals for integers <ADD,MAX,MUL,MAD,DIV>Default 1,1,4,4,32
-ptx_opcode_initiation_fp            1,2,1,1,4 # Opcode initiation intervals for single precision floating points <ADD,MAX,MUL,MAD,DIV>Default 1,1,1,1,5
-ptx_opcode_initiation_dp         8,16,8,8,130 # Opcode initiation intervals for double precision floating points <ADD,MAX,MUL,MAD,DIV>Default 8,8,8,8,130
DRAM Timing Options:
nbk                                    16 # number of banks
CCD                                     2 # column to column delay
RRD                                     6 # minimal delay between activation of rows in different banks
RCD                                    12 # row to column delay
RAS                                    28 # time needed to activate row
RP                                     12 # time needed to precharge (deactivate) row
RC                                     40 # row cycle time
CDLR                                    5 # switching from write to read (changes tWTR)
WR                                     12 # last data-in to row precharge
CL                                     12 # CAS latency
WL                                      4 # Write latency
nbkgrp                                  4 # number of bank groups
CCDL                                    3 # column to column delay between accesses to different bank groups
RTPL                                    2 # read to precharge delay between accesses to different bank groups
Total number of memory sub partition = 12
addr_dec_mask[CHIP]  = 0000000000000000 	high:64 low:0
addr_dec_mask[BK]    = 000000000000e100 	high:16 low:8
addr_dec_mask[ROW]   = 000000000fff0000 	high:28 low:16
addr_dec_mask[COL]   = 0000000000001eff 	high:13 low:0
addr_dec_mask[BURST] = 000000000000003f 	high:6 low:0
sub_partition_id_mask = 0000000000000100
GPGPU-Sim uArch: clock freqs: 700000000.000000:700000000.000000:700000000.000000:924000000.000000
GPGPU-Sim uArch: clock periods: 0.00000000142857142857:0.00000000142857142857:0.00000000142857142857:0.00000000108225108225
*** Initializing Memory Statistics ***
GPGPU-Sim uArch: interconnect node map (shaderID+MemID to icntID)
GPGPU-Sim uArch: Memory nodes ID start from index: 15
GPGPU-Sim uArch:    0   1   2   3   4
GPGPU-Sim uArch:    5   6   7   8   9
GPGPU-Sim uArch:   10  11  12  13  14
GPGPU-Sim uArch:   15  16  17  18  19
GPGPU-Sim uArch:   20  21  22  23  24
GPGPU-Sim uArch:   25  26
GPGPU-Sim uArch: interconnect node reverse map (icntID to shaderID+MemID)
GPGPU-Sim uArch: Memory nodes start from ID: 15
GPGPU-Sim uArch:    0   1   2   3   4
GPGPU-Sim uArch:    5   6   7   8   9
GPGPU-Sim uArch:   10  11  12  13  14
GPGPU-Sim uArch:   15  16  17  18  19
GPGPU-Sim uArch:   20  21  22  23  24
GPGPU-Sim uArch:   25  26
b163d0dedd2017cf5e073629b67e8593  /sciclone/data10/hwang07/adwait/applications/benchmarks/lonestar/bin/dmr
GPGPU-Sim uArch: performance model initialization complete.
GPGPU-Sim PTX: __cudaRegisterFatBinary, fat_cubin_handle = 1, filename=apps/dmr/./main.cu
self exe links to: /sciclone/data10/hwang07/adwait/applications/benchmarks/lonestar/bin/dmr
Running md5sum using "md5sum /sciclone/data10/hwang07/adwait/applications/benchmarks/lonestar/bin/dmr "
Parsing file _cuobjdump_complete_output_WDi442
######### cuobjdump parser ########
## Adding new section PTX
Adding ptx filename: _cuobjdump_1.ptx
Adding arch: sm_20
Adding identifier: apps/dmr/./main.cu
## Adding new section ELF
Adding arch: sm_20
Adding identifier: apps/dmr/./main.cu
Done parsing!!!
GPGPU-Sim PTX: __cudaRegisterFunction _Z7drefinePfS_PjS0_S0_PbS0_S1_S0_S0_S1_jjjS0_S0_S0_S0_PVjjS3_S3_ : hostFun 0x0x402950, fat_cubin_handle = 1
GPGPU-Sim PTX: allocating stack frame region for .param "__cudaparmf1__Z11global_syncjPVjS0_" from 0x0 to 0x4
GPGPU-Sim PTX: allocating stack frame region for .param "__cudaparmf2__Z11global_syncjPVjS0_" from 0x4 to 0xc
GPGPU-Sim PTX: allocating stack frame region for .param "__cudaparmf3__Z11global_syncjPVjS0_" from 0xc to 0x14
GPGPU-Sim PTX: allocating stack frame region for .param "__cudaretf__Z14distanceSquareffff" from 0x0 to 0x4
GPGPU-Sim PTX: allocating stack frame region for .param "__cudaparmf1__Z14distanceSquareffff" from 0x4 to 0x8
GPGPU-Sim PTX: allocating stack frame region for .param "__cudaparmf2__Z14distanceSquareffff" from 0x8 to 0xc
GPGPU-Sim PTX: allocating stack frame region for .param "__cudaparmf3__Z14distanceSquareffff" from 0xc to 0x10
GPGPU-Sim PTX: allocating stack frame region for .param "__cudaparmf4__Z14distanceSquareffff" from 0x10 to 0x14
GPGPU-Sim PTX: allocating stack frame region for .param "__cudaretf__Z14distanceSquarejjPfS_" from 0x0 to 0x4
GPGPU-Sim PTX: allocating stack frame region for .param "__cudaparmf1__Z14distanceSquarejjPfS_" from 0x4 to 0x8
GPGPU-Sim PTX: allocating stack frame region for .param "__cudaparmf2__Z14distanceSquarejjPfS_" from 0x8 to 0xc
GPGPU-Sim PTX: allocating stack frame region for .param "__cudaparmf3__Z14distanceSquarejjPfS_" from 0xc to 0x14
GPGPU-Sim PTX: allocating stack frame region for .param "__cudaparmf4__Z14distanceSquarejjPfS_" from 0x14 to 0x1c
GPGPU-Sim PTX: allocating stack frame region for .param "__cudaretf__Z8distancejjPfS_" from 0x0 to 0x4
GPGPU-Sim PTX: allocating stack frame region for .param "__cudaparmf1__Z8distancejjPfS_" from 0x4 to 0x8
GPGPU-Sim PTX: allocating stack frame region for .param "__cudaparmf2__Z8distancejjPfS_" from 0x8 to 0xc
GPGPU-Sim PTX: allocating stack frame region for .param "__cudaparmf3__Z8distancejjPfS_" from 0xc to 0x14
GPGPU-Sim PTX: allocating stack frame region for .param "__cudaparmf4__Z8distancejjPfS_" from 0x14 to 0x1c
GPGPU-Sim PTX: allocating stack frame region for .param "__cudaretf__Z12radiusSquareffjPfS_Pj" from 0x0 to 0x4
GPGPU-Sim PTX: allocating stack frame region for .param "__cudaparmf1__Z12radiusSquareffjPfS_Pj" from 0x4 to 0x8
GPGPU-Sim PTX: allocating stack frame region for .param "__cudaparmf2__Z12radiusSquareffjPfS_Pj" from 0x8 to 0xc
GPGPU-Sim PTX: allocating stack frame region for .param "__cudaparmf3__Z12radiusSquareffjPfS_Pj" from 0xc to 0x10
GPGPU-Sim PTX: allocating stack frame region for .param "__cudaparmf4__Z12radiusSquareffjPfS_Pj" from 0x10 to 0x18
GPGPU-Sim PTX: allocating stack frame region for .param "__cudaparmf5__Z12radiusSquareffjPfS_Pj" from 0x18 to 0x20
GPGPU-Sim PTX: allocating stack frame region for .param "__cudaparmf6__Z12radiusSquareffjPfS_Pj" from 0x20 to 0x28
GPGPU-Sim PTX: allocating stack frame region for .param "__cudaretf__Z8checkbadjPfS_PjS0_j" from 0x0 to 0x4
GPGPU-Sim PTX: allocating stack frame region for .param "__cudaparmf1__Z8checkbadjPfS_PjS0_j" from 0x4 to 0x8
GPGPU-Sim PTX: allocating stack frame region for .param "__cudaparmf2__Z8checkbadjPfS_PjS0_j" from 0x8 to 0x10
GPGPU-Sim PTX: allocating stack frame region for .param "__cudaparmf3__Z8checkbadjPfS_PjS0_j" from 0x10 to 0x18
GPGPU-Sim PTX: allocating stack frame region for .param "__cudaparmf4__Z8checkbadjPfS_PjS0_j" from 0x18 to 0x20
GPGPU-Sim PTX: allocating stack frame region for .param "__cudaparmf5__Z8checkbadjPfS_PjS0_j" from 0x20 to 0x28
GPGPU-Sim PTX: allocating stack frame region for .param "__cudaparmf6__Z8checkbadjPfS_PjS0_j" from 0x28 to 0x2c
GPGPU-Sim PTX: allocating stack frame region for .param "__cudaretf__Z8adjacentjjPjjj" from 0x0 to 0x4
GPGPU-Sim PTX: allocating stack frame region for .param "__cudaparmf1__Z8adjacentjjPjjj" from 0x4 to 0x8
GPGPU-Sim PTX: allocating stack frame region for .param "__cudaparmf2__Z8adjacentjjPjjj" from 0x8 to 0xc
GPGPU-Sim PTX: allocating stack frame region for .param "__cudaparmf3__Z8adjacentjjPjjj" from 0xc to 0x14
GPGPU-Sim PTX: allocating stack frame region for .param "__cudaparmf4__Z8adjacentjjPjjj" from 0x14 to 0x18
GPGPU-Sim PTX: allocating stack frame region for .param "__cudaparmf5__Z8adjacentjjPjjj" from 0x18 to 0x1c
GPGPU-Sim PTX: allocating stack frame region for .param "__cudaretf__Z11getOppositejjPjS_S_jj" from 0x0 to 0x4
GPGPU-Sim PTX: allocating stack frame region for .param "__cudaparmf1__Z11getOppositejjPjS_S_jj" from 0x4 to 0x8
GPGPU-Sim PTX: allocating stack frame region for .param "__cudaparmf2__Z11getOppositejjPjS_S_jj" from 0x8 to 0xc
GPGPU-Sim PTX: allocating stack frame region for .param "__cudaparmf3__Z11getOppositejjPjS_S_jj" from 0xc to 0x14
GPGPU-Sim PTX: allocating stack frame region for .param "__cudaparmf4__Z11getOppositejjPjS_S_jj" from 0x14 to 0x1c
GPGPU-Sim PTX: allocating stack frame region for .param "__cudaparmf5__Z11getOppositejjPjS_S_jj" from 0x1c to 0x24
GPGPU-Sim PTX: allocating stack frame region for .param "__cudaparmf6__Z11getOppositejjPjS_S_jj" from 0x24 to 0x28
GPGPU-Sim PTX: allocating stack frame region for .param "__cudaparmf7__Z11getOppositejjPjS_S_jj" from 0x28 to 0x2c
GPGPU-Sim PTX: allocating stack frame region for .param "__cudaparmf1__Z9getCenterjRfS_PfS0_Pjjj" from 0x0 to 0x4
GPGPU-Sim PTX: allocating stack frame region for .param "__cudaparmf2__Z9getCenterjRfS_PfS0_Pjjj" from 0x4 to 0xc
GPGPU-Sim PTX: allocating stack frame region for .param "__cudaparmf3__Z9getCenterjRfS_PfS0_Pjjj" from 0xc to 0x14
GPGPU-Sim PTX: allocating stack frame region for .param "__cudaparmf4__Z9getCenterjRfS_PfS0_Pjjj" from 0x14 to 0x1c
GPGPU-Sim PTX: allocating stack frame region for .param "__cudaparmf5__Z9getCenterjRfS_PfS0_Pjjj" from 0x1c to 0x24
GPGPU-Sim PTX: allocating stack frame region for .param "__cudaparmf6__Z9getCenterjRfS_PfS0_Pjjj" from 0x24 to 0x2c
GPGPU-Sim PTX: allocating stack frame region for .param "__cudaparmf7__Z9getCenterjRfS_PfS0_Pjjj" from 0x2c to 0x30
GPGPU-Sim PTX: allocating stack frame region for .param "__cudaparmf8__Z9getCenterjRfS_PfS0_Pjjj" from 0x30 to 0x34
GPGPU-Sim PTX: allocating stack frame region for .param "__cudaretf__Z14inCircumcircleffjPfS_Pjjj" from 0x0 to 0x4
GPGPU-Sim PTX: allocating stack frame region for .param "__cudaparmf1__Z14inCircumcircleffjPfS_Pjjj" from 0x4 to 0x8
GPGPU-Sim PTX: allocating stack frame region for .param "__cudaparmf2__Z14inCircumcircleffjPfS_Pjjj" from 0x8 to 0xc
GPGPU-Sim PTX: allocating stack frame region for .param "__cudaparmf3__Z14inCircumcircleffjPfS_Pjjj" from 0xc to 0x10
GPGPU-Sim PTX: allocating stack frame region for .param "__cudaparmf4__Z14inCircumcircleffjPfS_Pjjj" from 0x10 to 0x18
GPGPU-Sim PTX: allocating stack frame region for .param "__cudaparmf5__Z14inCircumcircleffjPfS_Pjjj" from 0x18 to 0x20
GPGPU-Sim PTX: allocating stack frame region for .param "__cudaparmf6__Z14inCircumcircleffjPfS_Pjjj" from 0x20 to 0x28
GPGPU-Sim PTX: allocating stack frame region for .param "__cudaparmf7__Z14inCircumcircleffjPfS_Pjjj" from 0x28 to 0x2c
GPGPU-Sim PTX: allocating stack frame region for .param "__cudaparmf8__Z14inCircumcircleffjPfS_Pjjj" from 0x2c to 0x30
GPGPU-Sim PTX: allocating stack frame region for .param "__cudaretf__Z8addPointffPfS_PjRj" from 0x0 to 0x4
GPGPU-Sim PTX: allocating stack frame region for .param "__cudaparmf1__Z8addPointffPfS_PjRj" from 0x4 to 0x8
GPGPU-Sim PTX: allocating stack frame region for .param "__cudaparmf2__Z8addPointffPfS_PjRj" from 0x8 to 0xc
GPGPU-Sim PTX: allocating stack frame region for .param "__cudaparmf3__Z8addPointffPfS_PjRj" from 0xc to 0x14
GPGPU-Sim PTX: allocating stack frame region for .param "__cudaparmf4__Z8addPointffPfS_PjRj" from 0x14 to 0x1c
GPGPU-Sim PTX: allocating stack frame region for .param "__cudaparmf5__Z8addPointffPfS_PjRj" from 0x1c to 0x24
GPGPU-Sim PTX: allocating stack frame region for .param "__cudaparmf6__Z8addPointffPfS_PjRj" from 0x24 to 0x2c
GPGPU-Sim PTX: allocating stack frame region for .param "__cudaparmf1__Z8addPointffPfS_j" from 0x0 to 0x4
GPGPU-Sim PTX: allocating stack frame region for .param "__cudaparmf2__Z8addPointffPfS_j" from 0x4 to 0x8
GPGPU-Sim PTX: allocating stack frame region for .param "__cudaparmf3__Z8addPointffPfS_j" from 0x8 to 0x10
GPGPU-Sim PTX: allocating stack frame region for .param "__cudaparmf4__Z8addPointffPfS_j" from 0x10 to 0x18
GPGPU-Sim PTX: allocating stack frame region for .param "__cudaparmf5__Z8addPointffPfS_j" from 0x18 to 0x1c
GPGPU-Sim PTX: allocating stack frame region for .param "__cudaparmf1__Z13initNeighborsjPjS_" from 0x0 to 0x4
GPGPU-Sim PTX: allocating stack frame region for .param "__cudaparmf2__Z13initNeighborsjPjS_" from 0x4 to 0xc
GPGPU-Sim PTX: allocating stack frame region for .param "__cudaparmf3__Z13initNeighborsjPjS_" from 0xc to 0x14
GPGPU-Sim PTX: allocating stack frame region for .param "__cudaretf__Z11addTrianglejjjPjS_RjPbS_S_S_" from 0x0 to 0x4
GPGPU-Sim PTX: allocating stack frame region for .param "__cudaparmf1__Z11addTrianglejjjPjS_RjPbS_S_S_" from 0x4 to 0x8
GPGPU-Sim PTX: allocating stack frame region for .param "__cudaparmf2__Z11addTrianglejjjPjS_RjPbS_S_S_" from 0x8 to 0xc
GPGPU-Sim PTX: allocating stack frame region for .param "__cudaparmf3__Z11addTrianglejjjPjS_RjPbS_S_S_" from 0xc to 0x10
GPGPU-Sim PTX: allocating stack frame region for .param "__cudaparmf4__Z11addTrianglejjjPjS_RjPbS_S_S_" from 0x10 to 0x18
GPGPU-Sim PTX: allocating stack frame region for .param "__cudaparmf5__Z11addTrianglejjjPjS_RjPbS_S_S_" from 0x18 to 0x20
GPGPU-Sim PTX: allocating stack frame region for .param "__cudaparmf6__Z11addTrianglejjjPjS_RjPbS_S_S_" from 0x20 to 0x28
GPGPU-Sim PTX: allocating stack frame region for .param "__cudaparmf7__Z11addTrianglejjjPjS_RjPbS_S_S_" from 0x28 to 0x30
GPGPU-Sim PTX: allocating stack frame region for .param "__cudaparmf8__Z11addTrianglejjjPjS_RjPbS_S_S_" from 0x30 to 0x38
GPGPU-Sim PTX: allocating stack frame region for .param "__cudaparmf9__Z11addTrianglejjjPjS_RjPbS_S_S_" from 0x38 to 0x40
GPGPU-Sim PTX: allocating stack frame region for .param "__cudaparmf10__Z11addTrianglejjjPjS_RjPbS_S_S_" from 0x40 to 0x48
GPGPU-Sim PTX: allocating stack frame region for .param "__cudaparmf1__Z13copyNeighborsjjPjS_" from 0x0 to 0x4
GPGPU-Sim PTX: allocating stack frame region for .param "__cudaparmf2__Z13copyNeighborsjjPjS_" from 0x4 to 0x8
GPGPU-Sim PTX: allocating stack frame region for .param "__cudaparmf3__Z13copyNeighborsjjPjS_" from 0x8 to 0x10
GPGPU-Sim PTX: allocating stack frame region for .param "__cudaparmf4__Z13copyNeighborsjjPjS_" from 0x10 to 0x18
GPGPU-Sim PTX: allocating stack frame region for .param "__cudaretf__Z14updateNeighborjjjPjS_" from 0x0 to 0x4
GPGPU-Sim PTX: allocating stack frame region for .param "__cudaparmf1__Z14updateNeighborjjjPjS_" from 0x4 to 0x8
GPGPU-Sim PTX: allocating stack frame region for .param "__cudaparmf2__Z14updateNeighborjjjPjS_" from 0x8 to 0xc
GPGPU-Sim PTX: allocating stack frame region for .param "__cudaparmf3__Z14updateNeighborjjjPjS_" from 0xc to 0x10
GPGPU-Sim PTX: allocating stack frame region for .param "__cudaparmf4__Z14updateNeighborjjjPjS_" from 0x10 to 0x18
GPGPU-Sim PTX: allocating stack frame region for .param "__cudaparmf5__Z14updateNeighborjjjPjS_" from 0x18 to 0x20
GPGPU-Sim PTX: allocating stack frame region for .param "__cudaparmf1__Z10__gpu_syncjPVjS0_" from 0x0 to 0x4
GPGPU-Sim PTX: allocating stack frame region for .param "__cudaparmf2__Z10__gpu_syncjPVjS0_" from 0x4 to 0xc
GPGPU-Sim PTX: allocating stack frame region for .param "__cudaparmf3__Z10__gpu_syncjPVjS0_" from 0xc to 0x14
GPGPU-Sim PTX: allocating stack frame region for .param "__cudaparmf1__Z17globalsyncthreadsRjPVj" from 0x0 to 0x8
GPGPU-Sim PTX: allocating stack frame region for .param "__cudaparmf2__Z17globalsyncthreadsRjPVj" from 0x8 to 0x10
GPGPU-Sim PTX: allocating stack frame region for .param "__cudaparmf1__ZN5Graph13printStats1x1Ev" from 0x0 to 0x8
GPGPU-Sim PTX: allocating stack frame region for .param "__cudaretf__ZN5Graph13computeLevelsEv" from 0x0 to 0x4
GPGPU-Sim PTX: allocating stack frame region for .param "__cudaparmf1__ZN5Graph13computeLevelsEv" from 0x4 to 0xc
GPGPU-Sim PTX: allocating stack frame region for .param "__cudaparmf1__ZN5Graph10initLevelsEv" from 0x0 to 0x8
GPGPU-Sim PTX: allocating stack frame region for .param "__cudaparmf1__ZN5Graph8print1x1Ev" from 0x0 to 0x8
GPGPU-Sim PTX: allocating stack frame region for .param "__cudaparmf1__ZN14ComponentSpace8print1x1Ev" from 0x0 to 0x8
GPGPU-Sim PTX: allocating stack frame region for .param "__cudaparmf1__ZN5Graph12computeStatsEv" from 0x0 to 0x8
GPGPU-Sim PTX: allocating stack frame region for .param "__cudaretf_printf" from 0x0 to 0x4
GPGPU-Sim PTX: allocating stack frame region for .param "__cudaparmf1_printf" from 0x4 to 0xc
GPGPU-Sim PTX: allocating stack frame region for .param "__cudaretf_vprintf" from 0x0 to 0x4
GPGPU-Sim PTX: allocating stack frame region for .param "__cudaparmf1_vprintf" from 0x4 to 0xc
GPGPU-Sim PTX: allocating stack frame region for .param "__cudaparmf2_vprintf" from 0xc to 0x14
GPGPU-Sim PTX: allocating stack frame region for .param "__cudaretf__ZN5Graph12getOutDegreeEj" from 0x0 to 0x4
GPGPU-Sim PTX: allocating stack frame region for .param "__cudaparmf1__ZN5Graph12getOutDegreeEj" from 0x4 to 0xc
GPGPU-Sim PTX: allocating stack frame region for .param "__cudaparmf2__ZN5Graph12getOutDegreeEj" from 0xc to 0x10
GPGPU-Sim PTX: allocating stack frame region for .param "__cudaretf__ZN5Graph14getDestinationEjj" from 0x0 to 0x4
GPGPU-Sim PTX: allocating stack frame region for .param "__cudaparmf1__ZN5Graph14getDestinationEjj" from 0x4 to 0xc
GPGPU-Sim PTX: allocating stack frame region for .param "__cudaparmf2__ZN5Graph14getDestinationEjj" from 0xc to 0x10
GPGPU-Sim PTX: allocating stack frame region for .param "__cudaparmf3__ZN5Graph14getDestinationEjj" from 0x10 to 0x14
GPGPU-Sim PTX: allocating stack frame region for .param "__cudaretf__ZN5Graph9getWeightEjj" from 0x0 to 0x4
GPGPU-Sim PTX: allocating stack frame region for .param "__cudaparmf1__ZN5Graph9getWeightEjj" from 0x4 to 0xc
GPGPU-Sim PTX: allocating stack frame region for .param "__cudaparmf2__ZN5Graph9getWeightEjj" from 0xc to 0x10
GPGPU-Sim PTX: allocating stack frame region for .param "__cudaparmf3__ZN5Graph9getWeightEjj" from 0x10 to 0x14
GPGPU-Sim PTX: allocating stack frame region for .param "__cudaretf__ZN5Graph11getInDegreeEj" from 0x0 to 0x4
GPGPU-Sim PTX: allocating stack frame region for .param "__cudaparmf1__ZN5Graph11getInDegreeEj" from 0x4 to 0xc
GPGPU-Sim PTX: allocating stack frame region for .param "__cudaparmf2__ZN5Graph11getInDegreeEj" from 0xc to 0x10
GPGPU-Sim PTX: allocating stack frame region for .param "__cudaretf__ZN5Graph12getFirstEdgeEj" from 0x0 to 0x4
GPGPU-Sim PTX: allocating stack frame region for .param "__cudaparmf1__ZN5Graph12getFirstEdgeEj" from 0x4 to 0xc
GPGPU-Sim PTX: allocating stack frame region for .param "__cudaparmf2__ZN5Graph12getFirstEdgeEj" from 0xc to 0x10
GPGPU-Sim PTX: allocating stack frame region for .param "__cudaretf__ZN5Graph10getMinEdgeEj" from 0x0 to 0x4
GPGPU-Sim PTX: allocating stack frame region for .param "__cudaparmf1__ZN5Graph10getMinEdgeEj" from 0x4 to 0xc
GPGPU-Sim PTX: allocating stack frame region for .param "__cudaparmf2__ZN5Graph10getMinEdgeEj" from 0xc to 0x10
GPGPU-Sim PTX: allocating stack frame region for .param "__cudaparmf1__ZN5Graph12computeInOutEv" from 0x0 to 0x8
GPGPU-Sim PTX: allocating stack frame region for .param "__cudaparmf1__ZN5Graph15computeDiameterEv" from 0x0 to 0x8
GPGPU-Sim PTX: allocating stack frame region for .param "__cudaretf__ZN5Graph12findMaxLevelEv" from 0x0 to 0x4
GPGPU-Sim PTX: allocating stack frame region for .param "__cudaparmf1__ZN5Graph12findMaxLevelEv" from 0x4 to 0xc
GPGPU-Sim PTX: allocating stack frame region for .param "__cudaparmf1__ZN4ListC1Ej" from 0x0 to 0x8
GPGPU-Sim PTX: allocating stack frame region for .param "__cudaparmf2__ZN4ListC1Ej" from 0x8 to 0xc
GPGPU-Sim PTX: allocating stack frame region for .param "__cudaretf_malloc" from 0x0 to 0x8
GPGPU-Sim PTX: allocating stack frame region for .param "__cudaparmf1_malloc" from 0x8 to 0x10
GPGPU-Sim PTX: allocating stack frame region for .param "__cudaparmf1__ZN4List4initEPjjj" from 0x0 to 0x8
GPGPU-Sim PTX: allocating stack frame region for .param "__cudaparmf2__ZN4List4initEPjjj" from 0x8 to 0x10
GPGPU-Sim PTX: allocating stack frame region for .param "__cudaparmf3__ZN4List4initEPjjj" from 0x10 to 0x14
GPGPU-Sim PTX: allocating stack frame region for .param "__cudaparmf4__ZN4List4initEPjjj" from 0x14 to 0x18
GPGPU-Sim PTX: allocating stack frame region for .param "__cudaparmf1__ZN4List4pushEj" from 0x0 to 0x8
GPGPU-Sim PTX: allocating stack frame region for .param "__cudaparmf2__ZN4List4pushEj" from 0x8 to 0xc
GPGPU-Sim PTX: allocating stack frame region for .param "__cudaretf__ZN4List7toArrayEv" from 0x0 to 0x8
GPGPU-Sim PTX: allocating stack frame region for .param "__cudaparmf1__ZN4List7toArrayEv" from 0x8 to 0x10
GPGPU-Sim PTX: allocating stack frame region for .param "__cudaparmf1__ZN4List5clearEv" from 0x0 to 0x8
GPGPU-Sim PTX: allocating stack frame region for .param "__cudaparmf1_free" from 0x0 to 0x8
GPGPU-Sim PTX: allocating stack frame region for .param "__cudaretf__ZN4List4sizeEv" from 0x0 to 0x4
GPGPU-Sim PTX: allocating stack frame region for .param "__cudaparmf1__ZN4List4sizeEv" from 0x4 to 0xc
GPGPU-Sim PTX: allocating stack frame region for .param "__cudaparmf1__ZN4List4uniqEPjj" from 0x0 to 0x8
GPGPU-Sim PTX: allocating stack frame region for .param "__cudaparmf2__ZN4List4uniqEPjj" from 0x8 to 0x10
GPGPU-Sim PTX: allocating stack frame region for .param "__cudaparmf3__ZN4List4uniqEPjj" from 0x10 to 0x14
GPGPU-Sim PTX: allocating stack frame region for .param "__cudaretf__ZN14ComponentSpace16numberOfElementsEv" from 0x0 to 0x4
GPGPU-Sim PTX: allocating stack frame region for .param "__cudaparmf1__ZN14ComponentSpace16numberOfElementsEv" from 0x4 to 0xc
GPGPU-Sim PTX: allocating stack frame region for .param "__cudaretf__ZN14ComponentSpace18numberOfComponentsEv" from 0x0 to 0x4
GPGPU-Sim PTX: allocating stack frame region for .param "__cudaparmf1__ZN14ComponentSpace18numberOfComponentsEv" from 0x4 to 0xc
GPGPU-Sim PTX: allocating stack frame region for .param "__cudaretf__ZN14ComponentSpace6isBossEj" from 0x0 to 0x4
GPGPU-Sim PTX: allocating stack frame region for .param "__cudaparmf1__ZN14ComponentSpace6isBossEj" from 0x4 to 0xc
GPGPU-Sim PTX: allocating stack frame region for .param "__cudaparmf2__ZN14ComponentSpace6isBossEj" from 0xc to 0x10
GPGPU-Sim PTX: allocating stack frame region for .param "__cudaretf__ZN14ComponentSpace4findEjb" from 0x0 to 0x4
GPGPU-Sim PTX: allocating stack frame region for .param "__cudaparmf1__ZN14ComponentSpace4findEjb" from 0x4 to 0xc
GPGPU-Sim PTX: allocating stack frame region for .param "__cudaparmf2__ZN14ComponentSpace4findEjb" from 0xc to 0x10
GPGPU-Sim PTX: allocating stack frame region for .param "__cudaparmf3__ZN14ComponentSpace4findEjb" from 0x10 to 0x14
GPGPU-Sim PTX: allocating stack frame region for .param "__cudaretf__ZN14ComponentSpace5unifyEjj" from 0x0 to 0x4
GPGPU-Sim PTX: allocating stack frame region for .param "__cudaparmf1__ZN14ComponentSpace5unifyEjj" from 0x4 to 0xc
GPGPU-Sim PTX: allocating stack frame region for .param "__cudaparmf2__ZN14ComponentSpace5unifyEjj" from 0xc to 0x10
GPGPU-Sim PTX: allocating stack frame region for .param "__cudaparmf3__ZN14ComponentSpace5unifyEjj" from 0x10 to 0x14
GPGPU-Sim PTX: instruction assembly for function '_Z11global_syncjPVjS0_'...   done.
GPGPU-Sim PTX: finding reconvergence points for '_Z11global_syncjPVjS0_'...
GPGPU-Sim PTX: Finding dominators for '_Z11global_syncjPVjS0_'...
GPGPU-Sim PTX: Finding immediate dominators for '_Z11global_syncjPVjS0_'...
GPGPU-Sim PTX: Finding postdominators for '_Z11global_syncjPVjS0_'...
GPGPU-Sim PTX: Finding immediate postdominators for '_Z11global_syncjPVjS0_'...
GPGPU-Sim PTX: pre-decoding instructions for '_Z11global_syncjPVjS0_'...
GPGPU-Sim PTX: reconvergence points for _Z11global_syncjPVjS0_...
GPGPU-Sim PTX:  1 (potential) branch divergence @  PC=0x090 (_1.ptx:178) @!%p1 bra $Lt_0_6146;
GPGPU-Sim PTX:    immediate post dominator      @  PC=0x0c0 (_1.ptx:187) mov.u32 %r14, 0;
GPGPU-Sim PTX:  2 (potential) branch divergence @  PC=0x0d0 (_1.ptx:189) @%p2 bra $Lt_0_6658;
GPGPU-Sim PTX:    immediate post dominator      @  PC=0x178 (_1.ptx:218) @!%p1 bra $Lt_0_9218;
GPGPU-Sim PTX:  3 (potential) branch divergence @  PC=0x0f0 (_1.ptx:193) @!%p3 bra $Lt_0_7170;
GPGPU-Sim PTX:    immediate post dominator      @  PC=0x140 (_1.ptx:207) bar.sync 0;
GPGPU-Sim PTX:  4 (potential) branch divergence @  PC=0x120 (_1.ptx:199) @%p4 bra $Lt_0_7682;
GPGPU-Sim PTX:    immediate post dominator      @  PC=0x140 (_1.ptx:207) bar.sync 0;
GPGPU-Sim PTX:  5 (potential) branch divergence @  PC=0x138 (_1.ptx:203) @%p5 bra $Lt_0_8194;
GPGPU-Sim PTX:    immediate post dominator      @  PC=0x140 (_1.ptx:207) bar.sync 0;
GPGPU-Sim PTX:  6 (potential) branch divergence @  PC=0x148 (_1.ptx:208) @!%p3 bra $Lt_0_8706;
GPGPU-Sim PTX:    immediate post dominator      @  PC=0x178 (_1.ptx:218) @!%p1 bra $Lt_0_9218;
GPGPU-Sim PTX:  7 (potential) branch divergence @  PC=0x178 (_1.ptx:218) @!%p1 bra $Lt_0_9218;
GPGPU-Sim PTX:    immediate post dominator      @  PC=0x1c8 (_1.ptx:232) ret;
GPGPU-Sim PTX:  8 (potential) branch divergence @  PC=0x1a8 (_1.ptx:224) @%p6 bra $Lt_0_9730;
GPGPU-Sim PTX:    immediate post dominator      @  PC=0x1c8 (_1.ptx:232) ret;
GPGPU-Sim PTX:  9 (potential) branch divergence @  PC=0x1c0 (_1.ptx:228) @%p7 bra $Lt_0_10242;
GPGPU-Sim PTX:    immediate post dominator      @  PC=0x1c8 (_1.ptx:232) ret;
GPGPU-Sim PTX: ... end of reconvergence points for _Z11global_syncjPVjS0_
GPGPU-Sim PTX: ... done pre-decoding instructions for '_Z11global_syncjPVjS0_'.
GPGPU-Sim PTX: instruction assembly for function '_Z14distanceSquareffff'...   done.
GPGPU-Sim PTX: finding reconvergence points for '_Z14distanceSquareffff'...
GPGPU-Sim PTX: Finding dominators for '_Z14distanceSquareffff'...
GPGPU-Sim PTX: Finding immediate dominators for '_Z14distanceSquareffff'...
GPGPU-Sim PTX: Finding postdominators for '_Z14distanceSquareffff'...
GPGPU-Sim PTX: Finding immediate postdominators for '_Z14distanceSquareffff'...
GPGPU-Sim PTX: pre-decoding instructions for '_Z14distanceSquareffff'...
GPGPU-Sim PTX: reconvergence points for _Z14distanceSquareffff...
GPGPU-Sim PTX: ... end of reconvergence points for _Z14distanceSquareffff
GPGPU-Sim PTX: ... done pre-decoding instructions for '_Z14distanceSquareffff'.
GPGPU-Sim PTX: instruction assembly for function '_Z14distanceSquarejjPfS_'...   done.
GPGPU-Sim PTX: finding reconvergence points for '_Z14distanceSquarejjPfS_'...
GPGPU-Sim PTX: Finding dominators for '_Z14distanceSquarejjPfS_'...
GPGPU-Sim PTX: Finding immediate dominators for '_Z14distanceSquarejjPfS_'...
GPGPU-Sim PTX: Finding postdominators for '_Z14distanceSquarejjPfS_'...
GPGPU-Sim PTX: Finding immediate postdominators for '_Z14distanceSquarejjPfS_'...
GPGPU-Sim PTX: pre-decoding instructions for '_Z14distanceSquarejjPfS_'...
GPGPU-Sim PTX: reconvergence points for _Z14distanceSquarejjPfS_...
GPGPU-Sim PTX: ... end of reconvergence points for _Z14distanceSquarejjPfS_
GPGPU-Sim PTX: ... done pre-decoding instructions for '_Z14distanceSquarejjPfS_'.
GPGPU-Sim PTX: instruction assembly for function '_Z8distancejjPfS_'...   done.
GPGPU-Sim PTX: finding reconvergence points for '_Z8distancejjPfS_'...
GPGPU-Sim PTX: Finding dominators for '_Z8distancejjPfS_'...
GPGPU-Sim PTX: Finding immediate dominators for '_Z8distancejjPfS_'...
GPGPU-Sim PTX: Finding postdominators for '_Z8distancejjPfS_'...
GPGPU-Sim PTX: Finding immediate postdominators for '_Z8distancejjPfS_'...
GPGPU-Sim PTX: pre-decoding instructions for '_Z8distancejjPfS_'...
GPGPU-Sim PTX: reconvergence points for _Z8distancejjPfS_...
GPGPU-Sim PTX: ... end of reconvergence points for _Z8distancejjPfS_
GPGPU-Sim PTX: ... done pre-decoding instructions for '_Z8distancejjPfS_'.
GPGPU-Sim PTX: instruction assembly for function '_Z12radiusSquareffjPfS_Pj'...   done.
GPGPU-Sim PTX: finding reconvergence points for '_Z12radiusSquareffjPfS_Pj'...
GPGPU-Sim PTX: Finding dominators for '_Z12radiusSquareffjPfS_Pj'...
GPGPU-Sim PTX: Finding immediate dominators for '_Z12radiusSquareffjPfS_Pj'...
GPGPU-Sim PTX: Finding postdominators for '_Z12radiusSquareffjPfS_Pj'...
GPGPU-Sim PTX: Finding immediate postdominators for '_Z12radiusSquareffjPfS_Pj'...
GPGPU-Sim PTX: pre-decoding instructions for '_Z12radiusSquareffjPfS_Pj'...
GPGPU-Sim PTX: reconvergence points for _Z12radiusSquareffjPfS_Pj...
GPGPU-Sim PTX: ... end of reconvergence points for _Z12radiusSquareffjPfS_Pj
GPGPU-Sim PTX: ... done pre-decoding instructions for '_Z12radiusSquareffjPfS_Pj'.
GPGPU-Sim PTX: instruction assembly for function '_Z8checkbadjPfS_PjS0_j'...   done.
GPGPU-Sim PTX: finding reconvergence points for '_Z8checkbadjPfS_PjS0_j'...
GPGPU-Sim PTX: Finding dominators for '_Z8checkbadjPfS_PjS0_j'...
GPGPU-Sim PTX: Finding immediate dominators for '_Z8checkbadjPfS_PjS0_j'...
GPGPU-Sim PTX: Finding postdominators for '_Z8checkbadjPfS_PjS0_j'...
GPGPU-Sim PTX: Finding immediate postdominators for '_Z8checkbadjPfS_PjS0_j'...
GPGPU-Sim PTX: pre-decoding instructions for '_Z8checkbadjPfS_PjS0_j'...
GPGPU-Sim PTX: reconvergence points for _Z8checkbadjPfS_PjS0_j...
GPGPU-Sim PTX:  1 (potential) branch divergence @  PC=0x590 (_1.ptx:409) @%p2 bra $Lt_5_14850;
GPGPU-Sim PTX:    immediate post dominator      @  PC=0xa08 (_1.ptx:590) mov.s32 %r41, %r40;
GPGPU-Sim PTX:  2 (potential) branch divergence @  PC=0x698 (_1.ptx:447) @%p3 bra $Lt_5_15618;
GPGPU-Sim PTX:    immediate post dominator      @  PC=0xa08 (_1.ptx:590) mov.s32 %r41, %r40;
GPGPU-Sim PTX:  3 (potential) branch divergence @  PC=0x770 (_1.ptx:478) @!%p4 bra $Lt_5_16386;
GPGPU-Sim PTX:    immediate post dominator      @  PC=0xa08 (_1.ptx:590) mov.s32 %r41, %r40;
GPGPU-Sim PTX:  4 (potential) branch divergence @  PC=0x798 (_1.ptx:484) bra.uni $Lt_5_16130;
GPGPU-Sim PTX:    immediate post dominator      @  PC=0x9e8 (_1.ptx:583) mov.s32 %r13, %r17;
GPGPU-Sim PTX:  5 (potential) branch divergence @  PC=0x7f0 (_1.ptx:498) @%p5 bra $Lt_5_16898;
GPGPU-Sim PTX:    immediate post dominator      @  PC=0x970 (_1.ptx:564) neg.f64 %fd49, %fd27;
GPGPU-Sim PTX:  6 (potential) branch divergence @  PC=0x8b8 (_1.ptx:531) bra.uni $Lt_5_16642;
GPGPU-Sim PTX:    immediate post dominator      @  PC=0x970 (_1.ptx:564) neg.f64 %fd49, %fd27;
GPGPU-Sim PTX:  7 (potential) branch divergence @  PC=0x9d0 (_1.ptx:576) @!%p7 bra $Lt_5_16130;
GPGPU-Sim PTX:    immediate post dominator      @  PC=0xa08 (_1.ptx:590) mov.s32 %r41, %r40;
GPGPU-Sim PTX:  8 (potential) branch divergence @  PC=0x9e0 (_1.ptx:579) bra.uni $LBB14__Z8checkbadjPfS_PjS0_j;
GPGPU-Sim PTX:    immediate post dominator      @  PC=0xa08 (_1.ptx:590) mov.s32 %r41, %r40;
GPGPU-Sim PTX:  9 (potential) branch divergence @  PC=0x9f8 (_1.ptx:585) @%p8 bra $Lt_5_15362;
GPGPU-Sim PTX:    immediate post dominator      @  PC=0xa08 (_1.ptx:590) mov.s32 %r41, %r40;
GPGPU-Sim PTX: ... end of reconvergence points for _Z8checkbadjPfS_PjS0_j
GPGPU-Sim PTX: ... done pre-decoding instructions for '_Z8checkbadjPfS_PjS0_j'.
GPGPU-Sim PTX: instruction assembly for function '_Z8adjacentjjPjjj'...   done.
GPGPU-Sim PTX: finding reconvergence points for '_Z8adjacentjjPjjj'...
GPGPU-Sim PTX: Finding dominators for '_Z8adjacentjjPjjj'...
GPGPU-Sim PTX: Finding immediate dominators for '_Z8adjacentjjPjjj'...
GPGPU-Sim PTX: Finding postdominators for '_Z8adjacentjjPjjj'...
GPGPU-Sim PTX: Finding immediate postdominators for '_Z8adjacentjjPjjj'...
GPGPU-Sim PTX: pre-decoding instructions for '_Z8adjacentjjPjjj'...
GPGPU-Sim PTX: reconvergence points for _Z8adjacentjjPjjj...
GPGPU-Sim PTX:  1 (potential) branch divergence @  PC=0xb00 (_1.ptx:632) @%p3 bra $Lt_6_5378;
GPGPU-Sim PTX:    immediate post dominator      @  PC=0xc30 (_1.ptx:685) mov.s32 %r33, %r32;
GPGPU-Sim PTX:  2 (potential) branch divergence @  PC=0xb40 (_1.ptx:642) @!%p4 bra $Lt_6_6146;
GPGPU-Sim PTX:    immediate post dominator      @  PC=0xc30 (_1.ptx:685) mov.s32 %r33, %r32;
GPGPU-Sim PTX:  3 (potential) branch divergence @  PC=0xbb8 (_1.ptx:659) @%p5 bra $Lt_6_6914;
GPGPU-Sim PTX:    immediate post dominator      @  PC=0xc30 (_1.ptx:685) mov.s32 %r33, %r32;
GPGPU-Sim PTX:  4 (potential) branch divergence @  PC=0xbd8 (_1.ptx:664) @%p6 bra $Lt_6_7682;
GPGPU-Sim PTX:    immediate post dominator      @  PC=0xc30 (_1.ptx:685) mov.s32 %r33, %r32;
GPGPU-Sim PTX:  5 (potential) branch divergence @  PC=0xbe8 (_1.ptx:667) bra.uni $LBB14__Z8adjacentjjPjjj;
GPGPU-Sim PTX:    immediate post dominator      @  PC=0xc30 (_1.ptx:685) mov.s32 %r33, %r32;
GPGPU-Sim PTX:  6 (potential) branch divergence @  PC=0xc08 (_1.ptx:675) @%p7 bra $Lt_6_6658;
GPGPU-Sim PTX:    immediate post dominator      @  PC=0xc30 (_1.ptx:685) mov.s32 %r33, %r32;
GPGPU-Sim PTX:  7 (potential) branch divergence @  PC=0xc20 (_1.ptx:680) @%p8 bra $Lt_6_5890;
GPGPU-Sim PTX:    immediate post dominator      @  PC=0xc30 (_1.ptx:685) mov.s32 %r33, %r32;
GPGPU-Sim PTX: ... end of reconvergence points for _Z8adjacentjjPjjj
GPGPU-Sim PTX: ... done pre-decoding instructions for '_Z8adjacentjjPjjj'.
GPGPU-Sim PTX: instruction assembly for function '_Z11getOppositejjPjS_S_jj'...   done.
GPGPU-Sim PTX: finding reconvergence points for '_Z11getOppositejjPjS_S_jj'...
GPGPU-Sim PTX: Finding dominators for '_Z11getOppositejjPjS_S_jj'...
GPGPU-Sim PTX: Finding immediate dominators for '_Z11getOppositejjPjS_S_jj'...
GPGPU-Sim PTX: Finding postdominators for '_Z11getOppositejjPjS_S_jj'...
GPGPU-Sim PTX: Finding immediate postdominators for '_Z11getOppositejjPjS_S_jj'...
GPGPU-Sim PTX: pre-decoding instructions for '_Z11getOppositejjPjS_S_jj'...
GPGPU-Sim PTX: reconvergence points for _Z11getOppositejjPjS_S_jj...
GPGPU-Sim PTX:  1 (potential) branch divergence @  PC=0xd30 (_1.ptx:729) @%p2 bra $Lt_7_3586;
GPGPU-Sim PTX:    immediate post dominator      @  PC=0xd78 (_1.ptx:743) mov.s32 %r18, %r16;
GPGPU-Sim PTX:  2 (potential) branch divergence @  PC=0xd48 (_1.ptx:733) bra.uni $LBB6__Z11getOppositejjPjS_S_jj;
GPGPU-Sim PTX:    immediate post dominator      @  PC=0xd78 (_1.ptx:743) mov.s32 %r18, %r16;
GPGPU-Sim PTX:  3 (potential) branch divergence @  PC=0xd68 (_1.ptx:739) @%p3 bra $Lt_7_3330;
GPGPU-Sim PTX:    immediate post dominator      @  PC=0xd78 (_1.ptx:743) mov.s32 %r18, %r16;
GPGPU-Sim PTX: ... end of reconvergence points for _Z11getOppositejjPjS_S_jj
GPGPU-Sim PTX: ... done pre-decoding instructions for '_Z11getOppositejjPjS_S_jj'.
GPGPU-Sim PTX: instruction assembly for function '_Z9getCenterjRfS_PfS0_Pjjj'...   done.
GPGPU-Sim PTX: finding reconvergence points for '_Z9getCenterjRfS_PfS0_Pjjj'...
GPGPU-Sim PTX: Finding dominators for '_Z9getCenterjRfS_PfS0_Pjjj'...
GPGPU-Sim PTX: Finding immediate dominators for '_Z9getCenterjRfS_PfS0_Pjjj'...
GPGPU-Sim PTX: Finding postdominators for '_Z9getCenterjRfS_PfS0_Pjjj'...
GPGPU-Sim PTX: Finding immediate postdominators for '_Z9getCenterjRfS_PfS0_Pjjj'...
GPGPU-Sim PTX: pre-decoding instructions for '_Z9getCenterjRfS_PfS0_Pjjj'...
GPGPU-Sim PTX: reconvergence points for _Z9getCenterjRfS_PfS0_Pjjj...
GPGPU-Sim PTX:  1 (potential) branch divergence @  PC=0xe88 (_1.ptx:792) @%p1 bra $Lt_8_3074;
GPGPU-Sim PTX:    immediate post dominator      @  PC=0x1158 (_1.ptx:899) ret;
GPGPU-Sim PTX:  2 (potential) branch divergence @  PC=0xeb0 (_1.ptx:798) bra.uni $LBB6__Z9getCenterjRfS_PfS0_Pjjj;
GPGPU-Sim PTX:    immediate post dominator      @  PC=0x1158 (_1.ptx:899) ret;
GPGPU-Sim PTX:  3 (potential) branch divergence @  PC=0xf18 (_1.ptx:813) @%p2 bra $Lt_8_3586;
GPGPU-Sim PTX:    immediate post dominator      @  PC=0x1158 (_1.ptx:899) ret;
GPGPU-Sim PTX:  4 (potential) branch divergence @  PC=0xf90 (_1.ptx:830) bra.uni $LBB6__Z9getCenterjRfS_PfS0_Pjjj;
GPGPU-Sim PTX:    immediate post dominator      @  PC=0x1158 (_1.ptx:899) ret;
GPGPU-Sim PTX: ... end of reconvergence points for _Z9getCenterjRfS_PfS0_Pjjj
GPGPU-Sim PTX: ... done pre-decoding instructions for '_Z9getCenterjRfS_PfS0_Pjjj'.
GPGPU-Sim PTX: instruction assembly for function '_Z14inCircumcircleffjPfS_Pjjj'...   done.
GPGPU-Sim PTX: finding reconvergence points for '_Z14inCircumcircleffjPfS_Pjjj'...
GPGPU-Sim PTX: Finding dominators for '_Z14inCircumcircleffjPfS_Pjjj'...
GPGPU-Sim PTX: Finding immediate dominators for '_Z14inCircumcircleffjPfS_Pjjj'...
GPGPU-Sim PTX: Finding postdominators for '_Z14inCircumcircleffjPfS_Pjjj'...
GPGPU-Sim PTX: Finding immediate postdominators for '_Z14inCircumcircleffjPfS_Pjjj'...
GPGPU-Sim PTX: pre-decoding instructions for '_Z14inCircumcircleffjPfS_Pjjj'...
GPGPU-Sim PTX: reconvergence points for _Z14inCircumcircleffjPfS_Pjjj...
GPGPU-Sim PTX:  1 (potential) branch divergence @  PC=0x1258 (_1.ptx:946) @%p1 bra $Lt_9_3586;
GPGPU-Sim PTX:    immediate post dominator      @  PC=0x14d0 (_1.ptx:1040) cvt.u64.u32 %rd22, %r6;
GPGPU-Sim PTX:  2 (potential) branch divergence @  PC=0x1270 (_1.ptx:949) bra.uni $LDWendi__Z14distanceSquareffff_190_1;
GPGPU-Sim PTX:    immediate post dominator      @  PC=0x14d0 (_1.ptx:1040) cvt.u64.u32 %rd22, %r6;
GPGPU-Sim PTX:  3 (potential) branch divergence @  PC=0x12e8 (_1.ptx:965) @%p2 bra $Lt_9_4098;
GPGPU-Sim PTX:    immediate post dominator      @  PC=0x14d0 (_1.ptx:1040) cvt.u64.u32 %rd22, %r6;
GPGPU-Sim PTX:  4 (potential) branch divergence @  PC=0x1340 (_1.ptx:978) bra.uni $LDWendi__Z14distanceSquareffff_190_1;
GPGPU-Sim PTX:    immediate post dominator      @  PC=0x14d0 (_1.ptx:1040) cvt.u64.u32 %rd22, %r6;
GPGPU-Sim PTX: ... end of reconvergence points for _Z14inCircumcircleffjPfS_Pjjj
GPGPU-Sim PTX: ... done pre-decoding instructions for '_Z14inCircumcircleffjPfS_Pjjj'.
GPGPU-Sim PTX: instruction assembly for function '_Z8addPointffPfS_PjRj'...   done.
GPGPU-Sim PTX: finding reconvergence points for '_Z8addPointffPfS_PjRj'...
GPGPU-Sim PTX: Finding dominators for '_Z8addPointffPfS_PjRj'...
GPGPU-Sim PTX: Finding immediate dominators for '_Z8addPointffPfS_PjRj'...
GPGPU-Sim PTX: Finding postdominators for '_Z8addPointffPfS_PjRj'...
GPGPU-Sim PTX: Finding immediate postdominators for '_Z8addPointffPfS_PjRj'...
GPGPU-Sim PTX: pre-decoding instructions for '_Z8addPointffPfS_PjRj'...
GPGPU-Sim PTX: reconvergence points for _Z8addPointffPfS_PjRj...
GPGPU-Sim PTX: ... end of reconvergence points for _Z8addPointffPfS_PjRj
GPGPU-Sim PTX: ... done pre-decoding instructions for '_Z8addPointffPfS_PjRj'.
GPGPU-Sim PTX: instruction assembly for function '_Z8addPointffPfS_j'...   done.
GPGPU-Sim PTX: finding reconvergence points for '_Z8addPointffPfS_j'...
GPGPU-Sim PTX: Finding dominators for '_Z8addPointffPfS_j'...
GPGPU-Sim PTX: Finding immediate dominators for '_Z8addPointffPfS_j'...
GPGPU-Sim PTX: Finding postdominators for '_Z8addPointffPfS_j'...
GPGPU-Sim PTX: Finding immediate postdominators for '_Z8addPointffPfS_j'...
GPGPU-Sim PTX: pre-decoding instructions for '_Z8addPointffPfS_j'...
GPGPU-Sim PTX: reconvergence points for _Z8addPointffPfS_j...
GPGPU-Sim PTX: ... end of reconvergence points for _Z8addPointffPfS_j
GPGPU-Sim PTX: ... done pre-decoding instructions for '_Z8addPointffPfS_j'.
GPGPU-Sim PTX: instruction assembly for function '_Z13initNeighborsjPjS_'...   done.
GPGPU-Sim PTX: finding reconvergence points for '_Z13initNeighborsjPjS_'...
GPGPU-Sim PTX: Finding dominators for '_Z13initNeighborsjPjS_'...
GPGPU-Sim PTX: Finding immediate dominators for '_Z13initNeighborsjPjS_'...
GPGPU-Sim PTX: Finding postdominators for '_Z13initNeighborsjPjS_'...
GPGPU-Sim PTX: Finding immediate postdominators for '_Z13initNeighborsjPjS_'...
GPGPU-Sim PTX: pre-decoding instructions for '_Z13initNeighborsjPjS_'...
GPGPU-Sim PTX: reconvergence points for _Z13initNeighborsjPjS_...
GPGPU-Sim PTX: ... end of reconvergence points for _Z13initNeighborsjPjS_
GPGPU-Sim PTX: ... done pre-decoding instructions for '_Z13initNeighborsjPjS_'.
GPGPU-Sim PTX: instruction assembly for function '_Z11addTrianglejjjPjS_RjPbS_S_S_'...   done.
GPGPU-Sim PTX: finding reconvergence points for '_Z11addTrianglejjjPjS_RjPbS_S_S_'...
GPGPU-Sim PTX: Finding dominators for '_Z11addTrianglejjjPjS_RjPbS_S_S_'...
GPGPU-Sim PTX: Finding immediate dominators for '_Z11addTrianglejjjPjS_RjPbS_S_S_'...
GPGPU-Sim PTX: Finding postdominators for '_Z11addTrianglejjjPjS_RjPbS_S_S_'...
GPGPU-Sim PTX: Finding immediate postdominators for '_Z11addTrianglejjjPjS_RjPbS_S_S_'...
GPGPU-Sim PTX: pre-decoding instructions for '_Z11addTrianglejjjPjS_RjPbS_S_S_'...
GPGPU-Sim PTX: reconvergence points for _Z11addTrianglejjjPjS_RjPbS_S_S_...
GPGPU-Sim PTX: ... end of reconvergence points for _Z11addTrianglejjjPjS_RjPbS_S_S_
GPGPU-Sim PTX: ... done pre-decoding instructions for '_Z11addTrianglejjjPjS_RjPbS_S_S_'.
GPGPU-Sim PTX: instruction assembly for function '_Z13copyNeighborsjjPjS_'...   done.
GPGPU-Sim PTX: finding reconvergence points for '_Z13copyNeighborsjjPjS_'...
GPGPU-Sim PTX: Finding dominators for '_Z13copyNeighborsjjPjS_'...
GPGPU-Sim PTX: Finding immediate dominators for '_Z13copyNeighborsjjPjS_'...
GPGPU-Sim PTX: Finding postdominators for '_Z13copyNeighborsjjPjS_'...
GPGPU-Sim PTX: Finding immediate postdominators for '_Z13copyNeighborsjjPjS_'...
GPGPU-Sim PTX: pre-decoding instructions for '_Z13copyNeighborsjjPjS_'...
GPGPU-Sim PTX: reconvergence points for _Z13copyNeighborsjjPjS_...
GPGPU-Sim PTX: ... end of reconvergence points for _Z13copyNeighborsjjPjS_
GPGPU-Sim PTX: ... done pre-decoding instructions for '_Z13copyNeighborsjjPjS_'.
GPGPU-Sim PTX: instruction assembly for function '_Z14updateNeighborjjjPjS_'...   done.
GPGPU-Sim PTX: finding reconvergence points for '_Z14updateNeighborjjjPjS_'...
GPGPU-Sim PTX: Finding dominators for '_Z14updateNeighborjjjPjS_'...
GPGPU-Sim PTX: Finding immediate dominators for '_Z14updateNeighborjjjPjS_'...
GPGPU-Sim PTX: Finding postdominators for '_Z14updateNeighborjjjPjS_'...
GPGPU-Sim PTX: Finding immediate postdominators for '_Z14updateNeighborjjjPjS_'...
GPGPU-Sim PTX: pre-decoding instructions for '_Z14updateNeighborjjjPjS_'...
GPGPU-Sim PTX: reconvergence points for _Z14updateNeighborjjjPjS_...
GPGPU-Sim PTX:  1 (potential) branch divergence @  PC=0x1ad8 (_1.ptx:1327) @%p2 bra $Lt_15_2818;
GPGPU-Sim PTX:    immediate post dominator      @  PC=0x1b68 (_1.ptx:1354) mov.s32 %r20, %r19;
GPGPU-Sim PTX:  2 (potential) branch divergence @  PC=0x1b28 (_1.ptx:1339) @%p3 bra $Lt_15_3586;
GPGPU-Sim PTX:    immediate post dominator      @  PC=0x1b68 (_1.ptx:1354) mov.s32 %r20, %r19;
GPGPU-Sim PTX:  3 (potential) branch divergence @  PC=0x1b40 (_1.ptx:1344) bra.uni $LBB8__Z14updateNeighborjjjPjS_;
GPGPU-Sim PTX:    immediate post dominator      @  PC=0x1b68 (_1.ptx:1354) mov.s32 %r20, %r19;
GPGPU-Sim PTX:  4 (potential) branch divergence @  PC=0x1b58 (_1.ptx:1349) @%p4 bra $Lt_15_3330;
GPGPU-Sim PTX:    immediate post dominator      @  PC=0x1b68 (_1.ptx:1354) mov.s32 %r20, %r19;
GPGPU-Sim PTX: ... end of reconvergence points for _Z14updateNeighborjjjPjS_
GPGPU-Sim PTX: ... done pre-decoding instructions for '_Z14updateNeighborjjjPjS_'.
GPGPU-Sim PTX: instruction assembly for function '_Z10__gpu_syncjPVjS0_'...   done.
GPGPU-Sim PTX: finding reconvergence points for '_Z10__gpu_syncjPVjS0_'...
GPGPU-Sim PTX: Finding dominators for '_Z10__gpu_syncjPVjS0_'...
GPGPU-Sim PTX: Finding immediate dominators for '_Z10__gpu_syncjPVjS0_'...
GPGPU-Sim PTX: Finding postdominators for '_Z10__gpu_syncjPVjS0_'...
GPGPU-Sim PTX: Finding immediate postdominators for '_Z10__gpu_syncjPVjS0_'...
GPGPU-Sim PTX: pre-decoding instructions for '_Z10__gpu_syncjPVjS0_'...
GPGPU-Sim PTX: reconvergence points for _Z10__gpu_syncjPVjS0_...
GPGPU-Sim PTX:  1 (potential) branch divergence @  PC=0x1c10 (_1.ptx:1385) @!%p1 bra $Lt_16_6146;
GPGPU-Sim PTX:    immediate post dominator      @  PC=0x1c40 (_1.ptx:1394) mov.u32 %r14, 0;
GPGPU-Sim PTX:  2 (potential) branch divergence @  PC=0x1c50 (_1.ptx:1396) @%p2 bra $Lt_16_6658;
GPGPU-Sim PTX:    immediate post dominator      @  PC=0x1cf8 (_1.ptx:1425) @!%p1 bra $Lt_16_9218;
GPGPU-Sim PTX:  3 (potential) branch divergence @  PC=0x1c70 (_1.ptx:1400) @!%p3 bra $Lt_16_7170;
GPGPU-Sim PTX:    immediate post dominator      @  PC=0x1cc0 (_1.ptx:1414) bar.sync 0;
GPGPU-Sim PTX:  4 (potential) branch divergence @  PC=0x1ca0 (_1.ptx:1406) @%p4 bra $Lt_16_7682;
GPGPU-Sim PTX:    immediate post dominator      @  PC=0x1cc0 (_1.ptx:1414) bar.sync 0;
GPGPU-Sim PTX:  5 (potential) branch divergence @  PC=0x1cb8 (_1.ptx:1410) @%p5 bra $Lt_16_8194;
GPGPU-Sim PTX:    immediate post dominator      @  PC=0x1cc0 (_1.ptx:1414) bar.sync 0;
GPGPU-Sim PTX:  6 (potential) branch divergence @  PC=0x1cc8 (_1.ptx:1415) @!%p3 bra $Lt_16_8706;
GPGPU-Sim PTX:    immediate post dominator      @  PC=0x1cf8 (_1.ptx:1425) @!%p1 bra $Lt_16_9218;
GPGPU-Sim PTX:  7 (potential) branch divergence @  PC=0x1cf8 (_1.ptx:1425) @!%p1 bra $Lt_16_9218;
GPGPU-Sim PTX:    immediate post dominator      @  PC=0x1d48 (_1.ptx:1439) ret;
GPGPU-Sim PTX:  8 (potential) branch divergence @  PC=0x1d28 (_1.ptx:1431) @%p6 bra $Lt_16_9730;
GPGPU-Sim PTX:    immediate post dominator      @  PC=0x1d48 (_1.ptx:1439) ret;
GPGPU-Sim PTX:  9 (potential) branch divergence @  PC=0x1d40 (_1.ptx:1435) @%p7 bra $Lt_16_10242;
GPGPU-Sim PTX:    immediate post dominator      @  PC=0x1d48 (_1.ptx:1439) ret;
GPGPU-Sim PTX: ... end of reconvergence points for _Z10__gpu_syncjPVjS0_
GPGPU-Sim PTX: ... done pre-decoding instructions for '_Z10__gpu_syncjPVjS0_'.
GPGPU-Sim PTX: instruction assembly for function '_Z17globalsyncthreadsRjPVj'...   done.
GPGPU-Sim PTX: finding reconvergence points for '_Z17globalsyncthreadsRjPVj'...
GPGPU-Sim PTX: Finding dominators for '_Z17globalsyncthreadsRjPVj'...
GPGPU-Sim PTX: Finding immediate dominators for '_Z17globalsyncthreadsRjPVj'...
GPGPU-Sim PTX: Finding postdominators for '_Z17globalsyncthreadsRjPVj'...
GPGPU-Sim PTX: Finding immediate postdominators for '_Z17globalsyncthreadsRjPVj'...
GPGPU-Sim PTX: pre-decoding instructions for '_Z17globalsyncthreadsRjPVj'...
GPGPU-Sim PTX: reconvergence points for _Z17globalsyncthreadsRjPVj...
GPGPU-Sim PTX:  1 (potential) branch divergence @  PC=0x1d88 (_1.ptx:1457) @!%p1 bra $Lt_17_6914;
GPGPU-Sim PTX:    immediate post dominator      @  PC=0x1dd8 (_1.ptx:1473) bar.sync 0;
GPGPU-Sim PTX:  2 (potential) branch divergence @  PC=0x1db8 (_1.ptx:1464) @%p2 bra $Lt_17_7426;
GPGPU-Sim PTX:    immediate post dominator      @  PC=0x1dd8 (_1.ptx:1473) bar.sync 0;
GPGPU-Sim PTX:  3 (potential) branch divergence @  PC=0x1de0 (_1.ptx:1474) @!%p1 bra $Lt_17_7938;
GPGPU-Sim PTX:    immediate post dominator      @  PC=0x1e28 (_1.ptx:1487) bar.sync 0;
GPGPU-Sim PTX:  4 (potential) branch divergence @  PC=0x1e00 (_1.ptx:1478) @%p3 bra $Lt_17_8450;
GPGPU-Sim PTX:    immediate post dominator      @  PC=0x1e28 (_1.ptx:1487) bar.sync 0;
GPGPU-Sim PTX:  5 (potential) branch divergence @  PC=0x1e20 (_1.ptx:1483) @%p4 bra $Lt_17_8962;
GPGPU-Sim PTX:    immediate post dominator      @  PC=0x1e28 (_1.ptx:1487) bar.sync 0;
GPGPU-Sim PTX:  6 (potential) branch divergence @  PC=0x1e30 (_1.ptx:1488) @!%p1 bra $Lt_17_9474;
GPGPU-Sim PTX:    immediate post dominator      @  PC=0x1e80 (_1.ptx:1504) bar.sync 0;
GPGPU-Sim PTX:  7 (potential) branch divergence @  PC=0x1e60 (_1.ptx:1495) @%p5 bra $Lt_17_9986;
GPGPU-Sim PTX:    immediate post dominator      @  PC=0x1e80 (_1.ptx:1504) bar.sync 0;
GPGPU-Sim PTX:  8 (potential) branch divergence @  PC=0x1e88 (_1.ptx:1505) @!%p1 bra $Lt_17_10498;
GPGPU-Sim PTX:    immediate post dominator      @  PC=0x1ed0 (_1.ptx:1518) ret;
GPGPU-Sim PTX:  9 (potential) branch divergence @  PC=0x1ea8 (_1.ptx:1509) @%p6 bra $Lt_17_11010;
GPGPU-Sim PTX:    immediate post dominator      @  PC=0x1ed0 (_1.ptx:1518) ret;
GPGPU-Sim PTX: 10 (potential) branch divergence @  PC=0x1ec8 (_1.ptx:1514) @%p7 bra $Lt_17_11522;
GPGPU-Sim PTX:    immediate post dominator      @  PC=0x1ed0 (_1.ptx:1518) ret;
GPGPU-Sim PTX: ... end of reconvergence points for _Z17globalsyncthreadsRjPVj
GPGPU-Sim PTX: ... done pre-decoding instructions for '_Z17globalsyncthreadsRjPVj'.
GPGPU-Sim PTX: allocating global region for "__constant882" from 0x100 to 0x11c (global memory space)
GPGPU-Sim PTX: allocating global region for "__constant884" from 0x180 to 0x19c (global memory space)
GPGPU-Sim PTX: allocating global region for "__constant885" from 0x200 to 0x222 (global memory space)
GPGPU-Sim PTX: allocating global region for "__constant886" from 0x280 to 0x2a2 (global memory space)
GPGPU-Sim PTX: allocating global region for "__constant887" from 0x300 to 0x31c (global memory space)
GPGPU-Sim PTX: allocating global region for "__constant894" from 0x380 to 0x3b5 (global memory space)
GPGPU-Sim PTX: allocating global region for "__constant895" from 0x400 to 0x412 (global memory space)
GPGPU-Sim PTX: allocating stack frame region for .local "__cuda___cuda__temp__valist_array_48_40104" from 0x0 to 0x18
GPGPU-Sim PTX: allocating stack frame region for .local "__cuda___cuda__temp__valist_array_42_64128" from 0x80 to 0x94
GPGPU-Sim PTX: allocating stack frame region for .local "__cuda___cuda_local_var_75909_7_non_const_prefix_320" from 0x94 to 0x96
GPGPU-Sim PTX: allocating stack frame region for .param "__cudaparma1_vprintf" from 0x96 to 0x9e
GPGPU-Sim PTX: allocating stack frame region for .param "__cudaparma2_vprintf" from 0x9e to 0xa6
GPGPU-Sim PTX: instruction assembly for function '_Z11dprintstats5Graph'...   done.
GPGPU-Sim PTX: finding reconvergence points for '_Z11dprintstats5Graph'...
GPGPU-Sim PTX: Finding dominators for '_Z11dprintstats5Graph'...
GPGPU-Sim PTX: Finding immediate dominators for '_Z11dprintstats5Graph'...
GPGPU-Sim PTX: Finding postdominators for '_Z11dprintstats5Graph'...
GPGPU-Sim PTX: Finding immediate postdominators for '_Z11dprintstats5Graph'...
GPGPU-Sim PTX: pre-decoding instructions for '_Z11dprintstats5Graph'...
GPGPU-Sim PTX: reconvergence points for _Z11dprintstats5Graph...
GPGPU-Sim PTX:  1 (potential) branch divergence @  PC=0x1f10 (_1.ptx:1552) @!%p1 bra $Lt_18_12034;
GPGPU-Sim PTX:    immediate post dominator      @  PC=0x20a0 (_1.ptx:1619) @!%p1 bra $Lt_18_12290;
GPGPU-Sim PTX:  2 (potential) branch divergence @  PC=0x1f78 (_1.ptx:1568) @%p2 bra $Lt_18_9218;
GPGPU-Sim PTX:    immediate post dominator      @  PC=0x1f88 (_1.ptx:1573) setp.le.u32 %p3, %r3, %r6;
GPGPU-Sim PTX:  3 (potential) branch divergence @  PC=0x1f90 (_1.ptx:1574) @%p3 bra $Lt_18_9730;
GPGPU-Sim PTX:    immediate post dominator      @  PC=0x2040 (_1.ptx:1602) ld.global.u32 %r17, [%rd3+0];
GPGPU-Sim PTX:  4 (potential) branch divergence @  PC=0x1fb0 (_1.ptx:1579) bra.uni $LDWendi__ZN5Graph11getInDegreeEj_199_1;
GPGPU-Sim PTX:    immediate post dominator      @  PC=0x2040 (_1.ptx:1602) ld.global.u32 %r17, [%rd3+0];
GPGPU-Sim PTX:  5 (potential) branch divergence @  PC=0x2058 (_1.ptx:1605) @%p4 bra $Lt_18_10242;
GPGPU-Sim PTX:    immediate post dominator      @  PC=0x2068 (_1.ptx:1609) add.u32 %r6, %r6, 1;
GPGPU-Sim PTX:  6 (potential) branch divergence @  PC=0x2080 (_1.ptx:1612) @%p5 bra $Lt_18_8962;
GPGPU-Sim PTX:    immediate post dominator      @  PC=0x2088 (_1.ptx:1613) bra.uni $Lt_18_8450;
GPGPU-Sim PTX:  7 (potential) branch divergence @  PC=0x2088 (_1.ptx:1613) bra.uni $Lt_18_8450;
GPGPU-Sim PTX:    immediate post dominator      @  PC=0x20a0 (_1.ptx:1619) @!%p1 bra $Lt_18_12290;
GPGPU-Sim PTX:  8 (potential) branch divergence @  PC=0x20a0 (_1.ptx:1619) @!%p1 bra $Lt_18_12290;
GPGPU-Sim PTX:    immediate post dominator      @  PC=0x2148 (_1.ptx:1649) cvta.local.u64 %rd12, __cuda___cuda_local_var_75909_7_non_const_prefix_320;
GPGPU-Sim PTX:  9 (potential) branch divergence @  PC=0x20e0 (_1.ptx:1630) @%p6 bra $Lt_18_12546;
GPGPU-Sim PTX:    immediate post dominator      @  PC=0x2110 (_1.ptx:1639) mov.s32 %r21, %r24;
GPGPU-Sim PTX: 10 (potential) branch divergence @  PC=0x20f0 (_1.ptx:1632) @%p7 bra $Lt_18_12546;
GPGPU-Sim PTX:    immediate post dominator      @  PC=0x2110 (_1.ptx:1639) mov.s32 %r21, %r24;
GPGPU-Sim PTX: 11 (potential) branch divergence @  PC=0x2100 (_1.ptx:1634) bra.uni $L_18_7682;
GPGPU-Sim PTX:    immediate post dominator      @  PC=0x2110 (_1.ptx:1639) mov.s32 %r21, %r24;
GPGPU-Sim PTX: 12 (potential) branch divergence @  PC=0x2130 (_1.ptx:1643) @%p8 bra $Lt_18_11522;
GPGPU-Sim PTX:    immediate post dominator      @  PC=0x2138 (_1.ptx:1644) bra.uni $Lt_18_11010;
GPGPU-Sim PTX: 13 (potential) branch divergence @  PC=0x2138 (_1.ptx:1644) bra.uni $Lt_18_11010;
GPGPU-Sim PTX:    immediate post dominator      @  PC=0x2148 (_1.ptx:1649) cvta.local.u64 %rd12, __cuda___cuda_local_var_75909_7_non_const_prefix_320;
GPGPU-Sim PTX: ... end of reconvergence points for _Z11dprintstats5Graph
GPGPU-Sim PTX: ... done pre-decoding instructions for '_Z11dprintstats5Graph'.
GPGPU-Sim PTX: allocating global region for "__constant898" from 0x480 to 0x4be (global memory space)
GPGPU-Sim PTX: allocating global region for "__constant900" from 0x500 to 0x535 (global memory space)
GPGPU-Sim PTX: allocating global region for "__constant903" from 0x580 to 0x59f (global memory space)
GPGPU-Sim PTX: allocating stack frame region for .local "__cuda___cuda__temp__valist_array_56_16264" from 0x0 to 0x18
GPGPU-Sim PTX: allocating stack frame region for .local "__cuda___cuda__temp__valist_array_50_40288" from 0x80 to 0x9c
GPGPU-Sim PTX: allocating stack frame region for .local "__cuda___cuda__temp__valist_array_58_72320" from 0x100 to 0x114
GPGPU-Sim PTX: allocating stack frame region for .param "__cudaparma1_vprintf" from 0x114 to 0x11c
GPGPU-Sim PTX: allocating stack frame region for .param "__cudaparma2_vprintf" from 0x11c to 0x124
GPGPU-Sim PTX: instruction assembly for function '_Z14dcomputelevels5GraphPb'...   done.
GPGPU-Sim PTX: finding reconvergence points for '_Z14dcomputelevels5GraphPb'...
GPGPU-Sim PTX: Finding dominators for '_Z14dcomputelevels5GraphPb'...
GPGPU-Sim PTX: Finding immediate dominators for '_Z14dcomputelevels5GraphPb'...
GPGPU-Sim PTX: Finding postdominators for '_Z14dcomputelevels5GraphPb'...
GPGPU-Sim PTX: Finding immediate postdominators for '_Z14dcomputelevels5GraphPb'...
GPGPU-Sim PTX: pre-decoding instructions for '_Z14dcomputelevels5GraphPb'...
GPGPU-Sim PTX: reconvergence points for _Z14dcomputelevels5GraphPb...
GPGPU-Sim PTX:  1 (potential) branch divergence @  PC=0x22e8 (_1.ptx:1728) @%p1 bra $Lt_19_17410;
GPGPU-Sim PTX:    immediate post dominator      @  PC=0x2668 (_1.ptx:1875) mov.u32 %r36, 0;
GPGPU-Sim PTX:  2 (potential) branch divergence @  PC=0x2340 (_1.ptx:1741) @%p2 bra $Lt_19_22018;
GPGPU-Sim PTX:    immediate post dominator      @  PC=0x2668 (_1.ptx:1875) mov.u32 %r36, 0;
GPGPU-Sim PTX:  3 (potential) branch divergence @  PC=0x2380 (_1.ptx:1752) @%p3 bra $Lt_19_7170;
GPGPU-Sim PTX:    immediate post dominator      @  PC=0x2570 (_1.ptx:1831) setp.ge.u32 %p7, %r30, %r6;
GPGPU-Sim PTX:  4 (potential) branch divergence @  PC=0x2398 (_1.ptx:1756) @%p4 bra $Lt_19_22274;
GPGPU-Sim PTX:    immediate post dominator      @  PC=0x2460 (_1.ptx:1788) add.u32 %r20, %r17, %r11;
GPGPU-Sim PTX:  5 (potential) branch divergence @  PC=0x23c0 (_1.ptx:1761) @%p5 bra $Lt_19_22274;
GPGPU-Sim PTX:    immediate post dominator      @  PC=0x2460 (_1.ptx:1788) add.u32 %r20, %r17, %r11;
GPGPU-Sim PTX:  6 (potential) branch divergence @  PC=0x23f0 (_1.ptx:1768) bra.uni $LDWendi__ZN5Graph12getFirstEdgeEj_201_4;
GPGPU-Sim PTX:    immediate post dominator      @  PC=0x2460 (_1.ptx:1788) add.u32 %r20, %r17, %r11;
GPGPU-Sim PTX:  7 (potential) branch divergence @  PC=0x24b8 (_1.ptx:1799) @%p6 bra $Lt_19_18946;
GPGPU-Sim PTX:    immediate post dominator      @  PC=0x2570 (_1.ptx:1831) setp.ge.u32 %p7, %r30, %r6;
GPGPU-Sim PTX:  8 (potential) branch divergence @  PC=0x24e8 (_1.ptx:1806) bra.uni $LDWendi__ZN5Graph14getDestinationEjj_201_1;
GPGPU-Sim PTX:    immediate post dominator      @  PC=0x2570 (_1.ptx:1831) setp.ge.u32 %p7, %r30, %r6;
GPGPU-Sim PTX:  9 (potential) branch divergence @  PC=0x24f8 (_1.ptx:1810) bra.uni $LDWendi__ZN5Graph14getDestinationEjj_201_1;
GPGPU-Sim PTX:    immediate post dominator      @  PC=0x2570 (_1.ptx:1831) setp.ge.u32 %p7, %r30, %r6;
GPGPU-Sim PTX: 10 (potential) branch divergence @  PC=0x2578 (_1.ptx:1832) @%p7 bra $Lt_19_22786;
GPGPU-Sim PTX:    immediate post dominator      @  PC=0x2630 (_1.ptx:1864) add.u32 %r11, %r11, 1;
GPGPU-Sim PTX: 11 (potential) branch divergence @  PC=0x25b0 (_1.ptx:1839) @%p8 bra $Lt_19_22786;
GPGPU-Sim PTX:    immediate post dominator      @  PC=0x2630 (_1.ptx:1864) add.u32 %r11, %r11, 1;
GPGPU-Sim PTX: 12 (potential) branch divergence @  PC=0x25c8 (_1.ptx:1844) bra.uni $Lt_19_20482;
GPGPU-Sim PTX:    immediate post dominator      @  PC=0x2630 (_1.ptx:1864) add.u32 %r11, %r11, 1;
GPGPU-Sim PTX: 13 (potential) branch divergence @  PC=0x25d8 (_1.ptx:1849) @%p9 bra $Lt_19_20482;
GPGPU-Sim PTX:    immediate post dominator      @  PC=0x2630 (_1.ptx:1864) add.u32 %r11, %r11, 1;
GPGPU-Sim PTX: 14 (potential) branch divergence @  PC=0x2640 (_1.ptx:1866) @%p10 bra $Lt_19_18178;
GPGPU-Sim PTX:    immediate post dominator      @  PC=0x2648 (_1.ptx:1867) bra.uni $Lt_19_17154;
GPGPU-Sim PTX: 15 (potential) branch divergence @  PC=0x2648 (_1.ptx:1867) bra.uni $Lt_19_17154;
GPGPU-Sim PTX:    immediate post dominator      @  PC=0x2668 (_1.ptx:1875) mov.u32 %r36, 0;
GPGPU-Sim PTX: 16 (potential) branch divergence @  PC=0x2658 (_1.ptx:1870) bra.uni $Lt_19_17154;
GPGPU-Sim PTX:    immediate post dominator      @  PC=0x2668 (_1.ptx:1875) mov.u32 %r36, 0;
GPGPU-Sim PTX: 17 (potential) branch divergence @  PC=0x2678 (_1.ptx:1877) @%p11 bra $Lt_19_21250;
GPGPU-Sim PTX:    immediate post dominator      @  PC=0x2698 (_1.ptx:1884) exit;
GPGPU-Sim PTX: ... end of reconvergence points for _Z14dcomputelevels5GraphPb
GPGPU-Sim PTX: ... done pre-decoding instructions for '_Z14dcomputelevels5GraphPb'.
GPGPU-Sim PTX: instruction assembly for function '_Z11dinitlevels5Graph'...   done.
GPGPU-Sim PTX: finding reconvergence points for '_Z11dinitlevels5Graph'...
GPGPU-Sim PTX: Finding dominators for '_Z11dinitlevels5Graph'...
GPGPU-Sim PTX: Finding immediate dominators for '_Z11dinitlevels5Graph'...
GPGPU-Sim PTX: Finding postdominators for '_Z11dinitlevels5Graph'...
GPGPU-Sim PTX: Finding immediate postdominators for '_Z11dinitlevels5Graph'...
GPGPU-Sim PTX: pre-decoding instructions for '_Z11dinitlevels5Graph'...
GPGPU-Sim PTX: reconvergence points for _Z11dinitlevels5Graph...
GPGPU-Sim PTX:  1 (potential) branch divergence @  PC=0x26d8 (_1.ptx:1904) @%p1 bra $Lt_20_1026;
GPGPU-Sim PTX:    immediate post dominator      @  PC=0x2708 (_1.ptx:1913) exit;
GPGPU-Sim PTX: ... end of reconvergence points for _Z11dinitlevels5Graph
GPGPU-Sim PTX: ... done pre-decoding instructions for '_Z11dinitlevels5Graph'.
GPGPU-Sim PTX: allocating global region for "__constant888" from 0x600 to 0x607 (global memory space)
GPGPU-Sim PTX: allocating global region for "__constant892" from 0x680 to 0x68a (global memory space)
GPGPU-Sim PTX: allocating global region for "__constant893" from 0x700 to 0x724 (global memory space)
GPGPU-Sim PTX: allocating stack frame region for .local "__cuda___cuda__temp__valist_array_44_16552" from 0x0 to 0xc
GPGPU-Sim PTX: allocating stack frame region for .local "__cuda___cuda__temp__valist_array_56_32568" from 0x80 to 0x98
GPGPU-Sim PTX: allocating stack frame region for .local "__cuda___cuda__temp__valist_array_50_56592" from 0x100 to 0x11c
GPGPU-Sim PTX: allocating stack frame region for .local "__cuda___cuda__temp__valist_array_56_88624" from 0x180 to 0x198
GPGPU-Sim PTX: allocating stack frame region for .local "__cuda___cuda__temp__valist_array_52_112648" from 0x200 to 0x21c
GPGPU-Sim PTX: allocating stack frame region for .param "__cudaparma1_vprintf" from 0x21c to 0x224
GPGPU-Sim PTX: allocating stack frame region for .param "__cudaparma2_vprintf" from 0x224 to 0x22c
GPGPU-Sim PTX: instruction assembly for function '_Z9dprint1x15Graph'...   done.
GPGPU-Sim PTX: finding reconvergence points for '_Z9dprint1x15Graph'...
GPGPU-Sim PTX: Finding dominators for '_Z9dprint1x15Graph'...
GPGPU-Sim PTX: Finding immediate dominators for '_Z9dprint1x15Graph'...
GPGPU-Sim PTX: Finding postdominators for '_Z9dprint1x15Graph'...
GPGPU-Sim PTX: Finding immediate postdominators for '_Z9dprint1x15Graph'...
GPGPU-Sim PTX: pre-decoding instructions for '_Z9dprint1x15Graph'...
GPGPU-Sim PTX: reconvergence points for _Z9dprint1x15Graph...
GPGPU-Sim PTX:  1 (potential) branch divergence @  PC=0x2768 (_1.ptx:1948) @%p1 bra $Lt_21_32002;
GPGPU-Sim PTX:    immediate post dominator      @  PC=0x2df0 (_1.ptx:2210) setp.eq.u32 %p14, %r2, %r6;
GPGPU-Sim PTX:  2 (potential) branch divergence @  PC=0x27c8 (_1.ptx:1963) @%p2 bra $Lt_21_25858;
GPGPU-Sim PTX:    immediate post dominator      @  PC=0x2dc0 (_1.ptx:2202) add.u32 %r5, %r5, 1;
GPGPU-Sim PTX:  3 (potential) branch divergence @  PC=0x27f0 (_1.ptx:1971) @!%p3 bra $Lt_21_32514;
GPGPU-Sim PTX:    immediate post dominator      @  PC=0x2aa8 (_1.ptx:2079) @!%p3 bra $Lt_21_33538;
GPGPU-Sim PTX:  4 (potential) branch divergence @  PC=0x2808 (_1.ptx:1975) @%p4 bra $Lt_21_32514;
GPGPU-Sim PTX:    immediate post dominator      @  PC=0x2aa8 (_1.ptx:2079) @!%p3 bra $Lt_21_33538;
GPGPU-Sim PTX:  5 (potential) branch divergence @  PC=0x2820 (_1.ptx:1979) @%p5 bra $Lt_21_33026;
GPGPU-Sim PTX:    immediate post dominator      @  PC=0x2910 (_1.ptx:2016) add.u32 %r24, %r16, %r11;
GPGPU-Sim PTX:  6 (potential) branch divergence @  PC=0x2848 (_1.ptx:1984) @%p6 bra $Lt_21_33026;
GPGPU-Sim PTX:    immediate post dominator      @  PC=0x2910 (_1.ptx:2016) add.u32 %r24, %r16, %r11;
GPGPU-Sim PTX:  7 (potential) branch divergence @  PC=0x2878 (_1.ptx:1991) bra.uni $LDWendi__ZN5Graph12getFirstEdgeEj_205_14;
GPGPU-Sim PTX:    immediate post dominator      @  PC=0x2910 (_1.ptx:2016) add.u32 %r24, %r16, %r11;
GPGPU-Sim PTX:  8 (potential) branch divergence @  PC=0x2960 (_1.ptx:2026) @%p7 bra $Lt_21_27138;
GPGPU-Sim PTX:    immediate post dominator      @  PC=0x2aa8 (_1.ptx:2079) @!%p3 bra $Lt_21_33538;
GPGPU-Sim PTX:  9 (potential) branch divergence @  PC=0x2990 (_1.ptx:2033) bra.uni $LDWendi__ZN5Graph14getDestinationEjj_205_11;
GPGPU-Sim PTX:    immediate post dominator      @  PC=0x2aa8 (_1.ptx:2079) @!%p3 bra $Lt_21_33538;
GPGPU-Sim PTX: 10 (potential) branch divergence @  PC=0x29a0 (_1.ptx:2037) bra.uni $LDWendi__ZN5Graph14getDestinationEjj_205_11;
GPGPU-Sim PTX:    immediate post dominator      @  PC=0x2aa8 (_1.ptx:2079) @!%p3 bra $Lt_21_33538;
GPGPU-Sim PTX: 11 (potential) branch divergence @  PC=0x29d0 (_1.ptx:2045) @!%p3 bra $Lt_21_27906;
GPGPU-Sim PTX:    immediate post dominator      @  PC=0x2aa0 (_1.ptx:2076) mov.s32 %r33, %r1;
GPGPU-Sim PTX: 12 (potential) branch divergence @  PC=0x2a40 (_1.ptx:2060) bra.uni $Lt_21_27650;
GPGPU-Sim PTX:    immediate post dominator      @  PC=0x2aa0 (_1.ptx:2076) mov.s32 %r33, %r1;
GPGPU-Sim PTX: 13 (potential) branch divergence @  PC=0x2aa8 (_1.ptx:2079) @!%p3 bra $Lt_21_33538;
GPGPU-Sim PTX:    immediate post dominator      @  PC=0x2d60 (_1.ptx:2187) st.local.u32 [__cuda___cuda__temp__valist_array_44_16552+0], %r5;
GPGPU-Sim PTX: 14 (potential) branch divergence @  PC=0x2ac0 (_1.ptx:2083) @%p8 bra $Lt_21_33538;
GPGPU-Sim PTX:    immediate post dominator      @  PC=0x2d60 (_1.ptx:2187) st.local.u32 [__cuda___cuda__temp__valist_array_44_16552+0], %r5;
GPGPU-Sim PTX: 15 (potential) branch divergence @  PC=0x2ad8 (_1.ptx:2087) @%p9 bra $Lt_21_34050;
GPGPU-Sim PTX:    immediate post dominator      @  PC=0x2bc8 (_1.ptx:2124) add.u32 %r52, %r44, %r11;
GPGPU-Sim PTX: 16 (potential) branch divergence @  PC=0x2b00 (_1.ptx:2092) @%p10 bra $Lt_21_34050;
GPGPU-Sim PTX:    immediate post dominator      @  PC=0x2bc8 (_1.ptx:2124) add.u32 %r52, %r44, %r11;
GPGPU-Sim PTX: 17 (potential) branch divergence @  PC=0x2b30 (_1.ptx:2099) bra.uni $LDWendi__ZN5Graph12getFirstEdgeEj_205_4;
GPGPU-Sim PTX:    immediate post dominator      @  PC=0x2bc8 (_1.ptx:2124) add.u32 %r52, %r44, %r11;
GPGPU-Sim PTX: 18 (potential) branch divergence @  PC=0x2c18 (_1.ptx:2134) @%p11 bra $Lt_21_29186;
GPGPU-Sim PTX:    immediate post dominator      @  PC=0x2d60 (_1.ptx:2187) st.local.u32 [__cuda___cuda__temp__valist_array_44_16552+0], %r5;
GPGPU-Sim PTX: 19 (potential) branch divergence @  PC=0x2c48 (_1.ptx:2141) bra.uni $LDWendi__ZN5Graph9getWeightEjj_205_1;
GPGPU-Sim PTX:    immediate post dominator      @  PC=0x2d60 (_1.ptx:2187) st.local.u32 [__cuda___cuda__temp__valist_array_44_16552+0], %r5;
GPGPU-Sim PTX: 20 (potential) branch divergence @  PC=0x2c58 (_1.ptx:2145) bra.uni $LDWendi__ZN5Graph9getWeightEjj_205_1;
GPGPU-Sim PTX:    immediate post dominator      @  PC=0x2d60 (_1.ptx:2187) st.local.u32 [__cuda___cuda__temp__valist_array_44_16552+0], %r5;
GPGPU-Sim PTX: 21 (potential) branch divergence @  PC=0x2c88 (_1.ptx:2153) @!%p3 bra $Lt_21_29954;
GPGPU-Sim PTX:    immediate post dominator      @  PC=0x2d58 (_1.ptx:2184) mov.u32 %r61, 1000000000;
GPGPU-Sim PTX: 22 (potential) branch divergence @  PC=0x2cf8 (_1.ptx:2168) bra.uni $Lt_21_29698;
GPGPU-Sim PTX:    immediate post dominator      @  PC=0x2d58 (_1.ptx:2184) mov.u32 %r61, 1000000000;
GPGPU-Sim PTX: 23 (potential) branch divergence @  PC=0x2db8 (_1.ptx:2200) @%p12 bra $Lt_21_26370;
GPGPU-Sim PTX:    immediate post dominator      @  PC=0x2dc0 (_1.ptx:2202) add.u32 %r5, %r5, 1;
GPGPU-Sim PTX: 24 (potential) branch divergence @  PC=0x2dd8 (_1.ptx:2205) @%p13 bra $Lt_21_25602;
GPGPU-Sim PTX:    immediate post dominator      @  PC=0x2de0 (_1.ptx:2206) bra.uni $Lt_21_25090;
GPGPU-Sim PTX: 25 (potential) branch divergence @  PC=0x2de0 (_1.ptx:2206) bra.uni $Lt_21_25090;
GPGPU-Sim PTX:    immediate post dominator      @  PC=0x2df0 (_1.ptx:2210) setp.eq.u32 %p14, %r2, %r6;
GPGPU-Sim PTX: 26 (potential) branch divergence @  PC=0x2df8 (_1.ptx:2211) @%p14 bra $Lt_21_31234;
GPGPU-Sim PTX:    immediate post dominator      @  PC=0x2e38 (_1.ptx:2222) exit;
GPGPU-Sim PTX: ... end of reconvergence points for _Z9dprint1x15Graph
GPGPU-Sim PTX: ... done pre-decoding instructions for '_Z9dprint1x15Graph'.
GPGPU-Sim PTX: allocating global region for "__constant924" from 0x780 to 0x795 (global memory space)
GPGPU-Sim PTX: allocating global region for "__constant925" from 0x800 to 0x80c (global memory space)
GPGPU-Sim PTX: allocating stack frame region for .local "__cuda___cuda__temp__valist_array_69_2456" from 0x0 to 0x8
GPGPU-Sim PTX: allocating stack frame region for .param "__cudaparma1_vprintf" from 0x8 to 0x10
GPGPU-Sim PTX: allocating stack frame region for .param "__cudaparma2_vprintf" from 0x10 to 0x18
GPGPU-Sim PTX: instruction assembly for function '_Z8print1x114ComponentSpace'...   done.
GPGPU-Sim PTX: finding reconvergence points for '_Z8print1x114ComponentSpace'...
GPGPU-Sim PTX: Finding dominators for '_Z8print1x114ComponentSpace'...
[...]
GPGPU-Sim PTX: 69800000 instructions simulated : ctaid=(8,0,0) tid=(15,0,0)
GPGPU-Sim PTX: 69900000 instructions simulated : ctaid=(8,0,0) tid=(28,0,0)
GPGPU-Sim uArch: cycles simulated: 458000  inst.: 66202922 (ipc=144.5) sim_rate=309359 (inst/sec) elapsed = 0:0:03:34 / Tue Mar 22 12:43:14 2016
GPGPU-Sim PTX: 70000000 instructions simulated : ctaid=(1,0,0) tid=(28,0,0)
GPGPU-Sim PTX: 70100000 instructions simulated : ctaid=(14,0,0) tid=(60,0,0)
GPGPU-Sim PTX: 70200000 instructions simulated : ctaid=(0,0,0) tid=(18,0,0)
GPGPU-Sim PTX: 70300000 instructions simulated : ctaid=(14,0,0) tid=(52,0,0)
GPGPU-Sim uArch: cycles simulated: 461000  inst.: 66625882 (ipc=144.5) sim_rate=309887 (inst/sec) elapsed = 0:0:03:35 / Tue Mar 22 12:43:15 2016
GPGPU-Sim PTX: 70400000 instructions simulated : ctaid=(13,0,0) tid=(40,0,0)
GPGPU-Sim PTX: 70500000 instructions simulated : ctaid=(12,0,0) tid=(3,0,0)
GPGPU-Sim PTX: 70600000 instructions simulated : ctaid=(13,0,0) tid=(35,0,0)
GPGPU-Sim PTX: 70700000 instructions simulated : ctaid=(9,0,0) tid=(3,0,0)
GPGPU-Sim uArch: cycles simulated: 463500  inst.: 66997182 (ipc=144.5) sim_rate=310172 (inst/sec) elapsed = 0:0:03:36 / Tue Mar 22 12:43:16 2016
GPGPU-Sim PTX: 70800000 instructions simulated : ctaid=(12,0,0) tid=(3,0,0)
GPGPU-Sim PTX: 70900000 instructions simulated : ctaid=(14,0,0) tid=(35,0,0)
GPGPU-Sim PTX: 71000000 instructions simulated : ctaid=(12,0,0) tid=(35,0,0)
GPGPU-Sim uArch: cycles simulated: 465500  inst.: 67299774 (ipc=144.6) sim_rate=310137 (inst/sec) elapsed = 0:0:03:37 / Tue Mar 22 12:43:17 2016
GPGPU-Sim PTX: 71100000 instructions simulated : ctaid=(5,0,0) tid=(35,0,0)
GPGPU-Sim PTX: 71200000 instructions simulated : ctaid=(13,0,0) tid=(25,0,0)
GPGPU-Sim PTX: 71300000 instructions simulated : ctaid=(9,0,0) tid=(26,0,0)
GPGPU-Sim PTX: 71400000 instructions simulated : ctaid=(11,0,0) tid=(20,0,0)
GPGPU-Sim uArch: cycles simulated: 468000  inst.: 67671690 (ipc=144.6) sim_rate=310420 (inst/sec) elapsed = 0:0:03:38 / Tue Mar 22 12:43:18 2016
GPGPU-Sim PTX: 71500000 instructions simulated : ctaid=(10,0,0) tid=(20,0,0)
GPGPU-Sim PTX: 71600000 instructions simulated : ctaid=(8,0,0) tid=(35,0,0)
GPGPU-Sim PTX: 71700000 instructions simulated : ctaid=(5,0,0) tid=(9,0,0)
GPGPU-Sim PTX: 71800000 instructions simulated : ctaid=(12,0,0) tid=(29,0,0)
GPGPU-Sim uArch: cycles simulated: 470500  inst.: 68048226 (ipc=144.6) sim_rate=310722 (inst/sec) elapsed = 0:0:03:39 / Tue Mar 22 12:43:19 2016
GPGPU-Sim PTX: 71900000 instructions simulated : ctaid=(1,0,0) tid=(21,0,0)
GPGPU-Sim PTX: 72000000 instructions simulated : ctaid=(0,0,0) tid=(3,0,0)
GPGPU-Sim PTX: 72100000 instructions simulated : ctaid=(12,0,0) tid=(52,0,0)
GPGPU-Sim PTX: 72200000 instructions simulated : ctaid=(11,0,0) tid=(27,0,0)
GPGPU-Sim uArch: cycles simulated: 473500  inst.: 68462698 (ipc=144.6) sim_rate=311194 (inst/sec) elapsed = 0:0:03:40 / Tue Mar 22 12:43:20 2016
GPGPU-Sim PTX: 72300000 instructions simulated : ctaid=(11,0,0) tid=(0,0,0)
GPGPU-Sim PTX: 72400000 instructions simulated : ctaid=(5,0,0) tid=(44,0,0)
GPGPU-Sim PTX: 72500000 instructions simulated : ctaid=(13,0,0) tid=(43,0,0)
GPGPU-Sim PTX: 72600000 instructions simulated : ctaid=(6,0,0) tid=(62,0,0)
GPGPU-Sim uArch: cycles simulated: 476000  inst.: 68831399 (ipc=144.6) sim_rate=311454 (inst/sec) elapsed = 0:0:03:41 / Tue Mar 22 12:43:21 2016
GPGPU-Sim PTX: 72700000 instructions simulated : ctaid=(14,0,0) tid=(55,0,0)
GPGPU-Sim PTX: 72800000 instructions simulated : ctaid=(4,0,0) tid=(55,0,0)
GPGPU-Sim PTX: 72900000 instructions simulated : ctaid=(5,0,0) tid=(55,0,0)
GPGPU-Sim PTX: 73000000 instructions simulated : ctaid=(13,0,0) tid=(63,0,0)
GPGPU-Sim uArch: cycles simulated: 478500  inst.: 69202957 (ipc=144.6) sim_rate=311725 (inst/sec) elapsed = 0:0:03:42 / Tue Mar 22 12:43:22 2016
GPGPU-Sim PTX: 73100000 instructions simulated : ctaid=(3,0,0) tid=(8,0,0)
GPGPU-Sim PTX: 73200000 instructions simulated : ctaid=(8,0,0) tid=(0,0,0)
GPGPU-Sim PTX: 73300000 instructions simulated : ctaid=(5,0,0) tid=(30,0,0)
GPGPU-Sim PTX: 73400000 instructions simulated : ctaid=(8,0,0) tid=(25,0,0)
GPGPU-Sim PTX: 73500000 instructions simulated : ctaid=(6,0,0) tid=(63,0,0)
GPGPU-Sim uArch: cycles simulated: 481500  inst.: 69645396 (ipc=144.6) sim_rate=312311 (inst/sec) elapsed = 0:0:03:43 / Tue Mar 22 12:43:23 2016
GPGPU-Sim PTX: 73600000 instructions simulated : ctaid=(9,0,0) tid=(31,0,0)
GPGPU-Sim PTX: 73700000 instructions simulated : ctaid=(5,0,0) tid=(7,0,0)
GPGPU-Sim PTX: 73800000 instructions simulated : ctaid=(8,0,0) tid=(51,0,0)
GPGPU-Sim PTX: 73900000 instructions simulated : ctaid=(8,0,0) tid=(61,0,0)
GPGPU-Sim uArch: cycles simulated: 484000  inst.: 69990042 (ipc=144.6) sim_rate=312455 (inst/sec) elapsed = 0:0:03:44 / Tue Mar 22 12:43:24 2016
GPGPU-Sim PTX: 74000000 instructions simulated : ctaid=(12,0,0) tid=(37,0,0)
GPGPU-Sim PTX: 74100000 instructions simulated : ctaid=(0,0,0) tid=(45,0,0)
GPGPU-Sim PTX: 74200000 instructions simulated : ctaid=(2,0,0) tid=(3,0,0)
GPGPU-Sim uArch: cycles simulated: 486500  inst.: 70357923 (ipc=144.6) sim_rate=312701 (inst/sec) elapsed = 0:0:03:45 / Tue Mar 22 12:43:25 2016
GPGPU-Sim PTX: 74300000 instructions simulated : ctaid=(0,0,0) tid=(31,0,0)
GPGPU-Sim PTX: 74400000 instructions simulated : ctaid=(4,0,0) tid=(8,0,0)
GPGPU-Sim PTX: 74500000 instructions simulated : ctaid=(3,0,0) tid=(6,0,0)
GPGPU-Sim PTX: 74600000 instructions simulated : ctaid=(8,0,0) tid=(1,0,0)
GPGPU-Sim uArch: cycles simulated: 489000  inst.: 70721868 (ipc=144.6) sim_rate=312928 (inst/sec) elapsed = 0:0:03:46 / Tue Mar 22 12:43:26 2016
GPGPU-Sim PTX: 74700000 instructions simulated : ctaid=(7,0,0) tid=(45,0,0)
GPGPU-Sim PTX: 74800000 instructions simulated : ctaid=(13,0,0) tid=(45,0,0)
GPGPU-Sim PTX: 74900000 instructions simulated : ctaid=(1,0,0) tid=(55,0,0)
GPGPU-Sim PTX: 75000000 instructions simulated : ctaid=(0,0,0) tid=(31,0,0)
GPGPU-Sim uArch: cycles simulated: 491500  inst.: 71096700 (ipc=144.7) sim_rate=313201 (inst/sec) elapsed = 0:0:03:47 / Tue Mar 22 12:43:27 2016
GPGPU-Sim PTX: 75100000 instructions simulated : ctaid=(13,0,0) tid=(24,0,0)
GPGPU-Sim PTX: 75200000 instructions simulated : ctaid=(1,0,0) tid=(56,0,0)
GPGPU-Sim PTX: 75300000 instructions simulated : ctaid=(6,0,0) tid=(42,0,0)
GPGPU-Sim PTX: 75400000 instructions simulated : ctaid=(10,0,0) tid=(46,0,0)
GPGPU-Sim PTX: 75500000 instructions simulated : ctaid=(13,0,0) tid=(14,0,0)
GPGPU-Sim uArch: cycles simulated: 494500  inst.: 71516004 (ipc=144.6) sim_rate=313666 (inst/sec) elapsed = 0:0:03:48 / Tue Mar 22 12:43:28 2016
GPGPU-Sim PTX: 75600000 instructions simulated : ctaid=(1,0,0) tid=(46,0,0)
GPGPU-Sim PTX: 75700000 instructions simulated : ctaid=(1,0,0) tid=(14,0,0)
GPGPU-Sim PTX: 75800000 instructions simulated : ctaid=(1,0,0) tid=(14,0,0)
GPGPU-Sim PTX: 75900000 instructions simulated : ctaid=(9,0,0) tid=(56,0,0)
GPGPU-Sim uArch: cycles simulated: 497000  inst.: 71890120 (ipc=144.6) sim_rate=313930 (inst/sec) elapsed = 0:0:03:49 / Tue Mar 22 12:43:29 2016
GPGPU-Sim PTX: 76000000 instructions simulated : ctaid=(4,0,0) tid=(36,0,0)
GPGPU-Sim PTX: 76100000 instructions simulated : ctaid=(4,0,0) tid=(4,0,0)
GPGPU-Sim PTX: 76200000 instructions simulated : ctaid=(9,0,0) tid=(36,0,0)
GPGPU-Sim PTX: 76300000 instructions simulated : ctaid=(3,0,0) tid=(4,0,0)
GPGPU-Sim uArch: cycles simulated: 499500  inst.: 72263404 (ipc=144.7) sim_rate=314188 (inst/sec) elapsed = 0:0:03:50 / Tue Mar 22 12:43:30 2016
GPGPU-Sim PTX: 76400000 instructions simulated : ctaid=(13,0,0) tid=(36,0,0)
GPGPU-Sim PTX: 76500000 instructions simulated : ctaid=(5,0,0) tid=(36,0,0)
GPGPU-Sim PTX: 76600000 instructions simulated : ctaid=(7,0,0) tid=(36,0,0)
GPGPU-Sim PTX: 76700000 instructions simulated : ctaid=(8,0,0) tid=(36,0,0)
GPGPU-Sim uArch: cycles simulated: 502000  inst.: 72644300 (ipc=144.7) sim_rate=314477 (inst/sec) elapsed = 0:0:03:51 / Tue Mar 22 12:43:31 2016
GPGPU-Sim PTX: 76800000 instructions simulated : ctaid=(11,0,0) tid=(4,0,0)
GPGPU-Sim PTX: 76900000 instructions simulated : ctaid=(1,0,0) tid=(36,0,0)
GPGPU-Sim PTX: 77000000 instructions simulated : ctaid=(11,0,0) tid=(4,0,0)
GPGPU-Sim uArch: cycles simulated: 504000  inst.: 72945356 (ipc=144.7) sim_rate=314419 (inst/sec) elapsed = 0:0:03:52 / Tue Mar 22 12:43:32 2016
GPGPU-Sim PTX: 77100000 instructions simulated : ctaid=(10,0,0) tid=(36,0,0)
GPGPU-Sim PTX: 77200000 instructions simulated : ctaid=(0,0,0) tid=(4,0,0)
GPGPU-Sim PTX: 77300000 instructions simulated : ctaid=(1,0,0) tid=(36,0,0)
GPGPU-Sim uArch: cycles simulated: 506500  inst.: 73288972 (ipc=144.7) sim_rate=314544 (inst/sec) elapsed = 0:0:03:53 / Tue Mar 22 12:43:33 2016
GPGPU-Sim PTX: 77400000 instructions simulated : ctaid=(6,0,0) tid=(36,0,0)
GPGPU-Sim PTX: 77500000 instructions simulated : ctaid=(10,0,0) tid=(36,0,0)
GPGPU-Sim PTX: 77600000 instructions simulated : ctaid=(6,0,0) tid=(36,0,0)
GPGPU-Sim PTX: 77700000 instructions simulated : ctaid=(9,0,0) tid=(36,0,0)
GPGPU-Sim uArch: cycles simulated: 509000  inst.: 73666156 (ipc=144.7) sim_rate=314812 (inst/sec) elapsed = 0:0:03:54 / Tue Mar 22 12:43:34 2016
GPGPU-Sim PTX: 77800000 instructions simulated : ctaid=(1,0,0) tid=(4,0,0)
GPGPU-Sim PTX: 77900000 instructions simulated : ctaid=(13,0,0) tid=(36,0,0)
GPGPU-Sim PTX: 78000000 instructions simulated : ctaid=(3,0,0) tid=(4,0,0)
GPGPU-Sim PTX: 78100000 instructions simulated : ctaid=(5,0,0) tid=(36,0,0)
GPGPU-Sim PTX: 78200000 instructions simulated : ctaid=(12,0,0) tid=(4,0,0)
GPGPU-Sim uArch: cycles simulated: 512000  inst.: 74116236 (ipc=144.8) sim_rate=315388 (inst/sec) elapsed = 0:0:03:55 / Tue Mar 22 12:43:35 2016
GPGPU-Sim PTX: 78300000 instructions simulated : ctaid=(12,0,0) tid=(36,0,0)
GPGPU-Sim PTX: 78400000 instructions simulated : ctaid=(7,0,0) tid=(4,0,0)
GPGPU-Sim PTX: 78500000 instructions simulated : ctaid=(5,0,0) tid=(36,0,0)
GPGPU-Sim PTX: 78600000 instructions simulated : ctaid=(10,0,0) tid=(4,0,0)
GPGPU-Sim uArch: cycles simulated: 514500  inst.: 74496972 (ipc=144.8) sim_rate=315665 (inst/sec) elapsed = 0:0:03:56 / Tue Mar 22 12:43:36 2016
GPGPU-Sim PTX: 78700000 instructions simulated : ctaid=(8,0,0) tid=(36,0,0)
GPGPU-Sim PTX: 78800000 instructions simulated : ctaid=(12,0,0) tid=(4,0,0)
GPGPU-Sim PTX: 78900000 instructions simulated : ctaid=(5,0,0) tid=(4,0,0)
GPGPU-Sim PTX: 79000000 instructions simulated : ctaid=(0,0,0) tid=(4,0,0)
GPGPU-Sim uArch: cycles simulated: 517000  inst.: 74840972 (ipc=144.8) sim_rate=315784 (inst/sec) elapsed = 0:0:03:57 / Tue Mar 22 12:43:37 2016
GPGPU-Sim PTX: 79100000 instructions simulated : ctaid=(4,0,0) tid=(36,0,0)
GPGPU-Sim PTX: 79200000 instructions simulated : ctaid=(1,0,0) tid=(36,0,0)
GPGPU-Sim PTX: 79300000 instructions simulated : ctaid=(10,0,0) tid=(36,0,0)
GPGPU-Sim PTX: 79400000 instructions simulated : ctaid=(14,0,0) tid=(4,0,0)
GPGPU-Sim uArch: cycles simulated: 519500  inst.: 75217932 (ipc=144.8) sim_rate=316041 (inst/sec) elapsed = 0:0:03:58 / Tue Mar 22 12:43:38 2016
GPGPU-Sim PTX: 79500000 instructions simulated : ctaid=(1,0,0) tid=(36,0,0)
GPGPU-Sim PTX: 79600000 instructions simulated : ctaid=(7,0,0) tid=(4,0,0)
GPGPU-Sim PTX: 79700000 instructions simulated : ctaid=(10,0,0) tid=(36,0,0)
GPGPU-Sim PTX: 79800000 instructions simulated : ctaid=(2,0,0) tid=(4,0,0)
GPGPU-Sim uArch: cycles simulated: 522000  inst.: 75596172 (ipc=144.8) sim_rate=316301 (inst/sec) elapsed = 0:0:03:59 / Tue Mar 22 12:43:39 2016
GPGPU-Sim PTX: 79900000 instructions simulated : ctaid=(8,0,0) tid=(4,0,0)
GPGPU-Sim PTX: 80000000 instructions simulated : ctaid=(2,0,0) tid=(36,0,0)
GPGPU-Sim PTX: 80100000 instructions simulated : ctaid=(11,0,0) tid=(4,0,0)
GPGPU-Sim PTX: 80200000 instructions simulated : ctaid=(0,0,0) tid=(36,0,0)
GPGPU-Sim uArch: cycles simulated: 524500  inst.: 75969100 (ipc=144.8) sim_rate=316537 (inst/sec) elapsed = 0:0:04:00 / Tue Mar 22 12:43:40 2016
GPGPU-Sim PTX: 80300000 instructions simulated : ctaid=(1,0,0) tid=(4,0,0)
GPGPU-Sim PTX: 80400000 instructions simulated : ctaid=(2,0,0) tid=(36,0,0)
GPGPU-Sim PTX: 80500000 instructions simulated : ctaid=(2,0,0) tid=(4,0,0)
GPGPU-Sim uArch: cycles simulated: 527000  inst.: 76319532 (ipc=144.8) sim_rate=316678 (inst/sec) elapsed = 0:0:04:01 / Tue Mar 22 12:43:41 2016
GPGPU-Sim PTX: 80600000 instructions simulated : ctaid=(5,0,0) tid=(36,0,0)
GPGPU-Sim PTX: 80700000 instructions simulated : ctaid=(3,0,0) tid=(4,0,0)
GPGPU-Sim PTX: 80800000 instructions simulated : ctaid=(3,0,0) tid=(36,0,0)
GPGPU-Sim PTX: 80900000 instructions simulated : ctaid=(7,0,0) tid=(36,0,0)
GPGPU-Sim uArch: cycles simulated: 529500  inst.: 76695980 (ipc=144.8) sim_rate=316925 (inst/sec) elapsed = 0:0:04:02 / Tue Mar 22 12:43:42 2016
GPGPU-Sim PTX: 81000000 instructions simulated : ctaid=(8,0,0) tid=(4,0,0)
GPGPU-Sim PTX: 81100000 instructions simulated : ctaid=(5,0,0) tid=(36,0,0)
GPGPU-Sim PTX: 81200000 instructions simulated : ctaid=(1,0,0) tid=(4,0,0)
GPGPU-Sim PTX: 81300000 instructions simulated : ctaid=(12,0,0) tid=(4,0,0)
GPGPU-Sim PTX: 81400000 instructions simulated : ctaid=(6,0,0) tid=(4,0,0)
GPGPU-Sim uArch: cycles simulated: 532500  inst.: 77148844 (ipc=144.9) sim_rate=317484 (inst/sec) elapsed = 0:0:04:03 / Tue Mar 22 12:43:43 2016
GPGPU-Sim PTX: 81500000 instructions simulated : ctaid=(9,0,0) tid=(4,0,0)
GPGPU-Sim PTX: 81600000 instructions simulated : ctaid=(7,0,0) tid=(4,0,0)
GPGPU-Sim PTX: 81700000 instructions simulated : ctaid=(14,0,0) tid=(4,0,0)
GPGPU-Sim PTX: 81800000 instructions simulated : ctaid=(1,0,0) tid=(4,0,0)
GPGPU-Sim uArch: cycles simulated: 535000  inst.: 77520972 (ipc=144.9) sim_rate=317708 (inst/sec) elapsed = 0:0:04:04 / Tue Mar 22 12:43:44 2016
GPGPU-Sim PTX: 81900000 instructions simulated : ctaid=(11,0,0) tid=(40,0,0)
GPGPU-Sim PTX: 82000000 instructions simulated : ctaid=(4,0,0) tid=(63,0,0)
GPGPU-Sim PTX: 82100000 instructions simulated : ctaid=(1,0,0) tid=(31,0,0)
GPGPU-Sim PTX: 82200000 instructions simulated : ctaid=(13,0,0) tid=(4,0,0)
GPGPU-Sim uArch: cycles simulated: 537500  inst.: 77898804 (ipc=144.9) sim_rate=317954 (inst/sec) elapsed = 0:0:04:05 / Tue Mar 22 12:43:45 2016
GPGPU-Sim PTX: 82300000 instructions simulated : ctaid=(8,0,0) tid=(26,0,0)
GPGPU-Sim PTX: 82400000 instructions simulated : ctaid=(4,0,0) tid=(26,0,0)
GPGPU-Sim PTX: 82500000 instructions simulated : ctaid=(6,0,0) tid=(62,0,0)
GPGPU-Sim PTX: 82600000 instructions simulated : ctaid=(6,0,0) tid=(31,0,0)
GPGPU-Sim uArch: cycles simulated: 540000  inst.: 78254168 (ipc=144.9) sim_rate=318106 (inst/sec) elapsed = 0:0:04:06 / Tue Mar 22 12:43:46 2016
GPGPU-Sim PTX: 82700000 instructions simulated : ctaid=(11,0,0) tid=(20,0,0)
GPGPU-Sim PTX: 82800000 instructions simulated : ctaid=(0,0,0) tid=(47,0,0)
GPGPU-Sim PTX: 82900000 instructions simulated : ctaid=(10,0,0) tid=(15,0,0)
GPGPU-Sim uArch: cycles simulated: 542000  inst.: 78556380 (ipc=144.9) sim_rate=318042 (inst/sec) elapsed = 0:0:04:07 / Tue Mar 22 12:43:47 2016
GPGPU-Sim PTX: 83000000 instructions simulated : ctaid=(8,0,0) tid=(15,0,0)
GPGPU-Sim PTX: 83100000 instructions simulated : ctaid=(6,0,0) tid=(47,0,0)
GPGPU-Sim PTX: 83200000 instructions simulated : ctaid=(0,0,0) tid=(47,0,0)
GPGPU-Sim PTX: 83300000 instructions simulated : ctaid=(1,0,0) tid=(47,0,0)
GPGPU-Sim uArch: cycles simulated: 544500  inst.: 78933084 (ipc=145.0) sim_rate=318278 (inst/sec) elapsed = 0:0:04:08 / Tue Mar 22 12:43:48 2016
GPGPU-Sim PTX: 83400000 instructions simulated : ctaid=(4,0,0) tid=(41,0,0)
GPGPU-Sim PTX: 83500000 instructions simulated : ctaid=(11,0,0) tid=(10,0,0)
GPGPU-Sim PTX: 83600000 instructions simulated : ctaid=(4,0,0) tid=(44,0,0)
GPGPU-Sim PTX: 83700000 instructions simulated : ctaid=(6,0,0) tid=(7,0,0)
GPGPU-Sim uArch: cycles simulated: 547000  inst.: 79306681 (ipc=145.0) sim_rate=318500 (inst/sec) elapsed = 0:0:04:09 / Tue Mar 22 12:43:49 2016
GPGPU-Sim PTX: 83800000 instructions simulated : ctaid=(2,0,0) tid=(62,0,0)
GPGPU-Sim PTX: 83900000 instructions simulated : ctaid=(13,0,0) tid=(16,0,0)
GPGPU-Sim PTX: 84000000 instructions simulated : ctaid=(5,0,0) tid=(7,0,0)
GPGPU-Sim PTX: 84100000 instructions simulated : ctaid=(1,0,0) tid=(25,0,0)
GPGPU-Sim uArch: cycles simulated: 549500  inst.: 79650877 (ipc=145.0) sim_rate=318603 (inst/sec) elapsed = 0:0:04:10 / Tue Mar 22 12:43:50 2016
GPGPU-Sim PTX: 84200000 instructions simulated : ctaid=(2,0,0) tid=(58,0,0)
GPGPU-Sim PTX: 84300000 instructions simulated : ctaid=(6,0,0) tid=(8,0,0)
GPGPU-Sim PTX: 84400000 instructions simulated : ctaid=(0,0,0) tid=(49,0,0)
GPGPU-Sim PTX: 84500000 instructions simulated : ctaid=(6,0,0) tid=(26,0,0)
GPGPU-Sim uArch: cycles simulated: 552500  inst.: 80094216 (ipc=145.0) sim_rate=319100 (inst/sec) elapsed = 0:0:04:11 / Tue Mar 22 12:43:51 2016
GPGPU-Sim PTX: 84600000 instructions simulated : ctaid=(0,0,0) tid=(57,0,0)
GPGPU-Sim PTX: 84700000 instructions simulated : ctaid=(10,0,0) tid=(22,0,0)
GPGPU-Sim PTX: 84800000 instructions simulated : ctaid=(13,0,0) tid=(15,0,0)
GPGPU-Sim PTX: 84900000 instructions simulated : ctaid=(5,0,0) tid=(5,0,0)
GPGPU-Sim uArch: cycles simulated: 555000  inst.: 80465673 (ipc=145.0) sim_rate=319308 (inst/sec) elapsed = 0:0:04:12 / Tue Mar 22 12:43:52 2016
GPGPU-Sim PTX: 85000000 instructions simulated : ctaid=(9,0,0) tid=(62,0,0)
GPGPU-Sim PTX: 85100000 instructions simulated : ctaid=(10,0,0) tid=(48,0,0)
GPGPU-Sim PTX: 85200000 instructions simulated : ctaid=(10,0,0) tid=(16,0,0)
GPGPU-Sim PTX: 85300000 instructions simulated : ctaid=(10,0,0) tid=(51,0,0)
GPGPU-Sim uArch: cycles simulated: 557500  inst.: 80830834 (ipc=145.0) sim_rate=319489 (inst/sec) elapsed = 0:0:04:13 / Tue Mar 22 12:43:53 2016
GPGPU-Sim PTX: 85400000 instructions simulated : ctaid=(9,0,0) tid=(29,0,0)
GPGPU-Sim PTX: 85500000 instructions simulated : ctaid=(14,0,0) tid=(0,0,0)
GPGPU-Sim PTX: 85600000 instructions simulated : ctaid=(10,0,0) tid=(29,0,0)
GPGPU-Sim PTX: 85700000 instructions simulated : ctaid=(6,0,0) tid=(7,0,0)
GPGPU-Sim uArch: cycles simulated: 560000  inst.: 81200066 (ipc=145.0) sim_rate=319685 (inst/sec) elapsed = 0:0:04:14 / Tue Mar 22 12:43:54 2016
GPGPU-Sim PTX: 85800000 instructions simulated : ctaid=(4,0,0) tid=(10,0,0)
GPGPU-Sim PTX: 85900000 instructions simulated : ctaid=(0,0,0) tid=(23,0,0)
GPGPU-Sim PTX: 86000000 instructions simulated : ctaid=(4,0,0) tid=(27,0,0)
GPGPU-Sim PTX: 86100000 instructions simulated : ctaid=(14,0,0) tid=(14,0,0)
GPGPU-Sim uArch: cycles simulated: 562500  inst.: 81551715 (ipc=145.0) sim_rate=319810 (inst/sec) elapsed = 0:0:04:15 / Tue Mar 22 12:43:55 2016
GPGPU-Sim PTX: 86200000 instructions simulated : ctaid=(0,0,0) tid=(2,0,0)
GPGPU-Sim PTX: 86300000 instructions simulated : ctaid=(6,0,0) tid=(32,0,0)
GPGPU-Sim PTX: 86400000 instructions simulated : ctaid=(7,0,0) tid=(45,0,0)
GPGPU-Sim uArch: cycles simulated: 565000  inst.: 81910390 (ipc=145.0) sim_rate=319962 (inst/sec) elapsed = 0:0:04:16 / Tue Mar 22 12:43:56 2016
GPGPU-Sim PTX: 86500000 instructions simulated : ctaid=(2,0,0) tid=(36,0,0)
GPGPU-Sim PTX: 86600000 instructions simulated : ctaid=(12,0,0) tid=(44,0,0)
GPGPU-Sim PTX: 86700000 instructions simulated : ctaid=(4,0,0) tid=(45,0,0)
GPGPU-Sim PTX: 86800000 instructions simulated : ctaid=(13,0,0) tid=(15,0,0)
GPGPU-Sim uArch: cycles simulated: 567500  inst.: 82281551 (ipc=145.0) sim_rate=320161 (inst/sec) elapsed = 0:0:04:17 / Tue Mar 22 12:43:57 2016
GPGPU-Sim PTX: 86900000 instructions simulated : ctaid=(4,0,0) tid=(31,0,0)
GPGPU-Sim PTX: 87000000 instructions simulated : ctaid=(10,0,0) tid=(58,0,0)
GPGPU-Sim PTX: 87100000 instructions simulated : ctaid=(8,0,0) tid=(41,0,0)
GPGPU-Sim PTX: 87200000 instructions simulated : ctaid=(11,0,0) tid=(9,0,0)
GPGPU-Sim uArch: cycles simulated: 570000  inst.: 82645896 (ipc=145.0) sim_rate=320332 (inst/sec) elapsed = 0:0:04:18 / Tue Mar 22 12:43:58 2016
GPGPU-Sim PTX: 87300000 instructions simulated : ctaid=(4,0,0) tid=(63,0,0)
GPGPU-Sim PTX: 87400000 instructions simulated : ctaid=(6,0,0) tid=(10,0,0)
