

        *** GPGPU-Sim Simulator Version 3.2.2  [build 0] ***


GPGPU-Sim PTX: simulation mode 0 (can change with PTX_SIM_MODE_FUNC environment variable:
               1=functional simulation only, 0=detailed performance simulator)
GPGPU-Sim: Configuration options:

-network_mode                           1 # Interconnection network mode
-inter_config_file   config_fermi_islip.icnt # Interconnection network config file
-gpgpu_ptx_use_cuobjdump                    1 # Use cuobjdump to extract ptx and sass from binaries
-gpgpu_experimental_lib_support                    0 # Try to extract code from cuda libraries [Broken because of unknown cudaGetExportTable]
-gpgpu_ptx_convert_to_ptxplus                    0 # Convert SASS (native ISA) to ptxplus and run ptxplus
-gpgpu_ptx_force_max_capability                   20 # Force maximum compute capability
-gpgpu_ptx_inst_debug_to_file                    0 # Dump executed instructions' debug information to file
-gpgpu_ptx_inst_debug_file       inst_debug.txt # Executed instructions' debug output file
-gpgpu_ptx_inst_debug_thread_uid                    1 # Thread UID for executed instructions' debug output
-gpgpu_simd_model                       1 # 1 = post-dominator
-gpgpu_shader_core_pipeline              1536:32 # shader core pipeline config, i.e., {<nthread>:<warpsize>}
-gpgpu_tex_cache:l1  4:128:24,L:R:m:N:L,F:128:4,128:2 # per-shader L1 texture cache  (READ-ONLY) config  {<nsets>:<bsize>:<assoc>,<rep>:<wr>:<alloc>:<wr_alloc>,<mshr>:<N>:<merge>,<mq>:<rf>}
-gpgpu_const_cache:l1 64:64:2,L:R:f:N:L,A:2:32,4 # per-shader L1 constant memory cache  (READ-ONLY) config  {<nsets>:<bsize>:<assoc>,<rep>:<wr>:<alloc>:<wr_alloc>,<mshr>:<N>:<merge>,<mq>} 
-gpgpu_cache:il1     4:128:4,L:R:f:N:L,A:2:32,4 # shader L1 instruction cache config  {<nsets>:<bsize>:<assoc>,<rep>:<wr>:<alloc>:<wr_alloc>,<mshr>:<N>:<merge>,<mq>} 
-gpgpu_cache:dl1     32:128:4,L:L:m:N:H,A:32:8,8:2,0,1:0:1:1:0:1,1:4:8:16:32:64,/sciclone/data10/hwang07/GPU_RESEARCH/swl/swl_outputs/RESULTS/twolevel601/ # per-shader L1 data cache config  {<nsets>:<bsize>:<assoc>,<rep>:<wr>:<alloc>:<wr_alloc>,<mshr>:<N>:<merge>,<mq> | none}
-gpgpu_cache:dl1PrefL1                 none # per-shader L1 data cache config  {<nsets>:<bsize>:<assoc>,<rep>:<wr>:<alloc>:<wr_alloc>,<mshr>:<N>:<merge>,<mq> | none}
-gpgpu_cache:dl1PreShared                 none # per-shader L1 data cache config  {<nsets>:<bsize>:<assoc>,<rep>:<wr>:<alloc>:<wr_alloc>,<mshr>:<N>:<merge>,<mq> | none}
-gmem_skip_L1D                          0 # global memory access skip L1D cache (implements -Xptxas -dlcm=cg, default=no skip)
-gpgpu_perfect_mem                      0 # enable perfect memory mode (no cache miss)
-n_regfile_gating_group                    4 # group of lanes that should be read/written together)
-gpgpu_clock_gated_reg_file                    0 # enable clock gated reg file for power calculations
-gpgpu_clock_gated_lanes                    0 # enable clock gated lanes for power calculations
-gpgpu_shader_registers                32768 # Number of registers per shader core. Limits number of concurrent CTAs. (default 8192)
-gpgpu_shader_cta                       8 # Maximum number of concurrent CTAs in shader (default 8)
-gpgpu_num_cta_barriers                   16 # Maximum number of named barriers per CTA (default 16)
-gpgpu_n_clusters                      15 # number of processing clusters
-gpgpu_n_cores_per_cluster                    1 # number of simd cores per cluster
-gpgpu_n_cluster_ejection_buffer_size                    8 # number of packets in ejection buffer
-gpgpu_n_ldst_response_buffer_size                    2 # number of response packets in ld/st unit ejection buffer
-gpgpu_shmem_size                   16384 # Size of shared memory per shader core (default 16kB)
-gpgpu_shmem_size                   49152 # Size of shared memory per shader core (default 16kB)
-gpgpu_shmem_size_PrefL1                16384 # Size of shared memory per shader core (default 16kB)
-gpgpu_shmem_size_PrefShared                16384 # Size of shared memory per shader core (default 16kB)
-gpgpu_shmem_num_banks                   32 # Number of banks in the shared memory in each shader core (default 16)
-gpgpu_shmem_limited_broadcast                    0 # Limit shared memory to do one broadcast per cycle (default on)
-gpgpu_shmem_warp_parts                    1 # Number of portions a warp is divided into for shared memory bank conflict check 
-gpgpu_warpdistro_shader                   -1 # Specify which shader core to collect the warp size distribution from
-gpgpu_warp_issue_shader                    0 # Specify which shader core to collect the warp issue distribution from
-gpgpu_local_mem_map                    1 # Mapping from local memory space address to simulated GPU physical address space (default = enabled)
-gpgpu_num_reg_banks                   16 # Number of register banks (default = 8)
-gpgpu_reg_bank_use_warp_id                    0 # Use warp ID in mapping registers to banks (default = off)
-gpgpu_operand_collector_num_units_sp                    6 # number of collector units (default = 4)
-gpgpu_operand_collector_num_units_sfu                    8 # number of collector units (default = 4)
-gpgpu_operand_collector_num_units_mem                    2 # number of collector units (default = 2)
-gpgpu_operand_collector_num_units_gen                    0 # number of collector units (default = 0)
-gpgpu_operand_collector_num_in_ports_sp                    2 # number of collector unit in ports (default = 1)
-gpgpu_operand_collector_num_in_ports_sfu                    1 # number of collector unit in ports (default = 1)
-gpgpu_operand_collector_num_in_ports_mem                    1 # number of collector unit in ports (default = 1)
-gpgpu_operand_collector_num_in_ports_gen                    0 # number of collector unit in ports (default = 0)
-gpgpu_operand_collector_num_out_ports_sp                    2 # number of collector unit in ports (default = 1)
-gpgpu_operand_collector_num_out_ports_sfu                    1 # number of collector unit in ports (default = 1)
-gpgpu_operand_collector_num_out_ports_mem                    1 # number of collector unit in ports (default = 1)
-gpgpu_operand_collector_num_out_ports_gen                    0 # number of collector unit in ports (default = 0)
-gpgpu_coalesce_arch                   13 # Coalescing arch (default = 13, anything else is off for now)
-gpgpu_num_sched_per_core                    2 # Number of warp schedulers per core
-gpgpu_max_insn_issue_per_warp                    1 # Max number of instructions that can be issued per warp in one cycle by scheduler
-gpgpu_simt_core_sim_order                    1 # Select the simulation order of cores in a cluster (0=Fix, 1=Round-Robin)
-gpgpu_pipeline_widths        2,1,1,2,1,1,2 # Pipeline widths ID_OC_SP,ID_OC_SFU,ID_OC_MEM,OC_EX_SP,OC_EX_SFU,OC_EX_MEM,EX_WB
-gpgpu_num_sp_units                     2 # Number of SP units (default=1)
-gpgpu_num_sfu_units                    1 # Number of SF units (default=1)
-gpgpu_num_mem_units                    1 # Number if ldst units (default=1) WARNING: not hooked up to anything
-gpgpu_scheduler     two_level_active:6:0:1 # Scheduler configuration: < lrr | gto | two_level_active > If two_level_active:<num_active_warps>:<inner_prioritization>:<outer_prioritization>For complete list of prioritization values see shader.h enum scheduler_prioritization_typeDefault: gto
-gpgpu_dram_scheduler                    1 # 0 = fifo, 1 = FR-FCFS (defaul)
-gpgpu_dram_partition_queues              8:8:8:8 # i2$:$2d:d2$:$2i
-l2_ideal                               0 # Use a ideal L2 cache that always hit
-gpgpu_cache:dl2     64:128:8,L:B:m:W:L,A:32:4,4:0,32 # unified banked L2 data cache config  {<nsets>:<bsize>:<assoc>,<rep>:<wr>:<alloc>:<wr_alloc>,<mshr>:<N>:<merge>,<mq>}
-gpgpu_cache:dl2_texture_only                    0 # L2 cache used for texture only
-gpgpu_n_mem                            6 # number of memory modules (e.g. memory controllers) in gpu
-gpgpu_n_sub_partition_per_mchannel                    2 # number of memory subpartition in each memory module
-gpgpu_n_mem_per_ctrlr                    2 # number of memory chips per memory controller
-gpgpu_memlatency_stat                   14 # track and display latency statistics 0x2 enables MC, 0x4 enables queue logs
-gpgpu_frfcfs_dram_sched_queue_size                   16 # 0 = unlimited (default); # entries per chip
-gpgpu_dram_return_queue_size                  116 # 0 = unlimited (default); # entries per chip
-gpgpu_dram_buswidth                    4 # default = 4 bytes (8 bytes per cycle at DDR)
-gpgpu_dram_burst_length                    8 # Burst length of each DRAM request (default = 4 data bus cycle)
-dram_data_command_freq_ratio                    4 # Frequency ratio between DRAM data bus and command bus (default = 2 times, i.e. DDR)
-gpgpu_dram_timing_opt nbk=16:CCD=2:RRD=6:RCD=12:RAS=28:RP=12:RC=40: CL=12:WL=4:CDLR=5:WR=12:nbkgrp=4:CCDL=3:RTPL=2 # DRAM timing parameters = {nbk:tCCD:tRRD:tRCD:tRAS:tRP:tRC:CL:WL:tCDLR:tWR:nbkgrp:tCCDL:tRTPL}
-rop_latency                          120 # ROP queue latency (default 85)
-dram_latency                         100 # DRAM latency (default 30)
-gpgpu_mem_addr_mapping dramid@8;00000000.00000000.00000000.00000000.0000RRRR.RRRRRRRR.BBBCCCCB.CCSSSSSS # mapping memory address to dram model {dramid@<start bit>;<memory address map>}
-gpgpu_mem_addr_test                    0 # run sweep test to check address mapping for aliased address
-gpgpu_mem_address_mask                    1 # 0 = old addressing mask, 1 = new addressing mask, 2 = new add. mask + flipped bank sel and chip sel bits
-gpuwattch_xml_file  gpuwattch_gtx480.xml # GPUWattch XML file
-power_simulation_enabled                    0 # Turn on power simulator (1=On, 0=Off)
-power_per_cycle_dump                    0 # Dump detailed power output each cycle
-power_trace_enabled                    0 # produce a file for the power trace (1=On, 0=Off)
-power_trace_zlevel                     6 # Compression level of the power trace output log (0=no comp, 9=highest)
-steady_power_levels_enabled                    0 # produce a file for the steady power levels (1=On, 0=Off)
-steady_state_definition                  8:4 # allowed deviation:number of samples
-gpgpu_max_cycle                        0 # terminates gpu simulation early (0 = no limit)
-gpgpu_max_insn                         0 # terminates gpu simulation early (0 = no limit)
-gpgpu_max_cta                          0 # terminates gpu simulation early (0 = no limit)
-gpgpu_runtime_stat                   500 # display runtime statistics such as dram utilization {<freq>:<flag>}
-liveness_message_freq                    1 # Minimum number of seconds between simulation liveness messages (0 = always print)
-gpgpu_flush_l1_cache                    0 # Flush L1 cache at the end of each kernel call
-gpgpu_flush_l2_cache                    0 # Flush L2 cache at the end of each kernel call
-gpgpu_deadlock_detect                    1 # Stop the simulation at deadlock (1=on (default), 0=off)
-gpgpu_ptx_instruction_classification                    0 # if enabled will classify ptx instruction types per kernel (Max 255 kernels now)
-gpgpu_ptx_sim_mode                     0 # Select between Performance (default) or Functional simulation (1)
-gpgpu_clock_domains 700.0:700.0:700.0:924.0 # Clock Domain Frequencies in MhZ {<Core Clock>:<ICNT Clock>:<L2 Clock>:<DRAM Clock>}
-gpgpu_max_concurrent_kernel                    8 # maximum kernels that can run concurrently on GPU
-gpgpu_cflog_interval                    0 # Interval between each snapshot in control flow logger
-visualizer_enabled                     0 # Turn on visualizer output (1=On, 0=Off)
-visualizer_outputfile                 NULL # Specifies the output log file for visualizer
-visualizer_zlevel                      6 # Compression level of the visualizer output log (0=no comp, 9=highest)
-trace_enabled                          0 # Turn on traces
-trace_components                    none # comma seperated list of traces to enable. Complete list found in trace_streams.tup. Default none
-trace_sampling_core                    0 # The core which is printed using CORE_DPRINTF. Default 0
-trace_sampling_memory_partition                   -1 # The memory partition which is printed using MEMPART_DPRINTF. Default -1 (i.e. all)
-enable_ptx_file_line_stats                    1 # Turn on PTX source line statistic profiling. (1 = On)
-ptx_line_stats_filename gpgpu_inst_stats.txt # Output file for PTX source line statistics.
-save_embedded_ptx                      0 # saves ptx files embedded in binary as <n>.ptx
-keep                                   0 # keep intermediate files created by GPGPU-Sim when interfacing with external programs
-gpgpu_ptx_save_converted_ptxplus                    0 # Saved converted ptxplus to a file
-ptx_opcode_latency_int         4,13,4,5,145 # Opcode latencies for integers <ADD,MAX,MUL,MAD,DIV>Default 1,1,19,25,145
-ptx_opcode_latency_fp          4,13,4,5,39 # Opcode latencies for single precision floating points <ADD,MAX,MUL,MAD,DIV>Default 1,1,1,1,30
-ptx_opcode_latency_dp         8,19,8,8,330 # Opcode latencies for double precision floating points <ADD,MAX,MUL,MAD,DIV>Default 8,8,8,8,335
-ptx_opcode_initiation_int            1,2,2,1,8 # Opcode initiation intervals for integers <ADD,MAX,MUL,MAD,DIV>Default 1,1,4,4,32
-ptx_opcode_initiation_fp            1,2,1,1,4 # Opcode initiation intervals for single precision floating points <ADD,MAX,MUL,MAD,DIV>Default 1,1,1,1,5
-ptx_opcode_initiation_dp         8,16,8,8,130 # Opcode initiation intervals for double precision floating points <ADD,MAX,MUL,MAD,DIV>Default 8,8,8,8,130
DRAM Timing Options:
nbk                                    16 # number of banks
CCD                                     2 # column to column delay
RRD                                     6 # minimal delay between activation of rows in different banks
RCD                                    12 # row to column delay
RAS                                    28 # time needed to activate row
RP                                     12 # time needed to precharge (deactivate) row
RC                                     40 # row cycle time
CDLR                                    5 # switching from write to read (changes tWTR)
WR                                     12 # last data-in to row precharge
CL                                     12 # CAS latency
WL                                      4 # Write latency
nbkgrp                                  4 # number of bank groups
CCDL                                    3 # column to column delay between accesses to different bank groups
RTPL                                    2 # read to precharge delay between accesses to different bank groups
Total number of memory sub partition = 12
addr_dec_mask[CHIP]  = 0000000000000000 	high:64 low:0
addr_dec_mask[BK]    = 000000000000e100 	high:16 low:8
addr_dec_mask[ROW]   = 000000000fff0000 	high:28 low:16
addr_dec_mask[COL]   = 0000000000001eff 	high:13 low:0
addr_dec_mask[BURST] = 000000000000003f 	high:6 low:0
sub_partition_id_mask = 0000000000000100
GPGPU-Sim uArch: clock freqs: 700000000.000000:700000000.000000:700000000.000000:924000000.000000
GPGPU-Sim uArch: clock periods: 0.00000000142857142857:0.00000000142857142857:0.00000000142857142857:0.00000000108225108225
*** Initializing Memory Statistics ***
GPGPU-Sim uArch: interconnect node map (shaderID+MemID to icntID)
GPGPU-Sim uArch: Memory nodes ID start from index: 15
GPGPU-Sim uArch:    0   1   2   3   4
GPGPU-Sim uArch:    5   6   7   8   9
GPGPU-Sim uArch:   10  11  12  13  14
GPGPU-Sim uArch:   15  16  17  18  19
GPGPU-Sim uArch:   20  21  22  23  24
GPGPU-Sim uArch:   25  26
GPGPU-Sim uArch: interconnect node reverse map (icntID to shaderID+MemID)
GPGPU-Sim uArch: Memory nodes start from ID: 15
GPGPU-Sim uArch:    0   1   2   3   4
GPGPU-Sim uArch:    5   6   7   8   9
GPGPU-Sim uArch:   10  11  12  13  14
GPGPU-Sim uArch:   15  16  17  18  19
GPGPU-Sim uArch:   20  21  22  23  24
GPGPU-Sim uArch:   25  26
2da471e6a07416e5693a12f48faeb39d  /sciclone/data10/hwang07/adwait/applications/benchmarks/rodinia/cuda/backprop/gpgpu_ptx_sim__backprop
GPGPU-Sim uArch: performance model initialization complete.
GPGPU-Sim PTX: __cudaRegisterFatBinary, fat_cubin_handle = 1, filename=backprop_cuda.cu
self exe links to: /sciclone/data10/hwang07/adwait/applications/benchmarks/rodinia/cuda/backprop/gpgpu_ptx_sim__backprop
Running md5sum using "md5sum /sciclone/data10/hwang07/adwait/applications/benchmarks/rodinia/cuda/backprop/gpgpu_ptx_sim__backprop "
Parsing file _cuobjdump_complete_output_10X5CF
######### cuobjdump parser ########
## Adding new section ELF
Adding arch: sm_20
Adding identifier: backprop_cuda.cu
## Adding new section PTX
Adding ptx filename: _cuobjdump_1.ptx
Adding arch: sm_20
Adding identifier: backprop_cuda.cu
Done parsing!!!
GPGPU-Sim PTX: __cudaRegisterFunction _Z24bpnn_adjust_weights_cudaPfiS_iS_S_ : hostFun 0x0x402f24, fat_cubin_handle = 1
GPGPU-Sim PTX: allocating shared region for "__cuda___cuda_local_var_39781_34_non_const_input_node40" from 0x0 to 0x40 (shared memory space)
GPGPU-Sim PTX: allocating shared region for "__cuda___cuda_local_var_39782_34_non_const_weight_matrix104" from 0x80 to 0x480 (shared memory space)
GPGPU-Sim PTX: instruction assembly for function '_Z22bpnn_layerforward_CUDAPfS_S_S_ii'...   done.
GPGPU-Sim PTX: finding reconvergence points for '_Z22bpnn_layerforward_CUDAPfS_S_S_ii'...
GPGPU-Sim PTX: Finding dominators for '_Z22bpnn_layerforward_CUDAPfS_S_S_ii'...
GPGPU-Sim PTX: Finding immediate dominators for '_Z22bpnn_layerforward_CUDAPfS_S_S_ii'...
GPGPU-Sim PTX: Finding postdominators for '_Z22bpnn_layerforward_CUDAPfS_S_S_ii'...
GPGPU-Sim PTX: Finding immediate postdominators for '_Z22bpnn_layerforward_CUDAPfS_S_S_ii'...
GPGPU-Sim PTX: pre-decoding instructions for '_Z22bpnn_layerforward_CUDAPfS_S_S_ii'...
GPGPU-Sim PTX: reconvergence points for _Z22bpnn_layerforward_CUDAPfS_S_S_ii...
GPGPU-Sim PTX:  1 (potential) branch divergence @  PC=0x048 (_1.ptx:76) @!%p1 bra $Lt_0_3586;
GPGPU-Sim PTX:    immediate post dominator      @  PC=0x090 (_1.ptx:88) bar.sync 0;
GPGPU-Sim PTX:  2 (potential) branch divergence @  PC=0x190 (_1.ptx:125) @!%p2 bra $Lt_0_4098;
GPGPU-Sim PTX:    immediate post dominator      @  PC=0x290 (_1.ptx:166) ld.shared.f32 %f17, [%rd14+0];
GPGPU-Sim PTX:  3 (potential) branch divergence @  PC=0x1e8 (_1.ptx:139) @%p3 bra $Lt_0_4866;
GPGPU-Sim PTX:    immediate post dominator      @  PC=0x268 (_1.ptx:158) bar.sync 0;
GPGPU-Sim PTX:  4 (potential) branch divergence @  PC=0x288 (_1.ptx:163) @%p4 bra $Lt_0_4610;
GPGPU-Sim PTX:    immediate post dominator      @  PC=0x290 (_1.ptx:166) ld.shared.f32 %f17, [%rd14+0];
GPGPU-Sim PTX:  5 (potential) branch divergence @  PC=0x2a8 (_1.ptx:170) @!%p1 bra $Lt_0_5634;
GPGPU-Sim PTX:    immediate post dominator      @  PC=0x310 (_1.ptx:186) exit;
GPGPU-Sim PTX: ... end of reconvergence points for _Z22bpnn_layerforward_CUDAPfS_S_S_ii
GPGPU-Sim PTX: ... done pre-decoding instructions for '_Z22bpnn_layerforward_CUDAPfS_S_S_ii'.
GPGPU-Sim PTX: instruction assembly for function '_Z24bpnn_adjust_weights_cudaPfiS_iS_S_'...   done.
GPGPU-Sim PTX: finding reconvergence points for '_Z24bpnn_adjust_weights_cudaPfiS_iS_S_'...
GPGPU-Sim PTX: Finding dominators for '_Z24bpnn_adjust_weights_cudaPfiS_iS_S_'...
GPGPU-Sim PTX: Finding immediate dominators for '_Z24bpnn_adjust_weights_cudaPfiS_iS_S_'...
GPGPU-Sim PTX: Finding postdominators for '_Z24bpnn_adjust_weights_cudaPfiS_iS_S_'...
GPGPU-Sim PTX: Finding immediate postdominators for '_Z24bpnn_adjust_weights_cudaPfiS_iS_S_'...
GPGPU-Sim PTX: pre-decoding instructions for '_Z24bpnn_adjust_weights_cudaPfiS_iS_S_'...
GPGPU-Sim PTX: reconvergence points for _Z24bpnn_adjust_weights_cudaPfiS_iS_S_...
GPGPU-Sim PTX:  1 (potential) branch divergence @  PC=0x530 (_1.ptx:275) @%p1 bra $Lt_1_1282;
GPGPU-Sim PTX:    immediate post dominator      @  PC=0x600 (_1.ptx:305) exit;
GPGPU-Sim PTX: ... end of reconvergence points for _Z24bpnn_adjust_weights_cudaPfiS_iS_S_
GPGPU-Sim PTX: ... done pre-decoding instructions for '_Z24bpnn_adjust_weights_cudaPfiS_iS_S_'.
GPGPU-Sim PTX: finished parsing EMBEDDED .ptx file _1.ptx
Adding _cuobjdump_1.ptx with cubin handle 1
GPGPU-Sim PTX: extracting embedded .ptx to temporary file "_ptx_PhS4a3"
Running: cat _ptx_PhS4a3 | sed 's/.version 1.5/.version 1.4/' | sed 's/, texmode_independent//' | sed 's/\(\.extern \.const\[1\] .b8 \w\+\)\[\]/\1\[1\]/' | sed 's/const\[.\]/const\[0\]/g' > _ptx2_zLVKDr
GPGPU-Sim PTX: generating ptxinfo using "$CUDA_INSTALL_PATH/bin/ptxas --gpu-name=sm_20 -v _ptx2_zLVKDr --output-file  /dev/null 2> _ptx_PhS4a3info"
GPGPU-Sim PTX: Kernel '_Z24bpnn_adjust_weights_cudaPfiS_iS_S_' : regs=22, lmem=0, smem=0, cmem=80
GPGPU-Sim PTX: Kernel '_Z22bpnn_layerforward_CUDAPfS_S_S_ii' : regs=13, lmem=0, smem=1088, cmem=72
GPGPU-Sim PTX: removing ptxinfo using "rm -f _ptx_PhS4a3 _ptx2_zLVKDr _ptx_PhS4a3info"
GPGPU-Sim PTX: loading globals with explicit initializers... 
GPGPU-Sim PTX: finished loading globals (0 bytes total).
GPGPU-Sim PTX: loading constants with explicit initializers...  done.
GPGPU-Sim PTX: __cudaRegisterFunction _Z22bpnn_layerforward_CUDAPfS_S_S_ii : hostFun 0x0x402dc8, fat_cubin_handle = 1
Random number generator seed: 7
Input layer size : 65536
Starting training kernel
Performing GPU computation

GPGPU-Sim PTX: cudaLaunch for 0x0x402dc8 (mode=performance simulation) on stream 0
GPGPU-Sim PTX: pushing kernel '_Z22bpnn_layerforward_CUDAPfS_S_S_ii' to stream 0, gridDim= (1,4096,1) blockDim = (16,16,1) 
kernel '_Z22bpnn_layerforward_CUDAPfS_S_S_ii' transfer to GPU hardware scheduler
GPGPU-Sim uArch: Shader 1 bind to kernel 1 '_Z22bpnn_layerforward_CUDAPfS_S_S_ii'
GPGPU-Sim uArch: CTA/core = 6, limited by: threads
GPGPU-Sim uArch: core:  1, cta: 0 initialized @(1,0)
GPGPU-Sim uArch: Shader 2 bind to kernel 1 '_Z22bpnn_layerforward_CUDAPfS_S_S_ii'
GPGPU-Sim uArch: core:  2, cta: 0 initialized @(1,0)
GPGPU-Sim uArch: Shader 3 bind to kernel 1 '_Z22bpnn_layerforward_CUDAPfS_S_S_ii'
GPGPU-Sim uArch: core:  3, cta: 0 initialized @(1,0)
GPGPU-Sim uArch: Shader 4 bind to kernel 1 '_Z22bpnn_layerforward_CUDAPfS_S_S_ii'
GPGPU-Sim uArch: core:  4, cta: 0 initialized @(1,0)
GPGPU-Sim uArch: Shader 5 bind to kernel 1 '_Z22bpnn_layerforward_CUDAPfS_S_S_ii'
GPGPU-Sim uArch: core:  5, cta: 0 initialized @(1,0)
GPGPU-Sim uArch: Shader 6 bind to kernel 1 '_Z22bpnn_layerforward_CUDAPfS_S_S_ii'
GPGPU-Sim uArch: core:  6, cta: 0 initialized @(1,0)
GPGPU-Sim uArch: Shader 7 bind to kernel 1 '_Z22bpnn_layerforward_CUDAPfS_S_S_ii'
GPGPU-Sim uArch: core:  7, cta: 0 initialized @(1,0)
GPGPU-Sim uArch: Shader 8 bind to kernel 1 '_Z22bpnn_layerforward_CUDAPfS_S_S_ii'
GPGPU-Sim uArch: core:  8, cta: 0 initialized @(1,0)
GPGPU-Sim uArch: Shader 9 bind to kernel 1 '_Z22bpnn_layerforward_CUDAPfS_S_S_ii'
GPGPU-Sim uArch: core:  9, cta: 0 initialized @(1,0)
GPGPU-Sim uArch: Shader 10 bind to kernel 1 '_Z22bpnn_layerforward_CUDAPfS_S_S_ii'
GPGPU-Sim uArch: core: 10, cta: 0 initialized @(1,0)
GPGPU-Sim uArch: Shader 11 bind to kernel 1 '_Z22bpnn_layerforward_CUDAPfS_S_S_ii'
GPGPU-Sim uArch: core: 11, cta: 0 initialized @(1,0)
GPGPU-Sim uArch: Shader 12 bind to kernel 1 '_Z22bpnn_layerforward_CUDAPfS_S_S_ii'
GPGPU-Sim uArch: core: 12, cta: 0 initialized @(1,0)
GPGPU-Sim uArch: Shader 13 bind to kernel 1 '_Z22bpnn_layerforward_CUDAPfS_S_S_ii'
GPGPU-Sim uArch: core: 13, cta: 0 initialized @(1,0)
GPGPU-Sim uArch: Shader 14 bind to kernel 1 '_Z22bpnn_layerforward_CUDAPfS_S_S_ii'
GPGPU-Sim uArch: core: 14, cta: 0 initialized @(1,0)
GPGPU-Sim uArch: Shader 0 bind to kernel 1 '_Z22bpnn_layerforward_CUDAPfS_S_S_ii'
GPGPU-Sim uArch: core:  0, cta: 0 initialized @(1,0)
GPGPU-Sim uArch: core:  1, cta: 1 initialized @(2,0)
GPGPU-Sim uArch: core:  2, cta: 1 initialized @(2,0)
GPGPU-Sim uArch: core:  3, cta: 1 initialized @(2,0)
GPGPU-Sim uArch: core:  4, cta: 1 initialized @(2,0)
GPGPU-Sim uArch: core:  5, cta: 1 initialized @(2,0)
GPGPU-Sim uArch: core:  6, cta: 1 initialized @(2,0)
GPGPU-Sim uArch: core:  7, cta: 1 initialized @(2,0)
GPGPU-Sim uArch: core:  8, cta: 1 initialized @(2,0)
GPGPU-Sim uArch: core:  9, cta: 1 initialized @(2,0)
GPGPU-Sim uArch: core: 10, cta: 1 initialized @(2,0)
GPGPU-Sim uArch: core: 11, cta: 1 initialized @(2,0)
GPGPU-Sim uArch: core: 12, cta: 1 initialized @(2,0)
GPGPU-Sim uArch: core: 13, cta: 1 initialized @(2,0)
GPGPU-Sim uArch: core: 14, cta: 1 initialized @(2,0)
GPGPU-Sim uArch: core:  0, cta: 1 initialized @(2,0)
GPGPU-Sim uArch: core:  1, cta: 2 initialized @(3,0)
GPGPU-Sim uArch: core:  2, cta: 2 initialized @(3,0)
GPGPU-Sim uArch: core:  3, cta: 2 initialized @(3,0)
GPGPU-Sim uArch: core:  4, cta: 2 initialized @(3,0)
GPGPU-Sim uArch: core:  5, cta: 2 initialized @(3,0)
GPGPU-Sim uArch: core:  6, cta: 2 initialized @(3,0)
GPGPU-Sim uArch: core:  7, cta: 2 initialized @(3,0)
GPGPU-Sim uArch: core:  8, cta: 2 initialized @(3,0)
GPGPU-Sim uArch: core:  9, cta: 2 initialized @(3,0)
GPGPU-Sim uArch: core: 10, cta: 2 initialized @(3,0)
GPGPU-Sim uArch: core: 11, cta: 2 initialized @(3,0)
GPGPU-Sim uArch: core: 12, cta: 2 initialized @(3,0)
GPGPU-Sim uArch: core: 13, cta: 2 initialized @(3,0)
GPGPU-Sim uArch: core: 14, cta: 2 initialized @(3,0)
GPGPU-Sim uArch: core:  0, cta: 2 initialized @(3,0)
GPGPU-Sim uArch: core:  1, cta: 3 initialized @(4,0)
GPGPU-Sim uArch: core:  2, cta: 3 initialized @(4,0)
GPGPU-Sim uArch: core:  3, cta: 3 initialized @(4,0)
GPGPU-Sim uArch: core:  4, cta: 3 initialized @(4,0)
GPGPU-Sim uArch: core:  5, cta: 3 initialized @(4,0)
GPGPU-Sim uArch: core:  6, cta: 3 initialized @(4,0)
GPGPU-Sim uArch: core:  7, cta: 3 initialized @(4,0)
GPGPU-Sim uArch: core:  8, cta: 3 initialized @(4,0)
GPGPU-Sim uArch: core:  9, cta: 3 initialized @(4,0)
GPGPU-Sim uArch: core: 10, cta: 3 initialized @(4,0)
GPGPU-Sim uArch: core: 11, cta: 3 initialized @(4,0)
GPGPU-Sim uArch: core: 12, cta: 3 initialized @(4,0)
GPGPU-Sim uArch: core: 13, cta: 3 initialized @(4,0)
GPGPU-Sim uArch: core: 14, cta: 3 initialized @(4,0)
GPGPU-Sim uArch: core:  0, cta: 3 initialized @(4,0)
GPGPU-Sim uArch: core:  1, cta: 4 initialized @(5,0)
GPGPU-Sim uArch: core:  2, cta: 4 initialized @(5,0)
GPGPU-Sim uArch: core:  3, cta: 4 initialized @(5,0)
GPGPU-Sim uArch: core:  4, cta: 4 initialized @(5,0)
GPGPU-Sim uArch: core:  5, cta: 4 initialized @(5,0)
GPGPU-Sim uArch: core:  6, cta: 4 initialized @(5,0)
GPGPU-Sim uArch: core:  7, cta: 4 initialized @(5,0)
GPGPU-Sim uArch: core:  8, cta: 4 initialized @(5,0)
GPGPU-Sim uArch: core:  9, cta: 4 initialized @(5,0)
GPGPU-Sim uArch: core: 10, cta: 4 initialized @(5,0)
GPGPU-Sim uArch: core: 11, cta: 4 initialized @(5,0)
GPGPU-Sim uArch: core: 12, cta: 4 initialized @(5,0)
GPGPU-Sim uArch: core: 13, cta: 4 initialized @(5,0)
GPGPU-Sim uArch: core: 14, cta: 4 initialized @(5,0)
GPGPU-Sim uArch: core:  0, cta: 4 initialized @(5,0)
GPGPU-Sim uArch: core:  1, cta: 5 initialized @(6,0)
GPGPU-Sim uArch: core:  2, cta: 5 initialized @(6,0)
GPGPU-Sim uArch: core:  3, cta: 5 initialized @(6,0)
GPGPU-Sim uArch: core:  4, cta: 5 initialized @(6,0)
GPGPU-Sim uArch: core:  5, cta: 5 initialized @(6,0)
GPGPU-Sim uArch: core:  6, cta: 5 initialized @(6,0)
GPGPU-Sim uArch: core:  7, cta: 5 initialized @(6,0)
GPGPU-Sim uArch: core:  8, cta: 5 initialized @(6,0)
GPGPU-Sim uArch: core:  9, cta: 5 initialized @(6,0)
GPGPU-Sim uArch: core: 10, cta: 5 initialized @(6,0)
GPGPU-Sim uArch: core: 11, cta: 5 initialized @(6,0)
GPGPU-Sim uArch: core: 12, cta: 5 initialized @(6,0)
GPGPU-Sim uArch: core: 13, cta: 5 initialized @(6,0)
GPGPU-Sim uArch: core: 14, cta: 5 initialized @(6,0)
GPGPU-Sim uArch: core:  0, cta: 5 initialized @(6,0)
GPGPU-Sim PTX: 100000 instructions simulated : ctaid=(0,35,0) tid=(9,7,0)
GPGPU-Sim uArch: cycles simulated: 500  inst.: 93864 (ipc=187.7) sim_rate=46932 (inst/sec) elapsed = 0:0:00:02 / Tue Mar 22 13:24:03 2016
GPGPU-Sim PTX: 200000 instructions simulated : ctaid=(0,70,0) tid=(13,13,0)
GPGPU-Sim uArch: cycles simulated: 1000  inst.: 231850 (ipc=231.8) sim_rate=33121 (inst/sec) elapsed = 0:0:00:07 / Tue Mar 22 13:24:08 2016
GPGPU-Sim PTX: 300000 instructions simulated : ctaid=(0,71,0) tid=(3,15,0)
GPGPU-Sim uArch: cycles simulated: 1500  inst.: 341812 (ipc=227.9) sim_rate=42726 (inst/sec) elapsed = 0:0:00:08 / Tue Mar 22 13:24:09 2016
GPGPU-Sim PTX: 400000 instructions simulated : ctaid=(0,28,0) tid=(15,9,0)
GPGPU-Sim PTX: 500000 instructions simulated : ctaid=(0,44,0) tid=(13,2,0)
GPGPU-Sim PTX: 600000 instructions simulated : ctaid=(0,26,0) tid=(3,1,0)
GPGPU-Sim PTX: 700000 instructions simulated : ctaid=(0,9,0) tid=(15,7,0)
GPGPU-Sim PTX: 800000 instructions simulated : ctaid=(0,3,0) tid=(15,3,0)
GPGPU-Sim uArch: cycles simulated: 2500  inst.: 796512 (ipc=318.6) sim_rate=88501 (inst/sec) elapsed = 0:0:00:09 / Tue Mar 22 13:24:10 2016
GPGPU-Sim PTX: 900000 instructions simulated : ctaid=(0,46,0) tid=(15,14,0)
GPGPU-Sim PTX: 1000000 instructions simulated : ctaid=(0,89,0) tid=(15,8,0)
GPGPU-Sim uArch: cycles simulated: 3500  inst.: 1034048 (ipc=295.4) sim_rate=103404 (inst/sec) elapsed = 0:0:00:10 / Tue Mar 22 13:24:11 2016
GPGPU-Sim PTX: 1100000 instructions simulated : ctaid=(0,61,0) tid=(15,15,0)
GPGPU-Sim PTX: 1200000 instructions simulated : ctaid=(0,67,0) tid=(15,1,0)
GPGPU-Sim PTX: 1300000 instructions simulated : ctaid=(0,28,0) tid=(15,0,0)
GPGPU-Sim PTX: 1400000 instructions simulated : ctaid=(0,84,0) tid=(15,8,0)
GPGPU-Sim PTX: 1500000 instructions simulated : ctaid=(0,9,0) tid=(15,15,0)
GPGPU-Sim uArch: cycles simulated: 4500  inst.: 1504768 (ipc=334.4) sim_rate=136797 (inst/sec) elapsed = 0:0:00:11 / Tue Mar 22 13:24:12 2016
GPGPU-Sim PTX: 1600000 instructions simulated : ctaid=(0,55,0) tid=(15,4,0)
GPGPU-Sim PTX: 1700000 instructions simulated : ctaid=(0,68,0) tid=(15,12,0)
GPGPU-Sim PTX: 1800000 instructions simulated : ctaid=(0,24,0) tid=(3,13,0)
GPGPU-Sim PTX: 1900000 instructions simulated : ctaid=(0,23,0) tid=(7,11,0)
GPGPU-Sim uArch: cycles simulated: 5500  inst.: 1944306 (ipc=353.5) sim_rate=162025 (inst/sec) elapsed = 0:0:00:12 / Tue Mar 22 13:24:13 2016
GPGPU-Sim PTX: 2000000 instructions simulated : ctaid=(0,84,0) tid=(11,14,0)
GPGPU-Sim uArch: Shader 2 finished CTA #5 (5569,0), 5 CTAs running
GPGPU-Sim uArch: Shader 3 finished CTA #4 (5569,0), 5 CTAs running
GPGPU-Sim uArch: core:  2, cta: 5 initialized @(5570,0)
GPGPU-Sim uArch: core:  3, cta: 4 initialized @(5570,0)
GPGPU-Sim uArch: Shader 2 finished CTA #3 (5645,0), 5 CTAs running
GPGPU-Sim uArch: core:  2, cta: 3 initialized @(5646,0)
GPGPU-Sim PTX: 2100000 instructions simulated : ctaid=(0,19,0) tid=(3,8,0)
GPGPU-Sim uArch: Shader 7 finished CTA #4 (5788,0), 5 CTAs running
GPGPU-Sim uArch: core:  7, cta: 4 initialized @(5789,0)
GPGPU-Sim uArch: Shader 5 finished CTA #4 (5800,0), 5 CTAs running
GPGPU-Sim uArch: core:  5, cta: 4 initialized @(5801,0)
GPGPU-Sim uArch: Shader 0 finished CTA #2 (5822,0), 5 CTAs running
GPGPU-Sim uArch: core:  0, cta: 2 initialized @(5823,0)
GPGPU-Sim uArch: Shader 2 finished CTA #1 (5882,0), 5 CTAs running
GPGPU-Sim uArch: core:  2, cta: 1 initialized @(5883,0)
GPGPU-Sim uArch: Shader 5 finished CTA #5 (5889,0), 5 CTAs running
GPGPU-Sim uArch: core:  5, cta: 5 initialized @(5890,0)
GPGPU-Sim uArch: Shader 7 finished CTA #0 (5905,0), 5 CTAs running
GPGPU-Sim uArch: core:  7, cta: 0 initialized @(5906,0)
GPGPU-Sim uArch: Shader 9 finished CTA #2 (5935,0), 5 CTAs running
GPGPU-Sim uArch: core:  9, cta: 2 initialized @(5936,0)
GPGPU-Sim uArch: Shader 14 finished CTA #5 (5968,0), 5 CTAs running
GPGPU-Sim uArch: core: 14, cta: 5 initialized @(5969,0)
GPGPU-Sim PTX: 2200000 instructions simulated : ctaid=(0,53,0) tid=(1,1,0)
GPGPU-Sim uArch: Shader 13 finished CTA #0 (6029,0), 5 CTAs running
GPGPU-Sim uArch: core: 13, cta: 0 initialized @(6030,0)
GPGPU-Sim uArch: Shader 3 finished CTA #1 (6126,0), 5 CTAs running
GPGPU-Sim uArch: core:  3, cta: 1 initialized @(6127,0)
GPGPU-Sim uArch: Shader 5 finished CTA #0 (6130,0), 5 CTAs running
GPGPU-Sim uArch: core:  5, cta: 0 initialized @(6131,0)
GPGPU-Sim uArch: Shader 7 finished CTA #5 (6162,0), 5 CTAs running
GPGPU-Sim uArch: core:  7, cta: 5 initialized @(6163,0)
GPGPU-Sim uArch: Shader 0 finished CTA #5 (6221,0), 5 CTAs running
GPGPU-Sim uArch: core:  0, cta: 5 initialized @(6222,0)
GPGPU-Sim PTX: 2300000 instructions simulated : ctaid=(0,86,0) tid=(7,4,0)
GPGPU-Sim uArch: Shader 14 finished CTA #4 (6228,0), 5 CTAs running
GPGPU-Sim uArch: core: 14, cta: 4 initialized @(6229,0)
GPGPU-Sim uArch: Shader 8 finished CTA #5 (6272,0), 5 CTAs running
GPGPU-Sim uArch: core:  8, cta: 5 initialized @(6273,0)
GPGPU-Sim uArch: Shader 13 finished CTA #4 (6274,0), 5 CTAs running
GPGPU-Sim uArch: core: 13, cta: 4 initialized @(6275,0)
GPGPU-Sim uArch: Shader 9 finished CTA #5 (6290,0), 5 CTAs running
GPGPU-Sim uArch: core:  9, cta: 5 initialized @(6291,0)
GPGPU-Sim uArch: Shader 8 finished CTA #1 (6392,0), 5 CTAs running
GPGPU-Sim uArch: core:  8, cta: 1 initialized @(6393,0)
GPGPU-Sim uArch: Shader 10 finished CTA #4 (6442,0), 5 CTAs running
GPGPU-Sim uArch: core: 10, cta: 4 initialized @(6443,0)
GPGPU-Sim PTX: 2400000 instructions simulated : ctaid=(0,59,0) tid=(7,8,0)
GPGPU-Sim uArch: Shader 12 finished CTA #4 (6452,0), 5 CTAs running
GPGPU-Sim uArch: core: 12, cta: 4 initialized @(6453,0)
GPGPU-Sim uArch: Shader 10 finished CTA #5 (6467,0), 5 CTAs running
GPGPU-Sim uArch: core: 10, cta: 5 initialized @(6468,0)
GPGPU-Sim uArch: cycles simulated: 6500  inst.: 2363078 (ipc=363.6) sim_rate=181775 (inst/sec) elapsed = 0:0:00:13 / Tue Mar 22 13:24:14 2016
GPGPU-Sim uArch: Shader 4 finished CTA #4 (6544,0), 5 CTAs running
GPGPU-Sim uArch: core:  4, cta: 4 initialized @(6545,0)
GPGPU-Sim uArch: Shader 14 finished CTA #1 (6582,0), 5 CTAs running
GPGPU-Sim uArch: core: 14, cta: 1 initialized @(6583,0)
GPGPU-Sim uArch: Shader 6 finished CTA #4 (6585,0), 5 CTAs running
GPGPU-Sim uArch: core:  6, cta: 4 initialized @(6586,0)
GPGPU-Sim uArch: Shader 13 finished CTA #3 (6587,0), 5 CTAs running
GPGPU-Sim uArch: core: 13, cta: 3 initialized @(6588,0)
GPGPU-Sim uArch: Shader 2 finished CTA #2 (6596,0), 5 CTAs running
GPGPU-Sim uArch: core:  2, cta: 2 initialized @(6597,0)
GPGPU-Sim uArch: Shader 4 finished CTA #3 (6599,0), 5 CTAs running
GPGPU-Sim uArch: core:  4, cta: 3 initialized @(6600,0)
GPGPU-Sim PTX: 2500000 instructions simulated : ctaid=(0,45,0) tid=(13,1,0)
GPGPU-Sim uArch: Shader 1 finished CTA #4 (6672,0), 5 CTAs running
GPGPU-Sim uArch: core:  1, cta: 4 initialized @(6673,0)
GPGPU-Sim uArch: Shader 1 finished CTA #5 (6697,0), 5 CTAs running
GPGPU-Sim uArch: core:  1, cta: 5 initialized @(6698,0)
GPGPU-Sim uArch: Shader 6 finished CTA #1 (6720,0), 5 CTAs running
GPGPU-Sim uArch: core:  6, cta: 1 initialized @(6721,0)
GPGPU-Sim uArch: Shader 11 finished CTA #4 (6736,0), 5 CTAs running
GPGPU-Sim uArch: core: 11, cta: 4 initialized @(6737,0)
GPGPU-Sim uArch: Shader 12 finished CTA #2 (6754,0), 5 CTAs running
GPGPU-Sim uArch: core: 12, cta: 2 initialized @(6755,0)
GPGPU-Sim uArch: Shader 11 finished CTA #1 (6859,0), 5 CTAs running
GPGPU-Sim uArch: core: 11, cta: 1 initialized @(6860,0)
GPGPU-Sim uArch: Shader 8 finished CTA #4 (6865,0), 5 CTAs running
GPGPU-Sim uArch: core:  8, cta: 4 initialized @(6866,0)
GPGPU-Sim PTX: 2600000 instructions simulated : ctaid=(0,80,0) tid=(7,2,0)
GPGPU-Sim uArch: Shader 9 finished CTA #4 (6885,0), 5 CTAs running
GPGPU-Sim uArch: core:  9, cta: 4 initialized @(6886,0)
GPGPU-Sim uArch: Shader 5 finished CTA #3 (6894,0), 5 CTAs running
GPGPU-Sim uArch: core:  5, cta: 3 initialized @(6895,0)
GPGPU-Sim uArch: Shader 5 finished CTA #2 (6906,0), 5 CTAs running
GPGPU-Sim uArch: core:  5, cta: 2 initialized @(6907,0)
GPGPU-Sim uArch: Shader 0 finished CTA #1 (6959,0), 5 CTAs running
GPGPU-Sim uArch: core:  0, cta: 1 initialized @(6960,0)
GPGPU-Sim uArch: Shader 11 finished CTA #0 (6961,0), 5 CTAs running
GPGPU-Sim uArch: core: 11, cta: 0 initialized @(6962,0)
GPGPU-Sim uArch: cycles simulated: 7000  inst.: 2584720 (ipc=369.2) sim_rate=184622 (inst/sec) elapsed = 0:0:00:14 / Tue Mar 22 13:24:15 2016
GPGPU-Sim uArch: Shader 10 finished CTA #3 (7026,0), 5 CTAs running
GPGPU-Sim uArch: core: 10, cta: 3 initialized @(7027,0)
GPGPU-Sim uArch: Shader 0 finished CTA #4 (7034,0), 5 CTAs running
GPGPU-Sim uArch: Shader 3 finished CTA #2 (7034,0), 5 CTAs running
GPGPU-Sim uArch: core:  0, cta: 4 initialized @(7035,0)
GPGPU-Sim uArch: core:  3, cta: 2 initialized @(7035,0)
GPGPU-Sim uArch: Shader 3 finished CTA #3 (7050,0), 5 CTAs running
GPGPU-Sim uArch: core:  3, cta: 3 initialized @(7051,0)
GPGPU-Sim PTX: 2700000 instructions simulated : ctaid=(0,2,0) tid=(3,4,0)
GPGPU-Sim uArch: Shader 7 finished CTA #3 (7115,0), 5 CTAs running
GPGPU-Sim uArch: core:  7, cta: 3 initialized @(7116,0)
GPGPU-Sim uArch: Shader 9 finished CTA #1 (7136,0), 5 CTAs running
GPGPU-Sim uArch: core:  9, cta: 1 initialized @(7137,0)
GPGPU-Sim uArch: Shader 4 finished CTA #0 (7161,0), 5 CTAs running
GPGPU-Sim uArch: core:  4, cta: 0 initialized @(7162,0)
GPGPU-Sim uArch: Shader 0 finished CTA #0 (7190,0), 5 CTAs running
GPGPU-Sim uArch: core:  0, cta: 0 initialized @(7191,0)
GPGPU-Sim uArch: Shader 14 finished CTA #0 (7193,0), 5 CTAs running
GPGPU-Sim uArch: core: 14, cta: 0 initialized @(7194,0)
GPGPU-Sim uArch: Shader 14 finished CTA #3 (7228,0), 5 CTAs running
GPGPU-Sim uArch: core: 14, cta: 3 initialized @(7229,0)
GPGPU-Sim uArch: Shader 9 finished CTA #0 (7259,0), 5 CTAs running
GPGPU-Sim uArch: core:  9, cta: 0 initialized @(7260,0)
GPGPU-Sim uArch: Shader 10 finished CTA #2 (7260,0), 5 CTAs running
GPGPU-Sim uArch: core: 10, cta: 2 initialized @(7261,0)
GPGPU-Sim uArch: Shader 7 finished CTA #2 (7287,0), 5 CTAs running
GPGPU-Sim uArch: core:  7, cta: 2 initialized @(7288,0)
GPGPU-Sim uArch: Shader 8 finished CTA #3 (7310,0), 5 CTAs running
GPGPU-Sim uArch: core:  8, cta: 3 initialized @(7311,0)
GPGPU-Sim PTX: 2800000 instructions simulated : ctaid=(0,103,0) tid=(11,14,0)
GPGPU-Sim uArch: Shader 11 finished CTA #3 (7353,0), 5 CTAs running
GPGPU-Sim uArch: core: 11, cta: 3 initialized @(7354,0)
GPGPU-Sim uArch: Shader 4 finished CTA #1 (7434,0), 5 CTAs running
GPGPU-Sim uArch: core:  4, cta: 1 initialized @(7435,0)
GPGPU-Sim uArch: Shader 4 finished CTA #5 (7474,0), 5 CTAs running
GPGPU-Sim uArch: core:  4, cta: 5 initialized @(7475,0)
GPGPU-Sim uArch: Shader 12 finished CTA #3 (7481,0), 5 CTAs running
GPGPU-Sim uArch: core: 12, cta: 3 initialized @(7482,0)
GPGPU-Sim uArch: Shader 6 finished CTA #2 (7487,0), 5 CTAs running
GPGPU-Sim uArch: core:  6, cta: 2 initialized @(7488,0)
GPGPU-Sim uArch: cycles simulated: 7500  inst.: 2802480 (ipc=373.7) sim_rate=186832 (inst/sec) elapsed = 0:0:00:15 / Tue Mar 22 13:24:16 2016
GPGPU-Sim uArch: Shader 11 finished CTA #2 (7505,0), 5 CTAs running
GPGPU-Sim uArch: core: 11, cta: 2 initialized @(7506,0)
GPGPU-Sim uArch: Shader 10 finished CTA #0 (7510,0), 5 CTAs running
GPGPU-Sim uArch: core: 10, cta: 0 initialized @(7511,0)
GPGPU-Sim uArch: Shader 13 finished CTA #5 (7512,0), 5 CTAs running
GPGPU-Sim uArch: core: 13, cta: 5 initialized @(7513,0)
GPGPU-Sim uArch: Shader 6 finished CTA #5 (7516,0), 5 CTAs running
GPGPU-Sim uArch: core:  6, cta: 5 initialized @(7517,0)
GPGPU-Sim PTX: 2900000 instructions simulated : ctaid=(0,97,0) tid=(15,5,0)
GPGPU-Sim uArch: Shader 6 finished CTA #3 (7553,0), 5 CTAs running
GPGPU-Sim uArch: core:  6, cta: 3 initialized @(7554,0)
GPGPU-Sim uArch: Shader 6 finished CTA #0 (7588,0), 5 CTAs running
GPGPU-Sim uArch: Shader 12 finished CTA #0 (7588,0), 5 CTAs running
GPGPU-Sim uArch: core: 12, cta: 0 initialized @(7589,0)
GPGPU-Sim uArch: core:  6, cta: 0 initialized @(7589,0)
GPGPU-Sim uArch: Shader 4 finished CTA #2 (7598,0), 5 CTAs running
GPGPU-Sim uArch: core:  4, cta: 2 initialized @(7599,0)
GPGPU-Sim uArch: Shader 13 finished CTA #1 (7599,0), 5 CTAs running
GPGPU-Sim uArch: core: 13, cta: 1 initialized @(7600,0)
GPGPU-Sim uArch: Shader 12 finished CTA #5 (7608,0), 5 CTAs running
GPGPU-Sim uArch: core: 12, cta: 5 initialized @(7609,0)
GPGPU-Sim uArch: Shader 12 finished CTA #1 (7622,0), 5 CTAs running
GPGPU-Sim uArch: core: 12, cta: 1 initialized @(7623,0)
GPGPU-Sim uArch: Shader 1 finished CTA #3 (7625,0), 5 CTAs running
GPGPU-Sim uArch: core:  1, cta: 3 initialized @(7626,0)
GPGPU-Sim uArch: Shader 8 finished CTA #2 (7631,0), 5 CTAs running
GPGPU-Sim uArch: core:  8, cta: 2 initialized @(7632,0)
GPGPU-Sim uArch: Shader 11 finished CTA #5 (7663,0), 5 CTAs running
GPGPU-Sim uArch: core: 11, cta: 5 initialized @(7664,0)
GPGPU-Sim uArch: Shader 1 finished CTA #0 (7716,0), 5 CTAs running
GPGPU-Sim uArch: core:  1, cta: 0 initialized @(7717,0)
GPGPU-Sim PTX: 3000000 instructions simulated : ctaid=(0,106,0) tid=(15,6,0)
GPGPU-Sim uArch: Shader 1 finished CTA #2 (7726,0), 5 CTAs running
GPGPU-Sim uArch: core:  1, cta: 2 initialized @(7727,0)
GPGPU-Sim uArch: Shader 10 finished CTA #1 (7727,0), 5 CTAs running
GPGPU-Sim uArch: core: 10, cta: 1 initialized @(7728,0)
GPGPU-Sim uArch: Shader 8 finished CTA #0 (7744,0), 5 CTAs running
GPGPU-Sim uArch: core:  8, cta: 0 initialized @(7745,0)
GPGPU-Sim uArch: Shader 1 finished CTA #1 (7773,0), 5 CTAs running
GPGPU-Sim uArch: core:  1, cta: 1 initialized @(7774,0)
GPGPU-Sim uArch: Shader 13 finished CTA #2 (7779,0), 5 CTAs running
GPGPU-Sim uArch: core: 13, cta: 2 initialized @(7780,0)
GPGPU-Sim uArch: Shader 2 finished CTA #0 (7788,0), 5 CTAs running
GPGPU-Sim uArch: core:  2, cta: 0 initialized @(7789,0)
GPGPU-Sim uArch: Shader 3 finished CTA #5 (7830,0), 5 CTAs running
GPGPU-Sim uArch: core:  3, cta: 5 initialized @(7831,0)
GPGPU-Sim PTX: 3100000 instructions simulated : ctaid=(0,106,0) tid=(7,0,0)
GPGPU-Sim uArch: Shader 7 finished CTA #1 (7926,0), 5 CTAs running
GPGPU-Sim uArch: core:  7, cta: 1 initialized @(7927,0)
GPGPU-Sim uArch: cycles simulated: 8000  inst.: 3072642 (ipc=384.1) sim_rate=192040 (inst/sec) elapsed = 0:0:00:16 / Tue Mar 22 13:24:17 2016
GPGPU-Sim PTX: 3200000 instructions simulated : ctaid=(0,154,0) tid=(5,10,0)
GPGPU-Sim uArch: Shader 0 finished CTA #3 (8222,0), 5 CTAs running
GPGPU-Sim uArch: core:  0, cta: 3 initialized @(8223,0)
GPGPU-Sim uArch: Shader 9 finished CTA #3 (8231,0), 5 CTAs running
GPGPU-Sim uArch: core:  9, cta: 3 initialized @(8232,0)
GPGPU-Sim PTX: 3300000 instructions simulated : ctaid=(0,107,0) tid=(9,2,0)
GPGPU-Sim uArch: Shader 5 finished CTA #1 (8432,0), 5 CTAs running
GPGPU-Sim uArch: core:  5, cta: 1 initialized @(8433,0)
GPGPU-Sim uArch: Shader 3 finished CTA #0 (8444,0), 5 CTAs running
GPGPU-Sim uArch: core:  3, cta: 0 initialized @(8445,0)
GPGPU-Sim PTX: 3400000 instructions simulated : ctaid=(0,121,0) tid=(3,10,0)
GPGPU-Sim PTX: 3500000 instructions simulated : ctaid=(0,94,0) tid=(5,9,0)
GPGPU-Sim uArch: Shader 14 finished CTA #2 (8830,0), 5 CTAs running
GPGPU-Sim uArch: core: 14, cta: 2 initialized @(8831,0)
GPGPU-Sim PTX: 3600000 instructions simulated : ctaid=(0,96,0) tid=(15,11,0)
GPGPU-Sim uArch: cycles simulated: 9000  inst.: 3581484 (ipc=397.9) sim_rate=210675 (inst/sec) elapsed = 0:0:00:17 / Tue Mar 22 13:24:18 2016
GPGPU-Sim uArch: Shader 2 finished CTA #4 (9023,0), 5 CTAs running
GPGPU-Sim uArch: core:  2, cta: 4 initialized @(9024,0)
GPGPU-Sim PTX: 3700000 instructions simulated : ctaid=(0,125,0) tid=(13,9,0)
GPGPU-Sim PTX: 3800000 instructions simulated : ctaid=(0,133,0) tid=(1,2,0)
GPGPU-Sim PTX: 3900000 instructions simulated : ctaid=(0,122,0) tid=(3,12,0)
GPGPU-Sim uArch: cycles simulated: 9500  inst.: 3834232 (ipc=403.6) sim_rate=213012 (inst/sec) elapsed = 0:0:00:18 / Tue Mar 22 13:24:19 2016
GPGPU-Sim PTX: 4000000 instructions simulated : ctaid=(0,171,0) tid=(1,10,0)
GPGPU-Sim uArch: Shader 2 finished CTA #1 (9680,0), 5 CTAs running
GPGPU-Sim uArch: core:  2, cta: 1 initialized @(9681,0)
GPGPU-Sim PTX: 4100000 instructions simulated : ctaid=(0,143,0) tid=(9,8,0)
GPGPU-Sim PTX: 4200000 instructions simulated : ctaid=(0,119,0) tid=(7,8,0)
GPGPU-Sim uArch: Shader 13 finished CTA #4 (10088,0), 5 CTAs running
GPGPU-Sim uArch: core: 13, cta: 4 initialized @(10089,0)
GPGPU-Sim uArch: Shader 8 finished CTA #5 (10145,0), 5 CTAs running
GPGPU-Sim uArch: core:  8, cta: 5 initialized @(10146,0)
GPGPU-Sim uArch: Shader 7 finished CTA #0 (10220,0), 5 CTAs running
GPGPU-Sim uArch: core:  7, cta: 0 initialized @(10221,0)
GPGPU-Sim PTX: 4300000 instructions simulated : ctaid=(0,109,0) tid=(7,4,0)
GPGPU-Sim uArch: Shader 2 finished CTA #3 (10360,0), 5 CTAs running
GPGPU-Sim uArch: core:  2, cta: 3 initialized @(10361,0)
GPGPU-Sim uArch: Shader 14 finished CTA #4 (10413,0), 5 CTAs running
GPGPU-Sim uArch: core: 14, cta: 4 initialized @(10414,0)
GPGPU-Sim uArch: Shader 1 finished CTA #5 (10441,0), 5 CTAs running
GPGPU-Sim uArch: core:  1, cta: 5 initialized @(10442,0)
GPGPU-Sim uArch: Shader 8 finished CTA #1 (10451,0), 5 CTAs running
GPGPU-Sim uArch: core:  8, cta: 1 initialized @(10452,0)
GPGPU-Sim uArch: cycles simulated: 10500  inst.: 4288088 (ipc=408.4) sim_rate=225688 (inst/sec) elapsed = 0:0:00:19 / Tue Mar 22 13:24:20 2016
GPGPU-Sim PTX: 4400000 instructions simulated : ctaid=(0,132,0) tid=(11,12,0)
GPGPU-Sim uArch: Shader 11 finished CTA #1 (10612,0), 5 CTAs running
GPGPU-Sim uArch: core: 11, cta: 1 initialized @(10613,0)
GPGPU-Sim uArch: Shader 5 finished CTA #0 (10625,0), 5 CTAs running
GPGPU-Sim uArch: core:  5, cta: 0 initialized @(10626,0)
GPGPU-Sim PTX: 4500000 instructions simulated : ctaid=(0,132,0) tid=(5,7,0)
GPGPU-Sim uArch: Shader 9 finished CTA #2 (10735,0), 5 CTAs running
GPGPU-Sim uArch: core:  9, cta: 2 initialized @(10736,0)
GPGPU-Sim uArch: Shader 13 finished CTA #0 (10749,0), 5 CTAs running
GPGPU-Sim uArch: core: 13, cta: 0 initialized @(10750,0)
GPGPU-Sim uArch: Shader 0 finished CTA #2 (10816,0), 5 CTAs running
GPGPU-Sim uArch: core:  0, cta: 2 initialized @(10817,0)
GPGPU-Sim uArch: Shader 3 finished CTA #4 (10869,0), 5 CTAs running
GPGPU-Sim uArch: core:  3, cta: 4 initialized @(10870,0)
GPGPU-Sim PTX: 4600000 instructions simulated : ctaid=(0,166,0) tid=(9,12,0)
GPGPU-Sim uArch: Shader 9 finished CTA #5 (10957,0), 5 CTAs running
GPGPU-Sim uArch: core:  9, cta: 5 initialized @(10958,0)
GPGPU-Sim uArch: Shader 3 finished CTA #1 (10987,0), 5 CTAs running
GPGPU-Sim uArch: core:  3, cta: 1 initialized @(10988,0)
GPGPU-Sim uArch: cycles simulated: 11000  inst.: 4508246 (ipc=409.8) sim_rate=225412 (inst/sec) elapsed = 0:0:00:20 / Tue Mar 22 13:24:21 2016
GPGPU-Sim uArch: Shader 11 finished CTA #4 (11017,0), 5 CTAs running
GPGPU-Sim uArch: core: 11, cta: 4 initialized @(11018,0)
GPGPU-Sim uArch: Shader 0 finished CTA #5 (11041,0), 5 CTAs running
GPGPU-Sim uArch: core:  0, cta: 5 initialized @(11042,0)
GPGPU-Sim uArch: Shader 6 finished CTA #1 (11074,0), 5 CTAs running
GPGPU-Sim uArch: core:  6, cta: 1 initialized @(11075,0)
GPGPU-Sim uArch: Shader 14 finished CTA #5 (11099,0), 5 CTAs running
GPGPU-Sim uArch: core: 14, cta: 5 initialized @(11100,0)
GPGPU-Sim uArch: Shader 14 finished CTA #3 (11123,0), 5 CTAs running
GPGPU-Sim uArch: core: 14, cta: 3 initialized @(11124,0)
GPGPU-Sim PTX: 4700000 instructions simulated : ctaid=(0,144,0) tid=(11,4,0)
GPGPU-Sim uArch: Shader 5 finished CTA #2 (11200,0), 5 CTAs running
GPGPU-Sim uArch: core:  5, cta: 2 initialized @(11201,0)
GPGPU-Sim uArch: Shader 9 finished CTA #4 (11227,0), 5 CTAs running
GPGPU-Sim uArch: core:  9, cta: 4 initialized @(11228,0)
GPGPU-Sim PTX: 4800000 instructions simulated : ctaid=(0,165,0) tid=(7,14,0)
GPGPU-Sim uArch: Shader 7 finished CTA #4 (11459,0), 5 CTAs running
GPGPU-Sim uArch: core:  7, cta: 4 initialized @(11460,0)
GPGPU-Sim uArch: Shader 3 finished CTA #2 (11478,0), 5 CTAs running
GPGPU-Sim uArch: core:  3, cta: 2 initialized @(11479,0)
GPGPU-Sim uArch: Shader 5 finished CTA #4 (11501,0), 5 CTAs running
GPGPU-Sim uArch: core:  5, cta: 4 initialized @(11502,0)
GPGPU-Sim uArch: Shader 4 finished CTA #3 (11554,0), 5 CTAs running
GPGPU-Sim uArch: core:  4, cta: 3 initialized @(11555,0)
GPGPU-Sim uArch: Shader 10 finished CTA #4 (11576,0), 5 CTAs running
GPGPU-Sim uArch: core: 10, cta: 4 initialized @(11577,0)
GPGPU-Sim PTX: 4900000 instructions simulated : ctaid=(0,147,0) tid=(15,14,0)
GPGPU-Sim uArch: Shader 12 finished CTA #4 (11617,0), 5 CTAs running
GPGPU-Sim uArch: core: 12, cta: 4 initialized @(11618,0)
GPGPU-Sim uArch: Shader 6 finished CTA #4 (11631,0), 5 CTAs running
GPGPU-Sim uArch: core:  6, cta: 4 initialized @(11632,0)
GPGPU-Sim uArch: Shader 2 finished CTA #0 (11643,0), 5 CTAs running
GPGPU-Sim uArch: core:  2, cta: 0 initialized @(11644,0)
GPGPU-Sim uArch: Shader 7 finished CTA #5 (11695,0), 5 CTAs running
GPGPU-Sim uArch: core:  7, cta: 5 initialized @(11696,0)
GPGPU-Sim uArch: Shader 2 finished CTA #5 (11711,0), 5 CTAs running
GPGPU-Sim uArch: core:  2, cta: 5 initialized @(11712,0)
GPGPU-Sim uArch: Shader 0 finished CTA #4 (11752,0), 5 CTAs running
GPGPU-Sim uArch: core:  0, cta: 4 initialized @(11753,0)
GPGPU-Sim uArch: Shader 10 finished CTA #5 (11764,0), 5 CTAs running
GPGPU-Sim uArch: core: 10, cta: 5 initialized @(11765,0)
GPGPU-Sim uArch: Shader 12 finished CTA #2 (11772,0), 5 CTAs running
GPGPU-Sim uArch: core: 12, cta: 2 initialized @(11773,0)
GPGPU-Sim PTX: 5000000 instructions simulated : ctaid=(0,97,0) tid=(7,6,0)
GPGPU-Sim uArch: Shader 4 finished CTA #4 (11825,0), 5 CTAs running
GPGPU-Sim uArch: core:  4, cta: 4 initialized @(11826,0)
GPGPU-Sim uArch: Shader 3 finished CTA #3 (11883,0), 5 CTAs running
GPGPU-Sim uArch: core:  3, cta: 3 initialized @(11884,0)
GPGPU-Sim uArch: Shader 11 finished CTA #0 (11890,0), 5 CTAs running
GPGPU-Sim uArch: core: 11, cta: 0 initialized @(11891,0)
GPGPU-Sim uArch: Shader 6 finished CTA #0 (11906,0), 5 CTAs running
GPGPU-Sim uArch: core:  6, cta: 0 initialized @(11907,0)
GPGPU-Sim uArch: Shader 10 finished CTA #2 (11935,0), 5 CTAs running
GPGPU-Sim uArch: core: 10, cta: 2 initialized @(11936,0)
GPGPU-Sim uArch: cycles simulated: 12000  inst.: 4962320 (ipc=413.5) sim_rate=236300 (inst/sec) elapsed = 0:0:00:21 / Tue Mar 22 13:24:22 2016
GPGPU-Sim PTX: 5100000 instructions simulated : ctaid=(0,115,0) tid=(13,3,0)
GPGPU-Sim uArch: Shader 9 finished CTA #1 (12105,0), 5 CTAs running
GPGPU-Sim uArch: core:  9, cta: 1 initialized @(12106,0)
GPGPU-Sim uArch: Shader 4 finished CTA #5 (12110,0), 5 CTAs running
GPGPU-Sim uArch: core:  4, cta: 5 initialized @(12111,0)
GPGPU-Sim uArch: Shader 8 finished CTA #3 (12113,0), 5 CTAs running
GPGPU-Sim uArch: core:  8, cta: 3 initialized @(12114,0)
GPGPU-Sim uArch: Shader 13 finished CTA #3 (12142,0), 5 CTAs running
GPGPU-Sim uArch: core: 13, cta: 3 initialized @(12143,0)
GPGPU-Sim PTX: 5200000 instructions simulated : ctaid=(0,170,0) tid=(1,12,0)
GPGPU-Sim uArch: Shader 0 finished CTA #1 (12283,0), 5 CTAs running
GPGPU-Sim uArch: core:  0, cta: 1 initialized @(12284,0)
GPGPU-Sim uArch: Shader 0 finished CTA #0 (12327,0), 5 CTAs running
GPGPU-Sim uArch: core:  0, cta: 0 initialized @(12328,0)
GPGPU-Sim uArch: Shader 10 finished CTA #3 (12395,0), 5 CTAs running
GPGPU-Sim uArch: core: 10, cta: 3 initialized @(12396,0)
GPGPU-Sim uArch: Shader 1 finished CTA #4 (12406,0), 5 CTAs running
GPGPU-Sim uArch: core:  1, cta: 4 initialized @(12407,0)
GPGPU-Sim PTX: 5300000 instructions simulated : ctaid=(0,161,0) tid=(5,5,0)
GPGPU-Sim uArch: Shader 4 finished CTA #0 (12448,0), 5 CTAs running
GPGPU-Sim uArch: core:  4, cta: 0 initialized @(12449,0)
GPGPU-Sim uArch: Shader 11 finished CTA #3 (12468,0), 5 CTAs running
GPGPU-Sim uArch: core: 11, cta: 3 initialized @(12469,0)
GPGPU-Sim uArch: Shader 5 finished CTA #5 (12477,0), 5 CTAs running
GPGPU-Sim uArch: core:  5, cta: 5 initialized @(12478,0)
GPGPU-Sim uArch: cycles simulated: 12500  inst.: 5203420 (ipc=416.3) sim_rate=236519 (inst/sec) elapsed = 0:0:00:22 / Tue Mar 22 13:24:23 2016
GPGPU-Sim uArch: Shader 7 finished CTA #3 (12503,0), 5 CTAs running
GPGPU-Sim uArch: core:  7, cta: 3 initialized @(12504,0)
GPGPU-Sim uArch: Shader 7 finished CTA #2 (12604,0), 5 CTAs running
GPGPU-Sim uArch: core:  7, cta: 2 initialized @(12605,0)
GPGPU-Sim PTX: 5400000 instructions simulated : ctaid=(0,223,0) tid=(7,13,0)
GPGPU-Sim uArch: Shader 4 finished CTA #1 (12613,0), 5 CTAs running
GPGPU-Sim uArch: Shader 10 finished CTA #0 (12613,0), 5 CTAs running
GPGPU-Sim uArch: core: 10, cta: 0 initialized @(12614,0)
GPGPU-Sim uArch: core:  4, cta: 1 initialized @(12614,0)
GPGPU-Sim uArch: Shader 5 finished CTA #3 (12646,0), 5 CTAs running
GPGPU-Sim uArch: core:  5, cta: 3 initialized @(12647,0)
GPGPU-Sim uArch: Shader 12 finished CTA #5 (12747,0), 5 CTAs running
GPGPU-Sim uArch: core: 12, cta: 5 initialized @(12748,0)
GPGPU-Sim uArch: Shader 13 finished CTA #5 (12810,0), 5 CTAs running
GPGPU-Sim uArch: core: 13, cta: 5 initialized @(12811,0)
GPGPU-Sim PTX: 5500000 instructions simulated : ctaid=(0,193,0) tid=(15,4,0)
GPGPU-Sim uArch: Shader 1 finished CTA #1 (12825,0), 5 CTAs running
GPGPU-Sim uArch: core:  1, cta: 1 initialized @(12826,0)
GPGPU-Sim uArch: Shader 6 finished CTA #3 (12846,0), 5 CTAs running
GPGPU-Sim uArch: core:  6, cta: 3 initialized @(12847,0)
GPGPU-Sim uArch: Shader 12 finished CTA #0 (12956,0), 5 CTAs running
GPGPU-Sim uArch: core: 12, cta: 0 initialized @(12957,0)
GPGPU-Sim uArch: Shader 8 finished CTA #4 (12962,0), 5 CTAs running
GPGPU-Sim uArch: core:  8, cta: 4 initialized @(12963,0)
GPGPU-Sim uArch: cycles simulated: 13000  inst.: 5439644 (ipc=418.4) sim_rate=236506 (inst/sec) elapsed = 0:0:00:23 / Tue Mar 22 13:24:24 2016
GPGPU-Sim uArch: Shader 12 finished CTA #1 (13005,0), 5 CTAs running
GPGPU-Sim uArch: core: 12, cta: 1 initialized @(13006,0)
GPGPU-Sim uArch: Shader 6 finished CTA #2 (13009,0), 5 CTAs running
GPGPU-Sim uArch: core:  6, cta: 2 initialized @(13010,0)
GPGPU-Sim uArch: Shader 1 finished CTA #0 (13024,0), 5 CTAs running
GPGPU-Sim uArch: core:  1, cta: 0 initialized @(13025,0)
GPGPU-Sim PTX: 5600000 instructions simulated : ctaid=(0,193,0) tid=(3,6,0)
GPGPU-Sim uArch: Shader 13 finished CTA #2 (13085,0), 5 CTAs running
GPGPU-Sim uArch: core: 13, cta: 2 initialized @(13086,0)
GPGPU-Sim uArch: Shader 9 finished CTA #3 (13095,0), 5 CTAs running
GPGPU-Sim uArch: core:  9, cta: 3 initialized @(13096,0)
GPGPU-Sim uArch: Shader 14 finished CTA #1 (13120,0), 5 CTAs running
GPGPU-Sim uArch: core: 14, cta: 1 initialized @(13121,0)
GPGPU-Sim uArch: Shader 11 finished CTA #5 (13144,0), 5 CTAs running
GPGPU-Sim uArch: core: 11, cta: 5 initialized @(13145,0)
GPGPU-Sim uArch: Shader 14 finished CTA #2 (13189,0), 5 CTAs running
GPGPU-Sim uArch: core: 14, cta: 2 initialized @(13190,0)
GPGPU-Sim PTX: 5700000 instructions simulated : ctaid=(0,162,0) tid=(3,11,0)
GPGPU-Sim uArch: Shader 3 finished CTA #5 (13266,0), 5 CTAs running
GPGPU-Sim uArch: core:  3, cta: 5 initialized @(13267,0)
GPGPU-Sim uArch: Shader 1 finished CTA #2 (13313,0), 5 CTAs running
GPGPU-Sim uArch: core:  1, cta: 2 initialized @(13314,0)
GPGPU-Sim PTX: 5800000 instructions simulated : ctaid=(0,198,0) tid=(7,11,0)
GPGPU-Sim uArch: Shader 8 finished CTA #2 (13446,0), 5 CTAs running
GPGPU-Sim uArch: core:  8, cta: 2 initialized @(13447,0)
GPGPU-Sim uArch: Shader 13 finished CTA #1 (13488,0), 5 CTAs running
GPGPU-Sim uArch: core: 13, cta: 1 initialized @(13489,0)
GPGPU-Sim uArch: cycles simulated: 13500  inst.: 5687500 (ipc=421.3) sim_rate=236979 (inst/sec) elapsed = 0:0:00:24 / Tue Mar 22 13:24:25 2016
GPGPU-Sim uArch: Shader 1 finished CTA #3 (13544,0), 5 CTAs running
GPGPU-Sim uArch: core:  1, cta: 3 initialized @(13545,0)
GPGPU-Sim PTX: 5900000 instructions simulated : ctaid=(0,174,0) tid=(1,4,0)
GPGPU-Sim uArch: Shader 8 finished CTA #0 (13713,0), 5 CTAs running
GPGPU-Sim uArch: core:  8, cta: 0 initialized @(13714,0)
GPGPU-Sim uArch: Shader 14 finished CTA #0 (13746,0), 5 CTAs running
GPGPU-Sim uArch: core: 14, cta: 0 initialized @(13747,0)
GPGPU-Sim uArch: Shader 12 finished CTA #3 (13796,0), 5 CTAs running
GPGPU-Sim uArch: core: 12, cta: 3 initialized @(13797,0)
GPGPU-Sim PTX: 6000000 instructions simulated : ctaid=(0,118,0) tid=(15,3,0)
GPGPU-Sim uArch: Shader 10 finished CTA #1 (13896,0), 5 CTAs running
GPGPU-Sim uArch: core: 10, cta: 1 initialized @(13897,0)
GPGPU-Sim uArch: cycles simulated: 14000  inst.: 5931574 (ipc=423.7) sim_rate=237262 (inst/sec) elapsed = 0:0:00:25 / Tue Mar 22 13:24:26 2016
GPGPU-Sim PTX: 6100000 instructions simulated : ctaid=(0,193,0) tid=(15,8,0)
GPGPU-Sim uArch: Shader 5 finished CTA #1 (14076,0), 5 CTAs running
GPGPU-Sim uArch: core:  5, cta: 1 initialized @(14077,0)
GPGPU-Sim uArch: Shader 11 finished CTA #2 (14108,0), 5 CTAs running
GPGPU-Sim uArch: core: 11, cta: 2 initialized @(14109,0)
GPGPU-Sim uArch: Shader 2 finished CTA #2 (14164,0), 5 CTAs running
GPGPU-Sim uArch: core:  2, cta: 2 initialized @(14165,0)
GPGPU-Sim PTX: 6200000 instructions simulated : ctaid=(0,188,0) tid=(13,14,0)
GPGPU-Sim uArch: Shader 7 finished CTA #1 (14263,0), 5 CTAs running
GPGPU-Sim uArch: core:  7, cta: 1 initialized @(14264,0)
GPGPU-Sim uArch: Shader 6 finished CTA #5 (14323,0), 5 CTAs running
GPGPU-Sim uArch: core:  6, cta: 5 initialized @(14324,0)
GPGPU-Sim PTX: 6300000 instructions simulated : ctaid=(0,207,0) tid=(5,8,0)
GPGPU-Sim uArch: Shader 2 finished CTA #1 (14512,0), 5 CTAs running
GPGPU-Sim uArch: core:  2, cta: 1 initialized @(14513,0)
GPGPU-Sim uArch: Shader 4 finished CTA #2 (14584,0), 5 CTAs running
GPGPU-Sim uArch: core:  4, cta: 2 initialized @(14585,0)
GPGPU-Sim uArch: Shader 0 finished CTA #2 (14613,0), 5 CTAs running
GPGPU-Sim uArch: core:  0, cta: 2 initialized @(14614,0)
GPGPU-Sim PTX: 6400000 instructions simulated : ctaid=(0,191,0) tid=(15,15,0)
GPGPU-Sim uArch: Shader 2 finished CTA #4 (14634,0), 5 CTAs running
GPGPU-Sim uArch: core:  2, cta: 4 initialized @(14635,0)
GPGPU-Sim PTX: 6500000 instructions simulated : ctaid=(0,255,0) tid=(3,15,0)
GPGPU-Sim uArch: Shader 5 finished CTA #0 (14816,0), 5 CTAs running
GPGPU-Sim uArch: core:  5, cta: 0 initialized @(14817,0)
GPGPU-Sim uArch: Shader 9 finished CTA #0 (14865,0), 5 CTAs running
GPGPU-Sim uArch: core:  9, cta: 0 initialized @(14866,0)
GPGPU-Sim PTX: 6600000 instructions simulated : ctaid=(0,239,0) tid=(11,7,0)
GPGPU-Sim uArch: cycles simulated: 15000  inst.: 6432386 (ipc=428.8) sim_rate=247399 (inst/sec) elapsed = 0:0:00:26 / Tue Mar 22 13:24:27 2016
GPGPU-Sim uArch: Shader 2 finished CTA #3 (15183,0), 5 CTAs running
GPGPU-Sim uArch: core:  2, cta: 3 initialized @(15184,0)
GPGPU-Sim PTX: 6700000 instructions simulated : ctaid=(0,248,0) tid=(5,0,0)
GPGPU-Sim uArch: Shader 9 finished CTA #5 (15231,0), 5 CTAs running
GPGPU-Sim uArch: core:  9, cta: 5 initialized @(15232,0)
GPGPU-Sim uArch: Shader 7 finished CTA #0 (15240,0), 5 CTAs running
GPGPU-Sim uArch: core:  7, cta: 0 initialized @(15241,0)
GPGPU-Sim uArch: Shader 11 finished CTA #1 (15293,0), 5 CTAs running
GPGPU-Sim uArch: core: 11, cta: 1 initialized @(15294,0)
GPGPU-Sim uArch: Shader 8 finished CTA #1 (15340,0), 5 CTAs running
GPGPU-Sim uArch: core:  8, cta: 1 initialized @(15341,0)
GPGPU-Sim PTX: 6800000 instructions simulated : ctaid=(0,214,0) tid=(1,1,0)
GPGPU-Sim uArch: cycles simulated: 15500  inst.: 6667582 (ipc=430.2) sim_rate=246947 (inst/sec) elapsed = 0:0:00:27 / Tue Mar 22 13:24:28 2016
GPGPU-Sim PTX: 6900000 instructions simulated : ctaid=(0,223,0) tid=(15,8,0)
GPGPU-Sim uArch: Shader 9 finished CTA #2 (15623,0), 5 CTAs running
GPGPU-Sim uArch: core:  9, cta: 2 initialized @(15624,0)
GPGPU-Sim uArch: Shader 0 finished CTA #3 (15668,0), 5 CTAs running
GPGPU-Sim uArch: core:  0, cta: 3 initialized @(15669,0)
GPGPU-Sim uArch: Shader 6 finished CTA #1 (15744,0), 5 CTAs running
GPGPU-Sim uArch: core:  6, cta: 1 initialized @(15745,0)
GPGPU-Sim uArch: Shader 1 finished CTA #5 (15803,0), 5 CTAs running
GPGPU-Sim uArch: core:  1, cta: 5 initialized @(15804,0)
GPGPU-Sim uArch: Shader 3 finished CTA #4 (15810,0), 5 CTAs running
GPGPU-Sim uArch: core:  3, cta: 4 initialized @(15811,0)
GPGPU-Sim PTX: 7000000 instructions simulated : ctaid=(0,280,0) tid=(9,15,0)
GPGPU-Sim uArch: Shader 0 finished CTA #5 (15867,0), 5 CTAs running
GPGPU-Sim uArch: core:  0, cta: 5 initialized @(15868,0)
GPGPU-Sim uArch: Shader 8 finished CTA #5 (15890,0), 5 CTAs running
GPGPU-Sim uArch: core:  8, cta: 5 initialized @(15891,0)
GPGPU-Sim uArch: Shader 11 finished CTA #4 (15904,0), 5 CTAs running
GPGPU-Sim uArch: core: 11, cta: 4 initialized @(15905,0)
GPGPU-Sim uArch: Shader 10 finished CTA #4 (15909,0), 5 CTAs running
GPGPU-Sim uArch: core: 10, cta: 4 initialized @(15910,0)
GPGPU-Sim uArch: Shader 13 finished CTA #0 (15953,0), 5 CTAs running
GPGPU-Sim uArch: core: 13, cta: 0 initialized @(15954,0)
GPGPU-Sim uArch: Shader 14 finished CTA #3 (15993,0), 5 CTAs running
GPGPU-Sim uArch: core: 14, cta: 3 initialized @(15994,0)
GPGPU-Sim uArch: cycles simulated: 16000  inst.: 6896410 (ipc=431.0) sim_rate=246300 (inst/sec) elapsed = 0:0:00:28 / Tue Mar 22 13:24:29 2016
GPGPU-Sim PTX: 7100000 instructions simulated : ctaid=(0,249,0) tid=(1,5,0)
GPGPU-Sim uArch: Shader 14 finished CTA #4 (16117,0), 5 CTAs running
GPGPU-Sim uArch: core: 14, cta: 4 initialized @(16118,0)
GPGPU-Sim uArch: Shader 4 finished CTA #3 (16142,0), 5 CTAs running
GPGPU-Sim uArch: core:  4, cta: 3 initialized @(16143,0)
GPGPU-Sim uArch: Shader 6 finished CTA #4 (16210,0), 5 CTAs running
GPGPU-Sim uArch: core:  6, cta: 4 initialized @(16211,0)
GPGPU-Sim PTX: 7200000 instructions simulated : ctaid=(0,264,0) tid=(13,14,0)
GPGPU-Sim uArch: Shader 13 finished CTA #4 (16351,0), 5 CTAs running
GPGPU-Sim uArch: core: 13, cta: 4 initialized @(16352,0)
GPGPU-Sim uArch: Shader 12 finished CTA #2 (16380,0), 5 CTAs running
GPGPU-Sim uArch: core: 12, cta: 2 initialized @(16381,0)
GPGPU-Sim PTX: 7300000 instructions simulated : ctaid=(0,233,0) tid=(11,8,0)
GPGPU-Sim uArch: Shader 4 finished CTA #5 (16613,0), 5 CTAs running
GPGPU-Sim uArch: core:  4, cta: 5 initialized @(16614,0)
GPGPU-Sim uArch: Shader 14 finished CTA #5 (16616,0), 5 CTAs running
GPGPU-Sim uArch: core: 14, cta: 5 initialized @(16617,0)
GPGPU-Sim uArch: Shader 7 finished CTA #4 (16645,0), 5 CTAs running
GPGPU-Sim uArch: core:  7, cta: 4 initialized @(16646,0)
GPGPU-Sim PTX: 7400000 instructions simulated : ctaid=(0,236,0) tid=(13,6,0)
GPGPU-Sim uArch: Shader 3 finished CTA #1 (16677,0), 5 CTAs running
GPGPU-Sim uArch: core:  3, cta: 1 initialized @(16678,0)
GPGPU-Sim uArch: Shader 3 finished CTA #0 (16739,0), 5 CTAs running
GPGPU-Sim uArch: core:  3, cta: 0 initialized @(16740,0)
GPGPU-Sim uArch: Shader 9 finished CTA #4 (16806,0), 5 CTAs running
GPGPU-Sim uArch: core:  9, cta: 4 initialized @(16807,0)
GPGPU-Sim uArch: Shader 5 finished CTA #4 (16820,0), 5 CTAs running
GPGPU-Sim uArch: core:  5, cta: 4 initialized @(16821,0)
GPGPU-Sim PTX: 7500000 instructions simulated : ctaid=(0,218,0) tid=(7,7,0)
GPGPU-Sim uArch: Shader 5 finished CTA #2 (16905,0), 5 CTAs running
GPGPU-Sim uArch: core:  5, cta: 2 initialized @(16906,0)
GPGPU-Sim uArch: Shader 12 finished CTA #4 (16956,0), 5 CTAs running
GPGPU-Sim uArch: core: 12, cta: 4 initialized @(16957,0)
GPGPU-Sim uArch: cycles simulated: 17000  inst.: 7357818 (ipc=432.8) sim_rate=253717 (inst/sec) elapsed = 0:0:00:29 / Tue Mar 22 13:24:30 2016
GPGPU-Sim uArch: Shader 3 finished CTA #3 (17057,0), 5 CTAs running
GPGPU-Sim uArch: core:  3, cta: 3 initialized @(17058,0)
GPGPU-Sim uArch: Shader 4 finished CTA #4 (17060,0), 5 CTAs running
GPGPU-Sim uArch: core:  4, cta: 4 initialized @(17061,0)
GPGPU-Sim uArch: Shader 10 finished CTA #2 (17080,0), 5 CTAs running
GPGPU-Sim uArch: core: 10, cta: 2 initialized @(17081,0)
GPGPU-Sim PTX: 7600000 instructions simulated : ctaid=(0,262,0) tid=(5,8,0)
GPGPU-Sim uArch: Shader 0 finished CTA #1 (17101,0), 5 CTAs running
GPGPU-Sim uArch: core:  0, cta: 1 initialized @(17102,0)
GPGPU-Sim uArch: Shader 10 finished CTA #5 (17128,0), 5 CTAs running
GPGPU-Sim uArch: core: 10, cta: 5 initialized @(17129,0)
GPGPU-Sim uArch: Shader 8 finished CTA #3 (17153,0), 5 CTAs running
GPGPU-Sim uArch: core:  8, cta: 3 initialized @(17154,0)
GPGPU-Sim uArch: Shader 7 finished CTA #2 (17183,0), 5 CTAs running
GPGPU-Sim uArch: core:  7, cta: 2 initialized @(17184,0)
GPGPU-Sim uArch: Shader 1 finished CTA #4 (17224,0), 5 CTAs running
GPGPU-Sim uArch: core:  1, cta: 4 initialized @(17225,0)
GPGPU-Sim PTX: 7700000 instructions simulated : ctaid=(0,304,0) tid=(11,4,0)
GPGPU-Sim uArch: Shader 13 finished CTA #5 (17289,0), 5 CTAs running
GPGPU-Sim uArch: core: 13, cta: 5 initialized @(17290,0)
GPGPU-Sim uArch: Shader 6 finished CTA #0 (17303,0), 5 CTAs running
GPGPU-Sim uArch: core:  6, cta: 0 initialized @(17304,0)
GPGPU-Sim PTX: 7800000 instructions simulated : ctaid=(0,253,0) tid=(1,14,0)
GPGPU-Sim uArch: cycles simulated: 17500  inst.: 7603870 (ipc=434.5) sim_rate=253462 (inst/sec) elapsed = 0:0:00:30 / Tue Mar 22 13:24:31 2016
GPGPU-Sim uArch: Shader 9 finished CTA #1 (17539,0), 5 CTAs running
GPGPU-Sim uArch: core:  9, cta: 1 initialized @(17540,0)
GPGPU-Sim uArch: Shader 3 finished CTA #2 (17597,0), 5 CTAs running
GPGPU-Sim uArch: core:  3, cta: 2 initialized @(17598,0)
GPGPU-Sim uArch: Shader 12 finished CTA #5 (17613,0), 5 CTAs running
GPGPU-Sim uArch: core: 12, cta: 5 initialized @(17614,0)
GPGPU-Sim uArch: Shader 5 finished CTA #5 (17637,0), 5 CTAs running
GPGPU-Sim uArch: core:  5, cta: 5 initialized @(17638,0)
GPGPU-Sim PTX: 7900000 instructions simulated : ctaid=(0,312,0) tid=(5,8,0)
GPGPU-Sim uArch: Shader 2 finished CTA #5 (17747,0), 5 CTAs running
GPGPU-Sim uArch: core:  2, cta: 5 initialized @(17748,0)
GPGPU-Sim uArch: Shader 6 finished CTA #3 (17799,0), 5 CTAs running
GPGPU-Sim uArch: core:  6, cta: 3 initialized @(17800,0)
GPGPU-Sim uArch: Shader 11 finished CTA #0 (17847,0), 5 CTAs running
GPGPU-Sim uArch: core: 11, cta: 0 initialized @(17848,0)
GPGPU-Sim uArch: Shader 4 finished CTA #0 (17849,0), 5 CTAs running
GPGPU-Sim uArch: core:  4, cta: 0 initialized @(17850,0)
GPGPU-Sim PTX: 8000000 instructions simulated : ctaid=(0,318,0) tid=(13,0,0)
GPGPU-Sim uArch: Shader 8 finished CTA #4 (17973,0), 5 CTAs running
GPGPU-Sim uArch: core:  8, cta: 4 initialized @(17974,0)
GPGPU-Sim uArch: cycles simulated: 18000  inst.: 7833312 (ipc=435.2) sim_rate=252687 (inst/sec) elapsed = 0:0:00:31 / Tue Mar 22 13:24:32 2016
GPGPU-Sim uArch: Shader 4 finished CTA #1 (18007,0), 5 CTAs running
GPGPU-Sim uArch: core:  4, cta: 1 initialized @(18008,0)
GPGPU-Sim uArch: Shader 7 finished CTA #5 (18020,0), 5 CTAs running
GPGPU-Sim uArch: core:  7, cta: 5 initialized @(18021,0)
GPGPU-Sim uArch: Shader 13 finished CTA #3 (18039,0), 5 CTAs running
GPGPU-Sim uArch: core: 13, cta: 3 initialized @(18040,0)
GPGPU-Sim uArch: Shader 0 finished CTA #4 (18066,0), 5 CTAs running
GPGPU-Sim uArch: core:  0, cta: 4 initialized @(18067,0)
GPGPU-Sim uArch: Shader 1 finished CTA #1 (18072,0), 5 CTAs running
GPGPU-Sim uArch: core:  1, cta: 1 initialized @(18073,0)
GPGPU-Sim PTX: 8100000 instructions simulated : ctaid=(0,269,0) tid=(13,6,0)
GPGPU-Sim uArch: Shader 7 finished CTA #3 (18120,0), 5 CTAs running
GPGPU-Sim uArch: core:  7, cta: 3 initialized @(18121,0)
GPGPU-Sim uArch: Shader 10 finished CTA #0 (18134,0), 5 CTAs running
GPGPU-Sim uArch: core: 10, cta: 0 initialized @(18135,0)
GPGPU-Sim uArch: Shader 5 finished CTA #3 (18153,0), 5 CTAs running
GPGPU-Sim uArch: core:  5, cta: 3 initialized @(18154,0)
GPGPU-Sim uArch: Shader 14 finished CTA #2 (18173,0), 5 CTAs running
GPGPU-Sim uArch: core: 14, cta: 2 initialized @(18174,0)
GPGPU-Sim uArch: Shader 12 finished CTA #0 (18253,0), 5 CTAs running
GPGPU-Sim uArch: core: 12, cta: 0 initialized @(18254,0)
GPGPU-Sim uArch: Shader 11 finished CTA #3 (18301,0), 5 CTAs running
GPGPU-Sim uArch: core: 11, cta: 3 initialized @(18302,0)
GPGPU-Sim PTX: 8200000 instructions simulated : ctaid=(0,318,0) tid=(15,5,0)
GPGPU-Sim uArch: Shader 13 finished CTA #2 (18317,0), 5 CTAs running
GPGPU-Sim uArch: core: 13, cta: 2 initialized @(18318,0)
GPGPU-Sim uArch: Shader 0 finished CTA #0 (18432,0), 5 CTAs running
GPGPU-Sim uArch: core:  0, cta: 0 initialized @(18433,0)
GPGPU-Sim uArch: Shader 1 finished CTA #2 (18439,0), 5 CTAs running
GPGPU-Sim uArch: core:  1, cta: 2 initialized @(18440,0)
GPGPU-Sim uArch: Shader 3 finished CTA #5 (18467,0), 5 CTAs running
GPGPU-Sim uArch: core:  3, cta: 5 initialized @(18468,0)
GPGPU-Sim uArch: cycles simulated: 18500  inst.: 8082202 (ipc=436.9) sim_rate=252568 (inst/sec) elapsed = 0:0:00:32 / Tue Mar 22 13:24:33 2016
GPGPU-Sim PTX: 8300000 instructions simulated : ctaid=(0,274,0) tid=(9,3,0)
GPGPU-Sim uArch: Shader 11 finished CTA #5 (18525,0), 5 CTAs running
GPGPU-Sim uArch: core: 11, cta: 5 initialized @(18526,0)
GPGPU-Sim uArch: Shader 2 finished CTA #0 (18535,0), 5 CTAs running
GPGPU-Sim uArch: core:  2, cta: 0 initialized @(18536,0)
GPGPU-Sim uArch: Shader 11 finished CTA #2 (18685,0), 5 CTAs running
GPGPU-Sim uArch: core: 11, cta: 2 initialized @(18686,0)
GPGPU-Sim PTX: 8400000 instructions simulated : ctaid=(0,308,0) tid=(13,5,0)
GPGPU-Sim uArch: Shader 1 finished CTA #0 (18744,0), 5 CTAs running
GPGPU-Sim uArch: core:  1, cta: 0 initialized @(18745,0)
GPGPU-Sim uArch: Shader 14 finished CTA #1 (18751,0), 5 CTAs running
GPGPU-Sim uArch: core: 14, cta: 1 initialized @(18752,0)
GPGPU-Sim uArch: Shader 10 finished CTA #1 (18797,0), 5 CTAs running
GPGPU-Sim uArch: core: 10, cta: 1 initialized @(18798,0)
GPGPU-Sim uArch: Shader 12 finished CTA #1 (18813,0), 5 CTAs running
GPGPU-Sim uArch: core: 12, cta: 1 initialized @(18814,0)
GPGPU-Sim uArch: Shader 9 finished CTA #3 (18896,0), 5 CTAs running
GPGPU-Sim uArch: core:  9, cta: 3 initialized @(18897,0)
GPGPU-Sim uArch: Shader 6 finished CTA #2 (18900,0), 5 CTAs running
GPGPU-Sim uArch: core:  6, cta: 2 initialized @(18901,0)
GPGPU-Sim PTX: 8500000 instructions simulated : ctaid=(0,281,0) tid=(1,0,0)
GPGPU-Sim uArch: Shader 8 finished CTA #0 (18954,0), 5 CTAs running
GPGPU-Sim uArch: core:  8, cta: 0 initialized @(18955,0)
GPGPU-Sim uArch: cycles simulated: 19000  inst.: 8319186 (ipc=437.9) sim_rate=252096 (inst/sec) elapsed = 0:0:00:33 / Tue Mar 22 13:24:34 2016
GPGPU-Sim uArch: Shader 10 finished CTA #3 (19050,0), 5 CTAs running
GPGPU-Sim uArch: core: 10, cta: 3 initialized @(19051,0)
GPGPU-Sim uArch: Shader 8 finished CTA #2 (19100,0), 5 CTAs running
GPGPU-Sim uArch: core:  8, cta: 2 initialized @(19101,0)
GPGPU-Sim uArch: Shader 1 finished CTA #3 (19103,0), 5 CTAs running
GPGPU-Sim uArch: core:  1, cta: 3 initialized @(19104,0)
GPGPU-Sim PTX: 8600000 instructions simulated : ctaid=(0,269,0) tid=(13,13,0)
GPGPU-Sim PTX: 8700000 instructions simulated : ctaid=(0,276,0) tid=(5,1,0)
GPGPU-Sim uArch: Shader 2 finished CTA #1 (19381,0), 5 CTAs running
GPGPU-Sim uArch: core:  2, cta: 1 initialized @(19382,0)
GPGPU-Sim uArch: Shader 13 finished CTA #1 (19429,0), 5 CTAs running
GPGPU-Sim uArch: core: 13, cta: 1 initialized @(19430,0)
GPGPU-Sim uArch: Shader 2 finished CTA #2 (19489,0), 5 CTAs running
GPGPU-Sim uArch: core:  2, cta: 2 initialized @(19490,0)
GPGPU-Sim PTX: 8800000 instructions simulated : ctaid=(0,295,0) tid=(5,1,0)
GPGPU-Sim uArch: Shader 7 finished CTA #1 (19515,0), 5 CTAs running
GPGPU-Sim uArch: core:  7, cta: 1 initialized @(19516,0)
GPGPU-Sim uArch: Shader 5 finished CTA #0 (19645,0), 5 CTAs running
GPGPU-Sim uArch: core:  5, cta: 0 initialized @(19646,0)
GPGPU-Sim PTX: 8900000 instructions simulated : ctaid=(0,305,0) tid=(13,0,0)
GPGPU-Sim PTX: 9000000 instructions simulated : ctaid=(0,320,0) tid=(3,9,0)
GPGPU-Sim uArch: Shader 6 finished CTA #5 (19939,0), 5 CTAs running
GPGPU-Sim uArch: core:  6, cta: 5 initialized @(19940,0)
GPGPU-Sim uArch: Shader 5 finished CTA #1 (19951,0), 5 CTAs running
GPGPU-Sim uArch: core:  5, cta: 1 initialized @(19952,0)
GPGPU-Sim uArch: cycles simulated: 20000  inst.: 8822496 (ipc=441.1) sim_rate=259485 (inst/sec) elapsed = 0:0:00:34 / Tue Mar 22 13:24:35 2016
GPGPU-Sim uArch: Shader 12 finished CTA #3 (20070,0), 5 CTAs running
GPGPU-Sim uArch: core: 12, cta: 3 initialized @(20071,0)
GPGPU-Sim PTX: 9100000 instructions simulated : ctaid=(0,309,0) tid=(9,8,0)
GPGPU-Sim uArch: Shader 7 finished CTA #0 (20116,0), 5 CTAs running
GPGPU-Sim uArch: core:  7, cta: 0 initialized @(20117,0)
GPGPU-Sim uArch: Shader 9 finished CTA #5 (20198,0), 5 CTAs running
GPGPU-Sim uArch: core:  9, cta: 5 initialized @(20199,0)
GPGPU-Sim PTX: 9200000 instructions simulated : ctaid=(0,294,0) tid=(5,15,0)
GPGPU-Sim uArch: Shader 2 finished CTA #3 (20335,0), 5 CTAs running
GPGPU-Sim uArch: core:  2, cta: 3 initialized @(20336,0)
GPGPU-Sim uArch: Shader 4 finished CTA #2 (20452,0), 5 CTAs running
GPGPU-Sim uArch: core:  4, cta: 2 initialized @(20453,0)
GPGPU-Sim uArch: cycles simulated: 20500  inst.: 9054584 (ipc=441.7) sim_rate=258702 (inst/sec) elapsed = 0:0:00:35 / Tue Mar 22 13:24:36 2016
GPGPU-Sim PTX: 9300000 instructions simulated : ctaid=(0,270,0) tid=(13,3,0)
GPGPU-Sim uArch: Shader 9 finished CTA #2 (20525,0), 5 CTAs running
GPGPU-Sim uArch: core:  9, cta: 2 initialized @(20526,0)
GPGPU-Sim uArch: Shader 2 finished CTA #4 (20593,0), 5 CTAs running
GPGPU-Sim uArch: core:  2, cta: 4 initialized @(20594,0)
GPGPU-Sim uArch: Shader 3 finished CTA #4 (20610,0), 5 CTAs running
GPGPU-Sim uArch: core:  3, cta: 4 initialized @(20611,0)
GPGPU-Sim uArch: Shader 0 finished CTA #3 (20696,0), 5 CTAs running
GPGPU-Sim uArch: core:  0, cta: 3 initialized @(20697,0)
GPGPU-Sim PTX: 9400000 instructions simulated : ctaid=(0,350,0) tid=(15,15,0)
GPGPU-Sim uArch: Shader 14 finished CTA #0 (20735,0), 5 CTAs running
GPGPU-Sim uArch: core: 14, cta: 0 initialized @(20736,0)
GPGPU-Sim uArch: Shader 3 finished CTA #0 (20763,0), 5 CTAs running
GPGPU-Sim uArch: core:  3, cta: 0 initialized @(20764,0)
GPGPU-Sim uArch: Shader 14 finished CTA #4 (20789,0), 5 CTAs running
GPGPU-Sim uArch: core: 14, cta: 4 initialized @(20790,0)
GPGPU-Sim uArch: Shader 13 finished CTA #0 (20805,0), 5 CTAs running
GPGPU-Sim uArch: core: 13, cta: 0 initialized @(20806,0)
GPGPU-Sim uArch: Shader 10 finished CTA #4 (20915,0), 5 CTAs running
GPGPU-Sim uArch: core: 10, cta: 4 initialized @(20916,0)
GPGPU-Sim uArch: Shader 8 finished CTA #1 (20931,0), 5 CTAs running
GPGPU-Sim uArch: core:  8, cta: 1 initialized @(20932,0)
GPGPU-Sim PTX: 9500000 instructions simulated : ctaid=(0,329,0) tid=(11,8,0)
GPGPU-Sim uArch: Shader 14 finished CTA #3 (20932,0), 5 CTAs running
GPGPU-Sim uArch: core: 14, cta: 3 initialized @(20933,0)
GPGPU-Sim uArch: cycles simulated: 21000  inst.: 9283354 (ipc=442.1) sim_rate=257870 (inst/sec) elapsed = 0:0:00:36 / Tue Mar 22 13:24:37 2016
GPGPU-Sim uArch: Shader 9 finished CTA #0 (21080,0), 5 CTAs running
GPGPU-Sim uArch: core:  9, cta: 0 initialized @(21081,0)
GPGPU-Sim uArch: Shader 4 finished CTA #5 (21087,0), 5 CTAs running
GPGPU-Sim uArch: core:  4, cta: 5 initialized @(21088,0)
GPGPU-Sim PTX: 9600000 instructions simulated : ctaid=(0,303,0) tid=(5,6,0)
GPGPU-Sim uArch: Shader 4 finished CTA #3 (21176,0), 5 CTAs running
GPGPU-Sim uArch: core:  4, cta: 3 initialized @(21177,0)
GPGPU-Sim uArch: Shader 0 finished CTA #2 (21193,0), 5 CTAs running
GPGPU-Sim uArch: core:  0, cta: 2 initialized @(21194,0)
GPGPU-Sim uArch: Shader 11 finished CTA #1 (21206,0), 5 CTAs running
GPGPU-Sim uArch: core: 11, cta: 1 initialized @(21207,0)
GPGPU-Sim uArch: Shader 6 finished CTA #4 (21212,0), 5 CTAs running
GPGPU-Sim uArch: core:  6, cta: 4 initialized @(21213,0)
GPGPU-Sim uArch: Shader 0 finished CTA #5 (21284,0), 5 CTAs running
GPGPU-Sim uArch: core:  0, cta: 5 initialized @(21285,0)
GPGPU-Sim uArch: Shader 12 finished CTA #4 (21292,0), 5 CTAs running
GPGPU-Sim uArch: core: 12, cta: 4 initialized @(21293,0)
GPGPU-Sim PTX: 9700000 instructions simulated : ctaid=(0,314,0) tid=(3,0,0)
GPGPU-Sim uArch: Shader 6 finished CTA #1 (21411,0), 5 CTAs running
GPGPU-Sim uArch: core:  6, cta: 1 initialized @(21412,0)
GPGPU-Sim uArch: cycles simulated: 21500  inst.: 9518024 (ipc=442.7) sim_rate=257243 (inst/sec) elapsed = 0:0:00:37 / Tue Mar 22 13:24:38 2016
GPGPU-Sim uArch: Shader 10 finished CTA #5 (21557,0), 5 CTAs running
GPGPU-Sim uArch: core: 10, cta: 5 initialized @(21558,0)
GPGPU-Sim PTX: 9800000 instructions simulated : ctaid=(0,357,0) tid=(9,3,0)
GPGPU-Sim uArch: Shader 12 finished CTA #2 (21759,0), 5 CTAs running
GPGPU-Sim uArch: core: 12, cta: 2 initialized @(21760,0)
GPGPU-Sim PTX: 9900000 instructions simulated : ctaid=(0,301,0) tid=(7,12,0)
GPGPU-Sim uArch: Shader 1 finished CTA #4 (21806,0), 5 CTAs running
GPGPU-Sim uArch: core:  1, cta: 4 initialized @(21807,0)
GPGPU-Sim PTX: 10000000 instructions simulated : ctaid=(0,326,0) tid=(11,4,0)
GPGPU-Sim uArch: Shader 9 finished CTA #1 (21976,0), 5 CTAs running
GPGPU-Sim uArch: core:  9, cta: 1 initialized @(21977,0)
GPGPU-Sim uArch: Shader 8 finished CTA #5 (22052,0), 5 CTAs running
GPGPU-Sim uArch: core:  8, cta: 5 initialized @(22053,0)
GPGPU-Sim uArch: Shader 0 finished CTA #1 (22141,0), 5 CTAs running
GPGPU-Sim uArch: core:  0, cta: 1 initialized @(22142,0)
GPGPU-Sim PTX: 10100000 instructions simulated : ctaid=(0,350,0) tid=(13,3,0)
GPGPU-Sim uArch: Shader 7 finished CTA #3 (22207,0), 5 CTAs running
GPGPU-Sim uArch: core:  7, cta: 3 initialized @(22208,0)
GPGPU-Sim uArch: Shader 11 finished CTA #4 (22297,0), 5 CTAs running
GPGPU-Sim uArch: core: 11, cta: 4 initialized @(22298,0)
GPGPU-Sim uArch: Shader 13 finished CTA #5 (22299,0), 5 CTAs running
GPGPU-Sim uArch: core: 13, cta: 5 initialized @(22300,0)
GPGPU-Sim uArch: Shader 5 finished CTA #4 (22354,0), 5 CTAs running
GPGPU-Sim uArch: core:  5, cta: 4 initialized @(22355,0)
GPGPU-Sim PTX: 10200000 instructions simulated : ctaid=(0,346,0) tid=(3,2,0)
GPGPU-Sim uArch: Shader 3 finished CTA #3 (22409,0), 5 CTAs running
GPGPU-Sim uArch: core:  3, cta: 3 initialized @(22410,0)
GPGPU-Sim uArch: Shader 7 finished CTA #4 (22450,0), 5 CTAs running
GPGPU-Sim uArch: core:  7, cta: 4 initialized @(22451,0)
GPGPU-Sim uArch: Shader 13 finished CTA #4 (22459,0), 5 CTAs running
GPGPU-Sim uArch: core: 13, cta: 4 initialized @(22460,0)
GPGPU-Sim uArch: Shader 10 finished CTA #2 (22460,0), 5 CTAs running
GPGPU-Sim uArch: core: 10, cta: 2 initialized @(22461,0)
GPGPU-Sim uArch: Shader 3 finished CTA #1 (22491,0), 5 CTAs running
GPGPU-Sim uArch: core:  3, cta: 1 initialized @(22492,0)
GPGPU-Sim uArch: cycles simulated: 22500  inst.: 9994682 (ipc=444.2) sim_rate=263017 (inst/sec) elapsed = 0:0:00:38 / Tue Mar 22 13:24:39 2016
GPGPU-Sim uArch: Shader 1 finished CTA #1 (22502,0), 5 CTAs running
GPGPU-Sim uArch: core:  1, cta: 1 initialized @(22503,0)
GPGPU-Sim uArch: Shader 5 finished CTA #2 (22558,0), 5 CTAs running
GPGPU-Sim uArch: core:  5, cta: 2 initialized @(22559,0)
GPGPU-Sim PTX: 10300000 instructions simulated : ctaid=(0,334,0) tid=(7,0,0)
GPGPU-Sim uArch: Shader 4 finished CTA #4 (22580,0), 5 CTAs running
GPGPU-Sim uArch: Shader 13 finished CTA #3 (22580,0), 5 CTAs running
GPGPU-Sim uArch: core: 13, cta: 3 initialized @(22581,0)
GPGPU-Sim uArch: core:  4, cta: 4 initialized @(22581,0)
GPGPU-Sim uArch: Shader 8 finished CTA #4 (22591,0), 5 CTAs running
GPGPU-Sim uArch: core:  8, cta: 4 initialized @(22592,0)
GPGPU-Sim PTX: 10400000 instructions simulated : ctaid=(0,346,0) tid=(1,2,0)
GPGPU-Sim uArch: Shader 14 finished CTA #2 (22913,0), 5 CTAs running
GPGPU-Sim uArch: core: 14, cta: 2 initialized @(22914,0)
GPGPU-Sim PTX: 10500000 instructions simulated : ctaid=(0,340,0) tid=(1,5,0)
GPGPU-Sim uArch: cycles simulated: 23000  inst.: 10227198 (ipc=444.7) sim_rate=262235 (inst/sec) elapsed = 0:0:00:39 / Tue Mar 22 13:24:40 2016
GPGPU-Sim uArch: Shader 14 finished CTA #5 (23013,0), 5 CTAs running
GPGPU-Sim uArch: core: 14, cta: 5 initialized @(23014,0)
GPGPU-Sim uArch: Shader 10 finished CTA #0 (23026,0), 5 CTAs running
GPGPU-Sim uArch: core: 10, cta: 0 initialized @(23027,0)
GPGPU-Sim uArch: Shader 1 finished CTA #5 (23048,0), 5 CTAs running
GPGPU-Sim uArch: core:  1, cta: 5 initialized @(23049,0)
[...]
traffic_breakdown_coretomem[CONST_ACC_R] = 120 {8:15,}
traffic_breakdown_coretomem[GLOBAL_ACC_R] = 1078288 {8:134786,}
traffic_breakdown_coretomem[GLOBAL_ACC_W] = 20185360 {40:81920,72:49152,136:98306,}
traffic_breakdown_coretomem[INST_ACC_R] = 1448 {8:181,}
traffic_breakdown_memtocore[CONST_ACC_R] = 1080 {72:15,}
traffic_breakdown_memtocore[GLOBAL_ACC_R] = 18330896 {136:134786,}
traffic_breakdown_memtocore[GLOBAL_ACC_W] = 1835024 {8:229378,}
traffic_breakdown_memtocore[INST_ACC_R] = 24616 {136:181,}
maxmrqlatency = 392 
maxdqlatency = 0 
maxmflatency = 943 
averagemflatency = 248 
max_icnt2mem_latency = 389 
max_icnt2sh_latency = 394349 
mrq_lat_table:55910 	5312 	5829 	14089 	34041 	38509 	45697 	19452 	176 	0 	0 	0 	0 	0 	0 	0 	0 	0 	0 	0 	0 	0 	0 	0 	0 	0 	0 	0 	0 	0 	0 	0 	
dq_lat_table:0 	0 	0 	0 	0 	0 	0 	0 	0 	0 	0 	0 	0 	0 	0 	0 	0 	0 	0 	0 	0 	0 	0 	0 	0 	0 	0 	0 	0 	0 	0 	0 	
mf_lat_table:0 	0 	0 	0 	0 	0 	0 	220563 	135770 	7846 	0 	0 	0 	0 	0 	0 	0 	0 	0 	0 	0 	0 	0 	0 	0 	0 	0 	0 	0 	0 	0 	0 	
icnt2mem_lat_table:0 	0 	0 	132720 	96126 	80231 	51947 	3187 	149 	0 	0 	0 	0 	0 	0 	0 	0 	0 	0 	0 	0 	0 	0 	0 	
icnt2sh_lat_table:0 	0 	0 	38069 	60974 	33296 	2451 	11 	0 	0 	0 	0 	2079 	2929 	6609 	13031 	26092 	55219 	123419 	0 	0 	0 	0 	0 	
mf_lat_pw_table:0 	0 	0 	0 	0 	0 	0 	544 	237 	3 	0 	0 	0 	0 	0 	0 	0 	0 	0 	0 	0 	0 	0 	0 	0 	0 	0 	0 	0 	0 	0 	0 	
maximum concurrent accesses to same row:
dram[0]:        32        32        32        32        32        32        32        32        32        32        32        32        32        32        32        32 
dram[1]:        32        32        32        32        32        32        32        32        32        32        32        32        32        32        32        32 
dram[2]:        32        32        32        32        32        32        32        32        32        32        32        32        32        32        32        32 
dram[3]:        32        32        32        32        32        32        32        32        32        32        32        32        32        32        32        32 
dram[4]:        32        32        32        32        32        32        32        32        32        32        32        32        32        32        32        32 
dram[5]:        32        32        32        32        32        32        32        32        32        32        32        32        32        32        32        32 
maximum service time to same row:
dram[0]:     20125     19791     22994     22502     19587     20072     14832     15761     22372     21194     22310     21809     21656     22076     21337     21941 
dram[1]:     19589     19772     22666     22523     19888     20399     15093     15969     22348     20986     21923     22097     21583     22287     21472     22050 
dram[2]:     19052     19754     22672     22516     19803     20073     15198     16454     22421     21062     21918     21959     21912     22069     21522     21412 
dram[3]:     19358     19768     22647     22890     20225     20358     15038     16852     22511     20488     21778     21913     21927     21984     21632     21400 
dram[4]:     20208     20171     22559     22813     20153     20452     15697     17452     21923     20614     21747     21857     22075     22057     22094     21197 
dram[5]:     20101     20100     22490     22799     20470     20299     15734     17510     21753     20920     21691     22116     22094     21623     21944     21330 
average row accesses per activate:
dram[0]:  3.230216  3.421374  3.516484  3.672131  3.325000  3.612800  3.187328  3.371720  3.091275  3.308908  3.197496  3.424739  3.128065  3.559505  3.258840  3.465361 
dram[1]:  3.193732  3.489097  3.566879  3.758389  3.323529  3.503876  3.179945  3.352685  3.072096  3.375367  3.177285  3.404444  3.170799  3.383824  3.211994  3.426229 
dram[2]:  3.205128  3.578275  3.584000  3.916084  3.273913  3.465544  3.146939  3.386530  3.182826  3.376833  3.129252  3.397929  3.307914  3.317003  3.213687  3.394970 
dram[3]:  3.182979  3.451464  3.446154  3.835616  3.088919  3.548589  3.151433  3.505311  3.172176  3.299856  3.241185  3.479576  3.146776  3.400594  3.260993  3.459460 
dram[4]:  3.166667  3.566879  3.527559  3.745819  3.258297  3.490712  3.209431  3.560000  3.083221  3.233474  3.185596  3.368960  3.152472  3.395864  3.333817  3.298422 
dram[5]:  3.212034  3.516484  3.451464  3.862069  3.227143  3.417798  3.165753  3.318508  3.152472  3.266667  3.287554  3.426866  3.137790  3.354839  3.327062  3.432836 
average row locality = 219015/65490 = 3.344251
number of total memory accesses made:
dram[0]:         0         0         0         0         0         0         0         0         0         0         0         0         0         0         0         0 
dram[1]:         0         0         0         0         0         0         0         0         0         0         0         0         0         0         0         0 
dram[2]:         0         0         0         0         0         0         0         0         0         0         0         0         0         0         0         0 
dram[3]:         0         0         0         0         0         0         0         0         0         0         0         0         0         0         0         0 
dram[4]:         0         0         0         0         0         0         0         0         0         0         0         0         0         0         0         0 
dram[5]:         0         0         0         0         0         0         0         0         0         0         0         0         0         0         0         0 
total accesses: 0
min_bank_accesses = 0!
min_chip_accesses = 0!
number of total read accesses:
dram[0]:      1153      1153      1152      1152      1153      1152      1152      1152      1152      1152      1152      1152      1152      1152      1152      1152 
dram[1]:      1150      1152      1152      1152      1152      1152      1152      1152      1152      1152      1152      1152      1152      1152      1152      1152 
dram[2]:      1154      1152      1152      1152      1152      1156      1152      1152      1152      1152      1152      1152      1152      1152      1152      1152 
dram[3]:      1158      1152      1152      1152      1152      1156      1152      1152      1152      1152      1152      1152      1152      1152      1152      1152 
dram[4]:      1154      1152      1152      1152      1152      1154      1152      1152      1152      1152      1152      1152      1152      1152      1152      1152 
dram[5]:      1154      1152      1152      1152      1152      1154      1152      1152      1152      1152      1152      1152      1152      1152      1152      1152 
total reads: 110617
bank skew: 1158/1150 = 1.01
chip skew: 18442/18430 = 1.00
number of total write accesses:
dram[0]:      1092      1088      1088      1088      1108      1106      1162      1161      1151      1151      1147      1146      1144      1151      1152      1149 
dram[1]:      1092      1088      1088      1088      1108      1108      1163      1158      1149      1150      1142      1146      1150      1149      1151      1147 
dram[2]:      1096      1088      1088      1088      1107      1107      1161      1161      1146      1151      1148      1145      1147      1150      1149      1143 
dram[3]:      1086      1088      1088      1088      1106      1108      1158      1158      1151      1148      1146      1148      1142      1140      1147      1152 
dram[4]:      1088      1088      1088      1088      1106      1101      1162      1162      1145      1147      1148      1149      1143      1147      1145      1147 
dram[5]:      1088      1088      1088      1088      1107      1112      1159      1161      1143      1151      1146      1144      1148      1136      1147      1148 
total reads: 108398
bank skew: 1163/1086 = 1.07
chip skew: 18084/18054 = 1.00
average mf latency per bank:
dram[0]:        390       399       398       413       408       408       406       416       406       423       417       425       418       427       410       419
dram[1]:        393       400       410       411       408       413       407       418       413       415       412       417       417       420       411       421
dram[2]:        396       405       414       421       415       416       418       413       417       416       412       415       423       419       413       418
dram[3]:        399       403       404       407       408       406       423       415       421       420       410       412       420       423       413       422
dram[4]:        391       401       409       404       410       405       416       413       412       420       406       422       416       425       416       421
dram[5]:        393       402       412       406       406       408       405       412       410       415       412       416       417       421       414       424
maximum mf latency per bank:
dram[0]:        714       766       799       832       858       809       697       722       612       823       610       745       629       693       618       694
dram[1]:        841       840       757       924       757       919       713       722       671       690       625       704       651       681       707       683
dram[2]:        820       901       871       943       871       832       854       665       687       669       632       648       635       661       661       666
dram[3]:        816       746       838       911       904       747       741       792       658       673       594       627       680       720       643       692
dram[4]:        840       862       921       895       891       645       775       660       652       779       601       737       642       729       624       754
dram[5]:        873       789       921       868       782       752       708       625       700       657       693       690       597       648       658       643

Number of Memory Banks Accessed per Memory Operation per Warp (from 0):
0	0	0	0	0	0	0	0	0	0	0	0	0	0	0	0	0	0	0	0	0	0	0	0	0	0	0	0	0	0	0	0	0	0	0	0	0	0	0	0	0	0	0	0	0	0	0	0	0	0	0	0	0	0	0	0	0	0	0	0	0	0	0	0	0	0	0	0	0	0	0	0	0	0	0	0	0	0	0	0	0	0	0	0	0	0	0	0	0	0	0	0	0	0	0	0	
Average # of Memory Banks Accessed per Memory Operation per Warp=-nan

position of mrq chosen
0	0	0	0	0	0	0	0	0	0	0	0	0	0	0	0	

average position of mrq chosen = -nan
Memory Partition 0: 
Cache L2_bank_000:
MSHR contents

Cache L2_bank_001:
MSHR contents

In Dram Latency Queue (total = 0): 
DRAM[0]: 16 bks, busW=4 BL=8 CL=12, tRRD=2 tCCD=6, tRCD=12 tRAS=28 tRP=12 tRC=40
n_cmd=520540 n_nop=427058 n_act=10897 n_pre=10881 n_req=36519 n_rd=36870 n_write=34834 bw_util=0.2755
n_activity=368677 dram_eff=0.389
bk0: 2306a 476604i bk1: 2306a 476101i bk2: 2304a 475969i bk3: 2304a 475000i bk4: 2306a 475020i bk5: 2304a 476138i bk6: 2304a 474912i bk7: 2304a 473650i bk8: 2304a 475881i bk9: 2304a 475716i bk10: 2304a 474302i bk11: 2304a 474244i bk12: 2304a 474283i bk13: 2304a 474204i bk14: 2304a 474666i bk15: 2304a 474194i 
dram_util_bins: 0 0 0 0 0 0 0 0 0 0
dram_eff_bins: 0 0 0 0 0 0 0 0 0 0
mrqq: max=16 avg=4.25803
Memory Partition 1: 
Cache L2_bank_002:
MSHR contents

Cache L2_bank_003:
MSHR contents

In Dram Latency Queue (total = 0): 
DRAM[1]: 16 bks, busW=4 BL=8 CL=12, tRRD=2 tCCD=6, tRCD=12 tRAS=28 tRP=12 tRC=40
n_cmd=520540 n_nop=427007 n_act=10932 n_pre=10916 n_req=36507 n_rd=36860 n_write=34825 bw_util=0.2754
n_activity=367675 dram_eff=0.3899
bk0: 2300a 476072i bk1: 2304a 476543i bk2: 2304a 475985i bk3: 2304a 476336i bk4: 2304a 475212i bk5: 2304a 475108i bk6: 2304a 475254i bk7: 2304a 474738i bk8: 2304a 475645i bk9: 2304a 475672i bk10: 2304a 474489i bk11: 2304a 473889i bk12: 2304a 474360i bk13: 2304a 473855i bk14: 2304a 474806i bk15: 2304a 474652i 
dram_util_bins: 0 0 0 0 0 0 0 0 0 0
dram_eff_bins: 0 0 0 0 0 0 0 0 0 0
mrqq: max=16 avg=4.2234
Memory Partition 2: 
Cache L2_bank_004:
MSHR contents

Cache L2_bank_005:
MSHR contents

In Dram Latency Queue (total = 0): 
DRAM[2]: 16 bks, busW=4 BL=8 CL=12, tRRD=2 tCCD=6, tRCD=12 tRAS=28 tRP=12 tRC=40
n_cmd=520540 n_nop=427089 n_act=10882 n_pre=10866 n_req=36513 n_rd=36876 n_write=34827 bw_util=0.2755
n_activity=368996 dram_eff=0.3886
bk0: 2308a 476263i bk1: 2304a 475373i bk2: 2304a 475691i bk3: 2304a 475859i bk4: 2304a 475909i bk5: 2312a 475663i bk6: 2304a 474264i bk7: 2304a 475164i bk8: 2304a 476861i bk9: 2304a 473882i bk10: 2304a 472851i bk11: 2304a 473606i bk12: 2304a 473654i bk13: 2304a 472576i bk14: 2304a 474953i bk15: 2304a 473515i 
dram_util_bins: 0 0 0 0 0 0 0 0 0 0
dram_eff_bins: 0 0 0 0 0 0 0 0 0 0
mrqq: max=16 avg=4.26866
Memory Partition 3: 
Cache L2_bank_006:
MSHR contents

Cache L2_bank_007:
MSHR contents

In Dram Latency Queue (total = 0): 
DRAM[3]: 16 bks, busW=4 BL=8 CL=12, tRRD=2 tCCD=6, tRCD=12 tRAS=28 tRP=12 tRC=40
n_cmd=520540 n_nop=427034 n_act=10916 n_pre=10900 n_req=36496 n_rd=36884 n_write=34806 bw_util=0.2754
n_activity=367560 dram_eff=0.3901
bk0: 2316a 475549i bk1: 2304a 475615i bk2: 2304a 474802i bk3: 2304a 475234i bk4: 2304a 473895i bk5: 2312a 475847i bk6: 2304a 475083i bk7: 2304a 475865i bk8: 2304a 475767i bk9: 2304a 474409i bk10: 2304a 474332i bk11: 2304a 474488i bk12: 2304a 473903i bk13: 2304a 474010i bk14: 2304a 474555i bk15: 2304a 473233i 
dram_util_bins: 0 0 0 0 0 0 0 0 0 0
dram_eff_bins: 0 0 0 0 0 0 0 0 0 0
mrqq: max=16 avg=4.21321
Memory Partition 4: 
Cache L2_bank_008:
MSHR contents

Cache L2_bank_009:
MSHR contents

In Dram Latency Queue (total = 0): 
DRAM[4]: 16 bks, busW=4 BL=8 CL=12, tRRD=2 tCCD=6, tRCD=12 tRAS=28 tRP=12 tRC=40
n_cmd=520540 n_nop=427016 n_act=10931 n_pre=10915 n_req=36490 n_rd=36872 n_write=34806 bw_util=0.2754
n_activity=368424 dram_eff=0.3891
bk0: 2308a 476431i bk1: 2304a 476020i bk2: 2304a 475121i bk3: 2304a 474945i bk4: 2304a 475573i bk5: 2308a 475637i bk6: 2304a 475864i bk7: 2304a 476528i bk8: 2304a 475694i bk9: 2304a 474521i bk10: 2304a 475009i bk11: 2304a 474169i bk12: 2304a 473329i bk13: 2304a 473603i bk14: 2304a 475288i bk15: 2304a 473422i 
dram_util_bins: 0 0 0 0 0 0 0 0 0 0
dram_eff_bins: 0 0 0 0 0 0 0 0 0 0
mrqq: max=16 avg=4.19787
Memory Partition 5: 
Cache L2_bank_010:
MSHR contents

Cache L2_bank_011:
MSHR contents

In Dram Latency Queue (total = 0): 
DRAM[5]: 16 bks, busW=4 BL=8 CL=12, tRRD=2 tCCD=6, tRCD=12 tRAS=28 tRP=12 tRC=40
n_cmd=520540 n_nop=427014 n_act=10932 n_pre=10916 n_req=36490 n_rd=36872 n_write=34806 bw_util=0.2754
n_activity=369136 dram_eff=0.3884
bk0: 2308a 475937i bk1: 2304a 476438i bk2: 2304a 474675i bk3: 2304a 476076i bk4: 2304a 475403i bk5: 2308a 474646i bk6: 2304a 475427i bk7: 2304a 474638i bk8: 2304a 475897i bk9: 2304a 475011i bk10: 2304a 474200i bk11: 2304a 474206i bk12: 2304a 473658i bk13: 2304a 473390i bk14: 2304a 475254i bk15: 2304a 474678i 
dram_util_bins: 0 0 0 0 0 0 0 0 0 0
dram_eff_bins: 0 0 0 0 0 0 0 0 0 0
mrqq: max=16 avg=4.22509

========= L2 cache stats =========
L2_cache_bank[0]: Access = 30385, Miss = 9218, Miss_rate = 0.303, Pending_hits = 1449, Reservation_fails = 12976
L2_cache_bank[1]: Access = 30344, Miss = 9217, Miss_rate = 0.304, Pending_hits = 1428, Reservation_fails = 12681
L2_cache_bank[2]: Access = 30399, Miss = 9214, Miss_rate = 0.303, Pending_hits = 1425, Reservation_fails = 12294
L2_cache_bank[3]: Access = 30336, Miss = 9216, Miss_rate = 0.304, Pending_hits = 1391, Reservation_fails = 11638
L2_cache_bank[4]: Access = 30389, Miss = 9218, Miss_rate = 0.303, Pending_hits = 1434, Reservation_fails = 12057
L2_cache_bank[5]: Access = 30324, Miss = 9220, Miss_rate = 0.304, Pending_hits = 1410, Reservation_fails = 12631
L2_cache_bank[6]: Access = 30393, Miss = 9222, Miss_rate = 0.303, Pending_hits = 1395, Reservation_fails = 12386
L2_cache_bank[7]: Access = 30384, Miss = 9220, Miss_rate = 0.303, Pending_hits = 1400, Reservation_fails = 12254
L2_cache_bank[8]: Access = 30376, Miss = 9218, Miss_rate = 0.303, Pending_hits = 1415, Reservation_fails = 13182
L2_cache_bank[9]: Access = 30339, Miss = 9218, Miss_rate = 0.304, Pending_hits = 1399, Reservation_fails = 11875
L2_cache_bank[10]: Access = 30337, Miss = 9218, Miss_rate = 0.304, Pending_hits = 1416, Reservation_fails = 11600
L2_cache_bank[11]: Access = 30354, Miss = 9218, Miss_rate = 0.304, Pending_hits = 1410, Reservation_fails = 12037
L2_total_cache_accesses = 364360
L2_total_cache_misses = 110617
L2_total_cache_miss_rate = 0.3036
L2_total_cache_pending_hits = 16972
L2_total_cache_reservation_fails = 147611
L2_total_cache_breakdown:
	L2_cache_stats_breakdown[GLOBAL_ACC_R][HIT] = 15139
	L2_cache_stats_breakdown[GLOBAL_ACC_R][HIT_RESERVED] = 11092
	L2_cache_stats_breakdown[GLOBAL_ACC_R][MISS] = 108555
	L2_cache_stats_breakdown[GLOBAL_ACC_R][RESERVATION_FAIL] = 1256
	L2_cache_stats_breakdown[CONST_ACC_R][HIT] = 11
	L2_cache_stats_breakdown[CONST_ACC_R][HIT_RESERVED] = 3
	L2_cache_stats_breakdown[CONST_ACC_R][MISS] = 1
	L2_cache_stats_breakdown[CONST_ACC_R][RESERVATION_FAIL] = 109
	L2_cache_stats_breakdown[GLOBAL_ACC_W][HIT] = 221486
	L2_cache_stats_breakdown[GLOBAL_ACC_W][HIT_RESERVED] = 5844
	L2_cache_stats_breakdown[GLOBAL_ACC_W][MISS] = 2048
	L2_cache_stats_breakdown[GLOBAL_ACC_W][RESERVATION_FAIL] = 144969
	L2_cache_stats_breakdown[INST_ACC_R][HIT] = 135
	L2_cache_stats_breakdown[INST_ACC_R][HIT_RESERVED] = 33
	L2_cache_stats_breakdown[INST_ACC_R][MISS] = 13
	L2_cache_stats_breakdown[INST_ACC_R][RESERVATION_FAIL] = 1277
L2_cache_data_port_util = 0.216
L2_cache_fill_port_util = 0.094

icnt_total_pkts_mem_to_simt=904258
icnt_total_pkts_simt_to_mem=937808
LD_mem_lat_dist  0 0 0 0 0 0 0 0 0 0 0 0 0 0 0 0 0 0 0 0 0 0 0 0 0 0 0
ST_mem_lat_dist  0 0 0 0 0 0 0 0 0 0 0 0 0 0 0 0 0 0 0 0 0 0 0 0 0 0 0
----------------------------Interconnect-DETAILS--------------------------------
Class 0:
Packet latency average = 26.3361
	minimum = 6
	maximum = 301
Network latency average = 18.6479
	minimum = 6
	maximum = 291
Slowest packet = 689616
Flit latency average = 15.8639
	minimum = 6
	maximum = 291
Slowest flit = 1739550
Fragmentation average = 0.0131317
	minimum = 0
	maximum = 223
Injected packet rate average = 0.113673
	minimum = 0.100047 (at node 8)
	maximum = 0.128102 (at node 21)
Accepted packet rate average = 0.113673
	minimum = 0.100047 (at node 8)
	maximum = 0.128102 (at node 21)
Injected flit rate average = 0.298931
	minimum = 0.262689 (at node 8)
	maximum = 0.337476 (at node 21)
Accepted flit rate average= 0.298931
	minimum = 0.263202 (at node 8)
	maximum = 0.336478 (at node 22)
Injected packet length average = 2.62976
Accepted packet length average = 2.62976
Total in-flight flits = 0 (0 measured)
====== Overall Traffic Statistics ======
====== Traffic class 0 ======
Packet latency average = 18.9249 (2 samples)
	minimum = 6 (2 samples)
	maximum = 267.5 (2 samples)
Network latency average = 14.4038 (2 samples)
	minimum = 6 (2 samples)
	maximum = 260 (2 samples)
Flit latency average = 12.5386 (2 samples)
	minimum = 6 (2 samples)
	maximum = 258 (2 samples)
Fragmentation average = 0.00945366 (2 samples)
	minimum = 0 (2 samples)
	maximum = 218.5 (2 samples)
Injected packet rate average = 0.0780223 (2 samples)
	minimum = 0.0689908 (2 samples)
	maximum = 0.0879789 (2 samples)
Accepted packet rate average = 0.0780223 (2 samples)
	minimum = 0.0689908 (2 samples)
	maximum = 0.0879789 (2 samples)
Injected flit rate average = 0.19968 (2 samples)
	minimum = 0.178547 (2 samples)
	maximum = 0.222682 (2 samples)
Accepted flit rate average = 0.19968 (2 samples)
	minimum = 0.174244 (2 samples)
	maximum = 0.227671 (2 samples)
Injected packet size average = 2.55927 (2 samples)
Accepted packet size average = 2.55927 (2 samples)
Hops average = 1 (2 samples)
