

        *** GPGPU-Sim Simulator Version 3.2.2  [build 0] ***


GPGPU-Sim PTX: simulation mode 0 (can change with PTX_SIM_MODE_FUNC environment variable:
               1=functional simulation only, 0=detailed performance simulator)
GPGPU-Sim: Configuration options:

-network_mode                           1 # Interconnection network mode
-inter_config_file   config_fermi_islip.icnt # Interconnection network config file
-gpgpu_ptx_use_cuobjdump                    1 # Use cuobjdump to extract ptx and sass from binaries
-gpgpu_experimental_lib_support                    0 # Try to extract code from cuda libraries [Broken because of unknown cudaGetExportTable]
-gpgpu_ptx_convert_to_ptxplus                    0 # Convert SASS (native ISA) to ptxplus and run ptxplus
-gpgpu_ptx_force_max_capability                   20 # Force maximum compute capability
-gpgpu_ptx_inst_debug_to_file                    0 # Dump executed instructions' debug information to file
-gpgpu_ptx_inst_debug_file       inst_debug.txt # Executed instructions' debug output file
-gpgpu_ptx_inst_debug_thread_uid                    1 # Thread UID for executed instructions' debug output
-gpgpu_simd_model                       1 # 1 = post-dominator
-gpgpu_shader_core_pipeline              1536:32 # shader core pipeline config, i.e., {<nthread>:<warpsize>}
-gpgpu_tex_cache:l1  4:128:24,L:R:m:N:L,F:128:4,128:2 # per-shader L1 texture cache  (READ-ONLY) config  {<nsets>:<bsize>:<assoc>,<rep>:<wr>:<alloc>:<wr_alloc>,<mshr>:<N>:<merge>,<mq>:<rf>}
-gpgpu_const_cache:l1 64:64:2,L:R:f:N:L,A:2:32,4 # per-shader L1 constant memory cache  (READ-ONLY) config  {<nsets>:<bsize>:<assoc>,<rep>:<wr>:<alloc>:<wr_alloc>,<mshr>:<N>:<merge>,<mq>} 
-gpgpu_cache:il1     4:128:4,L:R:f:N:L,A:2:32,4 # shader L1 instruction cache config  {<nsets>:<bsize>:<assoc>,<rep>:<wr>:<alloc>:<wr_alloc>,<mshr>:<N>:<merge>,<mq>} 
-gpgpu_cache:dl1     32:128:4,L:L:m:N:H,A:32:8,8:2,0,1:0:1:1:0:1,1:4:8:16:32:64,/sciclone/data10/hwang07/GPU_RESEARCH/swl/swl_outputs/RESULTS/swl1/ # per-shader L1 data cache config  {<nsets>:<bsize>:<assoc>,<rep>:<wr>:<alloc>:<wr_alloc>,<mshr>:<N>:<merge>,<mq> | none}
-gpgpu_cache:dl1PrefL1                 none # per-shader L1 data cache config  {<nsets>:<bsize>:<assoc>,<rep>:<wr>:<alloc>:<wr_alloc>,<mshr>:<N>:<merge>,<mq> | none}
-gpgpu_cache:dl1PreShared                 none # per-shader L1 data cache config  {<nsets>:<bsize>:<assoc>,<rep>:<wr>:<alloc>:<wr_alloc>,<mshr>:<N>:<merge>,<mq> | none}
-gmem_skip_L1D                          0 # global memory access skip L1D cache (implements -Xptxas -dlcm=cg, default=no skip)
-gpgpu_perfect_mem                      0 # enable perfect memory mode (no cache miss)
-n_regfile_gating_group                    4 # group of lanes that should be read/written together)
-gpgpu_clock_gated_reg_file                    0 # enable clock gated reg file for power calculations
-gpgpu_clock_gated_lanes                    0 # enable clock gated lanes for power calculations
-gpgpu_shader_registers                32768 # Number of registers per shader core. Limits number of concurrent CTAs. (default 8192)
-gpgpu_shader_cta                       8 # Maximum number of concurrent CTAs in shader (default 8)
-gpgpu_num_cta_barriers                   16 # Maximum number of named barriers per CTA (default 16)
-gpgpu_n_clusters                      15 # number of processing clusters
-gpgpu_n_cores_per_cluster                    1 # number of simd cores per cluster
-gpgpu_n_cluster_ejection_buffer_size                    8 # number of packets in ejection buffer
-gpgpu_n_ldst_response_buffer_size                    2 # number of response packets in ld/st unit ejection buffer
-gpgpu_shmem_size                   16384 # Size of shared memory per shader core (default 16kB)
-gpgpu_shmem_size                   49152 # Size of shared memory per shader core (default 16kB)
-gpgpu_shmem_size_PrefL1                16384 # Size of shared memory per shader core (default 16kB)
-gpgpu_shmem_size_PrefShared                16384 # Size of shared memory per shader core (default 16kB)
-gpgpu_shmem_num_banks                   32 # Number of banks in the shared memory in each shader core (default 16)
-gpgpu_shmem_limited_broadcast                    0 # Limit shared memory to do one broadcast per cycle (default on)
-gpgpu_shmem_warp_parts                    1 # Number of portions a warp is divided into for shared memory bank conflict check 
-gpgpu_warpdistro_shader                   -1 # Specify which shader core to collect the warp size distribution from
-gpgpu_warp_issue_shader                    0 # Specify which shader core to collect the warp issue distribution from
-gpgpu_local_mem_map                    1 # Mapping from local memory space address to simulated GPU physical address space (default = enabled)
-gpgpu_num_reg_banks                   16 # Number of register banks (default = 8)
-gpgpu_reg_bank_use_warp_id                    0 # Use warp ID in mapping registers to banks (default = off)
-gpgpu_operand_collector_num_units_sp                    6 # number of collector units (default = 4)
-gpgpu_operand_collector_num_units_sfu                    8 # number of collector units (default = 4)
-gpgpu_operand_collector_num_units_mem                    2 # number of collector units (default = 2)
-gpgpu_operand_collector_num_units_gen                    0 # number of collector units (default = 0)
-gpgpu_operand_collector_num_in_ports_sp                    2 # number of collector unit in ports (default = 1)
-gpgpu_operand_collector_num_in_ports_sfu                    1 # number of collector unit in ports (default = 1)
-gpgpu_operand_collector_num_in_ports_mem                    1 # number of collector unit in ports (default = 1)
-gpgpu_operand_collector_num_in_ports_gen                    0 # number of collector unit in ports (default = 0)
-gpgpu_operand_collector_num_out_ports_sp                    2 # number of collector unit in ports (default = 1)
-gpgpu_operand_collector_num_out_ports_sfu                    1 # number of collector unit in ports (default = 1)
-gpgpu_operand_collector_num_out_ports_mem                    1 # number of collector unit in ports (default = 1)
-gpgpu_operand_collector_num_out_ports_gen                    0 # number of collector unit in ports (default = 0)
-gpgpu_coalesce_arch                   13 # Coalescing arch (default = 13, anything else is off for now)
-gpgpu_num_sched_per_core                    2 # Number of warp schedulers per core
-gpgpu_max_insn_issue_per_warp                    1 # Max number of instructions that can be issued per warp in one cycle by scheduler
-gpgpu_simt_core_sim_order                    1 # Select the simulation order of cores in a cluster (0=Fix, 1=Round-Robin)
-gpgpu_pipeline_widths        2,1,1,2,1,1,2 # Pipeline widths ID_OC_SP,ID_OC_SFU,ID_OC_MEM,OC_EX_SP,OC_EX_SFU,OC_EX_MEM,EX_WB
-gpgpu_num_sp_units                     2 # Number of SP units (default=1)
-gpgpu_num_sfu_units                    1 # Number of SF units (default=1)
-gpgpu_num_mem_units                    1 # Number if ldst units (default=1) WARNING: not hooked up to anything
-gpgpu_scheduler        warp_limiting:2:1 # Scheduler configuration: < lrr | gto | two_level_active > If two_level_active:<num_active_warps>:<inner_prioritization>:<outer_prioritization>For complete list of prioritization values see shader.h enum scheduler_prioritization_typeDefault: gto
-gpgpu_dram_scheduler                    1 # 0 = fifo, 1 = FR-FCFS (defaul)
-gpgpu_dram_partition_queues              8:8:8:8 # i2$:$2d:d2$:$2i
-l2_ideal                               0 # Use a ideal L2 cache that always hit
-gpgpu_cache:dl2     64:128:8,L:B:m:W:L,A:32:4,4:0,32 # unified banked L2 data cache config  {<nsets>:<bsize>:<assoc>,<rep>:<wr>:<alloc>:<wr_alloc>,<mshr>:<N>:<merge>,<mq>}
-gpgpu_cache:dl2_texture_only                    0 # L2 cache used for texture only
-gpgpu_n_mem                            6 # number of memory modules (e.g. memory controllers) in gpu
-gpgpu_n_sub_partition_per_mchannel                    2 # number of memory subpartition in each memory module
-gpgpu_n_mem_per_ctrlr                    2 # number of memory chips per memory controller
-gpgpu_memlatency_stat                   14 # track and display latency statistics 0x2 enables MC, 0x4 enables queue logs
-gpgpu_frfcfs_dram_sched_queue_size                   16 # 0 = unlimited (default); # entries per chip
-gpgpu_dram_return_queue_size                  116 # 0 = unlimited (default); # entries per chip
-gpgpu_dram_buswidth                    4 # default = 4 bytes (8 bytes per cycle at DDR)
-gpgpu_dram_burst_length                    8 # Burst length of each DRAM request (default = 4 data bus cycle)
-dram_data_command_freq_ratio                    4 # Frequency ratio between DRAM data bus and command bus (default = 2 times, i.e. DDR)
-gpgpu_dram_timing_opt nbk=16:CCD=2:RRD=6:RCD=12:RAS=28:RP=12:RC=40: CL=12:WL=4:CDLR=5:WR=12:nbkgrp=4:CCDL=3:RTPL=2 # DRAM timing parameters = {nbk:tCCD:tRRD:tRCD:tRAS:tRP:tRC:CL:WL:tCDLR:tWR:nbkgrp:tCCDL:tRTPL}
-rop_latency                          120 # ROP queue latency (default 85)
-dram_latency                         100 # DRAM latency (default 30)
-gpgpu_mem_addr_mapping dramid@8;00000000.00000000.00000000.00000000.0000RRRR.RRRRRRRR.BBBCCCCB.CCSSSSSS # mapping memory address to dram model {dramid@<start bit>;<memory address map>}
-gpgpu_mem_addr_test                    0 # run sweep test to check address mapping for aliased address
-gpgpu_mem_address_mask                    1 # 0 = old addressing mask, 1 = new addressing mask, 2 = new add. mask + flipped bank sel and chip sel bits
-gpuwattch_xml_file  gpuwattch_gtx480.xml # GPUWattch XML file
-power_simulation_enabled                    0 # Turn on power simulator (1=On, 0=Off)
-power_per_cycle_dump                    0 # Dump detailed power output each cycle
-power_trace_enabled                    0 # produce a file for the power trace (1=On, 0=Off)
-power_trace_zlevel                     6 # Compression level of the power trace output log (0=no comp, 9=highest)
-steady_power_levels_enabled                    0 # produce a file for the steady power levels (1=On, 0=Off)
-steady_state_definition                  8:4 # allowed deviation:number of samples
-gpgpu_max_cycle                        0 # terminates gpu simulation early (0 = no limit)
-gpgpu_max_insn                         0 # terminates gpu simulation early (0 = no limit)
-gpgpu_max_cta                          0 # terminates gpu simulation early (0 = no limit)
-gpgpu_runtime_stat                   500 # display runtime statistics such as dram utilization {<freq>:<flag>}
-liveness_message_freq                    1 # Minimum number of seconds between simulation liveness messages (0 = always print)
-gpgpu_flush_l1_cache                    0 # Flush L1 cache at the end of each kernel call
-gpgpu_flush_l2_cache                    0 # Flush L2 cache at the end of each kernel call
-gpgpu_deadlock_detect                    1 # Stop the simulation at deadlock (1=on (default), 0=off)
-gpgpu_ptx_instruction_classification                    0 # if enabled will classify ptx instruction types per kernel (Max 255 kernels now)
-gpgpu_ptx_sim_mode                     0 # Select between Performance (default) or Functional simulation (1)
-gpgpu_clock_domains 700.0:700.0:700.0:924.0 # Clock Domain Frequencies in MhZ {<Core Clock>:<ICNT Clock>:<L2 Clock>:<DRAM Clock>}
-gpgpu_max_concurrent_kernel                    8 # maximum kernels that can run concurrently on GPU
-gpgpu_cflog_interval                    0 # Interval between each snapshot in control flow logger
-visualizer_enabled                     0 # Turn on visualizer output (1=On, 0=Off)
-visualizer_outputfile                 NULL # Specifies the output log file for visualizer
-visualizer_zlevel                      6 # Compression level of the visualizer output log (0=no comp, 9=highest)
-trace_enabled                          0 # Turn on traces
-trace_components                    none # comma seperated list of traces to enable. Complete list found in trace_streams.tup. Default none
-trace_sampling_core                    0 # The core which is printed using CORE_DPRINTF. Default 0
-trace_sampling_memory_partition                   -1 # The memory partition which is printed using MEMPART_DPRINTF. Default -1 (i.e. all)
-enable_ptx_file_line_stats                    1 # Turn on PTX source line statistic profiling. (1 = On)
-ptx_line_stats_filename gpgpu_inst_stats.txt # Output file for PTX source line statistics.
-save_embedded_ptx                      0 # saves ptx files embedded in binary as <n>.ptx
-keep                                   0 # keep intermediate files created by GPGPU-Sim when interfacing with external programs
-gpgpu_ptx_save_converted_ptxplus                    0 # Saved converted ptxplus to a file
-ptx_opcode_latency_int         4,13,4,5,145 # Opcode latencies for integers <ADD,MAX,MUL,MAD,DIV>Default 1,1,19,25,145
-ptx_opcode_latency_fp          4,13,4,5,39 # Opcode latencies for single precision floating points <ADD,MAX,MUL,MAD,DIV>Default 1,1,1,1,30
-ptx_opcode_latency_dp         8,19,8,8,330 # Opcode latencies for double precision floating points <ADD,MAX,MUL,MAD,DIV>Default 8,8,8,8,335
-ptx_opcode_initiation_int            1,2,2,1,8 # Opcode initiation intervals for integers <ADD,MAX,MUL,MAD,DIV>Default 1,1,4,4,32
-ptx_opcode_initiation_fp            1,2,1,1,4 # Opcode initiation intervals for single precision floating points <ADD,MAX,MUL,MAD,DIV>Default 1,1,1,1,5
-ptx_opcode_initiation_dp         8,16,8,8,130 # Opcode initiation intervals for double precision floating points <ADD,MAX,MUL,MAD,DIV>Default 8,8,8,8,130
DRAM Timing Options:
nbk                                    16 # number of banks
CCD                                     2 # column to column delay
RRD                                     6 # minimal delay between activation of rows in different banks
RCD                                    12 # row to column delay
RAS                                    28 # time needed to activate row
RP                                     12 # time needed to precharge (deactivate) row
RC                                     40 # row cycle time
CDLR                                    5 # switching from write to read (changes tWTR)
WR                                     12 # last data-in to row precharge
CL                                     12 # CAS latency
WL                                      4 # Write latency
nbkgrp                                  4 # number of bank groups
CCDL                                    3 # column to column delay between accesses to different bank groups
RTPL                                    2 # read to precharge delay between accesses to different bank groups
Total number of memory sub partition = 12
addr_dec_mask[CHIP]  = 0000000000000000 	high:64 low:0
addr_dec_mask[BK]    = 000000000000e100 	high:16 low:8
addr_dec_mask[ROW]   = 000000000fff0000 	high:28 low:16
addr_dec_mask[COL]   = 0000000000001eff 	high:13 low:0
addr_dec_mask[BURST] = 000000000000003f 	high:6 low:0
sub_partition_id_mask = 0000000000000100
GPGPU-Sim uArch: clock freqs: 700000000.000000:700000000.000000:700000000.000000:924000000.000000
GPGPU-Sim uArch: clock periods: 0.00000000142857142857:0.00000000142857142857:0.00000000142857142857:0.00000000108225108225
*** Initializing Memory Statistics ***
GPGPU-Sim uArch: interconnect node map (shaderID+MemID to icntID)
GPGPU-Sim uArch: Memory nodes ID start from index: 15
GPGPU-Sim uArch:    0   1   2   3   4
GPGPU-Sim uArch:    5   6   7   8   9
GPGPU-Sim uArch:   10  11  12  13  14
GPGPU-Sim uArch:   15  16  17  18  19
GPGPU-Sim uArch:   20  21  22  23  24
GPGPU-Sim uArch:   25  26
GPGPU-Sim uArch: interconnect node reverse map (icntID to shaderID+MemID)
GPGPU-Sim uArch: Memory nodes start from ID: 15
GPGPU-Sim uArch:    0   1   2   3   4
GPGPU-Sim uArch:    5   6   7   8   9
GPGPU-Sim uArch:   10  11  12  13  14
GPGPU-Sim uArch:   15  16  17  18  19
GPGPU-Sim uArch:   20  21  22  23  24
GPGPU-Sim uArch:   25  26
2da471e6a07416e5693a12f48faeb39d  /sciclone/data10/hwang07/adwait/applications/benchmarks/rodinia/cuda/backprop/gpgpu_ptx_sim__backprop
GPGPU-Sim uArch: performance model initialization complete.
GPGPU-Sim PTX: __cudaRegisterFatBinary, fat_cubin_handle = 1, filename=backprop_cuda.cu
self exe links to: /sciclone/data10/hwang07/adwait/applications/benchmarks/rodinia/cuda/backprop/gpgpu_ptx_sim__backprop
Running md5sum using "md5sum /sciclone/data10/hwang07/adwait/applications/benchmarks/rodinia/cuda/backprop/gpgpu_ptx_sim__backprop "
Parsing file _cuobjdump_complete_output_XZJ8ig
######### cuobjdump parser ########
## Adding new section ELF
Adding arch: sm_20
Adding identifier: backprop_cuda.cu
## Adding new section PTX
Adding ptx filename: _cuobjdump_1.ptx
Adding arch: sm_20
Adding identifier: backprop_cuda.cu
Done parsing!!!
GPGPU-Sim PTX: __cudaRegisterFunction _Z24bpnn_adjust_weights_cudaPfiS_iS_S_ : hostFun 0x0x402f24, fat_cubin_handle = 1
GPGPU-Sim PTX: allocating shared region for "__cuda___cuda_local_var_39781_34_non_const_input_node40" from 0x0 to 0x40 (shared memory space)
GPGPU-Sim PTX: allocating shared region for "__cuda___cuda_local_var_39782_34_non_const_weight_matrix104" from 0x80 to 0x480 (shared memory space)
GPGPU-Sim PTX: instruction assembly for function '_Z22bpnn_layerforward_CUDAPfS_S_S_ii'...   done.
GPGPU-Sim PTX: finding reconvergence points for '_Z22bpnn_layerforward_CUDAPfS_S_S_ii'...
GPGPU-Sim PTX: Finding dominators for '_Z22bpnn_layerforward_CUDAPfS_S_S_ii'...
GPGPU-Sim PTX: Finding immediate dominators for '_Z22bpnn_layerforward_CUDAPfS_S_S_ii'...
GPGPU-Sim PTX: Finding postdominators for '_Z22bpnn_layerforward_CUDAPfS_S_S_ii'...
GPGPU-Sim PTX: Finding immediate postdominators for '_Z22bpnn_layerforward_CUDAPfS_S_S_ii'...
GPGPU-Sim PTX: pre-decoding instructions for '_Z22bpnn_layerforward_CUDAPfS_S_S_ii'...
GPGPU-Sim PTX: reconvergence points for _Z22bpnn_layerforward_CUDAPfS_S_S_ii...
GPGPU-Sim PTX:  1 (potential) branch divergence @  PC=0x048 (_1.ptx:76) @!%p1 bra $Lt_0_3586;
GPGPU-Sim PTX:    immediate post dominator      @  PC=0x090 (_1.ptx:88) bar.sync 0;
GPGPU-Sim PTX:  2 (potential) branch divergence @  PC=0x190 (_1.ptx:125) @!%p2 bra $Lt_0_4098;
GPGPU-Sim PTX:    immediate post dominator      @  PC=0x290 (_1.ptx:166) ld.shared.f32 %f17, [%rd14+0];
GPGPU-Sim PTX:  3 (potential) branch divergence @  PC=0x1e8 (_1.ptx:139) @%p3 bra $Lt_0_4866;
GPGPU-Sim PTX:    immediate post dominator      @  PC=0x268 (_1.ptx:158) bar.sync 0;
GPGPU-Sim PTX:  4 (potential) branch divergence @  PC=0x288 (_1.ptx:163) @%p4 bra $Lt_0_4610;
GPGPU-Sim PTX:    immediate post dominator      @  PC=0x290 (_1.ptx:166) ld.shared.f32 %f17, [%rd14+0];
GPGPU-Sim PTX:  5 (potential) branch divergence @  PC=0x2a8 (_1.ptx:170) @!%p1 bra $Lt_0_5634;
GPGPU-Sim PTX:    immediate post dominator      @  PC=0x310 (_1.ptx:186) exit;
GPGPU-Sim PTX: ... end of reconvergence points for _Z22bpnn_layerforward_CUDAPfS_S_S_ii
GPGPU-Sim PTX: ... done pre-decoding instructions for '_Z22bpnn_layerforward_CUDAPfS_S_S_ii'.
GPGPU-Sim PTX: instruction assembly for function '_Z24bpnn_adjust_weights_cudaPfiS_iS_S_'...   done.
GPGPU-Sim PTX: finding reconvergence points for '_Z24bpnn_adjust_weights_cudaPfiS_iS_S_'...
GPGPU-Sim PTX: Finding dominators for '_Z24bpnn_adjust_weights_cudaPfiS_iS_S_'...
GPGPU-Sim PTX: Finding immediate dominators for '_Z24bpnn_adjust_weights_cudaPfiS_iS_S_'...
GPGPU-Sim PTX: Finding postdominators for '_Z24bpnn_adjust_weights_cudaPfiS_iS_S_'...
GPGPU-Sim PTX: Finding immediate postdominators for '_Z24bpnn_adjust_weights_cudaPfiS_iS_S_'...
GPGPU-Sim PTX: pre-decoding instructions for '_Z24bpnn_adjust_weights_cudaPfiS_iS_S_'...
GPGPU-Sim PTX: reconvergence points for _Z24bpnn_adjust_weights_cudaPfiS_iS_S_...
GPGPU-Sim PTX:  1 (potential) branch divergence @  PC=0x530 (_1.ptx:275) @%p1 bra $Lt_1_1282;
GPGPU-Sim PTX:    immediate post dominator      @  PC=0x600 (_1.ptx:305) exit;
GPGPU-Sim PTX: ... end of reconvergence points for _Z24bpnn_adjust_weights_cudaPfiS_iS_S_
GPGPU-Sim PTX: ... done pre-decoding instructions for '_Z24bpnn_adjust_weights_cudaPfiS_iS_S_'.
GPGPU-Sim PTX: finished parsing EMBEDDED .ptx file _1.ptx
Adding _cuobjdump_1.ptx with cubin handle 1
GPGPU-Sim PTX: extracting embedded .ptx to temporary file "_ptx_nZEovz"
Running: cat _ptx_nZEovz | sed 's/.version 1.5/.version 1.4/' | sed 's/, texmode_independent//' | sed 's/\(\.extern \.const\[1\] .b8 \w\+\)\[\]/\1\[1\]/' | sed 's/const\[.\]/const\[0\]/g' > _ptx2_hDmmWW
GPGPU-Sim PTX: generating ptxinfo using "$CUDA_INSTALL_PATH/bin/ptxas --gpu-name=sm_20 -v _ptx2_hDmmWW --output-file  /dev/null 2> _ptx_nZEovzinfo"
GPGPU-Sim PTX: Kernel '_Z24bpnn_adjust_weights_cudaPfiS_iS_S_' : regs=22, lmem=0, smem=0, cmem=80
GPGPU-Sim PTX: Kernel '_Z22bpnn_layerforward_CUDAPfS_S_S_ii' : regs=13, lmem=0, smem=1088, cmem=72
GPGPU-Sim PTX: removing ptxinfo using "rm -f _ptx_nZEovz _ptx2_hDmmWW _ptx_nZEovzinfo"
GPGPU-Sim PTX: loading globals with explicit initializers... 
GPGPU-Sim PTX: finished loading globals (0 bytes total).
GPGPU-Sim PTX: loading constants with explicit initializers...  done.
GPGPU-Sim PTX: __cudaRegisterFunction _Z22bpnn_layerforward_CUDAPfS_S_S_ii : hostFun 0x0x402dc8, fat_cubin_handle = 1
Random number generator seed: 7
Input layer size : 65536
Starting training kernel
Performing GPU computation

GPGPU-Sim PTX: cudaLaunch for 0x0x402dc8 (mode=performance simulation) on stream 0
GPGPU-Sim PTX: pushing kernel '_Z22bpnn_layerforward_CUDAPfS_S_S_ii' to stream 0, gridDim= (1,4096,1) blockDim = (16,16,1) 
kernel '_Z22bpnn_layerforward_CUDAPfS_S_S_ii' transfer to GPU hardware scheduler
GPGPU-Sim uArch: Shader 1 bind to kernel 1 '_Z22bpnn_layerforward_CUDAPfS_S_S_ii'
GPGPU-Sim uArch: CTA/core = 6, limited by: threads
GPGPU-Sim uArch: core:  1, cta: 0 initialized @(1,0)
GPGPU-Sim uArch: Shader 2 bind to kernel 1 '_Z22bpnn_layerforward_CUDAPfS_S_S_ii'
GPGPU-Sim uArch: core:  2, cta: 0 initialized @(1,0)
GPGPU-Sim uArch: Shader 3 bind to kernel 1 '_Z22bpnn_layerforward_CUDAPfS_S_S_ii'
GPGPU-Sim uArch: core:  3, cta: 0 initialized @(1,0)
GPGPU-Sim uArch: Shader 4 bind to kernel 1 '_Z22bpnn_layerforward_CUDAPfS_S_S_ii'
GPGPU-Sim uArch: core:  4, cta: 0 initialized @(1,0)
GPGPU-Sim uArch: Shader 5 bind to kernel 1 '_Z22bpnn_layerforward_CUDAPfS_S_S_ii'
GPGPU-Sim uArch: core:  5, cta: 0 initialized @(1,0)
GPGPU-Sim uArch: Shader 6 bind to kernel 1 '_Z22bpnn_layerforward_CUDAPfS_S_S_ii'
GPGPU-Sim uArch: core:  6, cta: 0 initialized @(1,0)
GPGPU-Sim uArch: Shader 7 bind to kernel 1 '_Z22bpnn_layerforward_CUDAPfS_S_S_ii'
GPGPU-Sim uArch: core:  7, cta: 0 initialized @(1,0)
GPGPU-Sim uArch: Shader 8 bind to kernel 1 '_Z22bpnn_layerforward_CUDAPfS_S_S_ii'
GPGPU-Sim uArch: core:  8, cta: 0 initialized @(1,0)
GPGPU-Sim uArch: Shader 9 bind to kernel 1 '_Z22bpnn_layerforward_CUDAPfS_S_S_ii'
GPGPU-Sim uArch: core:  9, cta: 0 initialized @(1,0)
GPGPU-Sim uArch: Shader 10 bind to kernel 1 '_Z22bpnn_layerforward_CUDAPfS_S_S_ii'
GPGPU-Sim uArch: core: 10, cta: 0 initialized @(1,0)
GPGPU-Sim uArch: Shader 11 bind to kernel 1 '_Z22bpnn_layerforward_CUDAPfS_S_S_ii'
GPGPU-Sim uArch: core: 11, cta: 0 initialized @(1,0)
GPGPU-Sim uArch: Shader 12 bind to kernel 1 '_Z22bpnn_layerforward_CUDAPfS_S_S_ii'
GPGPU-Sim uArch: core: 12, cta: 0 initialized @(1,0)
GPGPU-Sim uArch: Shader 13 bind to kernel 1 '_Z22bpnn_layerforward_CUDAPfS_S_S_ii'
GPGPU-Sim uArch: core: 13, cta: 0 initialized @(1,0)
GPGPU-Sim uArch: Shader 14 bind to kernel 1 '_Z22bpnn_layerforward_CUDAPfS_S_S_ii'
GPGPU-Sim uArch: core: 14, cta: 0 initialized @(1,0)
GPGPU-Sim uArch: Shader 0 bind to kernel 1 '_Z22bpnn_layerforward_CUDAPfS_S_S_ii'
GPGPU-Sim uArch: core:  0, cta: 0 initialized @(1,0)
GPGPU-Sim uArch: core:  1, cta: 1 initialized @(2,0)
GPGPU-Sim uArch: core:  2, cta: 1 initialized @(2,0)
GPGPU-Sim uArch: core:  3, cta: 1 initialized @(2,0)
GPGPU-Sim uArch: core:  4, cta: 1 initialized @(2,0)
GPGPU-Sim uArch: core:  5, cta: 1 initialized @(2,0)
GPGPU-Sim uArch: core:  6, cta: 1 initialized @(2,0)
GPGPU-Sim uArch: core:  7, cta: 1 initialized @(2,0)
GPGPU-Sim uArch: core:  8, cta: 1 initialized @(2,0)
GPGPU-Sim uArch: core:  9, cta: 1 initialized @(2,0)
GPGPU-Sim uArch: core: 10, cta: 1 initialized @(2,0)
GPGPU-Sim uArch: core: 11, cta: 1 initialized @(2,0)
GPGPU-Sim uArch: core: 12, cta: 1 initialized @(2,0)
GPGPU-Sim uArch: core: 13, cta: 1 initialized @(2,0)
GPGPU-Sim uArch: core: 14, cta: 1 initialized @(2,0)
GPGPU-Sim uArch: core:  0, cta: 1 initialized @(2,0)
GPGPU-Sim uArch: core:  1, cta: 2 initialized @(3,0)
GPGPU-Sim uArch: core:  2, cta: 2 initialized @(3,0)
GPGPU-Sim uArch: core:  3, cta: 2 initialized @(3,0)
GPGPU-Sim uArch: core:  4, cta: 2 initialized @(3,0)
GPGPU-Sim uArch: core:  5, cta: 2 initialized @(3,0)
GPGPU-Sim uArch: core:  6, cta: 2 initialized @(3,0)
GPGPU-Sim uArch: core:  7, cta: 2 initialized @(3,0)
GPGPU-Sim uArch: core:  8, cta: 2 initialized @(3,0)
GPGPU-Sim uArch: core:  9, cta: 2 initialized @(3,0)
GPGPU-Sim uArch: core: 10, cta: 2 initialized @(3,0)
GPGPU-Sim uArch: core: 11, cta: 2 initialized @(3,0)
GPGPU-Sim uArch: core: 12, cta: 2 initialized @(3,0)
GPGPU-Sim uArch: core: 13, cta: 2 initialized @(3,0)
GPGPU-Sim uArch: core: 14, cta: 2 initialized @(3,0)
GPGPU-Sim uArch: core:  0, cta: 2 initialized @(3,0)
GPGPU-Sim uArch: core:  1, cta: 3 initialized @(4,0)
GPGPU-Sim uArch: core:  2, cta: 3 initialized @(4,0)
GPGPU-Sim uArch: core:  3, cta: 3 initialized @(4,0)
GPGPU-Sim uArch: core:  4, cta: 3 initialized @(4,0)
GPGPU-Sim uArch: core:  5, cta: 3 initialized @(4,0)
GPGPU-Sim uArch: core:  6, cta: 3 initialized @(4,0)
GPGPU-Sim uArch: core:  7, cta: 3 initialized @(4,0)
GPGPU-Sim uArch: core:  8, cta: 3 initialized @(4,0)
GPGPU-Sim uArch: core:  9, cta: 3 initialized @(4,0)
GPGPU-Sim uArch: core: 10, cta: 3 initialized @(4,0)
GPGPU-Sim uArch: core: 11, cta: 3 initialized @(4,0)
GPGPU-Sim uArch: core: 12, cta: 3 initialized @(4,0)
GPGPU-Sim uArch: core: 13, cta: 3 initialized @(4,0)
GPGPU-Sim uArch: core: 14, cta: 3 initialized @(4,0)
GPGPU-Sim uArch: core:  0, cta: 3 initialized @(4,0)
GPGPU-Sim uArch: core:  1, cta: 4 initialized @(5,0)
GPGPU-Sim uArch: core:  2, cta: 4 initialized @(5,0)
GPGPU-Sim uArch: core:  3, cta: 4 initialized @(5,0)
GPGPU-Sim uArch: core:  4, cta: 4 initialized @(5,0)
GPGPU-Sim uArch: core:  5, cta: 4 initialized @(5,0)
GPGPU-Sim uArch: core:  6, cta: 4 initialized @(5,0)
GPGPU-Sim uArch: core:  7, cta: 4 initialized @(5,0)
GPGPU-Sim uArch: core:  8, cta: 4 initialized @(5,0)
GPGPU-Sim uArch: core:  9, cta: 4 initialized @(5,0)
GPGPU-Sim uArch: core: 10, cta: 4 initialized @(5,0)
GPGPU-Sim uArch: core: 11, cta: 4 initialized @(5,0)
GPGPU-Sim uArch: core: 12, cta: 4 initialized @(5,0)
GPGPU-Sim uArch: core: 13, cta: 4 initialized @(5,0)
GPGPU-Sim uArch: core: 14, cta: 4 initialized @(5,0)
GPGPU-Sim uArch: core:  0, cta: 4 initialized @(5,0)
GPGPU-Sim uArch: core:  1, cta: 5 initialized @(6,0)
GPGPU-Sim uArch: core:  2, cta: 5 initialized @(6,0)
GPGPU-Sim uArch: core:  3, cta: 5 initialized @(6,0)
GPGPU-Sim uArch: core:  4, cta: 5 initialized @(6,0)
GPGPU-Sim uArch: core:  5, cta: 5 initialized @(6,0)
GPGPU-Sim uArch: core:  6, cta: 5 initialized @(6,0)
GPGPU-Sim uArch: core:  7, cta: 5 initialized @(6,0)
GPGPU-Sim uArch: core:  8, cta: 5 initialized @(6,0)
GPGPU-Sim uArch: core:  9, cta: 5 initialized @(6,0)
GPGPU-Sim uArch: core: 10, cta: 5 initialized @(6,0)
GPGPU-Sim uArch: core: 11, cta: 5 initialized @(6,0)
GPGPU-Sim uArch: core: 12, cta: 5 initialized @(6,0)
GPGPU-Sim uArch: core: 13, cta: 5 initialized @(6,0)
GPGPU-Sim uArch: core: 14, cta: 5 initialized @(6,0)
GPGPU-Sim uArch: core:  0, cta: 5 initialized @(6,0)
GPGPU-Sim uArch: cycles simulated: 500  inst.: 9780 (ipc=19.6) sim_rate=1086 (inst/sec) elapsed = 0:0:00:09 / Tue Mar 22 12:39:49 2016
GPGPU-Sim uArch: cycles simulated: 1000  inst.: 9900 (ipc= 9.9) sim_rate=990 (inst/sec) elapsed = 0:0:00:10 / Tue Mar 22 12:39:50 2016
GPGPU-Sim uArch: cycles simulated: 2000  inst.: 65476 (ipc=32.7) sim_rate=5952 (inst/sec) elapsed = 0:0:00:11 / Tue Mar 22 12:39:51 2016
GPGPU-Sim PTX: 100000 instructions simulated : ctaid=(0,5,0) tid=(13,9,0)
GPGPU-Sim PTX: 200000 instructions simulated : ctaid=(0,6,0) tid=(5,10,0)
GPGPU-Sim uArch: cycles simulated: 4500  inst.: 210380 (ipc=46.8) sim_rate=17531 (inst/sec) elapsed = 0:0:00:12 / Tue Mar 22 12:39:52 2016
GPGPU-Sim PTX: 300000 instructions simulated : ctaid=(0,7,0) tid=(5,8,0)
GPGPU-Sim PTX: 400000 instructions simulated : ctaid=(0,6,0) tid=(9,0,0)
GPGPU-Sim uArch: cycles simulated: 6500  inst.: 402088 (ipc=61.9) sim_rate=30929 (inst/sec) elapsed = 0:0:00:13 / Tue Mar 22 12:39:53 2016
GPGPU-Sim uArch: Shader 1 finished CTA #0 (7683,0), 5 CTAs running
GPGPU-Sim uArch: core:  1, cta: 0 initialized @(7684,0)
GPGPU-Sim uArch: Shader 3 finished CTA #0 (7689,0), 5 CTAs running
GPGPU-Sim uArch: core:  3, cta: 0 initialized @(7690,0)
GPGPU-Sim uArch: Shader 5 finished CTA #0 (7695,0), 5 CTAs running
GPGPU-Sim uArch: core:  5, cta: 0 initialized @(7696,0)
GPGPU-Sim uArch: Shader 0 finished CTA #0 (7701,0), 5 CTAs running
GPGPU-Sim uArch: core:  0, cta: 0 initialized @(7702,0)
GPGPU-Sim uArch: Shader 7 finished CTA #0 (7707,0), 5 CTAs running
GPGPU-Sim uArch: core:  7, cta: 0 initialized @(7708,0)
GPGPU-Sim uArch: Shader 9 finished CTA #0 (7713,0), 5 CTAs running
GPGPU-Sim uArch: core:  9, cta: 0 initialized @(7714,0)
GPGPU-Sim PTX: 500000 instructions simulated : ctaid=(0,21,0) tid=(13,4,0)
GPGPU-Sim uArch: Shader 6 finished CTA #0 (7722,0), 5 CTAs running
GPGPU-Sim uArch: core:  6, cta: 0 initialized @(7723,0)
GPGPU-Sim uArch: Shader 11 finished CTA #0 (7725,0), 5 CTAs running
GPGPU-Sim uArch: core: 11, cta: 0 initialized @(7726,0)
GPGPU-Sim uArch: Shader 13 finished CTA #0 (7731,0), 5 CTAs running
GPGPU-Sim uArch: core: 13, cta: 0 initialized @(7732,0)
GPGPU-Sim uArch: Shader 2 finished CTA #0 (7737,0), 5 CTAs running
GPGPU-Sim uArch: core:  2, cta: 0 initialized @(7738,0)
GPGPU-Sim uArch: Shader 4 finished CTA #0 (7743,0), 5 CTAs running
GPGPU-Sim uArch: core:  4, cta: 0 initialized @(7744,0)
GPGPU-Sim uArch: Shader 10 finished CTA #0 (7752,0), 5 CTAs running
GPGPU-Sim uArch: core: 10, cta: 0 initialized @(7753,0)
GPGPU-Sim uArch: Shader 8 finished CTA #0 (7758,0), 5 CTAs running
GPGPU-Sim uArch: core:  8, cta: 0 initialized @(7759,0)
GPGPU-Sim uArch: Shader 14 finished CTA #0 (7761,0), 5 CTAs running
GPGPU-Sim uArch: core: 14, cta: 0 initialized @(7762,0)
GPGPU-Sim uArch: Shader 12 finished CTA #0 (7767,0), 5 CTAs running
GPGPU-Sim uArch: core: 12, cta: 0 initialized @(7768,0)
GPGPU-Sim uArch: cycles simulated: 8500  inst.: 541550 (ipc=63.7) sim_rate=38682 (inst/sec) elapsed = 0:0:00:14 / Tue Mar 22 12:39:54 2016
GPGPU-Sim PTX: 600000 instructions simulated : ctaid=(0,29,0) tid=(15,13,0)
GPGPU-Sim uArch: cycles simulated: 10000  inst.: 655852 (ipc=65.6) sim_rate=43723 (inst/sec) elapsed = 0:0:00:15 / Tue Mar 22 12:39:55 2016
GPGPU-Sim PTX: 700000 instructions simulated : ctaid=(0,18,0) tid=(1,15,0)
GPGPU-Sim PTX: 800000 instructions simulated : ctaid=(0,18,0) tid=(1,2,0)
GPGPU-Sim uArch: cycles simulated: 12000  inst.: 876120 (ipc=73.0) sim_rate=54757 (inst/sec) elapsed = 0:0:00:16 / Tue Mar 22 12:39:56 2016
GPGPU-Sim PTX: 900000 instructions simulated : ctaid=(0,25,0) tid=(1,9,0)
GPGPU-Sim uArch: Shader 6 finished CTA #1 (12743,0), 5 CTAs running
GPGPU-Sim uArch: core:  6, cta: 1 initialized @(12744,0)
GPGPU-Sim uArch: Shader 2 finished CTA #1 (12747,0), 5 CTAs running
GPGPU-Sim uArch: core:  2, cta: 1 initialized @(12748,0)
GPGPU-Sim uArch: Shader 10 finished CTA #1 (12755,0), 5 CTAs running
GPGPU-Sim uArch: core: 10, cta: 1 initialized @(12756,0)
GPGPU-Sim uArch: Shader 4 finished CTA #1 (12760,0), 5 CTAs running
GPGPU-Sim uArch: core:  4, cta: 1 initialized @(12761,0)
GPGPU-Sim uArch: Shader 8 finished CTA #1 (12762,0), 5 CTAs running
GPGPU-Sim uArch: core:  8, cta: 1 initialized @(12763,0)
GPGPU-Sim uArch: Shader 5 finished CTA #1 (12763,0), 5 CTAs running
GPGPU-Sim uArch: core:  5, cta: 1 initialized @(12764,0)
GPGPU-Sim uArch: Shader 1 finished CTA #1 (12773,0), 5 CTAs running
GPGPU-Sim uArch: core:  1, cta: 1 initialized @(12774,0)
GPGPU-Sim uArch: Shader 3 finished CTA #1 (12782,0), 5 CTAs running
GPGPU-Sim uArch: core:  3, cta: 1 initialized @(12783,0)
GPGPU-Sim uArch: Shader 12 finished CTA #1 (12783,0), 5 CTAs running
GPGPU-Sim uArch: core: 12, cta: 1 initialized @(12784,0)
GPGPU-Sim uArch: Shader 14 finished CTA #1 (12787,0), 5 CTAs running
GPGPU-Sim uArch: core: 14, cta: 1 initialized @(12788,0)
GPGPU-Sim uArch: Shader 13 finished CTA #1 (12791,0), 5 CTAs running
GPGPU-Sim uArch: core: 13, cta: 1 initialized @(12792,0)
GPGPU-Sim uArch: Shader 0 finished CTA #1 (12793,0), 5 CTAs running
GPGPU-Sim uArch: core:  0, cta: 1 initialized @(12794,0)
GPGPU-Sim uArch: Shader 9 finished CTA #1 (12806,0), 5 CTAs running
GPGPU-Sim uArch: core:  9, cta: 1 initialized @(12807,0)
GPGPU-Sim uArch: Shader 7 finished CTA #1 (12809,0), 5 CTAs running
GPGPU-Sim uArch: core:  7, cta: 1 initialized @(12810,0)
GPGPU-Sim uArch: Shader 11 finished CTA #1 (12819,0), 5 CTAs running
GPGPU-Sim uArch: core: 11, cta: 1 initialized @(12820,0)
GPGPU-Sim PTX: 1000000 instructions simulated : ctaid=(0,39,0) tid=(3,7,0)
GPGPU-Sim uArch: cycles simulated: 13500  inst.: 994446 (ipc=73.7) sim_rate=58496 (inst/sec) elapsed = 0:0:00:17 / Tue Mar 22 12:39:57 2016
GPGPU-Sim PTX: 1100000 instructions simulated : ctaid=(0,30,0) tid=(3,2,0)
GPGPU-Sim uArch: cycles simulated: 15000  inst.: 1100462 (ipc=73.4) sim_rate=61136 (inst/sec) elapsed = 0:0:00:18 / Tue Mar 22 12:39:58 2016
GPGPU-Sim PTX: 1200000 instructions simulated : ctaid=(0,30,0) tid=(13,11,0)
GPGPU-Sim uArch: cycles simulated: 16500  inst.: 1260222 (ipc=76.4) sim_rate=66327 (inst/sec) elapsed = 0:0:00:19 / Tue Mar 22 12:39:59 2016
GPGPU-Sim PTX: 1300000 instructions simulated : ctaid=(0,32,0) tid=(9,9,0)
GPGPU-Sim PTX: 1400000 instructions simulated : ctaid=(0,54,0) tid=(9,1,0)
GPGPU-Sim uArch: Shader 6 finished CTA #2 (17807,0), 5 CTAs running
GPGPU-Sim uArch: core:  6, cta: 2 initialized @(17808,0)
GPGPU-Sim uArch: Shader 2 finished CTA #2 (17828,0), 5 CTAs running
GPGPU-Sim uArch: core:  2, cta: 2 initialized @(17829,0)
GPGPU-Sim uArch: Shader 10 finished CTA #2 (17836,0), 5 CTAs running
GPGPU-Sim uArch: core: 10, cta: 2 initialized @(17837,0)
GPGPU-Sim uArch: Shader 4 finished CTA #2 (17839,0), 5 CTAs running
GPGPU-Sim uArch: core:  4, cta: 2 initialized @(17840,0)
GPGPU-Sim uArch: Shader 8 finished CTA #2 (17850,0), 5 CTAs running
GPGPU-Sim uArch: core:  8, cta: 2 initialized @(17851,0)
GPGPU-Sim uArch: Shader 1 finished CTA #2 (17858,0), 5 CTAs running
GPGPU-Sim uArch: core:  1, cta: 2 initialized @(17859,0)
GPGPU-Sim uArch: Shader 5 finished CTA #2 (17868,0), 5 CTAs running
GPGPU-Sim uArch: Shader 14 finished CTA #2 (17868,0), 5 CTAs running
GPGPU-Sim uArch: core:  5, cta: 2 initialized @(17869,0)
GPGPU-Sim uArch: core: 14, cta: 2 initialized @(17869,0)
GPGPU-Sim uArch: Shader 3 finished CTA #2 (17871,0), 5 CTAs running
GPGPU-Sim uArch: core:  3, cta: 2 initialized @(17872,0)
GPGPU-Sim uArch: Shader 12 finished CTA #2 (17878,0), 5 CTAs running
GPGPU-Sim uArch: core: 12, cta: 2 initialized @(17879,0)
GPGPU-Sim uArch: Shader 13 finished CTA #2 (17891,0), 5 CTAs running
GPGPU-Sim uArch: core: 13, cta: 2 initialized @(17892,0)
GPGPU-Sim uArch: Shader 0 finished CTA #2 (17892,0), 5 CTAs running
GPGPU-Sim uArch: core:  0, cta: 2 initialized @(17893,0)
GPGPU-Sim uArch: Shader 7 finished CTA #2 (17898,0), 5 CTAs running
GPGPU-Sim uArch: core:  7, cta: 2 initialized @(17899,0)
GPGPU-Sim uArch: Shader 9 finished CTA #2 (17901,0), 5 CTAs running
GPGPU-Sim uArch: core:  9, cta: 2 initialized @(17902,0)
GPGPU-Sim uArch: Shader 11 finished CTA #2 (17907,0), 5 CTAs running
GPGPU-Sim uArch: core: 11, cta: 2 initialized @(17908,0)
GPGPU-Sim uArch: cycles simulated: 18000  inst.: 1405858 (ipc=78.1) sim_rate=70292 (inst/sec) elapsed = 0:0:00:20 / Tue Mar 22 12:40:00 2016
GPGPU-Sim PTX: 1500000 instructions simulated : ctaid=(0,45,0) tid=(1,10,0)
GPGPU-Sim uArch: cycles simulated: 20000  inst.: 1545430 (ipc=77.3) sim_rate=73591 (inst/sec) elapsed = 0:0:00:21 / Tue Mar 22 12:40:01 2016
GPGPU-Sim PTX: 1600000 instructions simulated : ctaid=(0,55,0) tid=(13,10,0)
GPGPU-Sim PTX: 1700000 instructions simulated : ctaid=(0,49,0) tid=(7,9,0)
GPGPU-Sim uArch: cycles simulated: 21500  inst.: 1699564 (ipc=79.0) sim_rate=77252 (inst/sec) elapsed = 0:0:00:22 / Tue Mar 22 12:40:02 2016
GPGPU-Sim PTX: 1800000 instructions simulated : ctaid=(0,46,0) tid=(3,0,0)
GPGPU-Sim uArch: Shader 6 finished CTA #3 (22910,0), 5 CTAs running
GPGPU-Sim uArch: core:  6, cta: 3 initialized @(22911,0)
GPGPU-Sim uArch: Shader 2 finished CTA #3 (22930,0), 5 CTAs running
GPGPU-Sim uArch: core:  2, cta: 3 initialized @(22931,0)
GPGPU-Sim uArch: Shader 10 finished CTA #3 (22931,0), 5 CTAs running
GPGPU-Sim uArch: core: 10, cta: 3 initialized @(22932,0)
GPGPU-Sim uArch: Shader 4 finished CTA #3 (22944,0), 5 CTAs running
GPGPU-Sim uArch: core:  4, cta: 3 initialized @(22945,0)
GPGPU-Sim uArch: Shader 3 finished CTA #3 (22948,0), 5 CTAs running
GPGPU-Sim uArch: core:  3, cta: 3 initialized @(22949,0)
GPGPU-Sim uArch: Shader 0 finished CTA #3 (22955,0), 5 CTAs running
GPGPU-Sim uArch: Shader 1 finished CTA #3 (22955,0), 5 CTAs running
GPGPU-Sim uArch: core:  0, cta: 3 initialized @(22956,0)
GPGPU-Sim uArch: core:  1, cta: 3 initialized @(22956,0)
GPGPU-Sim uArch: Shader 8 finished CTA #3 (22967,0), 5 CTAs running
GPGPU-Sim uArch: core:  8, cta: 3 initialized @(22968,0)
GPGPU-Sim uArch: Shader 12 finished CTA #3 (22971,0), 5 CTAs running
GPGPU-Sim uArch: core: 12, cta: 3 initialized @(22972,0)
GPGPU-Sim uArch: Shader 7 finished CTA #3 (22974,0), 5 CTAs running
GPGPU-Sim uArch: core:  7, cta: 3 initialized @(22975,0)
GPGPU-Sim uArch: Shader 14 finished CTA #3 (22977,0), 5 CTAs running
GPGPU-Sim uArch: core: 14, cta: 3 initialized @(22978,0)
GPGPU-Sim uArch: Shader 11 finished CTA #3 (22978,0), 5 CTAs running
GPGPU-Sim uArch: core: 11, cta: 3 initialized @(22979,0)
GPGPU-Sim uArch: Shader 5 finished CTA #3 (22980,0), 5 CTAs running
GPGPU-Sim uArch: core:  5, cta: 3 initialized @(22981,0)
GPGPU-Sim uArch: Shader 13 finished CTA #3 (22988,0), 5 CTAs running
GPGPU-Sim uArch: core: 13, cta: 3 initialized @(22989,0)
GPGPU-Sim uArch: Shader 9 finished CTA #3 (22994,0), 5 CTAs running
GPGPU-Sim uArch: core:  9, cta: 3 initialized @(22995,0)
GPGPU-Sim uArch: cycles simulated: 23000  inst.: 1849000 (ipc=80.4) sim_rate=80391 (inst/sec) elapsed = 0:0:00:23 / Tue Mar 22 12:40:03 2016
GPGPU-Sim PTX: 1900000 instructions simulated : ctaid=(0,69,0) tid=(15,13,0)
GPGPU-Sim PTX: 2000000 instructions simulated : ctaid=(0,63,0) tid=(3,11,0)
GPGPU-Sim uArch: cycles simulated: 25000  inst.: 1985840 (ipc=79.4) sim_rate=82743 (inst/sec) elapsed = 0:0:00:24 / Tue Mar 22 12:40:04 2016
GPGPU-Sim PTX: 2100000 instructions simulated : ctaid=(0,71,0) tid=(3,14,0)
GPGPU-Sim uArch: cycles simulated: 26500  inst.: 2140076 (ipc=80.8) sim_rate=85603 (inst/sec) elapsed = 0:0:00:25 / Tue Mar 22 12:40:05 2016
GPGPU-Sim PTX: 2200000 instructions simulated : ctaid=(0,64,0) tid=(15,6,0)
GPGPU-Sim PTX: 2300000 instructions simulated : ctaid=(0,67,0) tid=(15,4,0)
GPGPU-Sim uArch: Shader 6 finished CTA #4 (27987,0), 5 CTAs running
GPGPU-Sim uArch: core:  6, cta: 4 initialized @(27988,0)
GPGPU-Sim uArch: Shader 2 finished CTA #4 (28004,0), 5 CTAs running
GPGPU-Sim uArch: core:  2, cta: 4 initialized @(28005,0)
GPGPU-Sim uArch: Shader 10 finished CTA #4 (28008,0), 5 CTAs running
GPGPU-Sim uArch: core: 10, cta: 4 initialized @(28009,0)
GPGPU-Sim uArch: Shader 0 finished CTA #4 (28011,0), 5 CTAs running
GPGPU-Sim uArch: core:  0, cta: 4 initialized @(28012,0)
GPGPU-Sim uArch: Shader 4 finished CTA #4 (28020,0), 5 CTAs running
GPGPU-Sim uArch: core:  4, cta: 4 initialized @(28021,0)
GPGPU-Sim uArch: Shader 8 finished CTA #4 (28023,0), 5 CTAs running
GPGPU-Sim uArch: core:  8, cta: 4 initialized @(28024,0)
GPGPU-Sim uArch: Shader 3 finished CTA #4 (28033,0), 5 CTAs running
GPGPU-Sim uArch: core:  3, cta: 4 initialized @(28034,0)
GPGPU-Sim uArch: Shader 1 finished CTA #4 (28044,0), 5 CTAs running
GPGPU-Sim uArch: core:  1, cta: 4 initialized @(28045,0)
GPGPU-Sim uArch: Shader 14 finished CTA #4 (28054,0), 5 CTAs running
GPGPU-Sim uArch: core: 14, cta: 4 initialized @(28055,0)
GPGPU-Sim uArch: Shader 12 finished CTA #4 (28055,0), 5 CTAs running
GPGPU-Sim uArch: core: 12, cta: 4 initialized @(28056,0)
GPGPU-Sim uArch: Shader 5 finished CTA #4 (28061,0), 5 CTAs running
GPGPU-Sim uArch: core:  5, cta: 4 initialized @(28062,0)
GPGPU-Sim uArch: Shader 7 finished CTA #4 (28064,0), 5 CTAs running
GPGPU-Sim uArch: core:  7, cta: 4 initialized @(28065,0)
GPGPU-Sim uArch: Shader 13 finished CTA #4 (28066,0), 5 CTAs running
GPGPU-Sim uArch: core: 13, cta: 4 initialized @(28067,0)
GPGPU-Sim uArch: Shader 11 finished CTA #4 (28072,0), 5 CTAs running
GPGPU-Sim uArch: core: 11, cta: 4 initialized @(28073,0)
GPGPU-Sim uArch: Shader 9 finished CTA #4 (28086,0), 5 CTAs running
GPGPU-Sim uArch: core:  9, cta: 4 initialized @(28087,0)
GPGPU-Sim uArch: cycles simulated: 28500  inst.: 2310660 (ipc=81.1) sim_rate=88871 (inst/sec) elapsed = 0:0:00:26 / Tue Mar 22 12:40:06 2016
GPGPU-Sim PTX: 2400000 instructions simulated : ctaid=(0,81,0) tid=(13,5,0)
GPGPU-Sim PTX: 2500000 instructions simulated : ctaid=(0,75,0) tid=(13,4,0)
GPGPU-Sim uArch: cycles simulated: 30500  inst.: 2460468 (ipc=80.7) sim_rate=91128 (inst/sec) elapsed = 0:0:00:27 / Tue Mar 22 12:40:07 2016
GPGPU-Sim PTX: 2600000 instructions simulated : ctaid=(0,156,0) tid=(7,11,0)
GPGPU-Sim PTX: 2700000 instructions simulated : ctaid=(0,81,0) tid=(15,7,0)
GPGPU-Sim uArch: cycles simulated: 32500  inst.: 2668440 (ipc=82.1) sim_rate=95301 (inst/sec) elapsed = 0:0:00:28 / Tue Mar 22 12:40:08 2016
GPGPU-Sim uArch: Shader 6 finished CTA #5 (33075,0), 5 CTAs running
GPGPU-Sim uArch: core:  6, cta: 5 initialized @(33076,0)
GPGPU-Sim uArch: Shader 2 finished CTA #5 (33091,0), 5 CTAs running
GPGPU-Sim uArch: core:  2, cta: 5 initialized @(33092,0)
GPGPU-Sim uArch: Shader 10 finished CTA #5 (33097,0), 5 CTAs running
GPGPU-Sim uArch: core: 10, cta: 5 initialized @(33098,0)
GPGPU-Sim uArch: Shader 0 finished CTA #5 (33106,0), 5 CTAs running
GPGPU-Sim uArch: core:  0, cta: 5 initialized @(33107,0)
GPGPU-Sim uArch: Shader 4 finished CTA #5 (33107,0), 5 CTAs running
GPGPU-Sim uArch: core:  4, cta: 5 initialized @(33108,0)
GPGPU-Sim uArch: Shader 8 finished CTA #5 (33116,0), 5 CTAs running
GPGPU-Sim uArch: core:  8, cta: 5 initialized @(33117,0)
GPGPU-Sim uArch: Shader 3 finished CTA #5 (33121,0), 5 CTAs running
GPGPU-Sim uArch: core:  3, cta: 5 initialized @(33122,0)
GPGPU-Sim uArch: Shader 1 finished CTA #5 (33137,0), 5 CTAs running
GPGPU-Sim uArch: core:  1, cta: 5 initialized @(33138,0)
GPGPU-Sim uArch: Shader 14 finished CTA #5 (33143,0), 5 CTAs running
GPGPU-Sim uArch: core: 14, cta: 5 initialized @(33144,0)
GPGPU-Sim uArch: Shader 5 finished CTA #5 (33146,0), 5 CTAs running
GPGPU-Sim uArch: core:  5, cta: 5 initialized @(33147,0)
GPGPU-Sim uArch: Shader 9 finished CTA #5 (33151,0), 5 CTAs running
GPGPU-Sim uArch: Shader 13 finished CTA #5 (33151,0), 5 CTAs running
GPGPU-Sim uArch: core:  9, cta: 5 initialized @(33152,0)
GPGPU-Sim uArch: core: 13, cta: 5 initialized @(33152,0)
GPGPU-Sim uArch: Shader 12 finished CTA #5 (33154,0), 5 CTAs running
GPGPU-Sim uArch: core: 12, cta: 5 initialized @(33155,0)
GPGPU-Sim uArch: Shader 7 finished CTA #5 (33159,0), 5 CTAs running
GPGPU-Sim uArch: core:  7, cta: 5 initialized @(33160,0)
GPGPU-Sim uArch: Shader 11 finished CTA #5 (33171,0), 5 CTAs running
GPGPU-Sim uArch: core: 11, cta: 5 initialized @(33172,0)
GPGPU-Sim PTX: 2800000 instructions simulated : ctaid=(0,102,0) tid=(11,3,0)
GPGPU-Sim PTX: 2900000 instructions simulated : ctaid=(0,91,0) tid=(5,2,0)
GPGPU-Sim uArch: cycles simulated: 35000  inst.: 2828812 (ipc=80.8) sim_rate=97545 (inst/sec) elapsed = 0:0:00:29 / Tue Mar 22 12:40:09 2016
GPGPU-Sim PTX: 3000000 instructions simulated : ctaid=(0,118,0) tid=(1,1,0)
GPGPU-Sim PTX: 3100000 instructions simulated : ctaid=(0,91,0) tid=(1,11,0)
GPGPU-Sim uArch: cycles simulated: 37000  inst.: 3038360 (ipc=82.1) sim_rate=101278 (inst/sec) elapsed = 0:0:00:30 / Tue Mar 22 12:40:10 2016
GPGPU-Sim PTX: 3200000 instructions simulated : ctaid=(0,91,0) tid=(11,2,0)
GPGPU-Sim uArch: Shader 6 finished CTA #0 (38179,0), 5 CTAs running
GPGPU-Sim uArch: Shader 10 finished CTA #0 (38179,0), 5 CTAs running
GPGPU-Sim uArch: core:  6, cta: 0 initialized @(38180,0)
GPGPU-Sim uArch: core: 10, cta: 0 initialized @(38180,0)
GPGPU-Sim uArch: Shader 2 finished CTA #0 (38185,0), 5 CTAs running
GPGPU-Sim uArch: core:  2, cta: 0 initialized @(38186,0)
GPGPU-Sim uArch: Shader 0 finished CTA #0 (38195,0), 5 CTAs running
GPGPU-Sim uArch: core:  0, cta: 0 initialized @(38196,0)
GPGPU-Sim uArch: Shader 8 finished CTA #0 (38200,0), 5 CTAs running
GPGPU-Sim uArch: core:  8, cta: 0 initialized @(38201,0)
GPGPU-Sim uArch: Shader 4 finished CTA #0 (38206,0), 5 CTAs running
GPGPU-Sim uArch: core:  4, cta: 0 initialized @(38207,0)
GPGPU-Sim uArch: Shader 14 finished CTA #0 (38221,0), 5 CTAs running
GPGPU-Sim uArch: core: 14, cta: 0 initialized @(38222,0)
GPGPU-Sim uArch: Shader 1 finished CTA #0 (38225,0), 5 CTAs running
GPGPU-Sim uArch: core:  1, cta: 0 initialized @(38226,0)
GPGPU-Sim uArch: Shader 3 finished CTA #0 (38231,0), 5 CTAs running
GPGPU-Sim uArch: core:  3, cta: 0 initialized @(38232,0)
GPGPU-Sim uArch: Shader 12 finished CTA #0 (38238,0), 5 CTAs running
GPGPU-Sim uArch: core: 12, cta: 0 initialized @(38239,0)
GPGPU-Sim uArch: Shader 13 finished CTA #0 (38244,0), 5 CTAs running
GPGPU-Sim uArch: core: 13, cta: 0 initialized @(38245,0)
GPGPU-Sim uArch: Shader 5 finished CTA #0 (38259,0), 5 CTAs running
GPGPU-Sim uArch: core:  5, cta: 0 initialized @(38260,0)
GPGPU-Sim uArch: Shader 7 finished CTA #0 (38262,0), 5 CTAs running
GPGPU-Sim uArch: core:  7, cta: 0 initialized @(38263,0)
GPGPU-Sim uArch: Shader 9 finished CTA #0 (38265,0), 5 CTAs running
GPGPU-Sim uArch: core:  9, cta: 0 initialized @(38266,0)
GPGPU-Sim uArch: Shader 11 finished CTA #0 (38268,0), 5 CTAs running
GPGPU-Sim uArch: core: 11, cta: 0 initialized @(38269,0)
GPGPU-Sim uArch: cycles simulated: 39500  inst.: 3214980 (ipc=81.4) sim_rate=103709 (inst/sec) elapsed = 0:0:00:31 / Tue Mar 22 12:40:11 2016
GPGPU-Sim PTX: 3300000 instructions simulated : ctaid=(0,108,0) tid=(13,13,0)
GPGPU-Sim PTX: 3400000 instructions simulated : ctaid=(0,106,0) tid=(15,9,0)
GPGPU-Sim PTX: 3500000 instructions simulated : ctaid=(0,191,0) tid=(7,11,0)
GPGPU-Sim uArch: cycles simulated: 41500  inst.: 3413742 (ipc=82.3) sim_rate=106679 (inst/sec) elapsed = 0:0:00:32 / Tue Mar 22 12:40:12 2016
GPGPU-Sim PTX: 3600000 instructions simulated : ctaid=(0,119,0) tid=(11,11,0)
GPGPU-Sim uArch: Shader 6 finished CTA #1 (43280,0), 5 CTAs running
GPGPU-Sim uArch: core:  6, cta: 1 initialized @(43281,0)
GPGPU-Sim uArch: Shader 0 finished CTA #1 (43282,0), 5 CTAs running
GPGPU-Sim uArch: core:  0, cta: 1 initialized @(43283,0)
GPGPU-Sim uArch: Shader 10 finished CTA #1 (43286,0), 5 CTAs running
GPGPU-Sim uArch: core: 10, cta: 1 initialized @(43287,0)
GPGPU-Sim uArch: Shader 2 finished CTA #1 (43292,0), 5 CTAs running
GPGPU-Sim uArch: core:  2, cta: 1 initialized @(43293,0)
GPGPU-Sim uArch: Shader 8 finished CTA #1 (43305,0), 5 CTAs running
GPGPU-Sim uArch: core:  8, cta: 1 initialized @(43306,0)
GPGPU-Sim uArch: Shader 4 finished CTA #1 (43311,0), 5 CTAs running
GPGPU-Sim uArch: core:  4, cta: 1 initialized @(43312,0)
GPGPU-Sim uArch: Shader 1 finished CTA #1 (43314,0), 5 CTAs running
GPGPU-Sim uArch: core:  1, cta: 1 initialized @(43315,0)
GPGPU-Sim uArch: Shader 12 finished CTA #1 (43319,0), 5 CTAs running
GPGPU-Sim uArch: core: 12, cta: 1 initialized @(43320,0)
GPGPU-Sim uArch: Shader 3 finished CTA #1 (43325,0), 5 CTAs running
GPGPU-Sim uArch: core:  3, cta: 1 initialized @(43326,0)
GPGPU-Sim uArch: Shader 5 finished CTA #1 (43328,0), 5 CTAs running
GPGPU-Sim uArch: core:  5, cta: 1 initialized @(43329,0)
GPGPU-Sim uArch: Shader 14 finished CTA #1 (43331,0), 5 CTAs running
GPGPU-Sim uArch: core: 14, cta: 1 initialized @(43332,0)
GPGPU-Sim uArch: Shader 13 finished CTA #1 (43346,0), 5 CTAs running
GPGPU-Sim uArch: core: 13, cta: 1 initialized @(43347,0)
GPGPU-Sim uArch: Shader 7 finished CTA #1 (43347,0), 5 CTAs running
GPGPU-Sim uArch: core:  7, cta: 1 initialized @(43348,0)
GPGPU-Sim uArch: Shader 9 finished CTA #1 (43358,0), 5 CTAs running
GPGPU-Sim uArch: core:  9, cta: 1 initialized @(43359,0)
GPGPU-Sim uArch: Shader 11 finished CTA #1 (43361,0), 5 CTAs running
GPGPU-Sim uArch: core: 11, cta: 1 initialized @(43362,0)
GPGPU-Sim uArch: cycles simulated: 43500  inst.: 3586720 (ipc=82.5) sim_rate=108688 (inst/sec) elapsed = 0:0:00:33 / Tue Mar 22 12:40:13 2016
GPGPU-Sim PTX: 3700000 instructions simulated : ctaid=(0,131,0) tid=(13,4,0)
GPGPU-Sim uArch: cycles simulated: 45000  inst.: 3666660 (ipc=81.5) sim_rate=107842 (inst/sec) elapsed = 0:0:00:34 / Tue Mar 22 12:40:14 2016
GPGPU-Sim PTX: 3800000 instructions simulated : ctaid=(0,126,0) tid=(15,3,0)
GPGPU-Sim PTX: 3900000 instructions simulated : ctaid=(0,122,0) tid=(15,4,0)
GPGPU-Sim uArch: cycles simulated: 47000  inst.: 3879542 (ipc=82.5) sim_rate=110844 (inst/sec) elapsed = 0:0:00:35 / Tue Mar 22 12:40:15 2016
GPGPU-Sim PTX: 4000000 instructions simulated : ctaid=(0,133,0) tid=(1,8,0)
GPGPU-Sim PTX: 4100000 instructions simulated : ctaid=(0,143,0) tid=(15,0,0)
GPGPU-Sim uArch: Shader 0 finished CTA #2 (48365,0), 5 CTAs running
GPGPU-Sim uArch: core:  0, cta: 2 initialized @(48366,0)
GPGPU-Sim uArch: Shader 10 finished CTA #2 (48374,0), 5 CTAs running
GPGPU-Sim uArch: core: 10, cta: 2 initialized @(48375,0)
GPGPU-Sim uArch: Shader 3 finished CTA #2 (48375,0), 5 CTAs running
GPGPU-Sim uArch: core:  3, cta: 2 initialized @(48376,0)
GPGPU-Sim uArch: Shader 6 finished CTA #2 (48380,0), 5 CTAs running
GPGPU-Sim uArch: core:  6, cta: 2 initialized @(48381,0)
GPGPU-Sim uArch: Shader 4 finished CTA #2 (48386,0), 5 CTAs running
GPGPU-Sim uArch: core:  4, cta: 2 initialized @(48387,0)
GPGPU-Sim uArch: Shader 2 finished CTA #2 (48399,0), 5 CTAs running
GPGPU-Sim uArch: core:  2, cta: 2 initialized @(48400,0)
GPGPU-Sim uArch: Shader 8 finished CTA #2 (48410,0), 5 CTAs running
GPGPU-Sim uArch: core:  8, cta: 2 initialized @(48411,0)
GPGPU-Sim uArch: Shader 1 finished CTA #2 (48416,0), 5 CTAs running
GPGPU-Sim uArch: core:  1, cta: 2 initialized @(48417,0)
GPGPU-Sim uArch: Shader 14 finished CTA #2 (48422,0), 5 CTAs running
GPGPU-Sim uArch: core: 14, cta: 2 initialized @(48423,0)
GPGPU-Sim uArch: Shader 5 finished CTA #2 (48425,0), 5 CTAs running
GPGPU-Sim uArch: core:  5, cta: 2 initialized @(48426,0)
GPGPU-Sim uArch: Shader 12 finished CTA #2 (48436,0), 5 CTAs running
GPGPU-Sim uArch: core: 12, cta: 2 initialized @(48437,0)
GPGPU-Sim uArch: Shader 7 finished CTA #2 (48438,0), 5 CTAs running
GPGPU-Sim uArch: core:  7, cta: 2 initialized @(48439,0)
GPGPU-Sim uArch: Shader 13 finished CTA #2 (48442,0), 5 CTAs running
GPGPU-Sim uArch: core: 13, cta: 2 initialized @(48443,0)
GPGPU-Sim uArch: Shader 9 finished CTA #2 (48454,0), 5 CTAs running
GPGPU-Sim uArch: core:  9, cta: 2 initialized @(48455,0)
GPGPU-Sim uArch: Shader 11 finished CTA #2 (48457,0), 5 CTAs running
GPGPU-Sim uArch: core: 11, cta: 2 initialized @(48458,0)
GPGPU-Sim uArch: cycles simulated: 48500  inst.: 4010822 (ipc=82.7) sim_rate=111411 (inst/sec) elapsed = 0:0:00:36 / Tue Mar 22 12:40:16 2016
GPGPU-Sim PTX: 4200000 instructions simulated : ctaid=(0,144,0) tid=(13,15,0)
GPGPU-Sim uArch: cycles simulated: 50500  inst.: 4145684 (ipc=82.1) sim_rate=112045 (inst/sec) elapsed = 0:0:00:37 / Tue Mar 22 12:40:17 2016
GPGPU-Sim PTX: 4300000 instructions simulated : ctaid=(0,147,0) tid=(13,14,0)
GPGPU-Sim PTX: 4400000 instructions simulated : ctaid=(0,139,0) tid=(3,3,0)
GPGPU-Sim uArch: cycles simulated: 52000  inst.: 4300312 (ipc=82.7) sim_rate=113166 (inst/sec) elapsed = 0:0:00:38 / Tue Mar 22 12:40:18 2016
GPGPU-Sim PTX: 4500000 instructions simulated : ctaid=(0,148,0) tid=(15,13,0)
GPGPU-Sim uArch: Shader 6 finished CTA #3 (53449,0), 5 CTAs running
GPGPU-Sim uArch: core:  6, cta: 3 initialized @(53450,0)
GPGPU-Sim uArch: Shader 0 finished CTA #3 (53466,0), 5 CTAs running
GPGPU-Sim uArch: core:  0, cta: 3 initialized @(53467,0)
GPGPU-Sim uArch: Shader 3 finished CTA #3 (53470,0), 5 CTAs running
GPGPU-Sim uArch: core:  3, cta: 3 initialized @(53471,0)
GPGPU-Sim uArch: Shader 4 finished CTA #3 (53483,0), 5 CTAs running
GPGPU-Sim uArch: core:  4, cta: 3 initialized @(53484,0)
GPGPU-Sim uArch: Shader 10 finished CTA #3 (53486,0), 5 CTAs running
GPGPU-Sim uArch: core: 10, cta: 3 initialized @(53487,0)
GPGPU-Sim uArch: Shader 2 finished CTA #3 (53492,0), 5 CTAs running
GPGPU-Sim uArch: core:  2, cta: 3 initialized @(53493,0)
GPGPU-Sim uArch: Shader 8 finished CTA #3 (53496,0), 5 CTAs running
GPGPU-Sim uArch: core:  8, cta: 3 initialized @(53497,0)
GPGPU-Sim uArch: Shader 1 finished CTA #3 (53511,0), 5 CTAs running
GPGPU-Sim uArch: core:  1, cta: 3 initialized @(53512,0)
GPGPU-Sim uArch: Shader 5 finished CTA #3 (53512,0), 5 CTAs running
GPGPU-Sim uArch: core:  5, cta: 3 initialized @(53513,0)
GPGPU-Sim uArch: Shader 7 finished CTA #3 (53522,0), 5 CTAs running
GPGPU-Sim uArch: core:  7, cta: 3 initialized @(53523,0)
GPGPU-Sim uArch: Shader 12 finished CTA #3 (53524,0), 5 CTAs running
GPGPU-Sim uArch: core: 12, cta: 3 initialized @(53525,0)
GPGPU-Sim uArch: Shader 14 finished CTA #3 (53525,0), 5 CTAs running
GPGPU-Sim uArch: core: 14, cta: 3 initialized @(53526,0)
GPGPU-Sim uArch: Shader 13 finished CTA #3 (53526,0), 5 CTAs running
GPGPU-Sim uArch: core: 13, cta: 3 initialized @(53527,0)
GPGPU-Sim uArch: Shader 9 finished CTA #3 (53543,0), 5 CTAs running
GPGPU-Sim uArch: core:  9, cta: 3 initialized @(53544,0)
GPGPU-Sim uArch: Shader 11 finished CTA #3 (53546,0), 5 CTAs running
GPGPU-Sim uArch: core: 11, cta: 3 initialized @(53547,0)
GPGPU-Sim uArch: cycles simulated: 54000  inst.: 4465860 (ipc=82.7) sim_rate=114509 (inst/sec) elapsed = 0:0:00:39 / Tue Mar 22 12:40:19 2016
GPGPU-Sim PTX: 4600000 instructions simulated : ctaid=(0,163,0) tid=(13,6,0)
GPGPU-Sim uArch: cycles simulated: 55500  inst.: 4569188 (ipc=82.3) sim_rate=114229 (inst/sec) elapsed = 0:0:00:40 / Tue Mar 22 12:40:20 2016
GPGPU-Sim PTX: 4700000 instructions simulated : ctaid=(0,161,0) tid=(13,6,0)
GPGPU-Sim PTX: 4800000 instructions simulated : ctaid=(0,161,0) tid=(15,4,0)
GPGPU-Sim uArch: cycles simulated: 57500  inst.: 4769528 (ipc=82.9) sim_rate=116329 (inst/sec) elapsed = 0:0:00:41 / Tue Mar 22 12:40:21 2016
GPGPU-Sim PTX: 4900000 instructions simulated : ctaid=(0,164,0) tid=(15,13,0)
GPGPU-Sim uArch: Shader 6 finished CTA #4 (58536,0), 5 CTAs running
GPGPU-Sim uArch: core:  6, cta: 4 initialized @(58537,0)
GPGPU-Sim uArch: Shader 0 finished CTA #4 (58555,0), 5 CTAs running
GPGPU-Sim uArch: core:  0, cta: 4 initialized @(58556,0)
GPGPU-Sim uArch: Shader 3 finished CTA #4 (58558,0), 5 CTAs running
GPGPU-Sim uArch: core:  3, cta: 4 initialized @(58559,0)
GPGPU-Sim uArch: Shader 4 finished CTA #4 (58566,0), 5 CTAs running
GPGPU-Sim uArch: core:  4, cta: 4 initialized @(58567,0)
GPGPU-Sim uArch: Shader 10 finished CTA #4 (58573,0), 5 CTAs running
GPGPU-Sim uArch: core: 10, cta: 4 initialized @(58574,0)
GPGPU-Sim uArch: Shader 2 finished CTA #4 (58577,0), 5 CTAs running
GPGPU-Sim uArch: core:  2, cta: 4 initialized @(58578,0)
GPGPU-Sim uArch: Shader 8 finished CTA #4 (58589,0), 5 CTAs running
GPGPU-Sim uArch: core:  8, cta: 4 initialized @(58590,0)
GPGPU-Sim uArch: Shader 1 finished CTA #4 (58604,0), 5 CTAs running
GPGPU-Sim uArch: core:  1, cta: 4 initialized @(58605,0)
GPGPU-Sim uArch: Shader 13 finished CTA #4 (58606,0), 5 CTAs running
GPGPU-Sim uArch: core: 13, cta: 4 initialized @(58607,0)
GPGPU-Sim uArch: Shader 5 finished CTA #4 (58609,0), 5 CTAs running
GPGPU-Sim uArch: core:  5, cta: 4 initialized @(58610,0)
GPGPU-Sim uArch: Shader 7 finished CTA #4 (58615,0), 5 CTAs running
GPGPU-Sim uArch: core:  7, cta: 4 initialized @(58616,0)
GPGPU-Sim uArch: Shader 14 finished CTA #4 (58616,0), 5 CTAs running
GPGPU-Sim uArch: core: 14, cta: 4 initialized @(58617,0)
GPGPU-Sim uArch: Shader 12 finished CTA #4 (58622,0), 5 CTAs running
GPGPU-Sim uArch: core: 12, cta: 4 initialized @(58623,0)
GPGPU-Sim uArch: Shader 9 finished CTA #4 (58628,0), 5 CTAs running
GPGPU-Sim uArch: core:  9, cta: 4 initialized @(58629,0)
GPGPU-Sim uArch: Shader 11 finished CTA #4 (58629,0), 5 CTAs running
GPGPU-Sim uArch: core: 11, cta: 4 initialized @(58630,0)
GPGPU-Sim PTX: 5000000 instructions simulated : ctaid=(0,177,0) tid=(9,9,0)
GPGPU-Sim uArch: cycles simulated: 59000  inst.: 4896898 (ipc=83.0) sim_rate=116592 (inst/sec) elapsed = 0:0:00:42 / Tue Mar 22 12:40:22 2016
GPGPU-Sim PTX: 5100000 instructions simulated : ctaid=(0,192,0) tid=(13,1,0)
GPGPU-Sim uArch: cycles simulated: 61000  inst.: 5042866 (ipc=82.7) sim_rate=117275 (inst/sec) elapsed = 0:0:00:43 / Tue Mar 22 12:40:23 2016
GPGPU-Sim PTX: 5200000 instructions simulated : ctaid=(0,174,0) tid=(15,15,0)
GPGPU-Sim PTX: 5300000 instructions simulated : ctaid=(0,166,0) tid=(15,0,0)
GPGPU-Sim uArch: cycles simulated: 62500  inst.: 5194792 (ipc=83.1) sim_rate=118063 (inst/sec) elapsed = 0:0:00:44 / Tue Mar 22 12:40:24 2016
GPGPU-Sim PTX: 5400000 instructions simulated : ctaid=(0,166,0) tid=(15,5,0)
GPGPU-Sim uArch: Shader 6 finished CTA #5 (63619,0), 5 CTAs running
GPGPU-Sim uArch: core:  6, cta: 5 initialized @(63620,0)
GPGPU-Sim uArch: Shader 3 finished CTA #5 (63641,0), 5 CTAs running
GPGPU-Sim uArch: core:  3, cta: 5 initialized @(63642,0)
GPGPU-Sim uArch: Shader 0 finished CTA #5 (63649,0), 5 CTAs running
GPGPU-Sim uArch: core:  0, cta: 5 initialized @(63650,0)
GPGPU-Sim uArch: Shader 4 finished CTA #5 (63655,0), 5 CTAs running
GPGPU-Sim uArch: Shader 10 finished CTA #5 (63655,0), 5 CTAs running
GPGPU-Sim uArch: core:  4, cta: 5 initialized @(63656,0)
GPGPU-Sim uArch: core: 10, cta: 5 initialized @(63656,0)
GPGPU-Sim uArch: Shader 2 finished CTA #5 (63672,0), 5 CTAs running
GPGPU-Sim uArch: core:  2, cta: 5 initialized @(63673,0)
GPGPU-Sim uArch: Shader 8 finished CTA #5 (63682,0), 5 CTAs running
GPGPU-Sim uArch: core:  8, cta: 5 initialized @(63683,0)
GPGPU-Sim uArch: Shader 1 finished CTA #5 (63697,0), 5 CTAs running
GPGPU-Sim uArch: core:  1, cta: 5 initialized @(63698,0)
GPGPU-Sim uArch: Shader 5 finished CTA #5 (63700,0), 5 CTAs running
GPGPU-Sim uArch: Shader 13 finished CTA #5 (63700,0), 5 CTAs running
GPGPU-Sim uArch: core:  5, cta: 5 initialized @(63701,0)
GPGPU-Sim uArch: core: 13, cta: 5 initialized @(63701,0)
GPGPU-Sim uArch: Shader 7 finished CTA #5 (63710,0), 5 CTAs running
GPGPU-Sim uArch: core:  7, cta: 5 initialized @(63711,0)
GPGPU-Sim uArch: Shader 14 finished CTA #5 (63713,0), 5 CTAs running
GPGPU-Sim uArch: core: 14, cta: 5 initialized @(63714,0)
GPGPU-Sim uArch: Shader 9 finished CTA #5 (63716,0), 5 CTAs running
GPGPU-Sim uArch: core:  9, cta: 5 initialized @(63717,0)
GPGPU-Sim uArch: Shader 11 finished CTA #5 (63721,0), 5 CTAs running
GPGPU-Sim uArch: core: 11, cta: 5 initialized @(63722,0)
GPGPU-Sim uArch: Shader 12 finished CTA #5 (63724,0), 5 CTAs running
GPGPU-Sim uArch: core: 12, cta: 5 initialized @(63725,0)
GPGPU-Sim uArch: cycles simulated: 64500  inst.: 5349060 (ipc=82.9) sim_rate=118868 (inst/sec) elapsed = 0:0:00:45 / Tue Mar 22 12:40:25 2016
GPGPU-Sim PTX: 5500000 instructions simulated : ctaid=(0,190,0) tid=(13,10,0)
GPGPU-Sim PTX: 5600000 instructions simulated : ctaid=(0,187,0) tid=(13,6,0)
GPGPU-Sim uArch: cycles simulated: 66000  inst.: 5462388 (ipc=82.8) sim_rate=118747 (inst/sec) elapsed = 0:0:00:46 / Tue Mar 22 12:40:26 2016
GPGPU-Sim PTX: 5700000 instructions simulated : ctaid=(0,183,0) tid=(13,8,0)
GPGPU-Sim PTX: 5800000 instructions simulated : ctaid=(0,193,0) tid=(11,7,0)
GPGPU-Sim uArch: cycles simulated: 68000  inst.: 5670394 (ipc=83.4) sim_rate=120646 (inst/sec) elapsed = 0:0:00:47 / Tue Mar 22 12:40:27 2016
GPGPU-Sim uArch: Shader 6 finished CTA #0 (68707,0), 5 CTAs running
GPGPU-Sim uArch: core:  6, cta: 0 initialized @(68708,0)
GPGPU-Sim uArch: Shader 0 finished CTA #0 (68723,0), 5 CTAs running
GPGPU-Sim uArch: core:  0, cta: 0 initialized @(68724,0)
GPGPU-Sim uArch: Shader 3 finished CTA #0 (68738,0), 5 CTAs running
GPGPU-Sim uArch: core:  3, cta: 0 initialized @(68739,0)
GPGPU-Sim uArch: Shader 10 finished CTA #0 (68762,0), 5 CTAs running
GPGPU-Sim uArch: core: 10, cta: 0 initialized @(68763,0)
GPGPU-Sim uArch: Shader 4 finished CTA #0 (68766,0), 5 CTAs running
GPGPU-Sim uArch: core:  4, cta: 0 initialized @(68767,0)
GPGPU-Sim uArch: Shader 2 finished CTA #0 (68769,0), 5 CTAs running
GPGPU-Sim uArch: core:  2, cta: 0 initialized @(68770,0)
GPGPU-Sim uArch: Shader 8 finished CTA #0 (68774,0), 5 CTAs running
GPGPU-Sim uArch: core:  8, cta: 0 initialized @(68775,0)
GPGPU-Sim uArch: Shader 5 finished CTA #0 (68777,0), 5 CTAs running
GPGPU-Sim uArch: core:  5, cta: 0 initialized @(68778,0)
GPGPU-Sim uArch: Shader 1 finished CTA #0 (68791,0), 5 CTAs running
GPGPU-Sim uArch: core:  1, cta: 0 initialized @(68792,0)
GPGPU-Sim uArch: Shader 7 finished CTA #0 (68794,0), 5 CTAs running
GPGPU-Sim uArch: core:  7, cta: 0 initialized @(68795,0)
GPGPU-Sim uArch: Shader 13 finished CTA #0 (68806,0), 5 CTAs running
GPGPU-Sim uArch: Shader 14 finished CTA #0 (68806,0), 5 CTAs running
GPGPU-Sim uArch: core: 13, cta: 0 initialized @(68807,0)
GPGPU-Sim uArch: core: 14, cta: 0 initialized @(68807,0)
GPGPU-Sim uArch: Shader 11 finished CTA #0 (68811,0), 5 CTAs running
GPGPU-Sim uArch: core: 11, cta: 0 initialized @(68812,0)
GPGPU-Sim uArch: Shader 9 finished CTA #0 (68819,0), 5 CTAs running
GPGPU-Sim uArch: core:  9, cta: 0 initialized @(68820,0)
GPGPU-Sim uArch: Shader 12 finished CTA #0 (68822,0), 5 CTAs running
GPGPU-Sim uArch: core: 12, cta: 0 initialized @(68823,0)
GPGPU-Sim PTX: 5900000 instructions simulated : ctaid=(0,201,0) tid=(13,0,0)
GPGPU-Sim uArch: cycles simulated: 69500  inst.: 5779332 (ipc=83.2) sim_rate=120402 (inst/sec) elapsed = 0:0:00:48 / Tue Mar 22 12:40:28 2016
GPGPU-Sim PTX: 6000000 instructions simulated : ctaid=(0,200,0) tid=(5,2,0)
GPGPU-Sim uArch: cycles simulated: 71500  inst.: 5935998 (ipc=83.0) sim_rate=121142 (inst/sec) elapsed = 0:0:00:49 / Tue Mar 22 12:40:29 2016
GPGPU-Sim PTX: 6100000 instructions simulated : ctaid=(0,206,0) tid=(15,2,0)
GPGPU-Sim PTX: 6200000 instructions simulated : ctaid=(0,207,0) tid=(15,10,0)
GPGPU-Sim PTX: 6300000 instructions simulated : ctaid=(0,206,0) tid=(11,15,0)
GPGPU-Sim uArch: Shader 6 finished CTA #1 (73762,0), 5 CTAs running
GPGPU-Sim uArch: core:  6, cta: 1 initialized @(73763,0)
GPGPU-Sim uArch: Shader 0 finished CTA #1 (73813,0), 5 CTAs running
GPGPU-Sim uArch: core:  0, cta: 1 initialized @(73814,0)
GPGPU-Sim uArch: Shader 3 finished CTA #1 (73828,0), 5 CTAs running
GPGPU-Sim uArch: core:  3, cta: 1 initialized @(73829,0)
GPGPU-Sim uArch: Shader 2 finished CTA #1 (73854,0), 5 CTAs running
GPGPU-Sim uArch: core:  2, cta: 1 initialized @(73855,0)
GPGPU-Sim uArch: Shader 4 finished CTA #1 (73862,0), 5 CTAs running
GPGPU-Sim uArch: core:  4, cta: 1 initialized @(73863,0)
GPGPU-Sim uArch: Shader 8 finished CTA #1 (73863,0), 5 CTAs running
GPGPU-Sim uArch: core:  8, cta: 1 initialized @(73864,0)
GPGPU-Sim uArch: Shader 5 finished CTA #1 (73866,0), 5 CTAs running
GPGPU-Sim uArch: Shader 10 finished CTA #1 (73866,0), 5 CTAs running
GPGPU-Sim uArch: core: 10, cta: 1 initialized @(73867,0)
GPGPU-Sim uArch: core:  5, cta: 1 initialized @(73867,0)
GPGPU-Sim uArch: Shader 11 finished CTA #1 (73882,0), 5 CTAs running
GPGPU-Sim uArch: core: 11, cta: 1 initialized @(73883,0)
GPGPU-Sim uArch: Shader 13 finished CTA #1 (73885,0), 5 CTAs running
GPGPU-Sim uArch: core: 13, cta: 1 initialized @(73886,0)
GPGPU-Sim uArch: Shader 7 finished CTA #1 (73888,0), 5 CTAs running
GPGPU-Sim uArch: core:  7, cta: 1 initialized @(73889,0)
GPGPU-Sim uArch: Shader 1 finished CTA #1 (73893,0), 5 CTAs running
GPGPU-Sim uArch: core:  1, cta: 1 initialized @(73894,0)
GPGPU-Sim uArch: Shader 14 finished CTA #1 (73899,0), 5 CTAs running
GPGPU-Sim uArch: core: 14, cta: 1 initialized @(73900,0)
GPGPU-Sim uArch: Shader 9 finished CTA #1 (73907,0), 5 CTAs running
GPGPU-Sim uArch: core:  9, cta: 1 initialized @(73908,0)
GPGPU-Sim uArch: Shader 12 finished CTA #1 (73916,0), 5 CTAs running
GPGPU-Sim uArch: core: 12, cta: 1 initialized @(73917,0)
GPGPU-Sim uArch: cycles simulated: 74000  inst.: 6168938 (ipc=83.4) sim_rate=123378 (inst/sec) elapsed = 0:0:00:50 / Tue Mar 22 12:40:30 2016
GPGPU-Sim PTX: 6400000 instructions simulated : ctaid=(0,212,0) tid=(13,8,0)
GPGPU-Sim uArch: cycles simulated: 76000  inst.: 6307122 (ipc=83.0) sim_rate=123669 (inst/sec) elapsed = 0:0:00:51 / Tue Mar 22 12:40:31 2016
GPGPU-Sim PTX: 6500000 instructions simulated : ctaid=(0,212,0) tid=(15,10,0)
GPGPU-Sim PTX: 6600000 instructions simulated : ctaid=(0,294,0) tid=(11,15,0)
GPGPU-Sim uArch: cycles simulated: 78000  inst.: 6510458 (ipc=83.5) sim_rate=125201 (inst/sec) elapsed = 0:0:00:52 / Tue Mar 22 12:40:32 2016
GPGPU-Sim PTX: 6700000 instructions simulated : ctaid=(0,222,0) tid=(11,14,0)
GPGPU-Sim uArch: Shader 6 finished CTA #2 (78860,0), 5 CTAs running
GPGPU-Sim uArch: core:  6, cta: 2 initialized @(78861,0)
GPGPU-Sim uArch: Shader 0 finished CTA #2 (78891,0), 5 CTAs running
GPGPU-Sim uArch: core:  0, cta: 2 initialized @(78892,0)
GPGPU-Sim uArch: Shader 3 finished CTA #2 (78912,0), 5 CTAs running
GPGPU-Sim uArch: core:  3, cta: 2 initialized @(78913,0)
GPGPU-Sim uArch: Shader 2 finished CTA #2 (78937,0), 5 CTAs running
GPGPU-Sim uArch: core:  2, cta: 2 initialized @(78938,0)
GPGPU-Sim uArch: Shader 5 finished CTA #2 (78943,0), 5 CTAs running
GPGPU-Sim uArch: core:  5, cta: 2 initialized @(78944,0)
GPGPU-Sim uArch: Shader 4 finished CTA #2 (78947,0), 5 CTAs running
GPGPU-Sim uArch: Shader 10 finished CTA #2 (78947,0), 5 CTAs running
GPGPU-Sim uArch: core: 10, cta: 2 initialized @(78948,0)
GPGPU-Sim uArch: core:  4, cta: 2 initialized @(78948,0)
GPGPU-Sim uArch: Shader 8 finished CTA #2 (78950,0), 5 CTAs running
GPGPU-Sim uArch: core:  8, cta: 2 initialized @(78951,0)
GPGPU-Sim uArch: Shader 11 finished CTA #2 (78968,0), 5 CTAs running
GPGPU-Sim uArch: core: 11, cta: 2 initialized @(78969,0)
GPGPU-Sim uArch: Shader 13 finished CTA #2 (78969,0), 5 CTAs running
GPGPU-Sim uArch: core: 13, cta: 2 initialized @(78970,0)
GPGPU-Sim uArch: Shader 7 finished CTA #2 (78985,0), 5 CTAs running
GPGPU-Sim uArch: core:  7, cta: 2 initialized @(78986,0)
GPGPU-Sim uArch: Shader 9 finished CTA #2 (78991,0), 5 CTAs running
GPGPU-Sim uArch: core:  9, cta: 2 initialized @(78992,0)
GPGPU-Sim uArch: Shader 1 finished CTA #2 (78994,0), 5 CTAs running
GPGPU-Sim uArch: core:  1, cta: 2 initialized @(78995,0)
GPGPU-Sim uArch: Shader 14 finished CTA #2 (78997,0), 5 CTAs running
GPGPU-Sim uArch: core: 14, cta: 2 initialized @(78998,0)
GPGPU-Sim uArch: Shader 12 finished CTA #2 (79008,0), 5 CTAs running
GPGPU-Sim uArch: core: 12, cta: 2 initialized @(79009,0)
GPGPU-Sim PTX: 6800000 instructions simulated : ctaid=(0,225,0) tid=(13,7,0)
GPGPU-Sim uArch: cycles simulated: 80000  inst.: 6655716 (ipc=83.2) sim_rate=125579 (inst/sec) elapsed = 0:0:00:53 / Tue Mar 22 12:40:33 2016
GPGPU-Sim PTX: 6900000 instructions simulated : ctaid=(0,237,0) tid=(15,2,0)
GPGPU-Sim PTX: 7000000 instructions simulated : ctaid=(0,230,0) tid=(15,11,0)
GPGPU-Sim uArch: cycles simulated: 82000  inst.: 6837018 (ipc=83.4) sim_rate=126611 (inst/sec) elapsed = 0:0:00:54 / Tue Mar 22 12:40:34 2016
GPGPU-Sim PTX: 7100000 instructions simulated : ctaid=(0,229,0) tid=(15,8,0)
GPGPU-Sim PTX: 7200000 instructions simulated : ctaid=(0,238,0) tid=(5,14,0)
GPGPU-Sim uArch: Shader 6 finished CTA #3 (83952,0), 5 CTAs running
GPGPU-Sim uArch: core:  6, cta: 3 initialized @(83953,0)
GPGPU-Sim uArch: Shader 0 finished CTA #3 (83985,0), 5 CTAs running
GPGPU-Sim uArch: core:  0, cta: 3 initialized @(83986,0)
GPGPU-Sim uArch: cycles simulated: 84000  inst.: 7014650 (ipc=83.5) sim_rate=127539 (inst/sec) elapsed = 0:0:00:55 / Tue Mar 22 12:40:35 2016
GPGPU-Sim uArch: Shader 3 finished CTA #3 (84005,0), 5 CTAs running
GPGPU-Sim uArch: core:  3, cta: 3 initialized @(84006,0)
GPGPU-Sim uArch: Shader 8 finished CTA #3 (84014,0), 5 CTAs running
GPGPU-Sim uArch: core:  8, cta: 3 initialized @(84015,0)
GPGPU-Sim uArch: Shader 2 finished CTA #3 (84033,0), 5 CTAs running
GPGPU-Sim uArch: core:  2, cta: 3 initialized @(84034,0)
GPGPU-Sim uArch: Shader 4 finished CTA #3 (84036,0), 5 CTAs running
GPGPU-Sim uArch: core:  4, cta: 3 initialized @(84037,0)
GPGPU-Sim uArch: Shader 11 finished CTA #3 (84047,0), 5 CTAs running
GPGPU-Sim uArch: core: 11, cta: 3 initialized @(84048,0)
GPGPU-Sim uArch: Shader 5 finished CTA #3 (84052,0), 5 CTAs running
GPGPU-Sim uArch: core:  5, cta: 3 initialized @(84053,0)
GPGPU-Sim uArch: Shader 10 finished CTA #3 (84057,0), 5 CTAs running
GPGPU-Sim uArch: core: 10, cta: 3 initialized @(84058,0)
GPGPU-Sim uArch: Shader 13 finished CTA #3 (84059,0), 5 CTAs running
GPGPU-Sim uArch: core: 13, cta: 3 initialized @(84060,0)
GPGPU-Sim uArch: Shader 14 finished CTA #3 (84075,0), 5 CTAs running
GPGPU-Sim uArch: core: 14, cta: 3 initialized @(84076,0)
GPGPU-Sim uArch: Shader 7 finished CTA #3 (84078,0), 5 CTAs running
GPGPU-Sim uArch: core:  7, cta: 3 initialized @(84079,0)
GPGPU-Sim uArch: Shader 9 finished CTA #3 (84088,0), 5 CTAs running
GPGPU-Sim uArch: core:  9, cta: 3 initialized @(84089,0)
GPGPU-Sim uArch: Shader 1 finished CTA #3 (84095,0), 5 CTAs running
GPGPU-Sim uArch: core:  1, cta: 3 initialized @(84096,0)
GPGPU-Sim uArch: Shader 12 finished CTA #3 (84107,0), 5 CTAs running
GPGPU-Sim uArch: core: 12, cta: 3 initialized @(84108,0)
GPGPU-Sim PTX: 7300000 instructions simulated : ctaid=(0,244,0) tid=(13,14,0)
GPGPU-Sim uArch: cycles simulated: 86000  inst.: 7150736 (ipc=83.1) sim_rate=127691 (inst/sec) elapsed = 0:0:00:56 / Tue Mar 22 12:40:36 2016
GPGPU-Sim PTX: 7400000 instructions simulated : ctaid=(0,246,0) tid=(1,12,0)
GPGPU-Sim PTX: 7500000 instructions simulated : ctaid=(0,246,0) tid=(5,1,0)
GPGPU-Sim uArch: cycles simulated: 88000  inst.: 7352472 (ipc=83.6) sim_rate=128990 (inst/sec) elapsed = 0:0:00:57 / Tue Mar 22 12:40:37 2016
GPGPU-Sim PTX: 7600000 instructions simulated : ctaid=(0,242,0) tid=(15,14,0)
GPGPU-Sim uArch: Shader 6 finished CTA #4 (89040,0), 5 CTAs running
GPGPU-Sim uArch: core:  6, cta: 4 initialized @(89041,0)
GPGPU-Sim uArch: Shader 0 finished CTA #4 (89075,0), 5 CTAs running
GPGPU-Sim uArch: core:  0, cta: 4 initialized @(89076,0)
GPGPU-Sim uArch: Shader 3 finished CTA #4 (89097,0), 5 CTAs running
GPGPU-Sim uArch: core:  3, cta: 4 initialized @(89098,0)
GPGPU-Sim uArch: Shader 8 finished CTA #4 (89107,0), 5 CTAs running
GPGPU-Sim uArch: core:  8, cta: 4 initialized @(89108,0)
GPGPU-Sim uArch: Shader 4 finished CTA #4 (89114,0), 5 CTAs running
GPGPU-Sim uArch: core:  4, cta: 4 initialized @(89115,0)
GPGPU-Sim uArch: Shader 2 finished CTA #4 (89123,0), 5 CTAs running
GPGPU-Sim uArch: core:  2, cta: 4 initialized @(89124,0)
GPGPU-Sim uArch: Shader 11 finished CTA #4 (89136,0), 5 CTAs running
GPGPU-Sim uArch: core: 11, cta: 4 initialized @(89137,0)
GPGPU-Sim uArch: Shader 5 finished CTA #4 (89151,0), 5 CTAs running
GPGPU-Sim uArch: core:  5, cta: 4 initialized @(89152,0)
GPGPU-Sim uArch: Shader 10 finished CTA #4 (89155,0), 5 CTAs running
GPGPU-Sim uArch: core: 10, cta: 4 initialized @(89156,0)
GPGPU-Sim uArch: Shader 1 finished CTA #4 (89168,0), 5 CTAs running
GPGPU-Sim uArch: core:  1, cta: 4 initialized @(89169,0)
GPGPU-Sim uArch: Shader 7 finished CTA #4 (89169,0), 5 CTAs running
GPGPU-Sim uArch: core:  7, cta: 4 initialized @(89170,0)
GPGPU-Sim uArch: Shader 13 finished CTA #4 (89172,0), 5 CTAs running
GPGPU-Sim uArch: core: 13, cta: 4 initialized @(89173,0)
GPGPU-Sim uArch: Shader 9 finished CTA #4 (89174,0), 5 CTAs running
GPGPU-Sim uArch: core:  9, cta: 4 initialized @(89175,0)
GPGPU-Sim uArch: Shader 14 finished CTA #4 (89175,0), 5 CTAs running
GPGPU-Sim uArch: core: 14, cta: 4 initialized @(89176,0)
GPGPU-Sim uArch: Shader 12 finished CTA #4 (89193,0), 5 CTAs running
GPGPU-Sim uArch: core: 12, cta: 4 initialized @(89194,0)
GPGPU-Sim PTX: 7700000 instructions simulated : ctaid=(0,265,0) tid=(13,5,0)
GPGPU-Sim uArch: cycles simulated: 90000  inst.: 7504260 (ipc=83.4) sim_rate=129383 (inst/sec) elapsed = 0:0:00:58 / Tue Mar 22 12:40:38 2016
GPGPU-Sim PTX: 7800000 instructions simulated : ctaid=(0,263,0) tid=(13,4,0)
GPGPU-Sim uArch: cycles simulated: 92000  inst.: 7677138 (ipc=83.4) sim_rate=130120 (inst/sec) elapsed = 0:0:00:59 / Tue Mar 22 12:40:39 2016
GPGPU-Sim PTX: 7900000 instructions simulated : ctaid=(0,266,0) tid=(5,11,0)
GPGPU-Sim PTX: 8000000 instructions simulated : ctaid=(0,259,0) tid=(15,1,0)
GPGPU-Sim uArch: cycles simulated: 94000  inst.: 7868082 (ipc=83.7) sim_rate=131134 (inst/sec) elapsed = 0:0:01:00 / Tue Mar 22 12:40:40 2016
GPGPU-Sim uArch: Shader 6 finished CTA #5 (94123,0), 5 CTAs running
GPGPU-Sim uArch: core:  6, cta: 5 initialized @(94124,0)
GPGPU-Sim uArch: Shader 0 finished CTA #5 (94177,0), 5 CTAs running
GPGPU-Sim uArch: core:  0, cta: 5 initialized @(94178,0)
GPGPU-Sim uArch: Shader 3 finished CTA #5 (94180,0), 5 CTAs running
GPGPU-Sim uArch: core:  3, cta: 5 initialized @(94181,0)
GPGPU-Sim uArch: Shader 8 finished CTA #5 (94196,0), 5 CTAs running
GPGPU-Sim uArch: core:  8, cta: 5 initialized @(94197,0)
GPGPU-Sim uArch: Shader 11 finished CTA #5 (94208,0), 5 CTAs running
GPGPU-Sim uArch: core: 11, cta: 5 initialized @(94209,0)
GPGPU-Sim uArch: Shader 2 finished CTA #5 (94211,0), 5 CTAs running
GPGPU-Sim uArch: core:  2, cta: 5 initialized @(94212,0)
GPGPU-Sim uArch: Shader 4 finished CTA #5 (94215,0), 5 CTAs running
GPGPU-Sim uArch: core:  4, cta: 5 initialized @(94216,0)
GPGPU-Sim uArch: Shader 5 finished CTA #5 (94241,0), 5 CTAs running
GPGPU-Sim uArch: Shader 10 finished CTA #5 (94241,0), 5 CTAs running
GPGPU-Sim uArch: core:  5, cta: 5 initialized @(94242,0)
GPGPU-Sim uArch: core: 10, cta: 5 initialized @(94242,0)
GPGPU-Sim uArch: Shader 13 finished CTA #5 (94243,0), 5 CTAs running
GPGPU-Sim uArch: core: 13, cta: 5 initialized @(94244,0)
GPGPU-Sim uArch: Shader 1 finished CTA #5 (94258,0), 5 CTAs running
GPGPU-Sim uArch: Shader 7 finished CTA #5 (94258,0), 5 CTAs running
GPGPU-Sim uArch: core:  1, cta: 5 initialized @(94259,0)
GPGPU-Sim uArch: core:  7, cta: 5 initialized @(94259,0)
GPGPU-Sim uArch: Shader 14 finished CTA #5 (94265,0), 5 CTAs running
GPGPU-Sim uArch: core: 14, cta: 5 initialized @(94266,0)
GPGPU-Sim uArch: Shader 9 finished CTA #5 (94271,0), 5 CTAs running
GPGPU-Sim uArch: core:  9, cta: 5 initialized @(94272,0)
GPGPU-Sim uArch: Shader 12 finished CTA #5 (94279,0), 5 CTAs running
GPGPU-Sim uArch: core: 12, cta: 5 initialized @(94280,0)
GPGPU-Sim PTX: 8100000 instructions simulated : ctaid=(0,272,0) tid=(13,13,0)
GPGPU-Sim uArch: cycles simulated: 95500  inst.: 7956644 (ipc=83.3) sim_rate=130436 (inst/sec) elapsed = 0:0:01:01 / Tue Mar 22 12:40:41 2016
GPGPU-Sim PTX: 8200000 instructions simulated : ctaid=(0,270,0) tid=(11,0,0)
GPGPU-Sim PTX: 8300000 instructions simulated : ctaid=(0,280,0) tid=(13,13,0)
GPGPU-Sim uArch: cycles simulated: 97000  inst.: 8097266 (ipc=83.5) sim_rate=130601 (inst/sec) elapsed = 0:0:01:02 / Tue Mar 22 12:40:42 2016
GPGPU-Sim PTX: 8400000 instructions simulated : ctaid=(0,281,0) tid=(1,0,0)
GPGPU-Sim PTX: 8500000 instructions simulated : ctaid=(0,273,0) tid=(15,5,0)
GPGPU-Sim uArch: cycles simulated: 99000  inst.: 8296508 (ipc=83.8) sim_rate=131690 (inst/sec) elapsed = 0:0:01:03 / Tue Mar 22 12:40:43 2016
GPGPU-Sim uArch: Shader 6 finished CTA #0 (99211,0), 5 CTAs running
GPGPU-Sim uArch: core:  6, cta: 0 initialized @(99212,0)
GPGPU-Sim uArch: Shader 3 finished CTA #0 (99268,0), 5 CTAs running
GPGPU-Sim uArch: core:  3, cta: 0 initialized @(99269,0)
GPGPU-Sim uArch: Shader 0 finished CTA #0 (99277,0), 5 CTAs running
GPGPU-Sim uArch: core:  0, cta: 0 initialized @(99278,0)
GPGPU-Sim uArch: Shader 8 finished CTA #0 (99294,0), 5 CTAs running
GPGPU-Sim uArch: core:  8, cta: 0 initialized @(99295,0)
GPGPU-Sim uArch: Shader 11 finished CTA #0 (99302,0), 5 CTAs running
GPGPU-Sim uArch: core: 11, cta: 0 initialized @(99303,0)
GPGPU-Sim uArch: Shader 4 finished CTA #0 (99303,0), 5 CTAs running
GPGPU-Sim uArch: core:  4, cta: 0 initialized @(99304,0)
GPGPU-Sim uArch: Shader 2 finished CTA #0 (99306,0), 5 CTAs running
GPGPU-Sim uArch: core:  2, cta: 0 initialized @(99307,0)
GPGPU-Sim uArch: Shader 13 finished CTA #0 (99336,0), 5 CTAs running
GPGPU-Sim uArch: core: 13, cta: 0 initialized @(99337,0)
GPGPU-Sim uArch: Shader 10 finished CTA #0 (99343,0), 5 CTAs running
GPGPU-Sim uArch: core: 10, cta: 0 initialized @(99344,0)
GPGPU-Sim uArch: Shader 1 finished CTA #0 (99344,0), 5 CTAs running
GPGPU-Sim uArch: core:  1, cta: 0 initialized @(99345,0)
GPGPU-Sim uArch: Shader 7 finished CTA #0 (99354,0), 5 CTAs running
GPGPU-Sim uArch: core:  7, cta: 0 initialized @(99355,0)
GPGPU-Sim uArch: Shader 5 finished CTA #0 (99357,0), 5 CTAs running
GPGPU-Sim uArch: core:  5, cta: 0 initialized @(99358,0)
GPGPU-Sim uArch: Shader 14 finished CTA #0 (99366,0), 5 CTAs running
GPGPU-Sim uArch: core: 14, cta: 0 initialized @(99367,0)
GPGPU-Sim uArch: Shader 9 finished CTA #0 (99369,0), 5 CTAs running
GPGPU-Sim uArch: core:  9, cta: 0 initialized @(99370,0)
GPGPU-Sim uArch: Shader 12 finished CTA #0 (99370,0), 5 CTAs running
GPGPU-Sim uArch: core: 12, cta: 0 initialized @(99371,0)
GPGPU-Sim PTX: 8600000 instructions simulated : ctaid=(0,286,0) tid=(13,11,0)
GPGPU-Sim uArch: cycles simulated: 100500  inst.: 8387460 (ipc=83.5) sim_rate=131054 (inst/sec) elapsed = 0:0:01:04 / Tue Mar 22 12:40:44 2016
GPGPU-Sim PTX: 8700000 instructions simulated : ctaid=(0,285,0) tid=(1,8,0)
GPGPU-Sim uArch: cycles simulated: 102000  inst.: 8518244 (ipc=83.5) sim_rate=131049 (inst/sec) elapsed = 0:0:01:05 / Tue Mar 22 12:40:45 2016
GPGPU-Sim PTX: 8800000 instructions simulated : ctaid=(0,365,0) tid=(5,10,0)
GPGPU-Sim PTX: 8900000 instructions simulated : ctaid=(0,297,0) tid=(15,0,0)
GPGPU-Sim uArch: cycles simulated: 104000  inst.: 8724934 (ipc=83.9) sim_rate=132195 (inst/sec) elapsed = 0:0:01:06 / Tue Mar 22 12:40:46 2016
GPGPU-Sim uArch: Shader 6 finished CTA #1 (104293,0), 5 CTAs running
GPGPU-Sim uArch: core:  6, cta: 1 initialized @(104294,0)
GPGPU-Sim uArch: Shader 3 finished CTA #1 (104352,0), 5 CTAs running
GPGPU-Sim uArch: core:  3, cta: 1 initialized @(104353,0)
GPGPU-Sim uArch: Shader 0 finished CTA #1 (104371,0), 5 CTAs running
GPGPU-Sim uArch: core:  0, cta: 1 initialized @(104372,0)
GPGPU-Sim uArch: Shader 8 finished CTA #1 (104379,0), 5 CTAs running
GPGPU-Sim uArch: core:  8, cta: 1 initialized @(104380,0)
GPGPU-Sim uArch: Shader 11 finished CTA #1 (104385,0), 5 CTAs running
GPGPU-Sim uArch: core: 11, cta: 1 initialized @(104386,0)
GPGPU-Sim uArch: Shader 4 finished CTA #1 (104390,0), 5 CTAs running
GPGPU-Sim uArch: core:  4, cta: 1 initialized @(104391,0)
GPGPU-Sim uArch: Shader 2 finished CTA #1 (104393,0), 5 CTAs running
GPGPU-Sim uArch: core:  2, cta: 1 initialized @(104394,0)
GPGPU-Sim uArch: Shader 13 finished CTA #1 (104414,0), 5 CTAs running
GPGPU-Sim uArch: core: 13, cta: 1 initialized @(104415,0)
GPGPU-Sim uArch: Shader 1 finished CTA #1 (104434,0), 5 CTAs running
GPGPU-Sim uArch: core:  1, cta: 1 initialized @(104435,0)
GPGPU-Sim uArch: Shader 10 finished CTA #1 (104435,0), 5 CTAs running
GPGPU-Sim uArch: core: 10, cta: 1 initialized @(104436,0)
GPGPU-Sim uArch: Shader 12 finished CTA #1 (104443,0), 5 CTAs running
GPGPU-Sim uArch: core: 12, cta: 1 initialized @(104444,0)
[...]
traffic_breakdown_coretomem[CONST_ACC_R] = 120 {8:15,}
traffic_breakdown_coretomem[GLOBAL_ACC_R] = 1259496 {8:157437,}
traffic_breakdown_coretomem[GLOBAL_ACC_W] = 20185360 {40:81920,72:49152,136:98306,}
traffic_breakdown_coretomem[INST_ACC_R] = 1448 {8:181,}
traffic_breakdown_memtocore[CONST_ACC_R] = 1080 {72:15,}
traffic_breakdown_memtocore[GLOBAL_ACC_R] = 21411432 {136:157437,}
traffic_breakdown_memtocore[GLOBAL_ACC_W] = 1835024 {8:229378,}
traffic_breakdown_memtocore[INST_ACC_R] = 24616 {136:181,}
maxmrqlatency = 111 
maxdqlatency = 0 
maxmflatency = 385 
averagemflatency = 186 
max_icnt2mem_latency = 95 
max_icnt2sh_latency = 2523681 
mrq_lat_table:117691 	6992 	1989 	9285 	68479 	14196 	687 	0 	0 	0 	0 	0 	0 	0 	0 	0 	0 	0 	0 	0 	0 	0 	0 	0 	0 	0 	0 	0 	0 	0 	0 	0 	
dq_lat_table:0 	0 	0 	0 	0 	0 	0 	0 	0 	0 	0 	0 	0 	0 	0 	0 	0 	0 	0 	0 	0 	0 	0 	0 	0 	0 	0 	0 	0 	0 	0 	0 	
mf_lat_table:0 	0 	0 	0 	0 	0 	0 	271577 	115253 	0 	0 	0 	0 	0 	0 	0 	0 	0 	0 	0 	0 	0 	0 	0 	0 	0 	0 	0 	0 	0 	0 	0 	
icnt2mem_lat_table:0 	0 	0 	288098 	95487 	3385 	41 	0 	0 	0 	0 	0 	0 	0 	0 	0 	0 	0 	0 	0 	0 	0 	0 	0 	
icnt2sh_lat_table:0 	0 	0 	143323 	14129 	0 	0 	0 	0 	0 	0 	0 	360 	360 	1275 	2325 	4680 	9196 	18510 	36734 	105874 	50064 	0 	0 	
mf_lat_pw_table:0 	0 	0 	0 	0 	0 	0 	3994 	618 	0 	0 	0 	0 	0 	0 	0 	0 	0 	0 	0 	0 	0 	0 	0 	0 	0 	0 	0 	0 	0 	0 	0 	
maximum concurrent accesses to same row:
dram[0]:        32        32        32        32        32        32        32        32        32        32        32        32        32        32        32        32 
dram[1]:        32        32        32        32        32        32        32        32        32        32        32        32        32        32        32        32 
dram[2]:        32        32        32        32        32        32        32        32        32        32        32        32        32        32        32        32 
dram[3]:        32        32        32        32        32        32        32        32        32        32        32        32        32        32        32        32 
dram[4]:        32        32        32        32        32        32        32        32        32        32        32        32        32        32        32        32 
dram[5]:        32        32        32        32        32        32        32        32        32        32        32        32        32        32        32        32 
maximum service time to same row:
dram[0]:    123191    123169    126450    122244    103685    117822     85615     85634    122622    122137    122320    122128    122205    122303    122190    122334 
dram[1]:    117047    123231    126064    122235    116608    116252     85580     83778    122695    122156    122253    122288    122200    122332    122302    122322 
dram[2]:    117087    123228    122224    122184    112600    112856     85069     85109    122787    122208    122276    122287    122284    122212    122327    122188 
dram[3]:    117196    123202    122228    122134    116422    113110     85247     84474    122253    122241    122306    122231    122325    122153    122214    122239 
dram[4]:    123227    123217    122181    122190    112850    116675     84804     85948    122272    122283    122253    122195    122225    122236    122180    122308 
dram[5]:    123170    123272    122183    122263    113016    116161     86017     84069    122258    122231    122127    122206    122222    122623    122327    122334 
average row accesses per activate:
dram[0]:  1.568833  1.561672  1.641026  1.596579  1.565398  1.534284  1.711752  1.688274  1.626676  1.630573  1.649248  1.655172  1.680525  1.659222  1.711738  1.718121 
dram[1]:  1.585573  1.589780  1.632653  1.608040  1.549006  1.546886  1.711752  1.719585  1.614576  1.621393  1.679300  1.690389  1.658747  1.684211  1.699115  1.706667 
dram[2]:  1.598011  1.576355  1.622013  1.605735  1.556474  1.554945  1.704930  1.718843  1.600000  1.627119  1.704142  1.689150  1.670776  1.670776  1.687179  1.725843 
dram[3]:  1.566830  1.595442  1.604585  1.612671  1.556474  1.568954  1.728561  1.711965  1.600000  1.620253  1.648069  1.681752  1.639858  1.675636  1.700369  1.749431 
dram[4]:  1.581100  1.566434  1.600000  1.635036  1.565097  1.569444  1.705666  1.727273  1.606695  1.657554  1.701625  1.663538  1.679300  1.651613  1.733634  1.731029 
dram[5]:  1.560195  1.580804  1.635036  1.623188  1.555403  1.543907  1.706922  1.705666  1.592260  1.625970  1.680525  1.658747  1.662816  1.651613  1.719403  1.707932 
average row locality = 219319/133667 = 1.640786
number of total memory accesses made:
dram[0]:         0         0         0         0         0         0         0         0         0         0         0         0         0         0         0         0 
dram[1]:         0         0         0         0         0         0         0         0         0         0         0         0         0         0         0         0 
dram[2]:         0         0         0         0         0         0         0         0         0         0         0         0         0         0         0         0 
dram[3]:         0         0         0         0         0         0         0         0         0         0         0         0         0         0         0         0 
dram[4]:         0         0         0         0         0         0         0         0         0         0         0         0         0         0         0         0 
dram[5]:         0         0         0         0         0         0         0         0         0         0         0         0         0         0         0         0 
total accesses: 0
min_bank_accesses = 0!
min_chip_accesses = 0!
number of total read accesses:
dram[0]:      1153      1153      1152      1152      1153      1152      1152      1152      1152      1152      1152      1152      1152      1152      1152      1152 
dram[1]:      1150      1152      1152      1152      1152      1152      1152      1152      1152      1152      1152      1152      1152      1152      1152      1152 
dram[2]:      1154      1152      1152      1152      1152      1156      1152      1152      1152      1152      1152      1152      1152      1152      1152      1152 
dram[3]:      1153      1152      1152      1152      1152      1156      1152      1152      1152      1152      1152      1152      1152      1152      1152      1152 
dram[4]:      1154      1152      1152      1152      1152      1154      1152      1152      1152      1152      1152      1152      1152      1152      1152      1152 
dram[5]:      1154      1152      1152      1152      1152      1154      1152      1152      1152      1152      1152      1152      1152      1152      1152      1152 
total reads: 110612
bank skew: 1156/1150 = 1.01
chip skew: 18438/18430 = 1.00
number of total write accesses:
dram[0]:      1092      1088      1088      1088      1109      1108      1164      1166      1153      1152      1152      1152      1152      1151      1152      1152 
dram[1]:      1092      1088      1088      1088      1108      1108      1164      1166      1152      1152      1152      1152      1152      1152      1152      1152 
dram[2]:      1096      1088      1088      1088      1108      1108      1165      1165      1152      1152      1152      1152      1152      1152      1151      1152 
dram[3]:      1086      1088      1088      1088      1108      1108      1166      1166      1152      1152      1152      1152      1152      1152      1152      1152 
dram[4]:      1088      1088      1088      1088      1108      1106      1166      1166      1152      1152      1152      1152      1152      1152      1152      1152 
dram[5]:      1088      1088      1088      1088      1108      1114      1166      1166      1152      1152      1152      1152      1151      1152      1152      1152 
total reads: 108707
bank skew: 1166/1086 = 1.07
chip skew: 18121/18114 = 1.00
average mf latency per bank:
dram[0]:        315       312       313       313       320       320       335       334       337       336       336       335       334       336       334       334
dram[1]:        313       312       312       312       320       320       336       334       337       336       335       335       334       335       335       334
dram[2]:        313       313       312       312       320       320       334       334       336       336       335       335       335       335       335       334
dram[3]:        314       313       312       312       320       321       334       334       335       336       335       335       334       335       334       335
dram[4]:        313       313       312       312       320       321       334       334       336       335       336       336       335       334       335       335
dram[5]:        313       314       312       312       320       321       334       334       336       335       335       334       335       334       334       334
maximum mf latency per bank:
dram[0]:        343       331       342       365       358       342       349       343       341       332       351       334       343       343       349       357
dram[1]:        347       364       347       353       352       371       337       344       344       351       369       346       342       345       367       345
dram[2]:        340       345       379       357       363       357       381       342       338       343       344       340       356       341       349       355
dram[3]:        337       355       338       341       350       340       336       346       342       348       347       360       343       342       341       347
dram[4]:        385       344       347       348       329       352       352       360       339       352       347       377       369       362       333       370
dram[5]:        332       350       358       346       345       336       339       341       358       335       364       340       339       384       356       338

Number of Memory Banks Accessed per Memory Operation per Warp (from 0):
0	0	0	0	0	0	0	0	0	0	0	0	0	0	0	0	0	0	0	0	0	0	0	0	0	0	0	0	0	0	0	0	0	0	0	0	0	0	0	0	0	0	0	0	0	0	0	0	0	0	0	0	0	0	0	0	0	0	0	0	0	0	0	0	0	0	0	0	0	0	0	0	0	0	0	0	0	0	0	0	0	0	0	0	0	0	0	0	0	0	0	0	0	0	0	0	
Average # of Memory Banks Accessed per Memory Operation per Warp=-nan

position of mrq chosen
0	0	0	0	0	0	0	0	0	0	0	0	0	0	0	0	

average position of mrq chosen = -nan
Memory Partition 0: 
Cache L2_bank_000:
MSHR contents

Cache L2_bank_001:
MSHR contents

In Dram Latency Queue (total = 0): 
DRAM[0]: 16 bks, busW=4 BL=8 CL=12, tRRD=2 tCCD=6, tRCD=12 tRAS=28 tRP=12 tRC=40
n_cmd=3331369 n_nop=3214958 n_act=22343 n_pre=22327 n_req=36554 n_rd=36870 n_write=34871 bw_util=0.04307
n_activity=948853 dram_eff=0.1512
bk0: 2306a 3277666i bk1: 2306a 3278130i bk2: 2304a 3279158i bk3: 2304a 3279273i bk4: 2306a 3277720i bk5: 2304a 3277229i bk6: 2304a 3279367i bk7: 2304a 3279425i bk8: 2304a 3278027i bk9: 2304a 3278669i bk10: 2304a 3278490i bk11: 2304a 3279150i bk12: 2304a 3279464i bk13: 2304a 3279450i bk14: 2304a 3279990i bk15: 2304a 3280671i 
dram_util_bins: 0 0 0 0 0 0 0 0 0 0
dram_eff_bins: 0 0 0 0 0 0 0 0 0 0
mrqq: max=10 avg=0.147201
Memory Partition 1: 
Cache L2_bank_002:
MSHR contents

Cache L2_bank_003:
MSHR contents

In Dram Latency Queue (total = 0): 
DRAM[1]: 16 bks, busW=4 BL=8 CL=12, tRRD=2 tCCD=6, tRCD=12 tRAS=28 tRP=12 tRC=40
n_cmd=3331369 n_nop=3215147 n_act=22255 n_pre=22239 n_req=36548 n_rd=36860 n_write=34868 bw_util=0.04306
n_activity=943709 dram_eff=0.152
bk0: 2300a 3278075i bk1: 2304a 3279369i bk2: 2304a 3279737i bk3: 2304a 3279087i bk4: 2304a 3277204i bk5: 2304a 3278122i bk6: 2304a 3279754i bk7: 2304a 3280137i bk8: 2304a 3278228i bk9: 2304a 3278440i bk10: 2304a 3279476i bk11: 2304a 3279807i bk12: 2304a 3278912i bk13: 2304a 3280029i bk14: 2304a 3279842i bk15: 2304a 3280162i 
dram_util_bins: 0 0 0 0 0 0 0 0 0 0
dram_eff_bins: 0 0 0 0 0 0 0 0 0 0
mrqq: max=9 avg=0.148194
Memory Partition 2: 
Cache L2_bank_004:
MSHR contents

Cache L2_bank_005:
MSHR contents

In Dram Latency Queue (total = 0): 
DRAM[2]: 16 bks, busW=4 BL=8 CL=12, tRRD=2 tCCD=6, tRCD=12 tRAS=28 tRP=12 tRC=40
n_cmd=3331369 n_nop=3215133 n_act=22250 n_pre=22234 n_req=36559 n_rd=36876 n_write=34876 bw_util=0.04308
n_activity=952106 dram_eff=0.1507
bk0: 2308a 3278866i bk1: 2304a 3278640i bk2: 2304a 3279036i bk3: 2304a 3279368i bk4: 2304a 3277333i bk5: 2312a 3278264i bk6: 2304a 3279322i bk7: 2304a 3280280i bk8: 2304a 3277693i bk9: 2304a 3278878i bk10: 2304a 3279761i bk11: 2304a 3279766i bk12: 2304a 3278999i bk13: 2304a 3279747i bk14: 2304a 3279204i bk15: 2304a 3280622i 
dram_util_bins: 0 0 0 0 0 0 0 0 0 0
dram_eff_bins: 0 0 0 0 0 0 0 0 0 0
mrqq: max=7 avg=0.146428
Memory Partition 3: 
Cache L2_bank_006:
MSHR contents

Cache L2_bank_007:
MSHR contents

In Dram Latency Queue (total = 0): 
DRAM[3]: 16 bks, busW=4 BL=8 CL=12, tRRD=2 tCCD=6, tRCD=12 tRAS=28 tRP=12 tRC=40
n_cmd=3331369 n_nop=3215063 n_act=22290 n_pre=22274 n_req=36551 n_rd=36874 n_write=34868 bw_util=0.04307
n_activity=949931 dram_eff=0.151
bk0: 2306a 3278592i bk1: 2304a 3278762i bk2: 2304a 3279019i bk3: 2304a 3279118i bk4: 2304a 3277805i bk5: 2312a 3278152i bk6: 2304a 3279750i bk7: 2304a 3279961i bk8: 2304a 3278078i bk9: 2304a 3278302i bk10: 2304a 3278596i bk11: 2304a 3279755i bk12: 2304a 3278862i bk13: 2304a 3279693i bk14: 2304a 3279869i bk15: 2304a 3280857i 
dram_util_bins: 0 0 0 0 0 0 0 0 0 0
dram_eff_bins: 0 0 0 0 0 0 0 0 0 0
mrqq: max=8 avg=0.144962
Memory Partition 4: 
Cache L2_bank_008:
MSHR contents

Cache L2_bank_009:
MSHR contents

In Dram Latency Queue (total = 0): 
DRAM[4]: 16 bks, busW=4 BL=8 CL=12, tRRD=2 tCCD=6, tRCD=12 tRAS=28 tRP=12 tRC=40
n_cmd=3331369 n_nop=3215259 n_act=22193 n_pre=22177 n_req=36550 n_rd=36872 n_write=34868 bw_util=0.04307
n_activity=943753 dram_eff=0.152
bk0: 2308a 3278135i bk1: 2304a 3278439i bk2: 2304a 3278440i bk3: 2304a 3279872i bk4: 2304a 3277924i bk5: 2308a 3278361i bk6: 2304a 3278898i bk7: 2304a 3280446i bk8: 2304a 3277605i bk9: 2304a 3279396i bk10: 2304a 3279388i bk11: 2304a 3279279i bk12: 2304a 3279339i bk13: 2304a 3279515i bk14: 2304a 3280364i bk15: 2304a 3280918i 
dram_util_bins: 0 0 0 0 0 0 0 0 0 0
dram_eff_bins: 0 0 0 0 0 0 0 0 0 0
mrqq: max=8 avg=0.146301
Memory Partition 5: 
Cache L2_bank_010:
MSHR contents

Cache L2_bank_011:
MSHR contents

In Dram Latency Queue (total = 0): 
DRAM[5]: 16 bks, busW=4 BL=8 CL=12, tRRD=2 tCCD=6, tRCD=12 tRAS=28 tRP=12 tRC=40
n_cmd=3331369 n_nop=3214966 n_act=22336 n_pre=22320 n_req=36557 n_rd=36872 n_write=34875 bw_util=0.04307
n_activity=950159 dram_eff=0.151
bk0: 2308a 3278081i bk1: 2304a 3278490i bk2: 2304a 3279544i bk3: 2304a 3279915i bk4: 2304a 3278118i bk5: 2308a 3277672i bk6: 2304a 3279549i bk7: 2304a 3279665i bk8: 2304a 3277653i bk9: 2304a 3278612i bk10: 2304a 3279384i bk11: 2304a 3279015i bk12: 2304a 3278904i bk13: 2304a 3278904i bk14: 2304a 3280347i bk15: 2304a 3280246i 
dram_util_bins: 0 0 0 0 0 0 0 0 0 0
dram_eff_bins: 0 0 0 0 0 0 0 0 0 0
mrqq: max=9 avg=0.14676

========= L2 cache stats =========
L2_cache_bank[0]: Access = 32284, Miss = 9218, Miss_rate = 0.286, Pending_hits = 733, Reservation_fails = 5696
L2_cache_bank[1]: Access = 32240, Miss = 9217, Miss_rate = 0.286, Pending_hits = 705, Reservation_fails = 5319
L2_cache_bank[2]: Access = 32256, Miss = 9214, Miss_rate = 0.286, Pending_hits = 724, Reservation_fails = 5244
L2_cache_bank[3]: Access = 32214, Miss = 9216, Miss_rate = 0.286, Pending_hits = 721, Reservation_fails = 4512
L2_cache_bank[4]: Access = 32268, Miss = 9218, Miss_rate = 0.286, Pending_hits = 700, Reservation_fails = 5038
L2_cache_bank[5]: Access = 32244, Miss = 9220, Miss_rate = 0.286, Pending_hits = 696, Reservation_fails = 4407
L2_cache_bank[6]: Access = 32266, Miss = 9217, Miss_rate = 0.286, Pending_hits = 730, Reservation_fails = 5052
L2_cache_bank[7]: Access = 32246, Miss = 9220, Miss_rate = 0.286, Pending_hits = 709, Reservation_fails = 5424
L2_cache_bank[8]: Access = 32244, Miss = 9218, Miss_rate = 0.286, Pending_hits = 716, Reservation_fails = 5334
L2_cache_bank[9]: Access = 32239, Miss = 9218, Miss_rate = 0.286, Pending_hits = 724, Reservation_fails = 4985
L2_cache_bank[10]: Access = 32246, Miss = 9218, Miss_rate = 0.286, Pending_hits = 690, Reservation_fails = 5445
L2_cache_bank[11]: Access = 32264, Miss = 9218, Miss_rate = 0.286, Pending_hits = 697, Reservation_fails = 4320
L2_total_cache_accesses = 387011
L2_total_cache_misses = 110612
L2_total_cache_miss_rate = 0.2858
L2_total_cache_pending_hits = 8545
L2_total_cache_reservation_fails = 60776
L2_total_cache_breakdown:
	L2_cache_stats_breakdown[GLOBAL_ACC_R][HIT] = 46521
	L2_cache_stats_breakdown[GLOBAL_ACC_R][HIT_RESERVED] = 2366
	L2_cache_stats_breakdown[GLOBAL_ACC_R][MISS] = 108550
	L2_cache_stats_breakdown[GLOBAL_ACC_R][RESERVATION_FAIL] = 96
	L2_cache_stats_breakdown[CONST_ACC_R][HIT] = 11
	L2_cache_stats_breakdown[CONST_ACC_R][HIT_RESERVED] = 3
	L2_cache_stats_breakdown[CONST_ACC_R][MISS] = 1
	L2_cache_stats_breakdown[CONST_ACC_R][RESERVATION_FAIL] = 106
	L2_cache_stats_breakdown[GLOBAL_ACC_W][HIT] = 221190
	L2_cache_stats_breakdown[GLOBAL_ACC_W][HIT_RESERVED] = 6140
	L2_cache_stats_breakdown[GLOBAL_ACC_W][MISS] = 2048
	L2_cache_stats_breakdown[GLOBAL_ACC_W][RESERVATION_FAIL] = 59340
	L2_cache_stats_breakdown[INST_ACC_R][HIT] = 132
	L2_cache_stats_breakdown[INST_ACC_R][HIT_RESERVED] = 36
	L2_cache_stats_breakdown[INST_ACC_R][MISS] = 13
	L2_cache_stats_breakdown[INST_ACC_R][RESERVATION_FAIL] = 1234
L2_cache_data_port_util = 0.038
L2_cache_fill_port_util = 0.015

icnt_total_pkts_mem_to_simt=1017513
icnt_total_pkts_simt_to_mem=960459
LD_mem_lat_dist  0 0 0 0 0 0 0 0 0 0 0 0 0 0 0 0 0 0 0 0 0 0 0 0 0 0 0
ST_mem_lat_dist  0 0 0 0 0 0 0 0 0 0 0 0 0 0 0 0 0 0 0 0 0 0 0 0 0 0 0
----------------------------Interconnect-DETAILS--------------------------------
Class 0:
Packet latency average = 8.82214
	minimum = 6
	maximum = 34
Network latency average = 8.17147
	minimum = 6
	maximum = 34
Slowest packet = 286965
Flit latency average = 6.50401
	minimum = 6
	maximum = 34
Slowest flit = 680631
Fragmentation average = 0
	minimum = 0
	maximum = 0
Injected packet rate average = 0.0161435
	minimum = 0.0144599 (at node 5)
	maximum = 0.0181791 (at node 21)
Accepted packet rate average = 0.0161435
	minimum = 0.0144599 (at node 5)
	maximum = 0.0181791 (at node 21)
Injected flit rate average = 0.0430001
	minimum = 0.0358875 (at node 5)
	maximum = 0.0517954 (at node 21)
Accepted flit rate average= 0.0430001
	minimum = 0.0411424 (at node 5)
	maximum = 0.045063 (at node 25)
Injected packet length average = 2.66362
Accepted packet length average = 2.66362
Total in-flight flits = 0 (0 measured)
====== Overall Traffic Statistics ======
====== Traffic class 0 ======
Packet latency average = 9.13166 (2 samples)
	minimum = 6 (2 samples)
	maximum = 47 (2 samples)
Network latency average = 8.38695 (2 samples)
	minimum = 6 (2 samples)
	maximum = 44 (2 samples)
Flit latency average = 7.07427 (2 samples)
	minimum = 6 (2 samples)
	maximum = 43 (2 samples)
Fragmentation average = 0 (2 samples)
	minimum = 0 (2 samples)
	maximum = 0 (2 samples)
Injected packet rate average = 0.0118504 (2 samples)
	minimum = 0.0106299 (2 samples)
	maximum = 0.0133585 (2 samples)
Accepted packet rate average = 0.0118504 (2 samples)
	minimum = 0.0106299 (2 samples)
	maximum = 0.0133585 (2 samples)
Injected flit rate average = 0.0304625 (2 samples)
	minimum = 0.0263842 (2 samples)
	maximum = 0.0355558 (2 samples)
Accepted flit rate average = 0.0304625 (2 samples)
	minimum = 0.0282526 (2 samples)
	maximum = 0.0331161 (2 samples)
Injected packet size average = 2.57058 (2 samples)
Accepted packet size average = 2.57058 (2 samples)
Hops average = 1 (2 samples)
