

        *** GPGPU-Sim Simulator Version 3.2.2  [build 0] ***


GPGPU-Sim PTX: simulation mode 0 (can change with PTX_SIM_MODE_FUNC environment variable:
               1=functional simulation only, 0=detailed performance simulator)
GPGPU-Sim: Configuration options:

-network_mode                           1 # Interconnection network mode
-inter_config_file   config_fermi_islip.icnt # Interconnection network config file
-gpgpu_ptx_use_cuobjdump                    1 # Use cuobjdump to extract ptx and sass from binaries
-gpgpu_experimental_lib_support                    0 # Try to extract code from cuda libraries [Broken because of unknown cudaGetExportTable]
-gpgpu_ptx_convert_to_ptxplus                    0 # Convert SASS (native ISA) to ptxplus and run ptxplus
-gpgpu_ptx_force_max_capability                   20 # Force maximum compute capability
-gpgpu_ptx_inst_debug_to_file                    0 # Dump executed instructions' debug information to file
-gpgpu_ptx_inst_debug_file       inst_debug.txt # Executed instructions' debug output file
-gpgpu_ptx_inst_debug_thread_uid                    1 # Thread UID for executed instructions' debug output
-gpgpu_simd_model                       1 # 1 = post-dominator
-gpgpu_shader_core_pipeline              1536:32 # shader core pipeline config, i.e., {<nthread>:<warpsize>}
-gpgpu_tex_cache:l1  4:128:24,L:R:m:N:L,F:128:4,128:2 # per-shader L1 texture cache  (READ-ONLY) config  {<nsets>:<bsize>:<assoc>,<rep>:<wr>:<alloc>:<wr_alloc>,<mshr>:<N>:<merge>,<mq>:<rf>}
-gpgpu_const_cache:l1 64:64:2,L:R:f:N:L,A:2:32,4 # per-shader L1 constant memory cache  (READ-ONLY) config  {<nsets>:<bsize>:<assoc>,<rep>:<wr>:<alloc>:<wr_alloc>,<mshr>:<N>:<merge>,<mq>} 
-gpgpu_cache:il1     4:128:4,L:R:f:N:L,A:2:32,4 # shader L1 instruction cache config  {<nsets>:<bsize>:<assoc>,<rep>:<wr>:<alloc>:<wr_alloc>,<mshr>:<N>:<merge>,<mq>} 
-gpgpu_cache:dl1     32:128:4,L:L:m:N:H,A:32:8,8:2,0,1:0:1:1:0:1,1:4:8:16:32:64,/sciclone/data10/hwang07/GPU_RESEARCH/swl/swl_outputs/RESULTS/swl4/ # per-shader L1 data cache config  {<nsets>:<bsize>:<assoc>,<rep>:<wr>:<alloc>:<wr_alloc>,<mshr>:<N>:<merge>,<mq> | none}
-gpgpu_cache:dl1PrefL1                 none # per-shader L1 data cache config  {<nsets>:<bsize>:<assoc>,<rep>:<wr>:<alloc>:<wr_alloc>,<mshr>:<N>:<merge>,<mq> | none}
-gpgpu_cache:dl1PreShared                 none # per-shader L1 data cache config  {<nsets>:<bsize>:<assoc>,<rep>:<wr>:<alloc>:<wr_alloc>,<mshr>:<N>:<merge>,<mq> | none}
-gmem_skip_L1D                          0 # global memory access skip L1D cache (implements -Xptxas -dlcm=cg, default=no skip)
-gpgpu_perfect_mem                      0 # enable perfect memory mode (no cache miss)
-n_regfile_gating_group                    4 # group of lanes that should be read/written together)
-gpgpu_clock_gated_reg_file                    0 # enable clock gated reg file for power calculations
-gpgpu_clock_gated_lanes                    0 # enable clock gated lanes for power calculations
-gpgpu_shader_registers                32768 # Number of registers per shader core. Limits number of concurrent CTAs. (default 8192)
-gpgpu_shader_cta                       8 # Maximum number of concurrent CTAs in shader (default 8)
-gpgpu_num_cta_barriers                   16 # Maximum number of named barriers per CTA (default 16)
-gpgpu_n_clusters                      15 # number of processing clusters
-gpgpu_n_cores_per_cluster                    1 # number of simd cores per cluster
-gpgpu_n_cluster_ejection_buffer_size                    8 # number of packets in ejection buffer
-gpgpu_n_ldst_response_buffer_size                    2 # number of response packets in ld/st unit ejection buffer
-gpgpu_shmem_size                   16384 # Size of shared memory per shader core (default 16kB)
-gpgpu_shmem_size                   49152 # Size of shared memory per shader core (default 16kB)
-gpgpu_shmem_size_PrefL1                16384 # Size of shared memory per shader core (default 16kB)
-gpgpu_shmem_size_PrefShared                16384 # Size of shared memory per shader core (default 16kB)
-gpgpu_shmem_num_banks                   32 # Number of banks in the shared memory in each shader core (default 16)
-gpgpu_shmem_limited_broadcast                    0 # Limit shared memory to do one broadcast per cycle (default on)
-gpgpu_shmem_warp_parts                    1 # Number of portions a warp is divided into for shared memory bank conflict check 
-gpgpu_warpdistro_shader                   -1 # Specify which shader core to collect the warp size distribution from
-gpgpu_warp_issue_shader                    0 # Specify which shader core to collect the warp issue distribution from
-gpgpu_local_mem_map                    1 # Mapping from local memory space address to simulated GPU physical address space (default = enabled)
-gpgpu_num_reg_banks                   16 # Number of register banks (default = 8)
-gpgpu_reg_bank_use_warp_id                    0 # Use warp ID in mapping registers to banks (default = off)
-gpgpu_operand_collector_num_units_sp                    6 # number of collector units (default = 4)
-gpgpu_operand_collector_num_units_sfu                    8 # number of collector units (default = 4)
-gpgpu_operand_collector_num_units_mem                    2 # number of collector units (default = 2)
-gpgpu_operand_collector_num_units_gen                    0 # number of collector units (default = 0)
-gpgpu_operand_collector_num_in_ports_sp                    2 # number of collector unit in ports (default = 1)
-gpgpu_operand_collector_num_in_ports_sfu                    1 # number of collector unit in ports (default = 1)
-gpgpu_operand_collector_num_in_ports_mem                    1 # number of collector unit in ports (default = 1)
-gpgpu_operand_collector_num_in_ports_gen                    0 # number of collector unit in ports (default = 0)
-gpgpu_operand_collector_num_out_ports_sp                    2 # number of collector unit in ports (default = 1)
-gpgpu_operand_collector_num_out_ports_sfu                    1 # number of collector unit in ports (default = 1)
-gpgpu_operand_collector_num_out_ports_mem                    1 # number of collector unit in ports (default = 1)
-gpgpu_operand_collector_num_out_ports_gen                    0 # number of collector unit in ports (default = 0)
-gpgpu_coalesce_arch                   13 # Coalescing arch (default = 13, anything else is off for now)
-gpgpu_num_sched_per_core                    2 # Number of warp schedulers per core
-gpgpu_max_insn_issue_per_warp                    1 # Max number of instructions that can be issued per warp in one cycle by scheduler
-gpgpu_simt_core_sim_order                    1 # Select the simulation order of cores in a cluster (0=Fix, 1=Round-Robin)
-gpgpu_pipeline_widths        2,1,1,2,1,1,2 # Pipeline widths ID_OC_SP,ID_OC_SFU,ID_OC_MEM,OC_EX_SP,OC_EX_SFU,OC_EX_MEM,EX_WB
-gpgpu_num_sp_units                     2 # Number of SP units (default=1)
-gpgpu_num_sfu_units                    1 # Number of SF units (default=1)
-gpgpu_num_mem_units                    1 # Number if ldst units (default=1) WARNING: not hooked up to anything
-gpgpu_scheduler        warp_limiting:2:4 # Scheduler configuration: < lrr | gto | two_level_active > If two_level_active:<num_active_warps>:<inner_prioritization>:<outer_prioritization>For complete list of prioritization values see shader.h enum scheduler_prioritization_typeDefault: gto
-gpgpu_dram_scheduler                    1 # 0 = fifo, 1 = FR-FCFS (defaul)
-gpgpu_dram_partition_queues              8:8:8:8 # i2$:$2d:d2$:$2i
-l2_ideal                               0 # Use a ideal L2 cache that always hit
-gpgpu_cache:dl2     64:128:8,L:B:m:W:L,A:32:4,4:0,32 # unified banked L2 data cache config  {<nsets>:<bsize>:<assoc>,<rep>:<wr>:<alloc>:<wr_alloc>,<mshr>:<N>:<merge>,<mq>}
-gpgpu_cache:dl2_texture_only                    0 # L2 cache used for texture only
-gpgpu_n_mem                            6 # number of memory modules (e.g. memory controllers) in gpu
-gpgpu_n_sub_partition_per_mchannel                    2 # number of memory subpartition in each memory module
-gpgpu_n_mem_per_ctrlr                    2 # number of memory chips per memory controller
-gpgpu_memlatency_stat                   14 # track and display latency statistics 0x2 enables MC, 0x4 enables queue logs
-gpgpu_frfcfs_dram_sched_queue_size                   16 # 0 = unlimited (default); # entries per chip
-gpgpu_dram_return_queue_size                  116 # 0 = unlimited (default); # entries per chip
-gpgpu_dram_buswidth                    4 # default = 4 bytes (8 bytes per cycle at DDR)
-gpgpu_dram_burst_length                    8 # Burst length of each DRAM request (default = 4 data bus cycle)
-dram_data_command_freq_ratio                    4 # Frequency ratio between DRAM data bus and command bus (default = 2 times, i.e. DDR)
-gpgpu_dram_timing_opt nbk=16:CCD=2:RRD=6:RCD=12:RAS=28:RP=12:RC=40: CL=12:WL=4:CDLR=5:WR=12:nbkgrp=4:CCDL=3:RTPL=2 # DRAM timing parameters = {nbk:tCCD:tRRD:tRCD:tRAS:tRP:tRC:CL:WL:tCDLR:tWR:nbkgrp:tCCDL:tRTPL}
-rop_latency                          120 # ROP queue latency (default 85)
-dram_latency                         100 # DRAM latency (default 30)
-gpgpu_mem_addr_mapping dramid@8;00000000.00000000.00000000.00000000.0000RRRR.RRRRRRRR.BBBCCCCB.CCSSSSSS # mapping memory address to dram model {dramid@<start bit>;<memory address map>}
-gpgpu_mem_addr_test                    0 # run sweep test to check address mapping for aliased address
-gpgpu_mem_address_mask                    1 # 0 = old addressing mask, 1 = new addressing mask, 2 = new add. mask + flipped bank sel and chip sel bits
-gpuwattch_xml_file  gpuwattch_gtx480.xml # GPUWattch XML file
-power_simulation_enabled                    0 # Turn on power simulator (1=On, 0=Off)
-power_per_cycle_dump                    0 # Dump detailed power output each cycle
-power_trace_enabled                    0 # produce a file for the power trace (1=On, 0=Off)
-power_trace_zlevel                     6 # Compression level of the power trace output log (0=no comp, 9=highest)
-steady_power_levels_enabled                    0 # produce a file for the steady power levels (1=On, 0=Off)
-steady_state_definition                  8:4 # allowed deviation:number of samples
-gpgpu_max_cycle                        0 # terminates gpu simulation early (0 = no limit)
-gpgpu_max_insn                         0 # terminates gpu simulation early (0 = no limit)
-gpgpu_max_cta                          0 # terminates gpu simulation early (0 = no limit)
-gpgpu_runtime_stat                   500 # display runtime statistics such as dram utilization {<freq>:<flag>}
-liveness_message_freq                    1 # Minimum number of seconds between simulation liveness messages (0 = always print)
-gpgpu_flush_l1_cache                    0 # Flush L1 cache at the end of each kernel call
-gpgpu_flush_l2_cache                    0 # Flush L2 cache at the end of each kernel call
-gpgpu_deadlock_detect                    1 # Stop the simulation at deadlock (1=on (default), 0=off)
-gpgpu_ptx_instruction_classification                    0 # if enabled will classify ptx instruction types per kernel (Max 255 kernels now)
-gpgpu_ptx_sim_mode                     0 # Select between Performance (default) or Functional simulation (1)
-gpgpu_clock_domains 700.0:700.0:700.0:924.0 # Clock Domain Frequencies in MhZ {<Core Clock>:<ICNT Clock>:<L2 Clock>:<DRAM Clock>}
-gpgpu_max_concurrent_kernel                    8 # maximum kernels that can run concurrently on GPU
-gpgpu_cflog_interval                    0 # Interval between each snapshot in control flow logger
-visualizer_enabled                     0 # Turn on visualizer output (1=On, 0=Off)
-visualizer_outputfile                 NULL # Specifies the output log file for visualizer
-visualizer_zlevel                      6 # Compression level of the visualizer output log (0=no comp, 9=highest)
-trace_enabled                          0 # Turn on traces
-trace_components                    none # comma seperated list of traces to enable. Complete list found in trace_streams.tup. Default none
-trace_sampling_core                    0 # The core which is printed using CORE_DPRINTF. Default 0
-trace_sampling_memory_partition                   -1 # The memory partition which is printed using MEMPART_DPRINTF. Default -1 (i.e. all)
-enable_ptx_file_line_stats                    1 # Turn on PTX source line statistic profiling. (1 = On)
-ptx_line_stats_filename gpgpu_inst_stats.txt # Output file for PTX source line statistics.
-save_embedded_ptx                      0 # saves ptx files embedded in binary as <n>.ptx
-keep                                   0 # keep intermediate files created by GPGPU-Sim when interfacing with external programs
-gpgpu_ptx_save_converted_ptxplus                    0 # Saved converted ptxplus to a file
-ptx_opcode_latency_int         4,13,4,5,145 # Opcode latencies for integers <ADD,MAX,MUL,MAD,DIV>Default 1,1,19,25,145
-ptx_opcode_latency_fp          4,13,4,5,39 # Opcode latencies for single precision floating points <ADD,MAX,MUL,MAD,DIV>Default 1,1,1,1,30
-ptx_opcode_latency_dp         8,19,8,8,330 # Opcode latencies for double precision floating points <ADD,MAX,MUL,MAD,DIV>Default 8,8,8,8,335
-ptx_opcode_initiation_int            1,2,2,1,8 # Opcode initiation intervals for integers <ADD,MAX,MUL,MAD,DIV>Default 1,1,4,4,32
-ptx_opcode_initiation_fp            1,2,1,1,4 # Opcode initiation intervals for single precision floating points <ADD,MAX,MUL,MAD,DIV>Default 1,1,1,1,5
-ptx_opcode_initiation_dp         8,16,8,8,130 # Opcode initiation intervals for double precision floating points <ADD,MAX,MUL,MAD,DIV>Default 8,8,8,8,130
DRAM Timing Options:
nbk                                    16 # number of banks
CCD                                     2 # column to column delay
RRD                                     6 # minimal delay between activation of rows in different banks
RCD                                    12 # row to column delay
RAS                                    28 # time needed to activate row
RP                                     12 # time needed to precharge (deactivate) row
RC                                     40 # row cycle time
CDLR                                    5 # switching from write to read (changes tWTR)
WR                                     12 # last data-in to row precharge
CL                                     12 # CAS latency
WL                                      4 # Write latency
nbkgrp                                  4 # number of bank groups
CCDL                                    3 # column to column delay between accesses to different bank groups
RTPL                                    2 # read to precharge delay between accesses to different bank groups
Total number of memory sub partition = 12
addr_dec_mask[CHIP]  = 0000000000000000 	high:64 low:0
addr_dec_mask[BK]    = 000000000000e100 	high:16 low:8
addr_dec_mask[ROW]   = 000000000fff0000 	high:28 low:16
addr_dec_mask[COL]   = 0000000000001eff 	high:13 low:0
addr_dec_mask[BURST] = 000000000000003f 	high:6 low:0
sub_partition_id_mask = 0000000000000100
GPGPU-Sim uArch: clock freqs: 700000000.000000:700000000.000000:700000000.000000:924000000.000000
GPGPU-Sim uArch: clock periods: 0.00000000142857142857:0.00000000142857142857:0.00000000142857142857:0.00000000108225108225
*** Initializing Memory Statistics ***
GPGPU-Sim uArch: interconnect node map (shaderID+MemID to icntID)
GPGPU-Sim uArch: Memory nodes ID start from index: 15
GPGPU-Sim uArch:    0   1   2   3   4
GPGPU-Sim uArch:    5   6   7   8   9
GPGPU-Sim uArch:   10  11  12  13  14
GPGPU-Sim uArch:   15  16  17  18  19
GPGPU-Sim uArch:   20  21  22  23  24
GPGPU-Sim uArch:   25  26
GPGPU-Sim uArch: interconnect node reverse map (icntID to shaderID+MemID)
GPGPU-Sim uArch: Memory nodes start from ID: 15
GPGPU-Sim uArch:    0   1   2   3   4
GPGPU-Sim uArch:    5   6   7   8   9
GPGPU-Sim uArch:   10  11  12  13  14
GPGPU-Sim uArch:   15  16  17  18  19
GPGPU-Sim uArch:   20  21  22  23  24
GPGPU-Sim uArch:   25  26
a5bfea9a69faaeaeb73abbaec6868abd  /sciclone/data10/hwang07/adwait/applications/benchmarks/rodinia/cuda/streamcluster/gpgpu_ptx_sim__streamcluster
GPGPU-Sim uArch: performance model initialization complete.
GPGPU-Sim PTX: __cudaRegisterFatBinary, fat_cubin_handle = 1, filename=streamcluster_cuda.cu
self exe links to: /sciclone/data10/hwang07/adwait/applications/benchmarks/rodinia/cuda/streamcluster/gpgpu_ptx_sim__streamcluster
Running md5sum using "md5sum /sciclone/data10/hwang07/adwait/applications/benchmarks/rodinia/cuda/streamcluster/gpgpu_ptx_sim__streamcluster "
Parsing file _cuobjdump_complete_output_BPS4Xh
######### cuobjdump parser ########
## Adding new section ELF
Adding arch: sm_20
Adding identifier: streamcluster_cuda.cu
## Adding new section PTX
Adding ptx filename: _cuobjdump_1.ptx
Adding arch: sm_20
Adding identifier: streamcluster_cuda.cu
Done parsing!!!
GPGPU-Sim PTX: __cudaRegisterFunction _Z12pgain_kerneliilP5PointiPfS1_PiPb : hostFun 0x0x404fe3, fat_cubin_handle = 1
GPGPU-Sim PTX: allocating shared region for "coord_s" from 0x0 to 0x0 (shared memory space)
GPGPU-Sim PTX: instruction assembly for function '_Z12pgain_kerneliilP5PointiPfS1_PiPb'...   done.
GPGPU-Sim PTX: finding reconvergence points for '_Z12pgain_kerneliilP5PointiPfS1_PiPb'...
GPGPU-Sim PTX: Finding dominators for '_Z12pgain_kerneliilP5PointiPfS1_PiPb'...
GPGPU-Sim PTX: Finding immediate dominators for '_Z12pgain_kerneliilP5PointiPfS1_PiPb'...
GPGPU-Sim PTX: Finding postdominators for '_Z12pgain_kerneliilP5PointiPfS1_PiPb'...
GPGPU-Sim PTX: Finding immediate postdominators for '_Z12pgain_kerneliilP5PointiPfS1_PiPb'...
GPGPU-Sim PTX: pre-decoding instructions for '_Z12pgain_kerneliilP5PointiPfS1_PiPb'...
GPGPU-Sim PTX: reconvergence points for _Z12pgain_kerneliilP5PointiPfS1_PiPb...
GPGPU-Sim PTX:  1 (potential) branch divergence @  PC=0x030 (_1.ptx:76) @%p2 bra $Lt_0_3842;
GPGPU-Sim PTX:    immediate post dominator      @  PC=0x0e0 (_1.ptx:103) mov.u64 %rd1, coord_s;
GPGPU-Sim PTX:  2 (potential) branch divergence @  PC=0x038 (_1.ptx:77) @!%p1 bra $Lt_0_4354;
GPGPU-Sim PTX:    immediate post dominator      @  PC=0x0d8 (_1.ptx:101) mov.u64 %rd1, coord_s;
GPGPU-Sim PTX:  3 (potential) branch divergence @  PC=0x0d0 (_1.ptx:99) @%p3 bra $Lt_0_4866;
GPGPU-Sim PTX:    immediate post dominator      @  PC=0x0d8 (_1.ptx:101) mov.u64 %rd1, coord_s;
GPGPU-Sim PTX:  4 (potential) branch divergence @  PC=0x110 (_1.ptx:110) @!%p1 bra $Lt_0_7170;
GPGPU-Sim PTX:    immediate post dominator      @  PC=0x218 (_1.ptx:149) ld.param.u64 %rd15, [__cudaparm__Z12pgain_kerneliilP5PointiPfS1_PiPb_p];
GPGPU-Sim PTX:  5 (potential) branch divergence @  PC=0x1d8 (_1.ptx:138) @%p4 bra $Lt_0_5890;
GPGPU-Sim PTX:    immediate post dominator      @  PC=0x1e0 (_1.ptx:139) bra.uni $Lt_0_5378;
GPGPU-Sim PTX:  6 (potential) branch divergence @  PC=0x1e0 (_1.ptx:139) bra.uni $Lt_0_5378;
GPGPU-Sim PTX:    immediate post dominator      @  PC=0x218 (_1.ptx:149) ld.param.u64 %rd15, [__cudaparm__Z12pgain_kerneliilP5PointiPfS1_PiPb_p];
GPGPU-Sim PTX:  7 (potential) branch divergence @  PC=0x288 (_1.ptx:164) @!%p5 bra $Lt_0_6658;
GPGPU-Sim PTX:    immediate post dominator      @  PC=0x358 (_1.ptx:197) exit;
GPGPU-Sim PTX:  8 (potential) branch divergence @  PC=0x2e8 (_1.ptx:178) bra.uni $Lt_0_6402;
GPGPU-Sim PTX:    immediate post dominator      @  PC=0x358 (_1.ptx:197) exit;
GPGPU-Sim PTX: ... end of reconvergence points for _Z12pgain_kerneliilP5PointiPfS1_PiPb
GPGPU-Sim PTX: ... done pre-decoding instructions for '_Z12pgain_kerneliilP5PointiPfS1_PiPb'.
GPGPU-Sim PTX: finished parsing EMBEDDED .ptx file _1.ptx
Adding _cuobjdump_1.ptx with cubin handle 1
GPGPU-Sim PTX: extracting embedded .ptx to temporary file "_ptx_5xKz20"
Running: cat _ptx_5xKz20 | sed 's/.version 1.5/.version 1.4/' | sed 's/, texmode_independent//' | sed 's/\(\.extern \.const\[1\] .b8 \w\+\)\[\]/\1\[1\]/' | sed 's/const\[.\]/const\[0\]/g' > _ptx2_f6yE0N
GPGPU-Sim PTX: generating ptxinfo using "$CUDA_INSTALL_PATH/bin/ptxas --gpu-name=sm_20 -v _ptx2_f6yE0N --output-file  /dev/null 2> _ptx_5xKz20info"
GPGPU-Sim PTX: Kernel '_Z12pgain_kerneliilP5PointiPfS1_PiPb' : regs=12, lmem=0, smem=0, cmem=96
GPGPU-Sim PTX: removing ptxinfo using "rm -f _ptx_5xKz20 _ptx2_f6yE0N _ptx_5xKz20info"
GPGPU-Sim PTX: loading globals with explicit initializers... 
GPGPU-Sim PTX: finished loading globals (0 bytes total).
GPGPU-Sim PTX: loading constants with explicit initializers...  done.
PARSEC Benchmark Suite

GPGPU-Sim PTX: cudaLaunch for 0x0x404fe3 (mode=performance simulation) on stream 0
GPGPU-Sim PTX: pushing kernel '_Z12pgain_kerneliilP5PointiPfS1_PiPb' to stream 0, gridDim= (128,1,1) blockDim = (512,1,1) 
kernel '_Z12pgain_kerneliilP5PointiPfS1_PiPb' transfer to GPU hardware scheduler
GPGPU-Sim uArch: Shader 1 bind to kernel 1 '_Z12pgain_kerneliilP5PointiPfS1_PiPb'
GPGPU-Sim uArch: CTA/core = 3, limited by: threads
GPGPU-Sim uArch: core:  1, cta: 0 initialized @(1,0)
GPGPU-Sim uArch: Shader 2 bind to kernel 1 '_Z12pgain_kerneliilP5PointiPfS1_PiPb'
GPGPU-Sim uArch: core:  2, cta: 0 initialized @(1,0)
GPGPU-Sim uArch: Shader 3 bind to kernel 1 '_Z12pgain_kerneliilP5PointiPfS1_PiPb'
GPGPU-Sim uArch: core:  3, cta: 0 initialized @(1,0)
GPGPU-Sim uArch: Shader 4 bind to kernel 1 '_Z12pgain_kerneliilP5PointiPfS1_PiPb'
GPGPU-Sim uArch: core:  4, cta: 0 initialized @(1,0)
GPGPU-Sim uArch: Shader 5 bind to kernel 1 '_Z12pgain_kerneliilP5PointiPfS1_PiPb'
GPGPU-Sim uArch: core:  5, cta: 0 initialized @(1,0)
GPGPU-Sim uArch: Shader 6 bind to kernel 1 '_Z12pgain_kerneliilP5PointiPfS1_PiPb'
GPGPU-Sim uArch: core:  6, cta: 0 initialized @(1,0)
GPGPU-Sim uArch: Shader 7 bind to kernel 1 '_Z12pgain_kerneliilP5PointiPfS1_PiPb'
GPGPU-Sim uArch: core:  7, cta: 0 initialized @(1,0)
GPGPU-Sim uArch: Shader 8 bind to kernel 1 '_Z12pgain_kerneliilP5PointiPfS1_PiPb'
GPGPU-Sim uArch: core:  8, cta: 0 initialized @(1,0)
GPGPU-Sim uArch: Shader 9 bind to kernel 1 '_Z12pgain_kerneliilP5PointiPfS1_PiPb'
GPGPU-Sim uArch: core:  9, cta: 0 initialized @(1,0)
GPGPU-Sim uArch: Shader 10 bind to kernel 1 '_Z12pgain_kerneliilP5PointiPfS1_PiPb'
GPGPU-Sim uArch: core: 10, cta: 0 initialized @(1,0)
GPGPU-Sim uArch: Shader 11 bind to kernel 1 '_Z12pgain_kerneliilP5PointiPfS1_PiPb'
GPGPU-Sim uArch: core: 11, cta: 0 initialized @(1,0)
GPGPU-Sim uArch: Shader 12 bind to kernel 1 '_Z12pgain_kerneliilP5PointiPfS1_PiPb'
GPGPU-Sim uArch: core: 12, cta: 0 initialized @(1,0)
GPGPU-Sim uArch: Shader 13 bind to kernel 1 '_Z12pgain_kerneliilP5PointiPfS1_PiPb'
GPGPU-Sim uArch: core: 13, cta: 0 initialized @(1,0)
GPGPU-Sim uArch: Shader 14 bind to kernel 1 '_Z12pgain_kerneliilP5PointiPfS1_PiPb'
GPGPU-Sim uArch: core: 14, cta: 0 initialized @(1,0)
GPGPU-Sim uArch: Shader 0 bind to kernel 1 '_Z12pgain_kerneliilP5PointiPfS1_PiPb'
GPGPU-Sim uArch: core:  0, cta: 0 initialized @(1,0)
GPGPU-Sim uArch: core:  1, cta: 1 initialized @(2,0)
GPGPU-Sim uArch: core:  2, cta: 1 initialized @(2,0)
GPGPU-Sim uArch: core:  3, cta: 1 initialized @(2,0)
GPGPU-Sim uArch: core:  4, cta: 1 initialized @(2,0)
GPGPU-Sim uArch: core:  5, cta: 1 initialized @(2,0)
GPGPU-Sim uArch: core:  6, cta: 1 initialized @(2,0)
GPGPU-Sim uArch: core:  7, cta: 1 initialized @(2,0)
GPGPU-Sim uArch: core:  8, cta: 1 initialized @(2,0)
GPGPU-Sim uArch: core:  9, cta: 1 initialized @(2,0)
GPGPU-Sim uArch: core: 10, cta: 1 initialized @(2,0)
GPGPU-Sim uArch: core: 11, cta: 1 initialized @(2,0)
GPGPU-Sim uArch: core: 12, cta: 1 initialized @(2,0)
GPGPU-Sim uArch: core: 13, cta: 1 initialized @(2,0)
GPGPU-Sim uArch: core: 14, cta: 1 initialized @(2,0)
GPGPU-Sim uArch: core:  0, cta: 1 initialized @(2,0)
GPGPU-Sim uArch: core:  1, cta: 2 initialized @(3,0)
GPGPU-Sim uArch: core:  2, cta: 2 initialized @(3,0)
GPGPU-Sim uArch: core:  3, cta: 2 initialized @(3,0)
GPGPU-Sim uArch: core:  4, cta: 2 initialized @(3,0)
GPGPU-Sim uArch: core:  5, cta: 2 initialized @(3,0)
GPGPU-Sim uArch: core:  6, cta: 2 initialized @(3,0)
GPGPU-Sim uArch: core:  7, cta: 2 initialized @(3,0)
GPGPU-Sim uArch: core:  8, cta: 2 initialized @(3,0)
GPGPU-Sim uArch: core:  9, cta: 2 initialized @(3,0)
GPGPU-Sim uArch: core: 10, cta: 2 initialized @(3,0)
GPGPU-Sim uArch: core: 11, cta: 2 initialized @(3,0)
GPGPU-Sim uArch: core: 12, cta: 2 initialized @(3,0)
GPGPU-Sim uArch: core: 13, cta: 2 initialized @(3,0)
GPGPU-Sim uArch: core: 14, cta: 2 initialized @(3,0)
GPGPU-Sim uArch: core:  0, cta: 2 initialized @(3,0)
GPGPU-Sim uArch: cycles simulated: 500  inst.: 3840 (ipc= 7.7) sim_rate=384 (inst/sec) elapsed = 0:0:00:10 / Tue Mar 22 12:46:24 2016
GPGPU-Sim PTX: 100000 instructions simulated : ctaid=(23,0,0) tid=(95,0,0)
GPGPU-Sim uArch: cycles simulated: 1000  inst.: 103973 (ipc=104.0) sim_rate=8664 (inst/sec) elapsed = 0:0:00:12 / Tue Mar 22 12:46:26 2016
GPGPU-Sim PTX: 200000 instructions simulated : ctaid=(43,0,0) tid=(337,0,0)
GPGPU-Sim uArch: cycles simulated: 3500  inst.: 207495 (ipc=59.3) sim_rate=15961 (inst/sec) elapsed = 0:0:00:13 / Tue Mar 22 12:46:27 2016
GPGPU-Sim uArch: cycles simulated: 7500  inst.: 211590 (ipc=28.2) sim_rate=15113 (inst/sec) elapsed = 0:0:00:14 / Tue Mar 22 12:46:28 2016
GPGPU-Sim uArch: cycles simulated: 11500  inst.: 215685 (ipc=18.8) sim_rate=14379 (inst/sec) elapsed = 0:0:00:15 / Tue Mar 22 12:46:29 2016
GPGPU-Sim uArch: cycles simulated: 15500  inst.: 219780 (ipc=14.2) sim_rate=13736 (inst/sec) elapsed = 0:0:00:16 / Tue Mar 22 12:46:30 2016
GPGPU-Sim uArch: cycles simulated: 18500  inst.: 222930 (ipc=12.1) sim_rate=13113 (inst/sec) elapsed = 0:0:00:17 / Tue Mar 22 12:46:31 2016
GPGPU-Sim uArch: cycles simulated: 22000  inst.: 226561 (ipc=10.3) sim_rate=12586 (inst/sec) elapsed = 0:0:00:18 / Tue Mar 22 12:46:32 2016
GPGPU-Sim uArch: cycles simulated: 25000  inst.: 229546 (ipc= 9.2) sim_rate=12081 (inst/sec) elapsed = 0:0:00:19 / Tue Mar 22 12:46:33 2016
GPGPU-Sim uArch: cycles simulated: 28500  inst.: 233325 (ipc= 8.2) sim_rate=11666 (inst/sec) elapsed = 0:0:00:20 / Tue Mar 22 12:46:34 2016
GPGPU-Sim uArch: cycles simulated: 31500  inst.: 236375 (ipc= 7.5) sim_rate=11255 (inst/sec) elapsed = 0:0:00:21 / Tue Mar 22 12:46:35 2016
GPGPU-Sim uArch: cycles simulated: 35000  inst.: 239940 (ipc= 6.9) sim_rate=10906 (inst/sec) elapsed = 0:0:00:22 / Tue Mar 22 12:46:36 2016
GPGPU-Sim uArch: cycles simulated: 38000  inst.: 243090 (ipc= 6.4) sim_rate=10569 (inst/sec) elapsed = 0:0:00:23 / Tue Mar 22 12:46:37 2016
GPGPU-Sim uArch: cycles simulated: 41500  inst.: 246555 (ipc= 5.9) sim_rate=10273 (inst/sec) elapsed = 0:0:00:24 / Tue Mar 22 12:46:38 2016
GPGPU-Sim uArch: cycles simulated: 44500  inst.: 249705 (ipc= 5.6) sim_rate=9988 (inst/sec) elapsed = 0:0:00:25 / Tue Mar 22 12:46:39 2016
GPGPU-Sim uArch: cycles simulated: 48000  inst.: 253301 (ipc= 5.3) sim_rate=9742 (inst/sec) elapsed = 0:0:00:26 / Tue Mar 22 12:46:40 2016
GPGPU-Sim uArch: cycles simulated: 51000  inst.: 256320 (ipc= 5.0) sim_rate=9493 (inst/sec) elapsed = 0:0:00:27 / Tue Mar 22 12:46:41 2016
GPGPU-Sim uArch: cycles simulated: 54500  inst.: 260100 (ipc= 4.8) sim_rate=9289 (inst/sec) elapsed = 0:0:00:28 / Tue Mar 22 12:46:42 2016
GPGPU-Sim uArch: cycles simulated: 57500  inst.: 263113 (ipc= 4.6) sim_rate=9072 (inst/sec) elapsed = 0:0:00:29 / Tue Mar 22 12:46:43 2016
GPGPU-Sim uArch: cycles simulated: 61000  inst.: 266715 (ipc= 4.4) sim_rate=8890 (inst/sec) elapsed = 0:0:00:30 / Tue Mar 22 12:46:44 2016
GPGPU-Sim uArch: cycles simulated: 64000  inst.: 269865 (ipc= 4.2) sim_rate=8705 (inst/sec) elapsed = 0:0:00:31 / Tue Mar 22 12:46:45 2016
GPGPU-Sim uArch: cycles simulated: 67500  inst.: 273330 (ipc= 4.0) sim_rate=8541 (inst/sec) elapsed = 0:0:00:32 / Tue Mar 22 12:46:46 2016
GPGPU-Sim uArch: cycles simulated: 70500  inst.: 276480 (ipc= 3.9) sim_rate=8378 (inst/sec) elapsed = 0:0:00:33 / Tue Mar 22 12:46:47 2016
GPGPU-Sim uArch: cycles simulated: 74000  inst.: 280039 (ipc= 3.8) sim_rate=8236 (inst/sec) elapsed = 0:0:00:34 / Tue Mar 22 12:46:48 2016
GPGPU-Sim uArch: cycles simulated: 77500  inst.: 283725 (ipc= 3.7) sim_rate=8106 (inst/sec) elapsed = 0:0:00:35 / Tue Mar 22 12:46:49 2016
GPGPU-Sim PTX: 300000 instructions simulated : ctaid=(0,0,0) tid=(199,0,0)
GPGPU-Sim uArch: cycles simulated: 80000  inst.: 367200 (ipc= 4.6) sim_rate=10200 (inst/sec) elapsed = 0:0:00:36 / Tue Mar 22 12:46:50 2016
GPGPU-Sim PTX: 400000 instructions simulated : ctaid=(10,0,0) tid=(135,0,0)
GPGPU-Sim PTX: 500000 instructions simulated : ctaid=(7,0,0) tid=(231,0,0)
GPGPU-Sim uArch: cycles simulated: 82000  inst.: 574624 (ipc= 7.0) sim_rate=15530 (inst/sec) elapsed = 0:0:00:37 / Tue Mar 22 12:46:51 2016
GPGPU-Sim PTX: 600000 instructions simulated : ctaid=(8,0,0) tid=(103,0,0)
GPGPU-Sim PTX: 700000 instructions simulated : ctaid=(4,0,0) tid=(199,0,0)
GPGPU-Sim uArch: cycles simulated: 83500  inst.: 747360 (ipc= 9.0) sim_rate=19667 (inst/sec) elapsed = 0:0:00:38 / Tue Mar 22 12:46:52 2016
GPGPU-Sim PTX: 800000 instructions simulated : ctaid=(14,0,0) tid=(135,0,0)
GPGPU-Sim PTX: 900000 instructions simulated : ctaid=(6,0,0) tid=(103,0,0)
GPGPU-Sim uArch: cycles simulated: 85000  inst.: 911968 (ipc=10.7) sim_rate=23383 (inst/sec) elapsed = 0:0:00:39 / Tue Mar 22 12:46:53 2016
GPGPU-Sim PTX: 1000000 instructions simulated : ctaid=(5,0,0) tid=(7,0,0)
GPGPU-Sim PTX: 1100000 instructions simulated : ctaid=(12,0,0) tid=(199,0,0)
GPGPU-Sim uArch: cycles simulated: 87000  inst.: 1127424 (ipc=13.0) sim_rate=28185 (inst/sec) elapsed = 0:0:00:40 / Tue Mar 22 12:46:54 2016
GPGPU-Sim PTX: 1200000 instructions simulated : ctaid=(9,0,0) tid=(231,0,0)
GPGPU-Sim uArch: cycles simulated: 88000  inst.: 1231200 (ipc=14.0) sim_rate=30029 (inst/sec) elapsed = 0:0:00:41 / Tue Mar 22 12:46:55 2016
GPGPU-Sim PTX: 1300000 instructions simulated : ctaid=(8,0,0) tid=(231,0,0)
GPGPU-Sim PTX: 1400000 instructions simulated : ctaid=(11,0,0) tid=(135,0,0)
GPGPU-Sim uArch: cycles simulated: 90000  inst.: 1439744 (ipc=16.0) sim_rate=34279 (inst/sec) elapsed = 0:0:00:42 / Tue Mar 22 12:46:56 2016
GPGPU-Sim PTX: 1500000 instructions simulated : ctaid=(8,0,0) tid=(135,0,0)
GPGPU-Sim PTX: 1600000 instructions simulated : ctaid=(2,0,0) tid=(167,0,0)
GPGPU-Sim uArch: cycles simulated: 91500  inst.: 1611360 (ipc=17.6) sim_rate=37473 (inst/sec) elapsed = 0:0:00:43 / Tue Mar 22 12:46:57 2016
GPGPU-Sim PTX: 1700000 instructions simulated : ctaid=(9,0,0) tid=(103,0,0)
GPGPU-Sim PTX: 1800000 instructions simulated : ctaid=(2,0,0) tid=(71,0,0)
GPGPU-Sim uArch: cycles simulated: 93500  inst.: 1819200 (ipc=19.5) sim_rate=41345 (inst/sec) elapsed = 0:0:00:44 / Tue Mar 22 12:46:58 2016
GPGPU-Sim PTX: 1900000 instructions simulated : ctaid=(0,0,0) tid=(167,0,0)
GPGPU-Sim PTX: 2000000 instructions simulated : ctaid=(3,0,0) tid=(103,0,0)
GPGPU-Sim uArch: cycles simulated: 95500  inst.: 2042496 (ipc=21.4) sim_rate=45388 (inst/sec) elapsed = 0:0:00:45 / Tue Mar 22 12:46:59 2016
GPGPU-Sim PTX: 2100000 instructions simulated : ctaid=(10,0,0) tid=(103,0,0)
GPGPU-Sim PTX: 2200000 instructions simulated : ctaid=(4,0,0) tid=(231,0,0)
GPGPU-Sim uArch: cycles simulated: 97500  inst.: 2266048 (ipc=23.2) sim_rate=49261 (inst/sec) elapsed = 0:0:00:46 / Tue Mar 22 12:47:00 2016
GPGPU-Sim PTX: 2300000 instructions simulated : ctaid=(5,0,0) tid=(167,0,0)
GPGPU-Sim PTX: 2400000 instructions simulated : ctaid=(8,0,0) tid=(167,0,0)
GPGPU-Sim uArch: cycles simulated: 99000  inst.: 2420640 (ipc=24.5) sim_rate=51502 (inst/sec) elapsed = 0:0:00:47 / Tue Mar 22 12:47:01 2016
GPGPU-Sim PTX: 2500000 instructions simulated : ctaid=(3,0,0) tid=(231,0,0)
GPGPU-Sim PTX: 2600000 instructions simulated : ctaid=(1,0,0) tid=(135,0,0)
GPGPU-Sim uArch: cycles simulated: 101000  inst.: 2645312 (ipc=26.2) sim_rate=55110 (inst/sec) elapsed = 0:0:00:48 / Tue Mar 22 12:47:02 2016
GPGPU-Sim PTX: 2700000 instructions simulated : ctaid=(9,0,0) tid=(7,0,0)
GPGPU-Sim PTX: 2800000 instructions simulated : ctaid=(12,0,0) tid=(39,0,0)
GPGPU-Sim uArch: cycles simulated: 103000  inst.: 2855520 (ipc=27.7) sim_rate=58275 (inst/sec) elapsed = 0:0:00:49 / Tue Mar 22 12:47:03 2016
GPGPU-Sim PTX: 2900000 instructions simulated : ctaid=(3,0,0) tid=(103,0,0)
GPGPU-Sim PTX: 3000000 instructions simulated : ctaid=(10,0,0) tid=(7,0,0)
GPGPU-Sim uArch: cycles simulated: 104500  inst.: 3024224 (ipc=28.9) sim_rate=60484 (inst/sec) elapsed = 0:0:00:50 / Tue Mar 22 12:47:04 2016
GPGPU-Sim PTX: 3100000 instructions simulated : ctaid=(1,0,0) tid=(231,0,0)
GPGPU-Sim PTX: 3200000 instructions simulated : ctaid=(5,0,0) tid=(199,0,0)
GPGPU-Sim uArch: cycles simulated: 106500  inst.: 3235680 (ipc=30.4) sim_rate=63444 (inst/sec) elapsed = 0:0:00:51 / Tue Mar 22 12:47:05 2016
GPGPU-Sim PTX: 3300000 instructions simulated : ctaid=(5,0,0) tid=(231,0,0)
GPGPU-Sim PTX: 3400000 instructions simulated : ctaid=(12,0,0) tid=(135,0,0)
GPGPU-Sim uArch: cycles simulated: 108000  inst.: 3402624 (ipc=31.5) sim_rate=65435 (inst/sec) elapsed = 0:0:00:52 / Tue Mar 22 12:47:06 2016
GPGPU-Sim PTX: 3500000 instructions simulated : ctaid=(9,0,0) tid=(135,0,0)
GPGPU-Sim PTX: 3600000 instructions simulated : ctaid=(12,0,0) tid=(103,0,0)
GPGPU-Sim uArch: cycles simulated: 110000  inst.: 3615840 (ipc=32.9) sim_rate=68223 (inst/sec) elapsed = 0:0:00:53 / Tue Mar 22 12:47:07 2016
GPGPU-Sim PTX: 3700000 instructions simulated : ctaid=(6,0,0) tid=(71,0,0)
GPGPU-Sim PTX: 3800000 instructions simulated : ctaid=(0,0,0) tid=(103,0,0)
GPGPU-Sim uArch: cycles simulated: 112000  inst.: 3823584 (ipc=34.1) sim_rate=70807 (inst/sec) elapsed = 0:0:00:54 / Tue Mar 22 12:47:08 2016
GPGPU-Sim PTX: 3900000 instructions simulated : ctaid=(13,0,0) tid=(7,0,0)
GPGPU-Sim PTX: 4000000 instructions simulated : ctaid=(10,0,0) tid=(199,0,0)
GPGPU-Sim uArch: cycles simulated: 113500  inst.: 3996000 (ipc=35.2) sim_rate=72654 (inst/sec) elapsed = 0:0:00:55 / Tue Mar 22 12:47:09 2016
GPGPU-Sim PTX: 4100000 instructions simulated : ctaid=(1,0,0) tid=(7,0,0)
GPGPU-Sim PTX: 4200000 instructions simulated : ctaid=(7,0,0) tid=(199,0,0)
GPGPU-Sim uArch: cycles simulated: 115500  inst.: 4203488 (ipc=36.4) sim_rate=75062 (inst/sec) elapsed = 0:0:00:56 / Tue Mar 22 12:47:10 2016
GPGPU-Sim PTX: 4300000 instructions simulated : ctaid=(2,0,0) tid=(199,0,0)
GPGPU-Sim PTX: 4400000 instructions simulated : ctaid=(2,0,0) tid=(135,0,0)
GPGPU-Sim uArch: cycles simulated: 117500  inst.: 4424000 (ipc=37.7) sim_rate=77614 (inst/sec) elapsed = 0:0:00:57 / Tue Mar 22 12:47:11 2016
GPGPU-Sim PTX: 4500000 instructions simulated : ctaid=(9,0,0) tid=(71,0,0)
GPGPU-Sim uArch: cycles simulated: 119000  inst.: 4583552 (ipc=38.5) sim_rate=79026 (inst/sec) elapsed = 0:0:00:58 / Tue Mar 22 12:47:12 2016
GPGPU-Sim PTX: 4600000 instructions simulated : ctaid=(2,0,0) tid=(103,0,0)
GPGPU-Sim PTX: 4700000 instructions simulated : ctaid=(8,0,0) tid=(7,0,0)
GPGPU-Sim PTX: 4800000 instructions simulated : ctaid=(3,0,0) tid=(71,0,0)
GPGPU-Sim uArch: cycles simulated: 121000  inst.: 4802400 (ipc=39.7) sim_rate=81396 (inst/sec) elapsed = 0:0:00:59 / Tue Mar 22 12:47:13 2016
GPGPU-Sim PTX: 4900000 instructions simulated : ctaid=(10,0,0) tid=(7,0,0)
GPGPU-Sim PTX: 5000000 instructions simulated : ctaid=(1,0,0) tid=(231,0,0)
GPGPU-Sim uArch: cycles simulated: 123000  inst.: 5027712 (ipc=40.9) sim_rate=83795 (inst/sec) elapsed = 0:0:01:00 / Tue Mar 22 12:47:14 2016
GPGPU-Sim PTX: 5100000 instructions simulated : ctaid=(10,0,0) tid=(135,0,0)
GPGPU-Sim PTX: 5200000 instructions simulated : ctaid=(4,0,0) tid=(199,0,0)
GPGPU-Sim uArch: cycles simulated: 125000  inst.: 5240160 (ipc=41.9) sim_rate=85904 (inst/sec) elapsed = 0:0:01:01 / Tue Mar 22 12:47:15 2016
GPGPU-Sim PTX: 5300000 instructions simulated : ctaid=(14,0,0) tid=(231,0,0)
GPGPU-Sim PTX: 5400000 instructions simulated : ctaid=(6,0,0) tid=(167,0,0)
GPGPU-Sim uArch: cycles simulated: 126500  inst.: 5406496 (ipc=42.7) sim_rate=87201 (inst/sec) elapsed = 0:0:01:02 / Tue Mar 22 12:47:16 2016
GPGPU-Sim PTX: 5500000 instructions simulated : ctaid=(6,0,0) tid=(167,0,0)
GPGPU-Sim PTX: 5600000 instructions simulated : ctaid=(6,0,0) tid=(103,0,0)
GPGPU-Sim uArch: cycles simulated: 128500  inst.: 5620320 (ipc=43.7) sim_rate=89211 (inst/sec) elapsed = 0:0:01:03 / Tue Mar 22 12:47:17 2016
GPGPU-Sim PTX: 5700000 instructions simulated : ctaid=(6,0,0) tid=(71,0,0)
GPGPU-Sim PTX: 5800000 instructions simulated : ctaid=(13,0,0) tid=(231,0,0)
GPGPU-Sim uArch: cycles simulated: 130500  inst.: 5828000 (ipc=44.7) sim_rate=91062 (inst/sec) elapsed = 0:0:01:04 / Tue Mar 22 12:47:18 2016
GPGPU-Sim PTX: 5900000 instructions simulated : ctaid=(13,0,0) tid=(103,0,0)
GPGPU-Sim PTX: 6000000 instructions simulated : ctaid=(8,0,0) tid=(167,0,0)
GPGPU-Sim uArch: cycles simulated: 132500  inst.: 6049568 (ipc=45.7) sim_rate=93070 (inst/sec) elapsed = 0:0:01:05 / Tue Mar 22 12:47:19 2016
GPGPU-Sim PTX: 6100000 instructions simulated : ctaid=(3,0,0) tid=(231,0,0)
GPGPU-Sim PTX: 6200000 instructions simulated : ctaid=(8,0,0) tid=(167,0,0)
GPGPU-Sim PTX: 6300000 instructions simulated : ctaid=(12,0,0) tid=(103,0,0)
GPGPU-Sim uArch: cycles simulated: 135000  inst.: 6315712 (ipc=46.8) sim_rate=95692 (inst/sec) elapsed = 0:0:01:06 / Tue Mar 22 12:47:20 2016
GPGPU-Sim PTX: 6400000 instructions simulated : ctaid=(4,0,0) tid=(135,0,0)
GPGPU-Sim PTX: 6500000 instructions simulated : ctaid=(6,0,0) tid=(39,0,0)
GPGPU-Sim uArch: cycles simulated: 137500  inst.: 6588000 (ipc=47.9) sim_rate=98328 (inst/sec) elapsed = 0:0:01:07 / Tue Mar 22 12:47:21 2016
GPGPU-Sim PTX: 6600000 instructions simulated : ctaid=(6,0,0) tid=(7,0,0)
GPGPU-Sim PTX: 6700000 instructions simulated : ctaid=(14,0,0) tid=(71,0,0)
GPGPU-Sim uArch: cycles simulated: 139000  inst.: 6760448 (ipc=48.6) sim_rate=99418 (inst/sec) elapsed = 0:0:01:08 / Tue Mar 22 12:47:22 2016
GPGPU-Sim PTX: 6800000 instructions simulated : ctaid=(1,0,0) tid=(231,0,0)
GPGPU-Sim PTX: 6900000 instructions simulated : ctaid=(5,0,0) tid=(199,0,0)
GPGPU-Sim uArch: cycles simulated: 141000  inst.: 6968160 (ipc=49.4) sim_rate=100987 (inst/sec) elapsed = 0:0:01:09 / Tue Mar 22 12:47:23 2016
GPGPU-Sim PTX: 7000000 instructions simulated : ctaid=(5,0,0) tid=(135,0,0)
GPGPU-Sim PTX: 7100000 instructions simulated : ctaid=(2,0,0) tid=(199,0,0)
GPGPU-Sim uArch: cycles simulated: 143000  inst.: 7184704 (ipc=50.2) sim_rate=102638 (inst/sec) elapsed = 0:0:01:10 / Tue Mar 22 12:47:24 2016
GPGPU-Sim PTX: 7200000 instructions simulated : ctaid=(14,0,0) tid=(199,0,0)
GPGPU-Sim PTX: 7300000 instructions simulated : ctaid=(2,0,0) tid=(103,0,0)
GPGPU-Sim PTX: 7400000 instructions simulated : ctaid=(12,0,0) tid=(7,0,0)
GPGPU-Sim uArch: cycles simulated: 145000  inst.: 7409440 (ipc=51.1) sim_rate=104358 (inst/sec) elapsed = 0:0:01:11 / Tue Mar 22 12:47:25 2016
GPGPU-Sim PTX: 7500000 instructions simulated : ctaid=(8,0,0) tid=(71,0,0)
GPGPU-Sim PTX: 7600000 instructions simulated : ctaid=(3,0,0) tid=(103,0,0)
GPGPU-Sim uArch: cycles simulated: 147000  inst.: 7624800 (ipc=51.9) sim_rate=105900 (inst/sec) elapsed = 0:0:01:12 / Tue Mar 22 12:47:26 2016
GPGPU-Sim PTX: 7700000 instructions simulated : ctaid=(10,0,0) tid=(231,0,0)
GPGPU-Sim PTX: 7800000 instructions simulated : ctaid=(13,0,0) tid=(103,0,0)
GPGPU-Sim uArch: cycles simulated: 149000  inst.: 7832416 (ipc=52.6) sim_rate=107293 (inst/sec) elapsed = 0:0:01:13 / Tue Mar 22 12:47:27 2016
GPGPU-Sim PTX: 7900000 instructions simulated : ctaid=(13,0,0) tid=(135,0,0)
GPGPU-Sim PTX: 8000000 instructions simulated : ctaid=(7,0,0) tid=(71,0,0)
GPGPU-Sim uArch: cycles simulated: 151000  inst.: 8052800 (ipc=53.3) sim_rate=108821 (inst/sec) elapsed = 0:0:01:14 / Tue Mar 22 12:47:28 2016
GPGPU-Sim PTX: 8100000 instructions simulated : ctaid=(14,0,0) tid=(231,0,0)
GPGPU-Sim PTX: 8200000 instructions simulated : ctaid=(9,0,0) tid=(103,0,0)
GPGPU-Sim uArch: cycles simulated: 152500  inst.: 8212416 (ipc=53.9) sim_rate=109498 (inst/sec) elapsed = 0:0:01:15 / Tue Mar 22 12:47:29 2016
GPGPU-Sim PTX: 8300000 instructions simulated : ctaid=(0,0,0) tid=(167,0,0)
GPGPU-Sim PTX: 8400000 instructions simulated : ctaid=(6,0,0) tid=(103,0,0)
GPGPU-Sim uArch: cycles simulated: 154500  inst.: 8431712 (ipc=54.6) sim_rate=110943 (inst/sec) elapsed = 0:0:01:16 / Tue Mar 22 12:47:30 2016
GPGPU-Sim PTX: 8500000 instructions simulated : ctaid=(11,0,0) tid=(7,0,0)
GPGPU-Sim PTX: 8600000 instructions simulated : ctaid=(13,0,0) tid=(39,0,0)
GPGPU-Sim uArch: cycles simulated: 156500  inst.: 8656416 (ipc=55.3) sim_rate=112420 (inst/sec) elapsed = 0:0:01:17 / Tue Mar 22 12:47:31 2016
GPGPU-Sim PTX: 8700000 instructions simulated : ctaid=(7,0,0) tid=(7,0,0)
GPGPU-Sim PTX: 8800000 instructions simulated : ctaid=(1,0,0) tid=(199,0,0)
GPGPU-Sim uArch: cycles simulated: 158500  inst.: 8868960 (ipc=56.0) sim_rate=113704 (inst/sec) elapsed = 0:0:01:18 / Tue Mar 22 12:47:32 2016
GPGPU-Sim PTX: 8900000 instructions simulated : ctaid=(1,0,0) tid=(103,0,0)
GPGPU-Sim PTX: 9000000 instructions simulated : ctaid=(3,0,0) tid=(199,0,0)
GPGPU-Sim uArch: cycles simulated: 160500  inst.: 9077600 (ipc=56.6) sim_rate=114906 (inst/sec) elapsed = 0:0:01:19 / Tue Mar 22 12:47:33 2016
GPGPU-Sim PTX: 9100000 instructions simulated : ctaid=(8,0,0) tid=(135,0,0)
GPGPU-Sim PTX: 9200000 instructions simulated : ctaid=(4,0,0) tid=(71,0,0)
GPGPU-Sim uArch: cycles simulated: 162500  inst.: 9234816 (ipc=56.8) sim_rate=115435 (inst/sec) elapsed = 0:0:01:20 / Tue Mar 22 12:47:34 2016
GPGPU-Sim PTX: 9300000 instructions simulated : ctaid=(9,0,0) tid=(29,0,0)
GPGPU-Sim uArch: cycles simulated: 164500  inst.: 9309039 (ipc=56.6) sim_rate=114926 (inst/sec) elapsed = 0:0:01:21 / Tue Mar 22 12:47:35 2016
GPGPU-Sim PTX: 9400000 instructions simulated : ctaid=(7,0,0) tid=(102,0,0)
GPGPU-Sim uArch: cycles simulated: 166500  inst.: 9434142 (ipc=56.7) sim_rate=115050 (inst/sec) elapsed = 0:0:01:22 / Tue Mar 22 12:47:36 2016
GPGPU-Sim PTX: 9500000 instructions simulated : ctaid=(13,0,0) tid=(392,0,0)
GPGPU-Sim PTX: 9600000 instructions simulated : ctaid=(3,0,0) tid=(296,0,0)
GPGPU-Sim uArch: cycles simulated: 168500  inst.: 9662494 (ipc=57.3) sim_rate=116415 (inst/sec) elapsed = 0:0:01:23 / Tue Mar 22 12:47:37 2016
GPGPU-Sim PTX: 9700000 instructions simulated : ctaid=(6,0,0) tid=(392,0,0)
GPGPU-Sim PTX: 9800000 instructions simulated : ctaid=(12,0,0) tid=(328,0,0)
GPGPU-Sim uArch: cycles simulated: 170500  inst.: 9883806 (ipc=58.0) sim_rate=117664 (inst/sec) elapsed = 0:0:01:24 / Tue Mar 22 12:47:38 2016
GPGPU-Sim PTX: 9900000 instructions simulated : ctaid=(10,0,0) tid=(360,0,0)
GPGPU-Sim PTX: 10000000 instructions simulated : ctaid=(0,0,0) tid=(488,0,0)
GPGPU-Sim PTX: 10100000 instructions simulated : ctaid=(4,0,0) tid=(456,0,0)
GPGPU-Sim uArch: cycles simulated: 172500  inst.: 10097854 (ipc=58.5) sim_rate=118798 (inst/sec) elapsed = 0:0:01:25 / Tue Mar 22 12:47:39 2016
GPGPU-Sim PTX: 10200000 instructions simulated : ctaid=(4,0,0) tid=(456,0,0)
GPGPU-Sim PTX: 10300000 instructions simulated : ctaid=(6,0,0) tid=(456,0,0)
GPGPU-Sim uArch: cycles simulated: 174500  inst.: 10314686 (ipc=59.1) sim_rate=119938 (inst/sec) elapsed = 0:0:01:26 / Tue Mar 22 12:47:40 2016
GPGPU-Sim PTX: 10400000 instructions simulated : ctaid=(8,0,0) tid=(456,0,0)
GPGPU-Sim PTX: 10500000 instructions simulated : ctaid=(13,0,0) tid=(264,0,0)
GPGPU-Sim uArch: cycles simulated: 176500  inst.: 10531998 (ipc=59.7) sim_rate=121057 (inst/sec) elapsed = 0:0:01:27 / Tue Mar 22 12:47:41 2016
GPGPU-Sim PTX: 10600000 instructions simulated : ctaid=(1,0,0) tid=(296,0,0)
GPGPU-Sim PTX: 10700000 instructions simulated : ctaid=(13,0,0) tid=(360,0,0)
GPGPU-Sim uArch: cycles simulated: 178000  inst.: 10695230 (ipc=60.1) sim_rate=121536 (inst/sec) elapsed = 0:0:01:28 / Tue Mar 22 12:47:42 2016
GPGPU-Sim PTX: 10800000 instructions simulated : ctaid=(4,0,0) tid=(392,0,0)
GPGPU-Sim PTX: 10900000 instructions simulated : ctaid=(4,0,0) tid=(488,0,0)
GPGPU-Sim uArch: cycles simulated: 180000  inst.: 10911774 (ipc=60.6) sim_rate=122604 (inst/sec) elapsed = 0:0:01:29 / Tue Mar 22 12:47:43 2016
GPGPU-Sim PTX: 11000000 instructions simulated : ctaid=(10,0,0) tid=(328,0,0)
GPGPU-Sim uArch: cycles simulated: 181500  inst.: 11075774 (ipc=61.0) sim_rate=123064 (inst/sec) elapsed = 0:0:01:30 / Tue Mar 22 12:47:44 2016
GPGPU-Sim PTX: 11100000 instructions simulated : ctaid=(12,0,0) tid=(424,0,0)
GPGPU-Sim PTX: 11200000 instructions simulated : ctaid=(8,0,0) tid=(392,0,0)
GPGPU-Sim PTX: 11300000 instructions simulated : ctaid=(2,0,0) tid=(456,0,0)
GPGPU-Sim uArch: cycles simulated: 183500  inst.: 11291102 (ipc=61.5) sim_rate=124078 (inst/sec) elapsed = 0:0:01:31 / Tue Mar 22 12:47:45 2016
GPGPU-Sim PTX: 11400000 instructions simulated : ctaid=(12,0,0) tid=(328,0,0)
GPGPU-Sim PTX: 11500000 instructions simulated : ctaid=(7,0,0) tid=(264,0,0)
GPGPU-Sim uArch: cycles simulated: 185500  inst.: 11511582 (ipc=62.1) sim_rate=125125 (inst/sec) elapsed = 0:0:01:32 / Tue Mar 22 12:47:46 2016
GPGPU-Sim PTX: 11600000 instructions simulated : ctaid=(10,0,0) tid=(392,0,0)
GPGPU-Sim uArch: cycles simulated: 187000  inst.: 11670494 (ipc=62.4) sim_rate=125489 (inst/sec) elapsed = 0:0:01:33 / Tue Mar 22 12:47:47 2016
GPGPU-Sim PTX: 11700000 instructions simulated : ctaid=(2,0,0) tid=(264,0,0)
GPGPU-Sim PTX: 11800000 instructions simulated : ctaid=(12,0,0) tid=(488,0,0)
GPGPU-Sim PTX: 11900000 instructions simulated : ctaid=(6,0,0) tid=(264,0,0)
GPGPU-Sim uArch: cycles simulated: 189000  inst.: 11890078 (ipc=62.9) sim_rate=126490 (inst/sec) elapsed = 0:0:01:34 / Tue Mar 22 12:47:48 2016
GPGPU-Sim PTX: 12000000 instructions simulated : ctaid=(3,0,0) tid=(296,0,0)
GPGPU-Sim PTX: 12100000 instructions simulated : ctaid=(3,0,0) tid=(392,0,0)
GPGPU-Sim uArch: cycles simulated: 191000  inst.: 12108766 (ipc=63.4) sim_rate=127460 (inst/sec) elapsed = 0:0:01:35 / Tue Mar 22 12:47:49 2016
GPGPU-Sim PTX: 12200000 instructions simulated : ctaid=(2,0,0) tid=(488,0,0)
GPGPU-Sim uArch: cycles simulated: 192500  inst.: 12269214 (ipc=63.7) sim_rate=127804 (inst/sec) elapsed = 0:0:01:36 / Tue Mar 22 12:47:50 2016
GPGPU-Sim PTX: 12300000 instructions simulated : ctaid=(13,0,0) tid=(264,0,0)
GPGPU-Sim PTX: 12400000 instructions simulated : ctaid=(13,0,0) tid=(488,0,0)
GPGPU-Sim PTX: 12500000 instructions simulated : ctaid=(8,0,0) tid=(328,0,0)
GPGPU-Sim uArch: cycles simulated: 194500  inst.: 12486430 (ipc=64.2) sim_rate=128726 (inst/sec) elapsed = 0:0:01:37 / Tue Mar 22 12:47:51 2016
GPGPU-Sim PTX: 12600000 instructions simulated : ctaid=(1,0,0) tid=(488,0,0)
GPGPU-Sim PTX: 12700000 instructions simulated : ctaid=(6,0,0) tid=(488,0,0)
GPGPU-Sim uArch: cycles simulated: 197000  inst.: 12755262 (ipc=64.7) sim_rate=130155 (inst/sec) elapsed = 0:0:01:38 / Tue Mar 22 12:47:52 2016
GPGPU-Sim PTX: 12800000 instructions simulated : ctaid=(11,0,0) tid=(264,0,0)
GPGPU-Sim PTX: 12900000 instructions simulated : ctaid=(8,0,0) tid=(296,0,0)
GPGPU-Sim PTX: 13000000 instructions simulated : ctaid=(5,0,0) tid=(424,0,0)
GPGPU-Sim uArch: cycles simulated: 199500  inst.: 13027070 (ipc=65.3) sim_rate=131586 (inst/sec) elapsed = 0:0:01:39 / Tue Mar 22 12:47:53 2016
GPGPU-Sim PTX: 13100000 instructions simulated : ctaid=(2,0,0) tid=(392,0,0)
GPGPU-Sim PTX: 13200000 instructions simulated : ctaid=(14,0,0) tid=(456,0,0)
GPGPU-Sim PTX: 13300000 instructions simulated : ctaid=(4,0,0) tid=(296,0,0)
GPGPU-Sim uArch: cycles simulated: 202500  inst.: 13350878 (ipc=65.9) sim_rate=133508 (inst/sec) elapsed = 0:0:01:40 / Tue Mar 22 12:47:54 2016
GPGPU-Sim PTX: 13400000 instructions simulated : ctaid=(6,0,0) tid=(328,0,0)
GPGPU-Sim PTX: 13500000 instructions simulated : ctaid=(5,0,0) tid=(360,0,0)
GPGPU-Sim PTX: 13600000 instructions simulated : ctaid=(8,0,0) tid=(360,0,0)
GPGPU-Sim uArch: cycles simulated: 205000  inst.: 13620894 (ipc=66.4) sim_rate=134860 (inst/sec) elapsed = 0:0:01:41 / Tue Mar 22 12:47:55 2016
GPGPU-Sim PTX: 13700000 instructions simulated : ctaid=(14,0,0) tid=(296,0,0)
GPGPU-Sim PTX: 13800000 instructions simulated : ctaid=(14,0,0) tid=(264,0,0)
GPGPU-Sim PTX: 13900000 instructions simulated : ctaid=(12,0,0) tid=(424,0,0)
GPGPU-Sim uArch: cycles simulated: 207500  inst.: 13894270 (ipc=67.0) sim_rate=136218 (inst/sec) elapsed = 0:0:01:42 / Tue Mar 22 12:47:56 2016
GPGPU-Sim PTX: 14000000 instructions simulated : ctaid=(6,0,0) tid=(456,0,0)
GPGPU-Sim PTX: 14100000 instructions simulated : ctaid=(2,0,0) tid=(392,0,0)
GPGPU-Sim uArch: cycles simulated: 210000  inst.: 14163358 (ipc=67.4) sim_rate=137508 (inst/sec) elapsed = 0:0:01:43 / Tue Mar 22 12:47:57 2016
GPGPU-Sim PTX: 14200000 instructions simulated : ctaid=(10,0,0) tid=(264,0,0)
GPGPU-Sim PTX: 14300000 instructions simulated : ctaid=(10,0,0) tid=(424,0,0)
GPGPU-Sim uArch: cycles simulated: 211500  inst.: 14323486 (ipc=67.7) sim_rate=137725 (inst/sec) elapsed = 0:0:01:44 / Tue Mar 22 12:47:58 2016
GPGPU-Sim PTX: 14400000 instructions simulated : ctaid=(13,0,0) tid=(392,0,0)
GPGPU-Sim PTX: 14500000 instructions simulated : ctaid=(8,0,0) tid=(328,0,0)
GPGPU-Sim uArch: cycles simulated: 213500  inst.: 14542046 (ipc=68.1) sim_rate=138495 (inst/sec) elapsed = 0:0:01:45 / Tue Mar 22 12:47:59 2016
GPGPU-Sim PTX: 14600000 instructions simulated : ctaid=(2,0,0) tid=(264,0,0)
GPGPU-Sim PTX: 14700000 instructions simulated : ctaid=(1,0,0) tid=(360,0,0)
GPGPU-Sim uArch: cycles simulated: 215500  inst.: 14760030 (ipc=68.5) sim_rate=139245 (inst/sec) elapsed = 0:0:01:46 / Tue Mar 22 12:48:00 2016
GPGPU-Sim PTX: 14800000 instructions simulated : ctaid=(12,0,0) tid=(392,0,0)
GPGPU-Sim PTX: 14900000 instructions simulated : ctaid=(5,0,0) tid=(488,0,0)
GPGPU-Sim uArch: cycles simulated: 217000  inst.: 14920158 (ipc=68.8) sim_rate=139440 (inst/sec) elapsed = 0:0:01:47 / Tue Mar 22 12:48:01 2016
GPGPU-Sim PTX: 15000000 instructions simulated : ctaid=(3,0,0) tid=(392,0,0)
GPGPU-Sim PTX: 15100000 instructions simulated : ctaid=(8,0,0) tid=(392,0,0)
GPGPU-Sim uArch: cycles simulated: 219000  inst.: 15139614 (ipc=69.1) sim_rate=140181 (inst/sec) elapsed = 0:0:01:48 / Tue Mar 22 12:48:02 2016
GPGPU-Sim PTX: 15200000 instructions simulated : ctaid=(10,0,0) tid=(296,0,0)
GPGPU-Sim PTX: 15300000 instructions simulated : ctaid=(7,0,0) tid=(488,0,0)
GPGPU-Sim uArch: cycles simulated: 220500  inst.: 15297470 (ipc=69.4) sim_rate=140343 (inst/sec) elapsed = 0:0:01:49 / Tue Mar 22 12:48:03 2016
GPGPU-Sim PTX: 15400000 instructions simulated : ctaid=(4,0,0) tid=(456,0,0)
GPGPU-Sim PTX: 15500000 instructions simulated : ctaid=(6,0,0) tid=(488,0,0)
GPGPU-Sim uArch: cycles simulated: 222500  inst.: 15518782 (ipc=69.7) sim_rate=141079 (inst/sec) elapsed = 0:0:01:50 / Tue Mar 22 12:48:04 2016
GPGPU-Sim PTX: 15600000 instructions simulated : ctaid=(8,0,0) tid=(296,0,0)
GPGPU-Sim PTX: 15700000 instructions simulated : ctaid=(8,0,0) tid=(296,0,0)
GPGPU-Sim uArch: cycles simulated: 224500  inst.: 15729566 (ipc=70.1) sim_rate=141707 (inst/sec) elapsed = 0:0:01:51 / Tue Mar 22 12:48:05 2016
GPGPU-Sim PTX: 15800000 instructions simulated : ctaid=(3,0,0) tid=(264,0,0)
GPGPU-Sim PTX: 15900000 instructions simulated : ctaid=(2,0,0) tid=(456,0,0)
GPGPU-Sim uArch: cycles simulated: 226000  inst.: 15897150 (ipc=70.3) sim_rate=141938 (inst/sec) elapsed = 0:0:01:52 / Tue Mar 22 12:48:06 2016
GPGPU-Sim PTX: 16000000 instructions simulated : ctaid=(8,0,0) tid=(456,0,0)
GPGPU-Sim PTX: 16100000 instructions simulated : ctaid=(1,0,0) tid=(296,0,0)
GPGPU-Sim uArch: cycles simulated: 228000  inst.: 16109598 (ipc=70.7) sim_rate=142562 (inst/sec) elapsed = 0:0:01:53 / Tue Mar 22 12:48:07 2016
GPGPU-Sim PTX: 16200000 instructions simulated : ctaid=(10,0,0) tid=(488,0,0)
GPGPU-Sim PTX: 16300000 instructions simulated : ctaid=(4,0,0) tid=(488,0,0)
GPGPU-Sim uArch: cycles simulated: 230500  inst.: 16383294 (ipc=71.1) sim_rate=143713 (inst/sec) elapsed = 0:0:01:54 / Tue Mar 22 12:48:08 2016
GPGPU-Sim PTX: 16400000 instructions simulated : ctaid=(14,0,0) tid=(328,0,0)
GPGPU-Sim PTX: 16500000 instructions simulated : ctaid=(14,0,0) tid=(296,0,0)
GPGPU-Sim PTX: 16600000 instructions simulated : ctaid=(14,0,0) tid=(296,0,0)
GPGPU-Sim uArch: cycles simulated: 233000  inst.: 16651262 (ipc=71.5) sim_rate=144793 (inst/sec) elapsed = 0:0:01:55 / Tue Mar 22 12:48:09 2016
GPGPU-Sim PTX: 16700000 instructions simulated : ctaid=(13,0,0) tid=(360,0,0)
GPGPU-Sim PTX: 16800000 instructions simulated : ctaid=(2,0,0) tid=(392,0,0)
GPGPU-Sim PTX: 16900000 instructions simulated : ctaid=(3,0,0) tid=(456,0,0)
GPGPU-Sim uArch: cycles simulated: 235500  inst.: 16915838 (ipc=71.8) sim_rate=145826 (inst/sec) elapsed = 0:0:01:56 / Tue Mar 22 12:48:10 2016
GPGPU-Sim PTX: 17000000 instructions simulated : ctaid=(14,0,0) tid=(392,0,0)
GPGPU-Sim PTX: 17100000 instructions simulated : ctaid=(6,0,0) tid=(328,0,0)
GPGPU-Sim PTX: 17200000 instructions simulated : ctaid=(7,0,0) tid=(392,0,0)
GPGPU-Sim uArch: cycles simulated: 238000  inst.: 17184574 (ipc=72.2) sim_rate=146876 (inst/sec) elapsed = 0:0:01:57 / Tue Mar 22 12:48:11 2016
GPGPU-Sim PTX: 17300000 instructions simulated : ctaid=(5,0,0) tid=(360,0,0)
GPGPU-Sim PTX: 17400000 instructions simulated : ctaid=(13,0,0) tid=(360,0,0)
GPGPU-Sim uArch: cycles simulated: 240500  inst.: 17457566 (ipc=72.6) sim_rate=147945 (inst/sec) elapsed = 0:0:01:58 / Tue Mar 22 12:48:12 2016
GPGPU-Sim PTX: 17500000 instructions simulated : ctaid=(0,0,0) tid=(456,0,0)
GPGPU-Sim PTX: 17600000 instructions simulated : ctaid=(12,0,0) tid=(296,0,0)
GPGPU-Sim PTX: 17700000 instructions simulated : ctaid=(1,0,0) tid=(360,0,0)
GPGPU-Sim uArch: cycles simulated: 243000  inst.: 17732510 (ipc=73.0) sim_rate=149012 (inst/sec) elapsed = 0:0:01:59 / Tue Mar 22 12:48:13 2016
GPGPU-Sim PTX: 17800000 instructions simulated : ctaid=(3,0,0) tid=(296,0,0)
GPGPU-Sim PTX: 17900000 instructions simulated : ctaid=(0,0,0) tid=(424,0,0)
GPGPU-Sim PTX: 18000000 instructions simulated : ctaid=(13,0,0) tid=(424,0,0)
GPGPU-Sim uArch: cycles simulated: 245500  inst.: 18003390 (ipc=73.3) sim_rate=150028 (inst/sec) elapsed = 0:0:02:00 / Tue Mar 22 12:48:14 2016
GPGPU-Sim PTX: 18100000 instructions simulated : ctaid=(13,0,0) tid=(456,0,0)
GPGPU-Sim PTX: 18200000 instructions simulated : ctaid=(7,0,0) tid=(456,0,0)
GPGPU-Sim uArch: cycles simulated: 248000  inst.: 18256768 (ipc=73.6) sim_rate=150882 (inst/sec) elapsed = 0:0:02:01 / Tue Mar 22 12:48:15 2016
GPGPU-Sim PTX: 18300000 instructions simulated : ctaid=(1,0,0) tid=(365,0,0)
GPGPU-Sim uArch: cycles simulated: 249500  inst.: 18339121 (ipc=73.5) sim_rate=150320 (inst/sec) elapsed = 0:0:02:02 / Tue Mar 22 12:48:16 2016
GPGPU-Sim PTX: 18400000 instructions simulated : ctaid=(20,0,0) tid=(5,0,0)
GPGPU-Sim uArch: cycles simulated: 251000  inst.: 18381561 (ipc=73.2) sim_rate=149443 (inst/sec) elapsed = 0:0:02:03 / Tue Mar 22 12:48:17 2016
GPGPU-Sim uArch: Shader 9 finished CTA #0 (251283,0), 2 CTAs running
GPGPU-Sim uArch: core:  9, cta: 0 initialized @(251284,0)
GPGPU-Sim uArch: Shader 1 finished CTA #0 (251345,0), 2 CTAs running
GPGPU-Sim uArch: core:  1, cta: 0 initialized @(251346,0)
GPGPU-Sim uArch: Shader 12 finished CTA #0 (251381,0), 2 CTAs running
GPGPU-Sim uArch: core: 12, cta: 0 initialized @(251382,0)
GPGPU-Sim uArch: Shader 3 finished CTA #0 (251398,0), 2 CTAs running
GPGPU-Sim uArch: core:  3, cta: 0 initialized @(251399,0)
GPGPU-Sim uArch: Shader 5 finished CTA #0 (251493,0), 2 CTAs running
GPGPU-Sim uArch: core:  5, cta: 0 initialized @(251494,0)
GPGPU-Sim uArch: Shader 0 finished CTA #0 (251511,0), 2 CTAs running
GPGPU-Sim uArch: core:  0, cta: 0 initialized @(251512,0)
GPGPU-Sim uArch: Shader 2 finished CTA #0 (251569,0), 2 CTAs running
GPGPU-Sim uArch: core:  2, cta: 0 initialized @(251570,0)
GPGPU-Sim uArch: Shader 7 finished CTA #0 (251599,0), 2 CTAs running
GPGPU-Sim uArch: core:  7, cta: 0 initialized @(251600,0)
GPGPU-Sim uArch: Shader 4 finished CTA #0 (251615,0), 2 CTAs running
GPGPU-Sim uArch: core:  4, cta: 0 initialized @(251616,0)
GPGPU-Sim uArch: Shader 11 finished CTA #0 (251621,0), 2 CTAs running
GPGPU-Sim uArch: core: 11, cta: 0 initialized @(251622,0)
GPGPU-Sim uArch: Shader 13 finished CTA #0 (251628,0), 2 CTAs running
GPGPU-Sim uArch: core: 13, cta: 0 initialized @(251629,0)
GPGPU-Sim uArch: Shader 6 finished CTA #0 (251642,0), 2 CTAs running
GPGPU-Sim uArch: core:  6, cta: 0 initialized @(251643,0)
GPGPU-Sim uArch: Shader 14 finished CTA #0 (251656,0), 2 CTAs running
GPGPU-Sim uArch: core: 14, cta: 0 initialized @(251657,0)
GPGPU-Sim uArch: Shader 8 finished CTA #0 (251675,0), 2 CTAs running
GPGPU-Sim uArch: core:  8, cta: 0 initialized @(251676,0)
GPGPU-Sim PTX: 18500000 instructions simulated : ctaid=(23,0,0) tid=(169,0,0)
GPGPU-Sim uArch: Shader 10 finished CTA #0 (251728,0), 2 CTAs running
GPGPU-Sim uArch: core: 10, cta: 0 initialized @(251729,0)
GPGPU-Sim uArch: cycles simulated: 252000  inst.: 18510556 (ipc=73.5) sim_rate=149278 (inst/sec) elapsed = 0:0:02:04 / Tue Mar 22 12:48:18 2016
GPGPU-Sim PTX: 18600000 instructions simulated : ctaid=(21,0,0) tid=(169,0,0)
GPGPU-Sim PTX: 18700000 instructions simulated : ctaid=(15,0,0) tid=(137,0,0)
GPGPU-Sim PTX: 18800000 instructions simulated : ctaid=(18,0,0) tid=(73,0,0)
GPGPU-Sim uArch: cycles simulated: 254500  inst.: 18783708 (ipc=73.8) sim_rate=150269 (inst/sec) elapsed = 0:0:02:05 / Tue Mar 22 12:48:19 2016
GPGPU-Sim PTX: 18900000 instructions simulated : ctaid=(21,0,0) tid=(105,0,0)
GPGPU-Sim PTX: 19000000 instructions simulated : ctaid=(18,0,0) tid=(201,0,0)
GPGPU-Sim uArch: cycles simulated: 256500  inst.: 18997660 (ipc=74.1) sim_rate=150775 (inst/sec) elapsed = 0:0:02:06 / Tue Mar 22 12:48:20 2016
GPGPU-Sim PTX: 19100000 instructions simulated : ctaid=(20,0,0) tid=(233,0,0)
GPGPU-Sim PTX: 19200000 instructions simulated : ctaid=(21,0,0) tid=(201,0,0)
GPGPU-Sim uArch: cycles simulated: 258500  inst.: 19208540 (ipc=74.3) sim_rate=151248 (inst/sec) elapsed = 0:0:02:07 / Tue Mar 22 12:48:21 2016
GPGPU-Sim PTX: 19300000 instructions simulated : ctaid=(24,0,0) tid=(9,0,0)
GPGPU-Sim PTX: 19400000 instructions simulated : ctaid=(15,0,0) tid=(41,0,0)
GPGPU-Sim uArch: cycles simulated: 260500  inst.: 19426076 (ipc=74.6) sim_rate=151766 (inst/sec) elapsed = 0:0:02:08 / Tue Mar 22 12:48:22 2016
GPGPU-Sim PTX: 19500000 instructions simulated : ctaid=(29,0,0) tid=(41,0,0)
GPGPU-Sim PTX: 19600000 instructions simulated : ctaid=(16,0,0) tid=(137,0,0)
GPGPU-Sim uArch: cycles simulated: 262500  inst.: 19642684 (ipc=74.8) sim_rate=152268 (inst/sec) elapsed = 0:0:02:09 / Tue Mar 22 12:48:23 2016
GPGPU-Sim PTX: 19700000 instructions simulated : ctaid=(18,0,0) tid=(105,0,0)
GPGPU-Sim PTX: 19800000 instructions simulated : ctaid=(19,0,0) tid=(105,0,0)
GPGPU-Sim uArch: cycles simulated: 264500  inst.: 19859548 (ipc=75.1) sim_rate=152765 (inst/sec) elapsed = 0:0:02:10 / Tue Mar 22 12:48:24 2016
GPGPU-Sim PTX: 19900000 instructions simulated : ctaid=(29,0,0) tid=(169,0,0)
GPGPU-Sim PTX: 20000000 instructions simulated : ctaid=(25,0,0) tid=(9,0,0)
GPGPU-Sim uArch: cycles simulated: 266000  inst.: 20022876 (ipc=75.3) sim_rate=152846 (inst/sec) elapsed = 0:0:02:11 / Tue Mar 22 12:48:25 2016
GPGPU-Sim PTX: 20100000 instructions simulated : ctaid=(25,0,0) tid=(9,0,0)
GPGPU-Sim PTX: 20200000 instructions simulated : ctaid=(20,0,0) tid=(73,0,0)
GPGPU-Sim uArch: cycles simulated: 267500  inst.: 20187772 (ipc=75.5) sim_rate=152937 (inst/sec) elapsed = 0:0:02:12 / Tue Mar 22 12:48:26 2016
GPGPU-Sim PTX: 20300000 instructions simulated : ctaid=(17,0,0) tid=(73,0,0)
GPGPU-Sim PTX: 20400000 instructions simulated : ctaid=(20,0,0) tid=(41,0,0)
GPGPU-Sim uArch: cycles simulated: 269500  inst.: 20403132 (ipc=75.7) sim_rate=153407 (inst/sec) elapsed = 0:0:02:13 / Tue Mar 22 12:48:27 2016
GPGPU-Sim PTX: 20500000 instructions simulated : ctaid=(15,0,0) tid=(137,0,0)
GPGPU-Sim uArch: cycles simulated: 271000  inst.: 20567740 (ipc=75.9) sim_rate=153490 (inst/sec) elapsed = 0:0:02:14 / Tue Mar 22 12:48:28 2016
GPGPU-Sim PTX: 20600000 instructions simulated : ctaid=(18,0,0) tid=(73,0,0)
GPGPU-Sim PTX: 20700000 instructions simulated : ctaid=(28,0,0) tid=(73,0,0)
GPGPU-Sim uArch: cycles simulated: 272500  inst.: 20728380 (ipc=76.1) sim_rate=153543 (inst/sec) elapsed = 0:0:02:15 / Tue Mar 22 12:48:29 2016
GPGPU-Sim PTX: 20800000 instructions simulated : ctaid=(17,0,0) tid=(233,0,0)
GPGPU-Sim PTX: 20900000 instructions simulated : ctaid=(27,0,0) tid=(41,0,0)
GPGPU-Sim uArch: cycles simulated: 274500  inst.: 20947228 (ipc=76.3) sim_rate=154023 (inst/sec) elapsed = 0:0:02:16 / Tue Mar 22 12:48:30 2016
GPGPU-Sim PTX: 21000000 instructions simulated : ctaid=(23,0,0) tid=(137,0,0)
GPGPU-Sim PTX: 21100000 instructions simulated : ctaid=(28,0,0) tid=(9,0,0)
GPGPU-Sim uArch: cycles simulated: 276000  inst.: 21107676 (ipc=76.5) sim_rate=154070 (inst/sec) elapsed = 0:0:02:17 / Tue Mar 22 12:48:31 2016
GPGPU-Sim PTX: 21200000 instructions simulated : ctaid=(20,0,0) tid=(105,0,0)
GPGPU-Sim uArch: cycles simulated: 277500  inst.: 21272028 (ipc=76.7) sim_rate=154145 (inst/sec) elapsed = 0:0:02:18 / Tue Mar 22 12:48:32 2016
GPGPU-Sim PTX: 21300000 instructions simulated : ctaid=(15,0,0) tid=(201,0,0)
GPGPU-Sim PTX: 21400000 instructions simulated : ctaid=(21,0,0) tid=(137,0,0)
GPGPU-Sim PTX: 21500000 instructions simulated : ctaid=(19,0,0) tid=(137,0,0)
GPGPU-Sim uArch: cycles simulated: 279500  inst.: 21486684 (ipc=76.9) sim_rate=154580 (inst/sec) elapsed = 0:0:02:19 / Tue Mar 22 12:48:33 2016
GPGPU-Sim PTX: 21600000 instructions simulated : ctaid=(16,0,0) tid=(137,0,0)
GPGPU-Sim PTX: 21700000 instructions simulated : ctaid=(19,0,0) tid=(73,0,0)
GPGPU-Sim uArch: cycles simulated: 282000  inst.: 21758236 (ipc=77.2) sim_rate=155415 (inst/sec) elapsed = 0:0:02:20 / Tue Mar 22 12:48:34 2016
GPGPU-Sim PTX: 21800000 instructions simulated : ctaid=(17,0,0) tid=(169,0,0)
GPGPU-Sim PTX: 21900000 instructions simulated : ctaid=(27,0,0) tid=(137,0,0)
GPGPU-Sim PTX: 22000000 instructions simulated : ctaid=(21,0,0) tid=(233,0,0)
GPGPU-Sim uArch: cycles simulated: 284000  inst.: 21977660 (ipc=77.4) sim_rate=155869 (inst/sec) elapsed = 0:0:02:21 / Tue Mar 22 12:48:35 2016
GPGPU-Sim PTX: 22100000 instructions simulated : ctaid=(15,0,0) tid=(233,0,0)
GPGPU-Sim PTX: 22200000 instructions simulated : ctaid=(16,0,0) tid=(9,0,0)
GPGPU-Sim uArch: cycles simulated: 286500  inst.: 22245244 (ipc=77.6) sim_rate=156656 (inst/sec) elapsed = 0:0:02:22 / Tue Mar 22 12:48:36 2016
GPGPU-Sim PTX: 22300000 instructions simulated : ctaid=(23,0,0) tid=(9,0,0)
GPGPU-Sim PTX: 22400000 instructions simulated : ctaid=(21,0,0) tid=(137,0,0)
GPGPU-Sim uArch: cycles simulated: 288500  inst.: 22466332 (ipc=77.9) sim_rate=157107 (inst/sec) elapsed = 0:0:02:23 / Tue Mar 22 12:48:37 2016
GPGPU-Sim PTX: 22500000 instructions simulated : ctaid=(26,0,0) tid=(233,0,0)
GPGPU-Sim PTX: 22600000 instructions simulated : ctaid=(27,0,0) tid=(201,0,0)
GPGPU-Sim PTX: 22700000 instructions simulated : ctaid=(29,0,0) tid=(169,0,0)
GPGPU-Sim uArch: cycles simulated: 291000  inst.: 22736924 (ipc=78.1) sim_rate=157895 (inst/sec) elapsed = 0:0:02:24 / Tue Mar 22 12:48:38 2016
GPGPU-Sim PTX: 22800000 instructions simulated : ctaid=(24,0,0) tid=(9,0,0)
GPGPU-Sim PTX: 22900000 instructions simulated : ctaid=(25,0,0) tid=(233,0,0)
GPGPU-Sim uArch: cycles simulated: 292500  inst.: 22898172 (ipc=78.3) sim_rate=157918 (inst/sec) elapsed = 0:0:02:25 / Tue Mar 22 12:48:39 2016
GPGPU-Sim PTX: 23000000 instructions simulated : ctaid=(16,0,0) tid=(201,0,0)
GPGPU-Sim uArch: cycles simulated: 294000  inst.: 23062556 (ipc=78.4) sim_rate=157962 (inst/sec) elapsed = 0:0:02:26 / Tue Mar 22 12:48:40 2016
GPGPU-Sim PTX: 23100000 instructions simulated : ctaid=(19,0,0) tid=(201,0,0)
GPGPU-Sim PTX: 23200000 instructions simulated : ctaid=(20,0,0) tid=(41,0,0)
GPGPU-Sim PTX: 23300000 instructions simulated : ctaid=(28,0,0) tid=(137,0,0)
GPGPU-Sim uArch: cycles simulated: 296000  inst.: 23278268 (ipc=78.6) sim_rate=158355 (inst/sec) elapsed = 0:0:02:27 / Tue Mar 22 12:48:41 2016
GPGPU-Sim PTX: 23400000 instructions simulated : ctaid=(28,0,0) tid=(137,0,0)
GPGPU-Sim uArch: cycles simulated: 297500  inst.: 23441724 (ipc=78.8) sim_rate=158390 (inst/sec) elapsed = 0:0:02:28 / Tue Mar 22 12:48:42 2016
GPGPU-Sim PTX: 23500000 instructions simulated : ctaid=(18,0,0) tid=(105,0,0)
GPGPU-Sim PTX: 23600000 instructions simulated : ctaid=(18,0,0) tid=(73,0,0)
GPGPU-Sim uArch: cycles simulated: 299500  inst.: 23658364 (ipc=79.0) sim_rate=158780 (inst/sec) elapsed = 0:0:02:29 / Tue Mar 22 12:48:43 2016
GPGPU-Sim PTX: 23700000 instructions simulated : ctaid=(27,0,0) tid=(41,0,0)
GPGPU-Sim PTX: 23800000 instructions simulated : ctaid=(21,0,0) tid=(201,0,0)
GPGPU-Sim PTX: 23900000 instructions simulated : ctaid=(21,0,0) tid=(201,0,0)
GPGPU-Sim uArch: cycles simulated: 302000  inst.: 23932412 (ipc=79.2) sim_rate=159549 (inst/sec) elapsed = 0:0:02:30 / Tue Mar 22 12:48:44 2016
GPGPU-Sim PTX: 24000000 instructions simulated : ctaid=(23,0,0) tid=(73,0,0)
GPGPU-Sim PTX: 24100000 instructions simulated : ctaid=(26,0,0) tid=(9,0,0)
GPGPU-Sim PTX: 24200000 instructions simulated : ctaid=(26,0,0) tid=(233,0,0)
GPGPU-Sim uArch: cycles simulated: 304500  inst.: 24202012 (ipc=79.5) sim_rate=160278 (inst/sec) elapsed = 0:0:02:31 / Tue Mar 22 12:48:45 2016
GPGPU-Sim PTX: 24300000 instructions simulated : ctaid=(27,0,0) tid=(105,0,0)
GPGPU-Sim PTX: 24400000 instructions simulated : ctaid=(27,0,0) tid=(233,0,0)
GPGPU-Sim uArch: cycles simulated: 306500  inst.: 24418652 (ipc=79.7) sim_rate=160649 (inst/sec) elapsed = 0:0:02:32 / Tue Mar 22 12:48:46 2016
GPGPU-Sim PTX: 24500000 instructions simulated : ctaid=(25,0,0) tid=(105,0,0)
GPGPU-Sim PTX: 24600000 instructions simulated : ctaid=(17,0,0) tid=(169,0,0)
GPGPU-Sim PTX: 24700000 instructions simulated : ctaid=(18,0,0) tid=(41,0,0)
GPGPU-Sim uArch: cycles simulated: 309000  inst.: 24692220 (ipc=79.9) sim_rate=161387 (inst/sec) elapsed = 0:0:02:33 / Tue Mar 22 12:48:47 2016
GPGPU-Sim PTX: 24800000 instructions simulated : ctaid=(25,0,0) tid=(201,0,0)
GPGPU-Sim PTX: 24900000 instructions simulated : ctaid=(25,0,0) tid=(233,0,0)
GPGPU-Sim uArch: cycles simulated: 311000  inst.: 24903548 (ipc=80.1) sim_rate=161711 (inst/sec) elapsed = 0:0:02:34 / Tue Mar 22 12:48:48 2016
GPGPU-Sim PTX: 25000000 instructions simulated : ctaid=(28,0,0) tid=(9,0,0)
GPGPU-Sim PTX: 25100000 instructions simulated : ctaid=(22,0,0) tid=(41,0,0)
GPGPU-Sim PTX: 25200000 instructions simulated : ctaid=(28,0,0) tid=(169,0,0)
GPGPU-Sim uArch: cycles simulated: 313500  inst.: 25178812 (ipc=80.3) sim_rate=162443 (inst/sec) elapsed = 0:0:02:35 / Tue Mar 22 12:48:49 2016
GPGPU-Sim PTX: 25300000 instructions simulated : ctaid=(16,0,0) tid=(169,0,0)
GPGPU-Sim uArch: cycles simulated: 315000  inst.: 25341692 (ipc=80.4) sim_rate=162446 (inst/sec) elapsed = 0:0:02:36 / Tue Mar 22 12:48:50 2016
GPGPU-Sim PTX: 25400000 instructions simulated : ctaid=(29,0,0) tid=(137,0,0)
GPGPU-Sim PTX: 25500000 instructions simulated : ctaid=(23,0,0) tid=(137,0,0)
GPGPU-Sim uArch: cycles simulated: 317000  inst.: 25558908 (ipc=80.6) sim_rate=162795 (inst/sec) elapsed = 0:0:02:37 / Tue Mar 22 12:48:51 2016
GPGPU-Sim PTX: 25600000 instructions simulated : ctaid=(22,0,0) tid=(105,0,0)
GPGPU-Sim PTX: 25700000 instructions simulated : ctaid=(21,0,0) tid=(233,0,0)
GPGPU-Sim uArch: cycles simulated: 319000  inst.: 25772604 (ipc=80.8) sim_rate=163117 (inst/sec) elapsed = 0:0:02:38 / Tue Mar 22 12:48:52 2016
GPGPU-Sim PTX: 25800000 instructions simulated : ctaid=(27,0,0) tid=(169,0,0)
GPGPU-Sim PTX: 25900000 instructions simulated : ctaid=(29,0,0) tid=(41,0,0)
GPGPU-Sim PTX: 26000000 instructions simulated : ctaid=(17,0,0) tid=(41,0,0)
GPGPU-Sim uArch: cycles simulated: 321500  inst.: 26043644 (ipc=81.0) sim_rate=163796 (inst/sec) elapsed = 0:0:02:39 / Tue Mar 22 12:48:53 2016
GPGPU-Sim PTX: 26100000 instructions simulated : ctaid=(26,0,0) tid=(233,0,0)
GPGPU-Sim PTX: 26200000 instructions simulated : ctaid=(17,0,0) tid=(233,0,0)
GPGPU-Sim uArch: cycles simulated: 323500  inst.: 26261628 (ipc=81.2) sim_rate=164135 (inst/sec) elapsed = 0:0:02:40 / Tue Mar 22 12:48:54 2016
GPGPU-Sim PTX: 26300000 instructions simulated : ctaid=(27,0,0) tid=(233,0,0)
GPGPU-Sim PTX: 26400000 instructions simulated : ctaid=(15,0,0) tid=(73,0,0)
GPGPU-Sim PTX: 26500000 instructions simulated : ctaid=(16,0,0) tid=(73,0,0)
GPGPU-Sim uArch: cycles simulated: 325500  inst.: 26479484 (ipc=81.4) sim_rate=164468 (inst/sec) elapsed = 0:0:02:41 / Tue Mar 22 12:48:55 2016
GPGPU-Sim PTX: 26600000 instructions simulated : ctaid=(29,0,0) tid=(105,0,0)
GPGPU-Sim PTX: 26700000 instructions simulated : ctaid=(17,0,0) tid=(73,0,0)
GPGPU-Sim uArch: cycles simulated: 327500  inst.: 26698140 (ipc=81.5) sim_rate=164803 (inst/sec) elapsed = 0:0:02:42 / Tue Mar 22 12:48:56 2016
GPGPU-Sim PTX: 26800000 instructions simulated : ctaid=(29,0,0) tid=(41,0,0)
GPGPU-Sim PTX: 26900000 instructions simulated : ctaid=(23,0,0) tid=(9,0,0)
GPGPU-Sim uArch: cycles simulated: 330000  inst.: 26970108 (ipc=81.7) sim_rate=165460 (inst/sec) elapsed = 0:0:02:43 / Tue Mar 22 12:48:57 2016
GPGPU-Sim PTX: 27000000 instructions simulated : ctaid=(22,0,0) tid=(41,0,0)
GPGPU-Sim PTX: 27100000 instructions simulated : ctaid=(17,0,0) tid=(233,0,0)
GPGPU-Sim PTX: 27200000 instructions simulated : ctaid=(27,0,0) tid=(105,0,0)
GPGPU-Sim uArch: cycles simulated: 332500  inst.: 27237340 (ipc=81.9) sim_rate=166081 (inst/sec) elapsed = 0:0:02:44 / Tue Mar 22 12:48:58 2016
GPGPU-Sim PTX: 27300000 instructions simulated : ctaid=(16,0,0) tid=(73,0,0)
GPGPU-Sim PTX: 27400000 instructions simulated : ctaid=(24,0,0) tid=(222,0,0)
GPGPU-Sim uArch: cycles simulated: 334500  inst.: 27374884 (ipc=81.8) sim_rate=165908 (inst/sec) elapsed = 0:0:02:45 / Tue Mar 22 12:48:59 2016
GPGPU-Sim uArch: cycles simulated: 336500  inst.: 27469053 (ipc=81.6) sim_rate=165476 (inst/sec) elapsed = 0:0:02:46 / Tue Mar 22 12:49:00 2016
GPGPU-Sim PTX: 27500000 instructions simulated : ctaid=(26,0,0) tid=(453,0,0)
GPGPU-Sim PTX: 27600000 instructions simulated : ctaid=(27,0,0) tid=(390,0,0)
GPGPU-Sim PTX: 27700000 instructions simulated : ctaid=(27,0,0) tid=(390,0,0)
GPGPU-Sim uArch: cycles simulated: 338500  inst.: 27701282 (ipc=81.8) sim_rate=165875 (inst/sec) elapsed = 0:0:02:47 / Tue Mar 22 12:49:01 2016
GPGPU-Sim PTX: 27800000 instructions simulated : ctaid=(27,0,0) tid=(294,0,0)
GPGPU-Sim PTX: 27900000 instructions simulated : ctaid=(24,0,0) tid=(486,0,0)
GPGPU-Sim uArch: cycles simulated: 340500  inst.: 27920706 (ipc=82.0) sim_rate=166194 (inst/sec) elapsed = 0:0:02:48 / Tue Mar 22 12:49:02 2016
GPGPU-Sim PTX: 28000000 instructions simulated : ctaid=(18,0,0) tid=(262,0,0)
GPGPU-Sim PTX: 28100000 instructions simulated : ctaid=(20,0,0) tid=(486,0,0)
GPGPU-Sim uArch: cycles simulated: 342500  inst.: 28134562 (ipc=82.1) sim_rate=166476 (inst/sec) elapsed = 0:0:02:49 / Tue Mar 22 12:49:03 2016
GPGPU-Sim PTX: 28200000 instructions simulated : ctaid=(26,0,0) tid=(422,0,0)
GPGPU-Sim PTX: 28300000 instructions simulated : ctaid=(23,0,0) tid=(358,0,0)
GPGPU-Sim PTX: 28400000 instructions simulated : ctaid=(23,0,0) tid=(358,0,0)
GPGPU-Sim uArch: cycles simulated: 345000  inst.: 28405890 (ipc=82.3) sim_rate=167093 (inst/sec) elapsed = 0:0:02:50 / Tue Mar 22 12:49:04 2016
GPGPU-Sim PTX: 28500000 instructions simulated : ctaid=(17,0,0) tid=(294,0,0)
GPGPU-Sim PTX: 28600000 instructions simulated : ctaid=(27,0,0) tid=(454,0,0)
GPGPU-Sim uArch: cycles simulated: 347000  inst.: 28628642 (ipc=82.5) sim_rate=167418 (inst/sec) elapsed = 0:0:02:51 / Tue Mar 22 12:49:05 2016
GPGPU-Sim PTX: 28700000 instructions simulated : ctaid=(29,0,0) tid=(454,0,0)
GPGPU-Sim PTX: 28800000 instructions simulated : ctaid=(22,0,0) tid=(486,0,0)
GPGPU-Sim uArch: cycles simulated: 349000  inst.: 28846530 (ipc=82.7) sim_rate=167712 (inst/sec) elapsed = 0:0:02:52 / Tue Mar 22 12:49:06 2016
GPGPU-Sim PTX: 28900000 instructions simulated : ctaid=(28,0,0) tid=(294,0,0)
GPGPU-Sim PTX: 29000000 instructions simulated : ctaid=(22,0,0) tid=(390,0,0)
GPGPU-Sim uArch: cycles simulated: 351000  inst.: 29065922 (ipc=82.8) sim_rate=168011 (inst/sec) elapsed = 0:0:02:53 / Tue Mar 22 12:49:07 2016
GPGPU-Sim PTX: 29100000 instructions simulated : ctaid=(15,0,0) tid=(294,0,0)
GPGPU-Sim PTX: 29200000 instructions simulated : ctaid=(24,0,0) tid=(326,0,0)
GPGPU-Sim PTX: 29300000 instructions simulated : ctaid=(28,0,0) tid=(294,0,0)
GPGPU-Sim uArch: cycles simulated: 353500  inst.: 29335330 (ipc=83.0) sim_rate=168593 (inst/sec) elapsed = 0:0:02:54 / Tue Mar 22 12:49:08 2016
GPGPU-Sim PTX: 29400000 instructions simulated : ctaid=(27,0,0) tid=(358,0,0)
GPGPU-Sim PTX: 29500000 instructions simulated : ctaid=(26,0,0) tid=(486,0,0)
GPGPU-Sim uArch: cycles simulated: 355500  inst.: 29559746 (ipc=83.1) sim_rate=168912 (inst/sec) elapsed = 0:0:02:55 / Tue Mar 22 12:49:09 2016
GPGPU-Sim PTX: 29600000 instructions simulated : ctaid=(18,0,0) tid=(454,0,0)
GPGPU-Sim PTX: 29700000 instructions simulated : ctaid=(24,0,0) tid=(422,0,0)
GPGPU-Sim PTX: 29800000 instructions simulated : ctaid=(24,0,0) tid=(454,0,0)
GPGPU-Sim uArch: cycles simulated: 357500  inst.: 29775906 (ipc=83.3) sim_rate=169181 (inst/sec) elapsed = 0:0:02:56 / Tue Mar 22 12:49:10 2016
GPGPU-Sim PTX: 29900000 instructions simulated : ctaid=(20,0,0) tid=(390,0,0)
GPGPU-Sim PTX: 30000000 instructions simulated : ctaid=(24,0,0) tid=(486,0,0)
GPGPU-Sim uArch: cycles simulated: 359500  inst.: 29988194 (ipc=83.4) sim_rate=169424 (inst/sec) elapsed = 0:0:02:57 / Tue Mar 22 12:49:11 2016
GPGPU-Sim PTX: 30100000 instructions simulated : ctaid=(19,0,0) tid=(358,0,0)
GPGPU-Sim PTX: 30200000 instructions simulated : ctaid=(25,0,0) tid=(390,0,0)
GPGPU-Sim uArch: cycles simulated: 361500  inst.: 30208738 (ipc=83.6) sim_rate=169712 (inst/sec) elapsed = 0:0:02:58 / Tue Mar 22 12:49:12 2016
GPGPU-Sim PTX: 30300000 instructions simulated : ctaid=(23,0,0) tid=(326,0,0)
GPGPU-Sim PTX: 30400000 instructions simulated : ctaid=(18,0,0) tid=(262,0,0)
GPGPU-Sim uArch: cycles simulated: 363500  inst.: 30429826 (ipc=83.7) sim_rate=169999 (inst/sec) elapsed = 0:0:02:59 / Tue Mar 22 12:49:13 2016
GPGPU-Sim PTX: 30500000 instructions simulated : ctaid=(23,0,0) tid=(454,0,0)
GPGPU-Sim PTX: 30600000 instructions simulated : ctaid=(24,0,0) tid=(390,0,0)
GPGPU-Sim PTX: 30700000 instructions simulated : ctaid=(20,0,0) tid=(422,0,0)
GPGPU-Sim uArch: cycles simulated: 366000  inst.: 30700706 (ipc=83.9) sim_rate=170559 (inst/sec) elapsed = 0:0:03:00 / Tue Mar 22 12:49:14 2016
GPGPU-Sim PTX: 30800000 instructions simulated : ctaid=(28,0,0) tid=(454,0,0)
GPGPU-Sim PTX: 30900000 instructions simulated : ctaid=(19,0,0) tid=(358,0,0)
GPGPU-Sim uArch: cycles simulated: 368000  inst.: 30917218 (ipc=84.0) sim_rate=170813 (inst/sec) elapsed = 0:0:03:01 / Tue Mar 22 12:49:15 2016
GPGPU-Sim PTX: 31000000 instructions simulated : ctaid=(28,0,0) tid=(422,0,0)
GPGPU-Sim PTX: 31100000 instructions simulated : ctaid=(16,0,0) tid=(262,0,0)
GPGPU-Sim uArch: cycles simulated: 369500  inst.: 31080834 (ipc=84.1) sim_rate=170773 (inst/sec) elapsed = 0:0:03:02 / Tue Mar 22 12:49:16 2016
GPGPU-Sim PTX: 31200000 instructions simulated : ctaid=(29,0,0) tid=(262,0,0)
GPGPU-Sim PTX: 31300000 instructions simulated : ctaid=(18,0,0) tid=(262,0,0)
GPGPU-Sim uArch: cycles simulated: 371500  inst.: 31297474 (ipc=84.2) sim_rate=171024 (inst/sec) elapsed = 0:0:03:03 / Tue Mar 22 12:49:17 2016
GPGPU-Sim PTX: 31400000 instructions simulated : ctaid=(29,0,0) tid=(454,0,0)
GPGPU-Sim uArch: cycles simulated: 373000  inst.: 31460098 (ipc=84.3) sim_rate=170978 (inst/sec) elapsed = 0:0:03:04 / Tue Mar 22 12:49:18 2016
GPGPU-Sim PTX: 31500000 instructions simulated : ctaid=(27,0,0) tid=(422,0,0)
GPGPU-Sim PTX: 31600000 instructions simulated : ctaid=(29,0,0) tid=(390,0,0)
GPGPU-Sim PTX: 31700000 instructions simulated : ctaid=(26,0,0) tid=(422,0,0)
GPGPU-Sim uArch: cycles simulated: 375500  inst.: 31729186 (ipc=84.5) sim_rate=171509 (inst/sec) elapsed = 0:0:03:05 / Tue Mar 22 12:49:19 2016
GPGPU-Sim PTX: 31800000 instructions simulated : ctaid=(25,0,0) tid=(454,0,0)
GPGPU-Sim PTX: 31900000 instructions simulated : ctaid=(26,0,0) tid=(358,0,0)
GPGPU-Sim uArch: cycles simulated: 377000  inst.: 31888962 (ipc=84.6) sim_rate=171446 (inst/sec) elapsed = 0:0:03:06 / Tue Mar 22 12:49:20 2016
GPGPU-Sim PTX: 32000000 instructions simulated : ctaid=(28,0,0) tid=(422,0,0)
GPGPU-Sim PTX: 32100000 instructions simulated : ctaid=(21,0,0) tid=(358,0,0)
GPGPU-Sim uArch: cycles simulated: 379000  inst.: 32109506 (ipc=84.7) sim_rate=171708 (inst/sec) elapsed = 0:0:03:07 / Tue Mar 22 12:49:21 2016
GPGPU-Sim PTX: 32200000 instructions simulated : ctaid=(22,0,0) tid=(294,0,0)
GPGPU-Sim PTX: 32300000 instructions simulated : ctaid=(23,0,0) tid=(262,0,0)
GPGPU-Sim uArch: cycles simulated: 381000  inst.: 32329378 (ipc=84.9) sim_rate=171964 (inst/sec) elapsed = 0:0:03:08 / Tue Mar 22 12:49:22 2016
GPGPU-Sim PTX: 32400000 instructions simulated : ctaid=(21,0,0) tid=(486,0,0)
GPGPU-Sim PTX: 32500000 instructions simulated : ctaid=(27,0,0) tid=(390,0,0)
GPGPU-Sim PTX: 32600000 instructions simulated : ctaid=(25,0,0) tid=(358,0,0)
GPGPU-Sim uArch: cycles simulated: 383500  inst.: 32600226 (ipc=85.0) sim_rate=172487 (inst/sec) elapsed = 0:0:03:09 / Tue Mar 22 12:49:23 2016
GPGPU-Sim PTX: 32700000 instructions simulated : ctaid=(17,0,0) tid=(422,0,0)
GPGPU-Sim PTX: 32800000 instructions simulated : ctaid=(25,0,0) tid=(486,0,0)
GPGPU-Sim uArch: cycles simulated: 385500  inst.: 32817474 (ipc=85.1) sim_rate=172723 (inst/sec) elapsed = 0:0:03:10 / Tue Mar 22 12:49:24 2016
GPGPU-Sim PTX: 32900000 instructions simulated : ctaid=(28,0,0) tid=(454,0,0)
GPGPU-Sim PTX: 33000000 instructions simulated : ctaid=(28,0,0) tid=(390,0,0)
GPGPU-Sim uArch: cycles simulated: 387000  inst.: 32980578 (ipc=85.2) sim_rate=172673 (inst/sec) elapsed = 0:0:03:11 / Tue Mar 22 12:49:25 2016
GPGPU-Sim PTX: 33100000 instructions simulated : ctaid=(26,0,0) tid=(294,0,0)
GPGPU-Sim uArch: cycles simulated: 388500  inst.: 33137410 (ipc=85.3) sim_rate=172590 (inst/sec) elapsed = 0:0:03:12 / Tue Mar 22 12:49:26 2016
GPGPU-Sim PTX: 33200000 instructions simulated : ctaid=(17,0,0) tid=(294,0,0)
GPGPU-Sim PTX: 33300000 instructions simulated : ctaid=(24,0,0) tid=(294,0,0)
GPGPU-Sim uArch: cycles simulated: 390000  inst.: 33304066 (ipc=85.4) sim_rate=172559 (inst/sec) elapsed = 0:0:03:13 / Tue Mar 22 12:49:27 2016
GPGPU-Sim PTX: 33400000 instructions simulated : ctaid=(21,0,0) tid=(486,0,0)
GPGPU-Sim PTX: 33500000 instructions simulated : ctaid=(27,0,0) tid=(326,0,0)
GPGPU-Sim uArch: cycles simulated: 392000  inst.: 33517762 (ipc=85.5) sim_rate=172771 (inst/sec) elapsed = 0:0:03:14 / Tue Mar 22 12:49:28 2016
GPGPU-Sim PTX: 33600000 instructions simulated : ctaid=(28,0,0) tid=(326,0,0)
GPGPU-Sim PTX: 33700000 instructions simulated : ctaid=(24,0,0) tid=(262,0,0)
GPGPU-Sim uArch: cycles simulated: 393500  inst.: 33684194 (ipc=85.6) sim_rate=172739 (inst/sec) elapsed = 0:0:03:15 / Tue Mar 22 12:49:29 2016
GPGPU-Sim PTX: 33800000 instructions simulated : ctaid=(21,0,0) tid=(326,0,0)
GPGPU-Sim uArch: cycles simulated: 395000  inst.: 33848386 (ipc=85.7) sim_rate=172695 (inst/sec) elapsed = 0:0:03:16 / Tue Mar 22 12:49:30 2016
GPGPU-Sim PTX: 33900000 instructions simulated : ctaid=(19,0,0) tid=(294,0,0)
GPGPU-Sim PTX: 34000000 instructions simulated : ctaid=(26,0,0) tid=(326,0,0)
GPGPU-Sim uArch: cycles simulated: 396500  inst.: 34008450 (ipc=85.8) sim_rate=172631 (inst/sec) elapsed = 0:0:03:17 / Tue Mar 22 12:49:31 2016
GPGPU-Sim PTX: 34100000 instructions simulated : ctaid=(26,0,0) tid=(262,0,0)
GPGPU-Sim PTX: 34200000 instructions simulated : ctaid=(23,0,0) tid=(262,0,0)
GPGPU-Sim uArch: cycles simulated: 398500  inst.: 34228162 (ipc=85.9) sim_rate=172869 (inst/sec) elapsed = 0:0:03:18 / Tue Mar 22 12:49:32 2016
GPGPU-Sim PTX: 34300000 instructions simulated : ctaid=(19,0,0) tid=(390,0,0)
GPGPU-Sim PTX: 34400000 instructions simulated : ctaid=(24,0,0) tid=(326,0,0)
[...]
traffic_breakdown_coretomem[CONST_ACC_R] = 120 {8:15,}
traffic_breakdown_coretomem[GLOBAL_ACC_R] = 9152088 {8:1144011,}
traffic_breakdown_coretomem[GLOBAL_ACC_W] = 4514512 {40:10327,72:1856,136:29175,}
traffic_breakdown_coretomem[INST_ACC_R] = 840 {8:105,}
traffic_breakdown_memtocore[CONST_ACC_R] = 1080 {72:15,}
traffic_breakdown_memtocore[GLOBAL_ACC_R] = 155585496 {136:1144011,}
traffic_breakdown_memtocore[GLOBAL_ACC_W] = 330864 {8:41358,}
traffic_breakdown_memtocore[INST_ACC_R] = 14280 {136:105,}
maxmrqlatency = 291 
maxdqlatency = 0 
maxmflatency = 915 
averagemflatency = 282 
max_icnt2mem_latency = 687 
max_icnt2sh_latency = 3498709 
mrq_lat_table:360528 	31440 	109486 	433958 	187629 	16273 	4241 	606 	16 	0 	0 	0 	0 	0 	0 	0 	0 	0 	0 	0 	0 	0 	0 	0 	0 	0 	0 	0 	0 	0 	0 	0 	
dq_lat_table:0 	0 	0 	0 	0 	0 	0 	0 	0 	0 	0 	0 	0 	0 	0 	0 	0 	0 	0 	0 	0 	0 	0 	0 	0 	0 	0 	0 	0 	0 	0 	0 	
mf_lat_table:0 	0 	0 	0 	0 	0 	0 	32339 	1143569 	9476 	0 	0 	0 	0 	0 	0 	0 	0 	0 	0 	0 	0 	0 	0 	0 	0 	0 	0 	0 	0 	0 	0 	
icnt2mem_lat_table:0 	0 	0 	1107940 	20941 	16970 	25831 	11514 	2239 	54 	0 	0 	0 	0 	0 	0 	0 	0 	0 	0 	0 	0 	0 	0 	
icnt2sh_lat_table:0 	0 	0 	491728 	617310 	30370 	4564 	54 	0 	0 	0 	0 	0 	0 	0 	0 	0 	3644 	5405 	9175 	14694 	8440 	0 	0 	
mf_lat_pw_table:0 	0 	0 	0 	0 	0 	0 	54 	6942 	0 	0 	0 	0 	0 	0 	0 	0 	0 	0 	0 	0 	0 	0 	0 	0 	0 	0 	0 	0 	0 	0 	0 	
maximum concurrent accesses to same row:
dram[0]:        27        29        32        46        32        34        32        32        32        32        28        32        32        32        30        32 
dram[1]:        40        38        32        46        32        34        32        32        32        32        28        32        32        32        28        30 
dram[2]:        24        29        40        32        32        32        32        32        32        32        38        32        32        32        32        30 
dram[3]:        38        40        33        32        32        32        32        32        32        32        30        32        32        28        32        30 
dram[4]:        31        24        46        30        34        32        32        32        32        32        32        32        32        32        32        30 
dram[5]:        38        40        46        30        32        32        32        32        32        32        32        32        32        32        32        30 
maximum service time to same row:
dram[0]:    162954    163729    330678    330699    248749    249169    164107    245028    167032    167298    168037    166321    330034    330247    162656    246381 
dram[1]:     86686    163725    247494    251404    249091    249131    164044    245027    167048    167290    168053    166320    330122    330396    162648    246085 
dram[2]:    161693    163769    330717    247491    249006    244146    164116    245163    167034    167012    168244    163675    330230    250031    162668    166206 
dram[3]:    162935    163765    247531    247481    248767    248884    162035    245163    167059    168131    168315    163659    330315    250030    162011    162613 
dram[4]:    163737    163760    330669    247523    249178    248866    245027    245162    167230    167082    166320    163699    330046    250032    246360    162609 
dram[5]:    163732    163757    330656    247534    249253    248878    245026    245163    167056    167216    166320    163696    330110    250031    246384    162625 
average row accesses per activate:
dram[0]:  6.702822  7.348908  4.469747  4.013805  7.445072  6.670416  5.065134  5.630857  6.642817  7.351886  4.302722  5.557431  6.056266  5.174825  5.110056  5.174825 
dram[1]:  7.294578  7.191325  5.166090  4.306577  7.412500  6.719547  4.534299  5.143969  6.147956  5.655566  4.803080  5.575729  5.165794  4.632238  5.136660  4.807146 
dram[2]:  7.338182  6.208098  5.136892  5.517832  7.549332  6.684685  4.840521  4.777122  5.727229  5.679561  4.779839  5.561708  5.566525  5.368373  5.444853  4.703454 
dram[3]:  7.340413  6.684153  4.194942  4.806933  6.151452  6.690878  5.087066  5.644213  5.244483  6.191046  4.914594  5.595845  4.770347  4.505323  4.781906  4.493359 
dram[4]:  7.428571  6.685604  4.961715  5.178540  6.681690  7.513616  5.612264  5.652256  7.306699  6.208986  5.138275  5.585297  4.754324  4.531190  5.156795  4.483150 
dram[5]:  7.301932  7.258548  4.229950  4.479143  6.107106  6.740909  5.590141  5.404902  6.686164  5.300624  5.537815  5.559100  5.147826  4.763687  5.165794  4.182268 
average row locality = 1144177/208211 = 5.495276
number of total memory accesses made:
dram[0]:         0         0         0         0         0         0         0         0         0         0         0         0         0         0         0         0 
dram[1]:         0         0         0         0         0         0         0         0         0         0         0         0         0         0         0         0 
dram[2]:         0         0         0         0         0         0         0         0         0         0         0         0         0         0         0         0 
dram[3]:         0         0         0         0         0         0         0         0         0         0         0         0         0         0         0         0 
dram[4]:         0         0         0         0         0         0         0         0         0         0         0         0         0         0         0         0 
dram[5]:         0         0         0         0         0         0         0         0         0         0         0         0         0         0         0         0 
total accesses: 0
min_bank_accesses = 0!
min_chip_accesses = 0!
number of total read accesses:
dram[0]:     11619     11616     11834     11572     11562     11562     11584     11584     11584     11584     11564     11562     11552     11552     11552     11552 
dram[1]:     11618     11616     11576     11830     11562     11562     11584     11584     11584     11584     11564     11562     11552     11552     11552     11552 
dram[2]:     11618     11616     11576     11572     11562     11572     11584     11839     11584     11593     11564     11562     11552     11560     11560     11560 
dram[3]:     11617     11616     11576     11572     11562     11583     11839     11584     11584     11593     11564     11562     11552     11561     11552     11552 
dram[4]:     11616     11616     11572     11572     11562     11564     11584     11584     11584     11584     11562     11562     11807     11552     11552     11552 
dram[5]:     11616     11616     11572     11572     11562     11564     11593     11593     11584     11584     11570     11562     11552     11807     11552     11552 
total reads: 1112688
bank skew: 11839/11552 = 1.02
chip skew: 185474/185425 = 1.00
number of total write accesses:
dram[0]:       493       495       355       349       298       298       314       314       300       304       290       292       288       288       288       288 
dram[1]:       491       487       368       349       298       298       314       314       300       304       290       292       288       288       288       288 
dram[2]:       490       496       357       341       298       300       314       314       300       300       290       290       288       288       288       288 
dram[3]:       480       489       367       354       298       300       314       314       300       300       290       290       288       288       288       288 
dram[4]:       500       505       351       349       298       300       314       314       304       300       292       290       288       288       288       288 
dram[5]:       476       484       348       347       298       300       314       314       304       300       292       290       288       288       288       288 
total reads: 31489
bank skew: 505/288 = 1.75
chip skew: 5269/5219 = 1.01
average mf latency per bank:
dram[0]:        285       283       367       287       286       285       288       287       286       285       287       286       286       286       286       287
dram[1]:        285       284       286       368       286       285       288       288       286       287       287       287       286       286       287       287
dram[2]:        282       287       284       289       284       292       287       371       284       294       285       290       284       292       289       292
dram[3]:        284       288       284       290       285       301       368       293       284       297       285       291       284       292       285       290
dram[4]:        285       287       286       288       285       288       288       290       287       287       287       288       367       288       286       287
dram[5]:        284       287       286       288       285       288       290       294       286       289       290       288       286       369       287       290
maximum mf latency per bank:
dram[0]:        853       673       786       794       844       748       915       786       763       628       748       730       845       701       776       749
dram[1]:        798       743       854       714       862       716       793       716       755       617       802       656       776       680       866       742
dram[2]:        697       674       788       731       737       812       805       891       799       688       824       817       855       773       759       705
dram[3]:        808       672       722       747       717       792       722       817       680       711       684       794       712       720       840       744
dram[4]:        627       744       759       740       692       723       794       765       753       715       855       735       698       695       676       783
dram[5]:        683       727       755       695       675       851       729       871       769       691       799       714       715       817       733       792

Number of Memory Banks Accessed per Memory Operation per Warp (from 0):
0	0	0	0	0	0	0	0	0	0	0	0	0	0	0	0	0	0	0	0	0	0	0	0	0	0	0	0	0	0	0	0	0	0	0	0	0	0	0	0	0	0	0	0	0	0	0	0	0	0	0	0	0	0	0	0	0	0	0	0	0	0	0	0	0	0	0	0	0	0	0	0	0	0	0	0	0	0	0	0	0	0	0	0	0	0	0	0	0	0	0	0	0	0	0	0	
Average # of Memory Banks Accessed per Memory Operation per Warp=-nan

position of mrq chosen
0	0	0	0	0	0	0	0	0	0	0	0	0	0	0	0	

average position of mrq chosen = -nan
Memory Partition 0: 
Cache L2_bank_000:
MSHR contents

Cache L2_bank_001:
MSHR contents

In Dram Latency Queue (total = 0): 
DRAM[0]: 16 bks, busW=4 BL=8 CL=12, tRRD=2 tCCD=6, tRCD=12 tRAS=28 tRP=12 tRC=40
n_cmd=4618296 n_nop=4169092 n_act=34127 n_pre=34111 n_req=190689 n_rd=370870 n_write=10096 bw_util=0.165
n_activity=1919134 dram_eff=0.397
bk0: 23238a 4493837i bk1: 23232a 4499240i bk2: 23668a 4472404i bk3: 23144a 4465101i bk4: 23124a 4497875i bk5: 23124a 4489018i bk6: 23168a 4479836i bk7: 23168a 4477186i bk8: 23168a 4498017i bk9: 23168a 4500839i bk10: 23128a 4473958i bk11: 23124a 4481949i bk12: 23104a 4488800i bk13: 23104a 4478573i bk14: 23104a 4480525i bk15: 23104a 4474451i 
dram_util_bins: 0 0 0 0 0 0 0 0 0 0
dram_eff_bins: 0 0 0 0 0 0 0 0 0 0
mrqq: max=16 avg=0.466842
Memory Partition 1: 
Cache L2_bank_002:
MSHR contents

Cache L2_bank_003:
MSHR contents

In Dram Latency Queue (total = 0): 
DRAM[1]: 16 bks, busW=4 BL=8 CL=12, tRRD=2 tCCD=6, tRCD=12 tRAS=28 tRP=12 tRC=40
n_cmd=4618296 n_nop=4167284 n_act=35030 n_pre=35014 n_req=190691 n_rd=370868 n_write=10100 bw_util=0.165
n_activity=1911502 dram_eff=0.3986
bk0: 23236a 4495892i bk1: 23232a 4493444i bk2: 23152a 4481663i bk3: 23660a 4461883i bk4: 23124a 4498406i bk5: 23124a 4482452i bk6: 23168a 4472549i bk7: 23168a 4463944i bk8: 23168a 4494977i bk9: 23168a 4485115i bk10: 23128a 4482590i bk11: 23124a 4483280i bk12: 23104a 4479993i bk13: 23104a 4468629i bk14: 23104a 4481035i bk15: 23104a 4469693i 
dram_util_bins: 0 0 0 0 0 0 0 0 0 0
dram_eff_bins: 0 0 0 0 0 0 0 0 0 0
mrqq: max=16 avg=0.472129
Memory Partition 2: 
Cache L2_bank_004:
MSHR contents

Cache L2_bank_005:
MSHR contents

In Dram Latency Queue (total = 0): 
DRAM[2]: 16 bks, busW=4 BL=8 CL=12, tRRD=2 tCCD=6, tRCD=12 tRAS=28 tRP=12 tRC=40
n_cmd=4618296 n_nop=4168806 n_act=34241 n_pre=34225 n_req=190716 n_rd=370948 n_write=10076 bw_util=0.165
n_activity=1924527 dram_eff=0.396
bk0: 23236a 4498552i bk1: 23232a 4485760i bk2: 23152a 4482362i bk3: 23144a 4474722i bk4: 23124a 4500785i bk5: 23144a 4493827i bk6: 23168a 4476275i bk7: 23678a 4470338i bk8: 23168a 4492520i bk9: 23186a 4485215i bk10: 23128a 4482265i bk11: 23124a 4483010i bk12: 23104a 4484000i bk13: 23120a 4479690i bk14: 23120a 4477139i bk15: 23120a 4466473i 
dram_util_bins: 0 0 0 0 0 0 0 0 0 0
dram_eff_bins: 0 0 0 0 0 0 0 0 0 0
mrqq: max=16 avg=0.469537
Memory Partition 3: 
Cache L2_bank_006:
MSHR contents

Cache L2_bank_007:
MSHR contents

In Dram Latency Queue (total = 0): 
DRAM[3]: 16 bks, busW=4 BL=8 CL=12, tRRD=2 tCCD=6, tRCD=12 tRAS=28 tRP=12 tRC=40
n_cmd=4618296 n_nop=4165437 n_act=35928 n_pre=35912 n_req=190717 n_rd=370938 n_write=10081 bw_util=0.165
n_activity=1919183 dram_eff=0.3971
bk0: 23234a 4497780i bk1: 23232a 4487407i bk2: 23152a 4469132i bk3: 23144a 4471273i bk4: 23124a 4489402i bk5: 23166a 4490648i bk6: 23678a 4474270i bk7: 23168a 4474386i bk8: 23168a 4487524i bk9: 23186a 4485392i bk10: 23128a 4483101i bk11: 23124a 4477817i bk12: 23104a 4478247i bk13: 23122a 4466964i bk14: 23104a 4473212i bk15: 23104a 4461222i 
dram_util_bins: 0 0 0 0 0 0 0 0 0 0
dram_eff_bins: 0 0 0 0 0 0 0 0 0 0
mrqq: max=16 avg=0.476822
Memory Partition 4: 
Cache L2_bank_008:
MSHR contents

Cache L2_bank_009:
MSHR contents

In Dram Latency Queue (total = 0): 
DRAM[4]: 16 bks, busW=4 BL=8 CL=12, tRRD=2 tCCD=6, tRCD=12 tRAS=28 tRP=12 tRC=40
n_cmd=4618296 n_nop=4169782 n_act=33792 n_pre=33776 n_req=190694 n_rd=370850 n_write=10096 bw_util=0.165
n_activity=1910510 dram_eff=0.3988
bk0: 23232a 4497337i bk1: 23232a 4483790i bk2: 23144a 4481526i bk3: 23144a 4479289i bk4: 23124a 4493597i bk5: 23128a 4490157i bk6: 23168a 4487161i bk7: 23168a 4480965i bk8: 23168a 4500148i bk9: 23168a 4490290i bk10: 23124a 4486993i bk11: 23124a 4488598i bk12: 23614a 4473965i bk13: 23104a 4469920i bk14: 23104a 4477402i bk15: 23104a 4466049i 
dram_util_bins: 0 0 0 0 0 0 0 0 0 0
dram_eff_bins: 0 0 0 0 0 0 0 0 0 0
mrqq: max=16 avg=0.465277
Memory Partition 5: 
Cache L2_bank_010:
MSHR contents

Cache L2_bank_011:
MSHR contents

In Dram Latency Queue (total = 0): 
DRAM[5]: 16 bks, busW=4 BL=8 CL=12, tRRD=2 tCCD=6, tRCD=12 tRAS=28 tRP=12 tRC=40
n_cmd=4618296 n_nop=4167160 n_act=35093 n_pre=35077 n_req=190670 n_rd=370902 n_write=10064 bw_util=0.165
n_activity=1912236 dram_eff=0.3985
bk0: 23232a 4496289i bk1: 23232a 4484454i bk2: 23144a 4470070i bk3: 23144a 4471771i bk4: 23124a 4489260i bk5: 23128a 4488125i bk6: 23186a 4480799i bk7: 23186a 4480415i bk8: 23168a 4494291i bk9: 23168a 4480032i bk10: 23140a 4487477i bk11: 23124a 4483868i bk12: 23104a 4478919i bk13: 23614a 4466993i bk14: 23104a 4478375i bk15: 23104a 4453274i 
dram_util_bins: 0 0 0 0 0 0 0 0 0 0
dram_eff_bins: 0 0 0 0 0 0 0 0 0 0
mrqq: max=16 avg=0.476649

========= L2 cache stats =========
L2_cache_bank[0]: Access = 100584, Miss = 92851, Miss_rate = 0.923, Pending_hits = 894, Reservation_fails = 28175
L2_cache_bank[1]: Access = 96655, Miss = 92584, Miss_rate = 0.958, Pending_hits = 123, Reservation_fails = 336
L2_cache_bank[2]: Access = 96793, Miss = 92592, Miss_rate = 0.957, Pending_hits = 140, Reservation_fails = 542
L2_cache_bank[3]: Access = 100649, Miss = 92842, Miss_rate = 0.922, Pending_hits = 880, Reservation_fails = 28326
L2_cache_bank[4]: Access = 96946, Miss = 92600, Miss_rate = 0.955, Pending_hits = 141, Reservation_fails = 618
L2_cache_bank[5]: Access = 101141, Miss = 92874, Miss_rate = 0.918, Pending_hits = 944, Reservation_fails = 28628
L2_cache_bank[6]: Access = 100504, Miss = 92846, Miss_rate = 0.924, Pending_hits = 890, Reservation_fails = 28324
L2_cache_bank[7]: Access = 97342, Miss = 92623, Miss_rate = 0.952, Pending_hits = 157, Reservation_fails = 995
L2_cache_bank[8]: Access = 100586, Miss = 92839, Miss_rate = 0.923, Pending_hits = 903, Reservation_fails = 27394
L2_cache_bank[9]: Access = 96738, Miss = 92586, Miss_rate = 0.957, Pending_hits = 134, Reservation_fails = 288
L2_cache_bank[10]: Access = 96919, Miss = 92601, Miss_rate = 0.955, Pending_hits = 124, Reservation_fails = 612
L2_cache_bank[11]: Access = 100632, Miss = 92850, Miss_rate = 0.923, Pending_hits = 883, Reservation_fails = 28515
L2_total_cache_accesses = 1185489
L2_total_cache_misses = 1112688
L2_total_cache_miss_rate = 0.9386
L2_total_cache_pending_hits = 6213
L2_total_cache_reservation_fails = 172753
L2_total_cache_breakdown:
	L2_cache_stats_breakdown[GLOBAL_ACC_R][HIT] = 27607
	L2_cache_stats_breakdown[GLOBAL_ACC_R][HIT_RESERVED] = 4748
	L2_cache_stats_breakdown[GLOBAL_ACC_R][MISS] = 1111656
	L2_cache_stats_breakdown[GLOBAL_ACC_R][RESERVATION_FAIL] = 172060
	L2_cache_stats_breakdown[CONST_ACC_R][HIT] = 11
	L2_cache_stats_breakdown[CONST_ACC_R][HIT_RESERVED] = 3
	L2_cache_stats_breakdown[CONST_ACC_R][MISS] = 1
	L2_cache_stats_breakdown[CONST_ACC_R][RESERVATION_FAIL] = 109
	L2_cache_stats_breakdown[GLOBAL_ACC_W][HIT] = 38893
	L2_cache_stats_breakdown[GLOBAL_ACC_W][HIT_RESERVED] = 1441
	L2_cache_stats_breakdown[GLOBAL_ACC_W][MISS] = 1024
	L2_cache_stats_breakdown[GLOBAL_ACC_W][RESERVATION_FAIL] = 5
	L2_cache_stats_breakdown[INST_ACC_R][HIT] = 77
	L2_cache_stats_breakdown[INST_ACC_R][HIT_RESERVED] = 21
	L2_cache_stats_breakdown[INST_ACC_R][MISS] = 7
	L2_cache_stats_breakdown[INST_ACC_R][RESERVATION_FAIL] = 579
L2_cache_data_port_util = 0.008
L2_cache_fill_port_util = 0.106

icnt_total_pkts_mem_to_simt=5761983
icnt_total_pkts_simt_to_mem=1316228
LD_mem_lat_dist  0 0 0 0 0 0 0 0 0 0 0 0 0 0 0 0 0 0 0 0 0 0 0 0 0 0 0
ST_mem_lat_dist  0 0 0 0 0 0 0 0 0 0 0 0 0 0 0 0 0 0 0 0 0 0 0 0 0 0 0
----------------------------Interconnect-DETAILS--------------------------------
Class 0:
Packet latency average = 11.3377
	minimum = 6
	maximum = 180
Network latency average = 10.0995
	minimum = 6
	maximum = 180
Slowest packet = 1700633
Flit latency average = 8.96905
	minimum = 6
	maximum = 180
Slowest flit = 5070444
Fragmentation average = 0.00034953
	minimum = 0
	maximum = 139
Injected packet rate average = 0.0243598
	minimum = 0.0205812 (at node 1)
	maximum = 0.0290699 (at node 18)
Accepted packet rate average = 0.0243598
	minimum = 0.0205812 (at node 1)
	maximum = 0.0290699 (at node 18)
Injected flit rate average = 0.0729441
	minimum = 0.0218217 (at node 11)
	maximum = 0.143395 (at node 18)
Accepted flit rate average= 0.0729441
	minimum = 0.0284914 (at node 16)
	maximum = 0.113833 (at node 0)
Injected packet length average = 2.99445
Accepted packet length average = 2.99445
Total in-flight flits = 0 (0 measured)
====== Overall Traffic Statistics ======
====== Traffic class 0 ======
Packet latency average = 12.1875 (2 samples)
	minimum = 6 (2 samples)
	maximum = 317 (2 samples)
Network latency average = 10.6236 (2 samples)
	minimum = 6 (2 samples)
	maximum = 299 (2 samples)
Flit latency average = 9.28401 (2 samples)
	minimum = 6 (2 samples)
	maximum = 299 (2 samples)
Fragmentation average = 0.00483256 (2 samples)
	minimum = 0 (2 samples)
	maximum = 222 (2 samples)
Injected packet rate average = 0.0250932 (2 samples)
	minimum = 0.0211961 (2 samples)
	maximum = 0.029964 (2 samples)
Accepted packet rate average = 0.0250932 (2 samples)
	minimum = 0.0211961 (2 samples)
	maximum = 0.029964 (2 samples)
Injected flit rate average = 0.0749138 (2 samples)
	minimum = 0.0235156 (2 samples)
	maximum = 0.145923 (2 samples)
Accepted flit rate average = 0.0749138 (2 samples)
	minimum = 0.030673 (2 samples)
	maximum = 0.115731 (2 samples)
Injected packet size average = 2.98542 (2 samples)
Accepted packet size average = 2.98542 (2 samples)
Hops average = 1 (2 samples)
