

        *** GPGPU-Sim Simulator Version 3.2.2  [build 0] ***


GPGPU-Sim PTX: simulation mode 0 (can change with PTX_SIM_MODE_FUNC environment variable:
               1=functional simulation only, 0=detailed performance simulator)
GPGPU-Sim: Configuration options:

-network_mode                           1 # Interconnection network mode
-inter_config_file   config_fermi_islip.icnt # Interconnection network config file
-gpgpu_ptx_use_cuobjdump                    1 # Use cuobjdump to extract ptx and sass from binaries
-gpgpu_experimental_lib_support                    0 # Try to extract code from cuda libraries [Broken because of unknown cudaGetExportTable]
-gpgpu_ptx_convert_to_ptxplus                    0 # Convert SASS (native ISA) to ptxplus and run ptxplus
-gpgpu_ptx_force_max_capability                   20 # Force maximum compute capability
-gpgpu_ptx_inst_debug_to_file                    0 # Dump executed instructions' debug information to file
-gpgpu_ptx_inst_debug_file       inst_debug.txt # Executed instructions' debug output file
-gpgpu_ptx_inst_debug_thread_uid                    1 # Thread UID for executed instructions' debug output
-gpgpu_simd_model                       1 # 1 = post-dominator
-gpgpu_shader_core_pipeline              1536:32 # shader core pipeline config, i.e., {<nthread>:<warpsize>}
-gpgpu_tex_cache:l1  4:128:24,L:R:m:N:L,F:128:4,128:2 # per-shader L1 texture cache  (READ-ONLY) config  {<nsets>:<bsize>:<assoc>,<rep>:<wr>:<alloc>:<wr_alloc>,<mshr>:<N>:<merge>,<mq>:<rf>}
-gpgpu_const_cache:l1 64:64:2,L:R:f:N:L,A:2:32,4 # per-shader L1 constant memory cache  (READ-ONLY) config  {<nsets>:<bsize>:<assoc>,<rep>:<wr>:<alloc>:<wr_alloc>,<mshr>:<N>:<merge>,<mq>} 
-gpgpu_cache:il1     4:128:4,L:R:f:N:L,A:2:32,4 # shader L1 instruction cache config  {<nsets>:<bsize>:<assoc>,<rep>:<wr>:<alloc>:<wr_alloc>,<mshr>:<N>:<merge>,<mq>} 
-gpgpu_cache:dl1     32:128:4,L:L:m:N:H,A:32:8,8:2,0,0:0:1:1:0:1,1:4:8:16:32:64,/sciclone/data10/hwang07/GPU_RESEARCH/swl/swl_outputs/RESULTS/ # per-shader L1 data cache config  {<nsets>:<bsize>:<assoc>,<rep>:<wr>:<alloc>:<wr_alloc>,<mshr>:<N>:<merge>,<mq> | none}
-gpgpu_cache:dl1PrefL1                 none # per-shader L1 data cache config  {<nsets>:<bsize>:<assoc>,<rep>:<wr>:<alloc>:<wr_alloc>,<mshr>:<N>:<merge>,<mq> | none}
-gpgpu_cache:dl1PreShared                 none # per-shader L1 data cache config  {<nsets>:<bsize>:<assoc>,<rep>:<wr>:<alloc>:<wr_alloc>,<mshr>:<N>:<merge>,<mq> | none}
-gmem_skip_L1D                          0 # global memory access skip L1D cache (implements -Xptxas -dlcm=cg, default=no skip)
-gpgpu_perfect_mem                      0 # enable perfect memory mode (no cache miss)
-n_regfile_gating_group                    4 # group of lanes that should be read/written together)
-gpgpu_clock_gated_reg_file                    0 # enable clock gated reg file for power calculations
-gpgpu_clock_gated_lanes                    0 # enable clock gated lanes for power calculations
-gpgpu_shader_registers                32768 # Number of registers per shader core. Limits number of concurrent CTAs. (default 8192)
-gpgpu_shader_cta                       8 # Maximum number of concurrent CTAs in shader (default 8)
-gpgpu_num_cta_barriers                   16 # Maximum number of named barriers per CTA (default 16)
-gpgpu_n_clusters                      15 # number of processing clusters
-gpgpu_n_cores_per_cluster                    1 # number of simd cores per cluster
-gpgpu_n_cluster_ejection_buffer_size                    8 # number of packets in ejection buffer
-gpgpu_n_ldst_response_buffer_size                    2 # number of response packets in ld/st unit ejection buffer
-gpgpu_shmem_size                   16384 # Size of shared memory per shader core (default 16kB)
-gpgpu_shmem_size                   49152 # Size of shared memory per shader core (default 16kB)
-gpgpu_shmem_size_PrefL1                16384 # Size of shared memory per shader core (default 16kB)
-gpgpu_shmem_size_PrefShared                16384 # Size of shared memory per shader core (default 16kB)
-gpgpu_shmem_num_banks                   32 # Number of banks in the shared memory in each shader core (default 16)
-gpgpu_shmem_limited_broadcast                    0 # Limit shared memory to do one broadcast per cycle (default on)
-gpgpu_shmem_warp_parts                    1 # Number of portions a warp is divided into for shared memory bank conflict check 
-gpgpu_warpdistro_shader                   -1 # Specify which shader core to collect the warp size distribution from
-gpgpu_warp_issue_shader                    0 # Specify which shader core to collect the warp issue distribution from
-gpgpu_local_mem_map                    1 # Mapping from local memory space address to simulated GPU physical address space (default = enabled)
-gpgpu_num_reg_banks                   16 # Number of register banks (default = 8)
-gpgpu_reg_bank_use_warp_id                    0 # Use warp ID in mapping registers to banks (default = off)
-gpgpu_operand_collector_num_units_sp                    6 # number of collector units (default = 4)
-gpgpu_operand_collector_num_units_sfu                    8 # number of collector units (default = 4)
-gpgpu_operand_collector_num_units_mem                    2 # number of collector units (default = 2)
-gpgpu_operand_collector_num_units_gen                    0 # number of collector units (default = 0)
-gpgpu_operand_collector_num_in_ports_sp                    2 # number of collector unit in ports (default = 1)
-gpgpu_operand_collector_num_in_ports_sfu                    1 # number of collector unit in ports (default = 1)
-gpgpu_operand_collector_num_in_ports_mem                    1 # number of collector unit in ports (default = 1)
-gpgpu_operand_collector_num_in_ports_gen                    0 # number of collector unit in ports (default = 0)
-gpgpu_operand_collector_num_out_ports_sp                    2 # number of collector unit in ports (default = 1)
-gpgpu_operand_collector_num_out_ports_sfu                    1 # number of collector unit in ports (default = 1)
-gpgpu_operand_collector_num_out_ports_mem                    1 # number of collector unit in ports (default = 1)
-gpgpu_operand_collector_num_out_ports_gen                    0 # number of collector unit in ports (default = 0)
-gpgpu_coalesce_arch                   13 # Coalescing arch (default = 13, anything else is off for now)
-gpgpu_num_sched_per_core                    2 # Number of warp schedulers per core
-gpgpu_max_insn_issue_per_warp                    1 # Max number of instructions that can be issued per warp in one cycle by scheduler
-gpgpu_simt_core_sim_order                    1 # Select the simulation order of cores in a cluster (0=Fix, 1=Round-Robin)
-gpgpu_pipeline_widths        2,1,1,2,1,1,2 # Pipeline widths ID_OC_SP,ID_OC_SFU,ID_OC_MEM,OC_EX_SP,OC_EX_SFU,OC_EX_MEM,EX_WB
-gpgpu_num_sp_units                     2 # Number of SP units (default=1)
-gpgpu_num_sfu_units                    1 # Number of SF units (default=1)
-gpgpu_num_mem_units                    1 # Number if ldst units (default=1) WARNING: not hooked up to anything
-gpgpu_scheduler      warp_limiting:2:1:1 # Scheduler configuration: < lrr | gto | two_level_active > If two_level_active:<num_active_warps>:<inner_prioritization>:<outer_prioritization>For complete list of prioritization values see shader.h enum scheduler_prioritization_typeDefault: gto
-gpgpu_dram_scheduler                    1 # 0 = fifo, 1 = FR-FCFS (defaul)
-gpgpu_dram_partition_queues              8:8:8:8 # i2$:$2d:d2$:$2i
-l2_ideal                               0 # Use a ideal L2 cache that always hit
-gpgpu_cache:dl2     64:128:8,L:B:m:W:L,A:32:4,4:0,32 # unified banked L2 data cache config  {<nsets>:<bsize>:<assoc>,<rep>:<wr>:<alloc>:<wr_alloc>,<mshr>:<N>:<merge>,<mq>}
-gpgpu_cache:dl2_texture_only                    0 # L2 cache used for texture only
-gpgpu_n_mem                            6 # number of memory modules (e.g. memory controllers) in gpu
-gpgpu_n_sub_partition_per_mchannel                    2 # number of memory subpartition in each memory module
-gpgpu_n_mem_per_ctrlr                    2 # number of memory chips per memory controller
-gpgpu_memlatency_stat                   14 # track and display latency statistics 0x2 enables MC, 0x4 enables queue logs
-gpgpu_frfcfs_dram_sched_queue_size                   16 # 0 = unlimited (default); # entries per chip
-gpgpu_dram_return_queue_size                  116 # 0 = unlimited (default); # entries per chip
-gpgpu_dram_buswidth                    4 # default = 4 bytes (8 bytes per cycle at DDR)
-gpgpu_dram_burst_length                    8 # Burst length of each DRAM request (default = 4 data bus cycle)
-dram_data_command_freq_ratio                    4 # Frequency ratio between DRAM data bus and command bus (default = 2 times, i.e. DDR)
-gpgpu_dram_timing_opt nbk=16:CCD=2:RRD=6:RCD=12:RAS=28:RP=12:RC=40: CL=12:WL=4:CDLR=5:WR=12:nbkgrp=4:CCDL=3:RTPL=2 # DRAM timing parameters = {nbk:tCCD:tRRD:tRCD:tRAS:tRP:tRC:CL:WL:tCDLR:tWR:nbkgrp:tCCDL:tRTPL}
-rop_latency                          120 # ROP queue latency (default 85)
-dram_latency                         100 # DRAM latency (default 30)
-gpgpu_mem_addr_mapping dramid@8;00000000.00000000.00000000.00000000.0000RRRR.RRRRRRRR.BBBCCCCB.CCSSSSSS # mapping memory address to dram model {dramid@<start bit>;<memory address map>}
-gpgpu_mem_addr_test                    0 # run sweep test to check address mapping for aliased address
-gpgpu_mem_address_mask                    1 # 0 = old addressing mask, 1 = new addressing mask, 2 = new add. mask + flipped bank sel and chip sel bits
-gpuwattch_xml_file  gpuwattch_gtx480.xml # GPUWattch XML file
-power_simulation_enabled                    0 # Turn on power simulator (1=On, 0=Off)
-power_per_cycle_dump                    0 # Dump detailed power output each cycle
-power_trace_enabled                    0 # produce a file for the power trace (1=On, 0=Off)
-power_trace_zlevel                     6 # Compression level of the power trace output log (0=no comp, 9=highest)
-steady_power_levels_enabled                    0 # produce a file for the steady power levels (1=On, 0=Off)
-steady_state_definition                  8:4 # allowed deviation:number of samples
-gpgpu_max_cycle                        0 # terminates gpu simulation early (0 = no limit)
-gpgpu_max_insn                         0 # terminates gpu simulation early (0 = no limit)
-gpgpu_max_cta                          0 # terminates gpu simulation early (0 = no limit)
-gpgpu_runtime_stat                   500 # display runtime statistics such as dram utilization {<freq>:<flag>}
-liveness_message_freq                    1 # Minimum number of seconds between simulation liveness messages (0 = always print)
-gpgpu_flush_l1_cache                    0 # Flush L1 cache at the end of each kernel call
-gpgpu_flush_l2_cache                    0 # Flush L2 cache at the end of each kernel call
-gpgpu_deadlock_detect                    1 # Stop the simulation at deadlock (1=on (default), 0=off)
-gpgpu_ptx_instruction_classification                    0 # if enabled will classify ptx instruction types per kernel (Max 255 kernels now)
-gpgpu_ptx_sim_mode                     0 # Select between Performance (default) or Functional simulation (1)
-gpgpu_clock_domains 700.0:700.0:700.0:924.0 # Clock Domain Frequencies in MhZ {<Core Clock>:<ICNT Clock>:<L2 Clock>:<DRAM Clock>}
-gpgpu_max_concurrent_kernel                    8 # maximum kernels that can run concurrently on GPU
-gpgpu_cflog_interval                    0 # Interval between each snapshot in control flow logger
-visualizer_enabled                     0 # Turn on visualizer output (1=On, 0=Off)
-visualizer_outputfile                 NULL # Specifies the output log file for visualizer
-visualizer_zlevel                      6 # Compression level of the visualizer output log (0=no comp, 9=highest)
-trace_enabled                          0 # Turn on traces
-trace_components                    none # comma seperated list of traces to enable. Complete list found in trace_streams.tup. Default none
-trace_sampling_core                    0 # The core which is printed using CORE_DPRINTF. Default 0
-trace_sampling_memory_partition                   -1 # The memory partition which is printed using MEMPART_DPRINTF. Default -1 (i.e. all)
-enable_ptx_file_line_stats                    1 # Turn on PTX source line statistic profiling. (1 = On)
-ptx_line_stats_filename gpgpu_inst_stats.txt # Output file for PTX source line statistics.
-save_embedded_ptx                      0 # saves ptx files embedded in binary as <n>.ptx
-keep                                   0 # keep intermediate files created by GPGPU-Sim when interfacing with external programs
-gpgpu_ptx_save_converted_ptxplus                    0 # Saved converted ptxplus to a file
-ptx_opcode_latency_int         4,13,4,5,145 # Opcode latencies for integers <ADD,MAX,MUL,MAD,DIV>Default 1,1,19,25,145
-ptx_opcode_latency_fp          4,13,4,5,39 # Opcode latencies for single precision floating points <ADD,MAX,MUL,MAD,DIV>Default 1,1,1,1,30
-ptx_opcode_latency_dp         8,19,8,8,330 # Opcode latencies for double precision floating points <ADD,MAX,MUL,MAD,DIV>Default 8,8,8,8,335
-ptx_opcode_initiation_int            1,2,2,1,8 # Opcode initiation intervals for integers <ADD,MAX,MUL,MAD,DIV>Default 1,1,4,4,32
-ptx_opcode_initiation_fp            1,2,1,1,4 # Opcode initiation intervals for single precision floating points <ADD,MAX,MUL,MAD,DIV>Default 1,1,1,1,5
-ptx_opcode_initiation_dp         8,16,8,8,130 # Opcode initiation intervals for double precision floating points <ADD,MAX,MUL,MAD,DIV>Default 8,8,8,8,130
DRAM Timing Options:
nbk                                    16 # number of banks
CCD                                     2 # column to column delay
RRD                                     6 # minimal delay between activation of rows in different banks
RCD                                    12 # row to column delay
RAS                                    28 # time needed to activate row
RP                                     12 # time needed to precharge (deactivate) row
RC                                     40 # row cycle time
CDLR                                    5 # switching from write to read (changes tWTR)
WR                                     12 # last data-in to row precharge
CL                                     12 # CAS latency
WL                                      4 # Write latency
nbkgrp                                  4 # number of bank groups
CCDL                                    3 # column to column delay between accesses to different bank groups
RTPL                                    2 # read to precharge delay between accesses to different bank groups
Total number of memory sub partition = 12
addr_dec_mask[CHIP]  = 0000000000000000 	high:64 low:0
addr_dec_mask[BK]    = 000000000000e100 	high:16 low:8
addr_dec_mask[ROW]   = 000000000fff0000 	high:28 low:16
addr_dec_mask[COL]   = 0000000000001eff 	high:13 low:0
addr_dec_mask[BURST] = 000000000000003f 	high:6 low:0
sub_partition_id_mask = 0000000000000100
GPGPU-Sim uArch: clock freqs: 700000000.000000:700000000.000000:700000000.000000:924000000.000000
GPGPU-Sim uArch: clock periods: 0.00000000142857142857:0.00000000142857142857:0.00000000142857142857:0.00000000108225108225
*** Initializing Memory Statistics ***
GPGPU-Sim uArch: interconnect node map (shaderID+MemID to icntID)
GPGPU-Sim uArch: Memory nodes ID start from index: 15
GPGPU-Sim uArch:    0   1   2   3   4
GPGPU-Sim uArch:    5   6   7   8   9
GPGPU-Sim uArch:   10  11  12  13  14
GPGPU-Sim uArch:   15  16  17  18  19
GPGPU-Sim uArch:   20  21  22  23  24
GPGPU-Sim uArch:   25  26
GPGPU-Sim uArch: interconnect node reverse map (icntID to shaderID+MemID)
GPGPU-Sim uArch: Memory nodes start from ID: 15
GPGPU-Sim uArch:    0   1   2   3   4
GPGPU-Sim uArch:    5   6   7   8   9
GPGPU-Sim uArch:   10  11  12  13  14
GPGPU-Sim uArch:   15  16  17  18  19
GPGPU-Sim uArch:   20  21  22  23  24
GPGPU-Sim uArch:   25  26
e389dacb331e7fcddf4abf4a164344f1  /sciclone/data10/hwang07/adwait/applications/benchmarks/CUDA/BlackScholes/gpgpu_ptx_sim__BlackScholes
GPGPU-Sim uArch: performance model initialization complete.
GPGPU-Sim PTX: __cudaRegisterFatBinary, fat_cubin_handle = 1, filename=BlackScholes.cu
self exe links to: /sciclone/data10/hwang07/adwait/applications/benchmarks/CUDA/BlackScholes/gpgpu_ptx_sim__BlackScholes
Running md5sum using "md5sum /sciclone/data10/hwang07/adwait/applications/benchmarks/CUDA/BlackScholes/gpgpu_ptx_sim__BlackScholes "
Parsing file _cuobjdump_complete_output_qBMd8w
######### cuobjdump parser ########
## Adding new section ELF
Adding arch: sm_20
Adding identifier: BlackScholes.cu
## Adding new section PTX
Adding ptx filename: _cuobjdump_1.ptx
Adding arch: sm_20
Adding identifier: BlackScholes.cu
Done parsing!!!
GPGPU-Sim PTX: __cudaRegisterFunction _Z15BlackScholesGPUPfS_S_S_S_ffi : hostFun 0x0x405752, fat_cubin_handle = 1
GPGPU-Sim PTX: instruction assembly for function '_Z15BlackScholesGPUPfS_S_S_S_ffi'...   done.
GPGPU-Sim PTX: finding reconvergence points for '_Z15BlackScholesGPUPfS_S_S_S_ffi'...
GPGPU-Sim PTX: Finding dominators for '_Z15BlackScholesGPUPfS_S_S_S_ffi'...
GPGPU-Sim PTX: Finding immediate dominators for '_Z15BlackScholesGPUPfS_S_S_S_ffi'...
GPGPU-Sim PTX: Finding postdominators for '_Z15BlackScholesGPUPfS_S_S_S_ffi'...
GPGPU-Sim PTX: Finding immediate postdominators for '_Z15BlackScholesGPUPfS_S_S_S_ffi'...
GPGPU-Sim PTX: pre-decoding instructions for '_Z15BlackScholesGPUPfS_S_S_S_ffi'...
GPGPU-Sim PTX: reconvergence points for _Z15BlackScholesGPUPfS_S_S_S_ffi...
GPGPU-Sim PTX:  1 (potential) branch divergence @  PC=0x040 (_1.ptx:76) @%p1 bra $Lt_0_2818;
GPGPU-Sim PTX:    immediate post dominator      @  PC=0x3f8 (_1.ptx:200) exit;
GPGPU-Sim PTX:  2 (potential) branch divergence @  PC=0x3f0 (_1.ptx:197) @%p4 bra $Lt_0_3330;
GPGPU-Sim PTX:    immediate post dominator      @  PC=0x3f8 (_1.ptx:200) exit;
GPGPU-Sim PTX: ... end of reconvergence points for _Z15BlackScholesGPUPfS_S_S_S_ffi
GPGPU-Sim PTX: ... done pre-decoding instructions for '_Z15BlackScholesGPUPfS_S_S_S_ffi'.
GPGPU-Sim PTX: finished parsing EMBEDDED .ptx file _1.ptx
Adding _cuobjdump_1.ptx with cubin handle 1
GPGPU-Sim PTX: extracting embedded .ptx to temporary file "_ptx_qRgU2r"
Running: cat _ptx_qRgU2r | sed 's/.version 1.5/.version 1.4/' | sed 's/, texmode_independent//' | sed 's/\(\.extern \.const\[1\] .b8 \w\+\)\[\]/\1\[1\]/' | sed 's/const\[.\]/const\[0\]/g' > _ptx2_cSuBon
GPGPU-Sim PTX: generating ptxinfo using "$CUDA_INSTALL_PATH/bin/ptxas --gpu-name=sm_20 -v _ptx2_cSuBon --output-file  /dev/null 2> _ptx_qRgU2rinfo"
GPGPU-Sim PTX: Kernel '_Z15BlackScholesGPUPfS_S_S_S_ffi' : regs=31, lmem=0, smem=0, cmem=128
GPGPU-Sim PTX: removing ptxinfo using "rm -f _ptx_qRgU2r _ptx2_cSuBon _ptx_qRgU2rinfo"
GPGPU-Sim PTX: loading globals with explicit initializers... 
GPGPU-Sim PTX: finished loading globals (0 bytes total).
GPGPU-Sim PTX: loading constants with explicit initializers...  done.
Initializing data...
...allocating CPU memory for options.
...allocating GPU memory for options.
...generating input data in CPU mem.
...copying input data to GPU mem.
Data init done.
Executing Black-Scholes GPU kernel (1 iterations)...
GPGPU-Sim: synchronize waiting for inactive GPU simulation
GPGPU-Sim API: Stream Manager State
GPGPU-Sim: detected inactive GPU simulation thread

GPGPU-Sim PTX: cudaLaunch for 0x0x405752 (mode=performance simulation) on stream 0
GPGPU-Sim PTX: pushing kernel '_Z15BlackScholesGPUPfS_S_S_S_ffi' to stream 0, gridDim= (480,1,1) blockDim = (128,1,1) 
kernel '_Z15BlackScholesGPUPfS_S_S_S_ffi' transfer to GPU hardware scheduler
GPGPU-Sim uArch: Shader 1 bind to kernel 1 '_Z15BlackScholesGPUPfS_S_S_S_ffi'
GPGPU-Sim uArch: CTA/core = 8, limited by: regs cta_limit
GPGPU-Sim uArch: core:  1, cta: 0 initialized @(1,0)
GPGPU-Sim uArch: Shader 2 bind to kernel 1 '_Z15BlackScholesGPUPfS_S_S_S_ffi'
GPGPU-Sim uArch: core:  2, cta: 0 initialized @(1,0)
GPGPU-Sim uArch: Shader 3 bind to kernel 1 '_Z15BlackScholesGPUPfS_S_S_S_ffi'
GPGPU-Sim uArch: core:  3, cta: 0 initialized @(1,0)
GPGPU-Sim uArch: Shader 4 bind to kernel 1 '_Z15BlackScholesGPUPfS_S_S_S_ffi'
GPGPU-Sim uArch: core:  4, cta: 0 initialized @(1,0)
GPGPU-Sim uArch: Shader 5 bind to kernel 1 '_Z15BlackScholesGPUPfS_S_S_S_ffi'
GPGPU-Sim uArch: core:  5, cta: 0 initialized @(1,0)
GPGPU-Sim uArch: Shader 6 bind to kernel 1 '_Z15BlackScholesGPUPfS_S_S_S_ffi'
GPGPU-Sim uArch: core:  6, cta: 0 initialized @(1,0)
GPGPU-Sim uArch: Shader 7 bind to kernel 1 '_Z15BlackScholesGPUPfS_S_S_S_ffi'
GPGPU-Sim uArch: core:  7, cta: 0 initialized @(1,0)
GPGPU-Sim uArch: Shader 8 bind to kernel 1 '_Z15BlackScholesGPUPfS_S_S_S_ffi'
GPGPU-Sim uArch: core:  8, cta: 0 initialized @(1,0)
GPGPU-Sim uArch: Shader 9 bind to kernel 1 '_Z15BlackScholesGPUPfS_S_S_S_ffi'
GPGPU-Sim uArch: core:  9, cta: 0 initialized @(1,0)
GPGPU-Sim uArch: Shader 10 bind to kernel 1 '_Z15BlackScholesGPUPfS_S_S_S_ffi'
GPGPU-Sim uArch: core: 10, cta: 0 initialized @(1,0)
GPGPU-Sim uArch: Shader 11 bind to kernel 1 '_Z15BlackScholesGPUPfS_S_S_S_ffi'
GPGPU-Sim uArch: core: 11, cta: 0 initialized @(1,0)
GPGPU-Sim uArch: Shader 12 bind to kernel 1 '_Z15BlackScholesGPUPfS_S_S_S_ffi'
GPGPU-Sim uArch: core: 12, cta: 0 initialized @(1,0)
GPGPU-Sim uArch: Shader 13 bind to kernel 1 '_Z15BlackScholesGPUPfS_S_S_S_ffi'
GPGPU-Sim uArch: core: 13, cta: 0 initialized @(1,0)
GPGPU-Sim uArch: Shader 14 bind to kernel 1 '_Z15BlackScholesGPUPfS_S_S_S_ffi'
GPGPU-Sim uArch: core: 14, cta: 0 initialized @(1,0)
GPGPU-Sim uArch: Shader 0 bind to kernel 1 '_Z15BlackScholesGPUPfS_S_S_S_ffi'
GPGPU-Sim uArch: core:  0, cta: 0 initialized @(1,0)
GPGPU-Sim uArch: core:  1, cta: 1 initialized @(2,0)
GPGPU-Sim uArch: core:  2, cta: 1 initialized @(2,0)
GPGPU-Sim uArch: core:  3, cta: 1 initialized @(2,0)
GPGPU-Sim uArch: core:  4, cta: 1 initialized @(2,0)
GPGPU-Sim uArch: core:  5, cta: 1 initialized @(2,0)
GPGPU-Sim uArch: core:  6, cta: 1 initialized @(2,0)
GPGPU-Sim uArch: core:  7, cta: 1 initialized @(2,0)
GPGPU-Sim uArch: core:  8, cta: 1 initialized @(2,0)
GPGPU-Sim uArch: core:  9, cta: 1 initialized @(2,0)
GPGPU-Sim uArch: core: 10, cta: 1 initialized @(2,0)
GPGPU-Sim uArch: core: 11, cta: 1 initialized @(2,0)
GPGPU-Sim uArch: core: 12, cta: 1 initialized @(2,0)
GPGPU-Sim uArch: core: 13, cta: 1 initialized @(2,0)
GPGPU-Sim uArch: core: 14, cta: 1 initialized @(2,0)
GPGPU-Sim uArch: core:  0, cta: 1 initialized @(2,0)
GPGPU-Sim uArch: core:  1, cta: 2 initialized @(3,0)
GPGPU-Sim uArch: core:  2, cta: 2 initialized @(3,0)
GPGPU-Sim uArch: core:  3, cta: 2 initialized @(3,0)
GPGPU-Sim uArch: core:  4, cta: 2 initialized @(3,0)
GPGPU-Sim uArch: core:  5, cta: 2 initialized @(3,0)
GPGPU-Sim uArch: core:  6, cta: 2 initialized @(3,0)
GPGPU-Sim uArch: core:  7, cta: 2 initialized @(3,0)
GPGPU-Sim uArch: core:  8, cta: 2 initialized @(3,0)
GPGPU-Sim uArch: core:  9, cta: 2 initialized @(3,0)
GPGPU-Sim uArch: core: 10, cta: 2 initialized @(3,0)
GPGPU-Sim uArch: core: 11, cta: 2 initialized @(3,0)
GPGPU-Sim uArch: core: 12, cta: 2 initialized @(3,0)
GPGPU-Sim uArch: core: 13, cta: 2 initialized @(3,0)
GPGPU-Sim uArch: core: 14, cta: 2 initialized @(3,0)
GPGPU-Sim uArch: core:  0, cta: 2 initialized @(3,0)
GPGPU-Sim uArch: core:  1, cta: 3 initialized @(4,0)
GPGPU-Sim uArch: core:  2, cta: 3 initialized @(4,0)
GPGPU-Sim uArch: core:  3, cta: 3 initialized @(4,0)
GPGPU-Sim uArch: core:  4, cta: 3 initialized @(4,0)
GPGPU-Sim uArch: core:  5, cta: 3 initialized @(4,0)
GPGPU-Sim uArch: core:  6, cta: 3 initialized @(4,0)
GPGPU-Sim uArch: core:  7, cta: 3 initialized @(4,0)
GPGPU-Sim uArch: core:  8, cta: 3 initialized @(4,0)
GPGPU-Sim uArch: core:  9, cta: 3 initialized @(4,0)
GPGPU-Sim uArch: core: 10, cta: 3 initialized @(4,0)
GPGPU-Sim uArch: core: 11, cta: 3 initialized @(4,0)
GPGPU-Sim uArch: core: 12, cta: 3 initialized @(4,0)
GPGPU-Sim uArch: core: 13, cta: 3 initialized @(4,0)
GPGPU-Sim uArch: core: 14, cta: 3 initialized @(4,0)
GPGPU-Sim uArch: core:  0, cta: 3 initialized @(4,0)
GPGPU-Sim uArch: core:  1, cta: 4 initialized @(5,0)
GPGPU-Sim uArch: core:  2, cta: 4 initialized @(5,0)
GPGPU-Sim uArch: core:  3, cta: 4 initialized @(5,0)
GPGPU-Sim uArch: core:  4, cta: 4 initialized @(5,0)
GPGPU-Sim uArch: core:  5, cta: 4 initialized @(5,0)
GPGPU-Sim uArch: core:  6, cta: 4 initialized @(5,0)
GPGPU-Sim uArch: core:  7, cta: 4 initialized @(5,0)
GPGPU-Sim uArch: core:  8, cta: 4 initialized @(5,0)
GPGPU-Sim uArch: core:  9, cta: 4 initialized @(5,0)
GPGPU-Sim uArch: core: 10, cta: 4 initialized @(5,0)
GPGPU-Sim uArch: core: 11, cta: 4 initialized @(5,0)
GPGPU-Sim uArch: core: 12, cta: 4 initialized @(5,0)
GPGPU-Sim uArch: core: 13, cta: 4 initialized @(5,0)
GPGPU-Sim uArch: core: 14, cta: 4 initialized @(5,0)
GPGPU-Sim uArch: core:  0, cta: 4 initialized @(5,0)
GPGPU-Sim uArch: core:  1, cta: 5 initialized @(6,0)
GPGPU-Sim uArch: core:  2, cta: 5 initialized @(6,0)
GPGPU-Sim uArch: core:  3, cta: 5 initialized @(6,0)
GPGPU-Sim uArch: core:  4, cta: 5 initialized @(6,0)
GPGPU-Sim uArch: core:  5, cta: 5 initialized @(6,0)
GPGPU-Sim uArch: core:  6, cta: 5 initialized @(6,0)
GPGPU-Sim uArch: core:  7, cta: 5 initialized @(6,0)
GPGPU-Sim uArch: core:  8, cta: 5 initialized @(6,0)
GPGPU-Sim uArch: core:  9, cta: 5 initialized @(6,0)
GPGPU-Sim uArch: core: 10, cta: 5 initialized @(6,0)
GPGPU-Sim uArch: core: 11, cta: 5 initialized @(6,0)
GPGPU-Sim uArch: core: 12, cta: 5 initialized @(6,0)
GPGPU-Sim uArch: core: 13, cta: 5 initialized @(6,0)
GPGPU-Sim uArch: core: 14, cta: 5 initialized @(6,0)
GPGPU-Sim uArch: core:  0, cta: 5 initialized @(6,0)
GPGPU-Sim uArch: core:  1, cta: 6 initialized @(7,0)
GPGPU-Sim uArch: core:  2, cta: 6 initialized @(7,0)
GPGPU-Sim uArch: core:  3, cta: 6 initialized @(7,0)
GPGPU-Sim uArch: core:  4, cta: 6 initialized @(7,0)
GPGPU-Sim uArch: core:  5, cta: 6 initialized @(7,0)
GPGPU-Sim uArch: core:  6, cta: 6 initialized @(7,0)
GPGPU-Sim uArch: core:  7, cta: 6 initialized @(7,0)
GPGPU-Sim uArch: core:  8, cta: 6 initialized @(7,0)
GPGPU-Sim uArch: core:  9, cta: 6 initialized @(7,0)
GPGPU-Sim uArch: core: 10, cta: 6 initialized @(7,0)
GPGPU-Sim uArch: core: 11, cta: 6 initialized @(7,0)
GPGPU-Sim uArch: core: 12, cta: 6 initialized @(7,0)
GPGPU-Sim uArch: core: 13, cta: 6 initialized @(7,0)
GPGPU-Sim uArch: core: 14, cta: 6 initialized @(7,0)
GPGPU-Sim uArch: core:  0, cta: 6 initialized @(7,0)
GPGPU-Sim uArch: core:  1, cta: 7 initialized @(8,0)
GPGPU-Sim uArch: core:  2, cta: 7 initialized @(8,0)
GPGPU-Sim uArch: core:  3, cta: 7 initialized @(8,0)
GPGPU-Sim uArch: core:  4, cta: 7 initialized @(8,0)
GPGPU-Sim uArch: core:  5, cta: 7 initialized @(8,0)
GPGPU-Sim uArch: core:  6, cta: 7 initialized @(8,0)
GPGPU-Sim uArch: core:  7, cta: 7 initialized @(8,0)
GPGPU-Sim uArch: core:  8, cta: 7 initialized @(8,0)
GPGPU-Sim uArch: core:  9, cta: 7 initialized @(8,0)
GPGPU-Sim uArch: core: 10, cta: 7 initialized @(8,0)
GPGPU-Sim uArch: core: 11, cta: 7 initialized @(8,0)
GPGPU-Sim uArch: core: 12, cta: 7 initialized @(8,0)
GPGPU-Sim uArch: core: 13, cta: 7 initialized @(8,0)
GPGPU-Sim uArch: core: 14, cta: 7 initialized @(8,0)
GPGPU-Sim uArch: core:  0, cta: 7 initialized @(8,0)
GPGPU-Sim uArch: cycles simulated: 500  inst.: 5760 (ipc=11.5) sim_rate=2880 (inst/sec) elapsed = 0:0:00:02 / Tue Mar 22 07:01:08 2016
GPGPU-Sim PTX: 100000 instructions simulated : ctaid=(6,0,0) tid=(127,0,0)
GPGPU-Sim PTX: 200000 instructions simulated : ctaid=(5,0,0) tid=(31,0,0)
GPGPU-Sim uArch: cycles simulated: 2500  inst.: 217312 (ipc=86.9) sim_rate=72437 (inst/sec) elapsed = 0:0:00:03 / Tue Mar 22 07:01:09 2016
GPGPU-Sim PTX: 300000 instructions simulated : ctaid=(15,0,0) tid=(127,0,0)
GPGPU-Sim PTX: 400000 instructions simulated : ctaid=(29,0,0) tid=(63,0,0)
GPGPU-Sim PTX: 500000 instructions simulated : ctaid=(31,0,0) tid=(63,0,0)
GPGPU-Sim PTX: 600000 instructions simulated : ctaid=(6,0,0) tid=(63,0,0)
GPGPU-Sim PTX: 700000 instructions simulated : ctaid=(31,0,0) tid=(63,0,0)
GPGPU-Sim PTX: 800000 instructions simulated : ctaid=(54,0,0) tid=(31,0,0)
GPGPU-Sim uArch: cycles simulated: 4000  inst.: 821536 (ipc=205.4) sim_rate=205384 (inst/sec) elapsed = 0:0:00:04 / Tue Mar 22 07:01:10 2016
GPGPU-Sim PTX: 900000 instructions simulated : ctaid=(31,0,0) tid=(95,0,0)
GPGPU-Sim PTX: 1000000 instructions simulated : ctaid=(72,0,0) tid=(31,0,0)
GPGPU-Sim PTX: 1100000 instructions simulated : ctaid=(6,0,0) tid=(31,0,0)
GPGPU-Sim PTX: 1200000 instructions simulated : ctaid=(27,0,0) tid=(63,0,0)
GPGPU-Sim PTX: 1300000 instructions simulated : ctaid=(56,0,0) tid=(127,0,0)
GPGPU-Sim PTX: 1400000 instructions simulated : ctaid=(89,0,0) tid=(63,0,0)
GPGPU-Sim PTX: 1500000 instructions simulated : ctaid=(11,0,0) tid=(31,0,0)
GPGPU-Sim PTX: 1600000 instructions simulated : ctaid=(16,0,0) tid=(31,0,0)
GPGPU-Sim uArch: cycles simulated: 5000  inst.: 1601216 (ipc=320.2) sim_rate=320243 (inst/sec) elapsed = 0:0:00:05 / Tue Mar 22 07:01:11 2016
GPGPU-Sim PTX: 1700000 instructions simulated : ctaid=(11,0,0) tid=(127,0,0)
GPGPU-Sim PTX: 1800000 instructions simulated : ctaid=(69,0,0) tid=(63,0,0)
GPGPU-Sim PTX: 1900000 instructions simulated : ctaid=(68,0,0) tid=(63,0,0)
GPGPU-Sim uArch: cycles simulated: 5500  inst.: 1935872 (ipc=352.0) sim_rate=322645 (inst/sec) elapsed = 0:0:00:06 / Tue Mar 22 07:01:12 2016
GPGPU-Sim PTX: 2000000 instructions simulated : ctaid=(65,0,0) tid=(95,0,0)
GPGPU-Sim PTX: 2100000 instructions simulated : ctaid=(62,0,0) tid=(95,0,0)
GPGPU-Sim PTX: 2200000 instructions simulated : ctaid=(52,0,0) tid=(63,0,0)
GPGPU-Sim PTX: 2300000 instructions simulated : ctaid=(79,0,0) tid=(63,0,0)
GPGPU-Sim PTX: 2400000 instructions simulated : ctaid=(71,0,0) tid=(63,0,0)
GPGPU-Sim PTX: 2500000 instructions simulated : ctaid=(66,0,0) tid=(127,0,0)
GPGPU-Sim PTX: 2600000 instructions simulated : ctaid=(111,0,0) tid=(31,0,0)
GPGPU-Sim uArch: cycles simulated: 6500  inst.: 2653024 (ipc=408.2) sim_rate=379003 (inst/sec) elapsed = 0:0:00:07 / Tue Mar 22 07:01:13 2016
GPGPU-Sim PTX: 2700000 instructions simulated : ctaid=(100,0,0) tid=(95,0,0)
GPGPU-Sim PTX: 2800000 instructions simulated : ctaid=(11,0,0) tid=(31,0,0)
GPGPU-Sim PTX: 2900000 instructions simulated : ctaid=(37,0,0) tid=(95,0,0)
GPGPU-Sim PTX: 3000000 instructions simulated : ctaid=(116,0,0) tid=(95,0,0)
GPGPU-Sim PTX: 3100000 instructions simulated : ctaid=(110,0,0) tid=(127,0,0)
GPGPU-Sim PTX: 3200000 instructions simulated : ctaid=(30,0,0) tid=(31,0,0)
GPGPU-Sim PTX: 3300000 instructions simulated : ctaid=(61,0,0) tid=(95,0,0)
GPGPU-Sim uArch: cycles simulated: 7500  inst.: 3349376 (ipc=446.6) sim_rate=418672 (inst/sec) elapsed = 0:0:00:08 / Tue Mar 22 07:01:14 2016
GPGPU-Sim PTX: 3400000 instructions simulated : ctaid=(70,0,0) tid=(63,0,0)
GPGPU-Sim PTX: 3500000 instructions simulated : ctaid=(74,0,0) tid=(95,0,0)
GPGPU-Sim PTX: 3600000 instructions simulated : ctaid=(59,0,0) tid=(31,0,0)
GPGPU-Sim PTX: 3700000 instructions simulated : ctaid=(59,0,0) tid=(63,0,0)
GPGPU-Sim PTX: 3800000 instructions simulated : ctaid=(42,0,0) tid=(31,0,0)
GPGPU-Sim PTX: 3900000 instructions simulated : ctaid=(2,0,0) tid=(95,0,0)
GPGPU-Sim uArch: cycles simulated: 8500  inst.: 3952096 (ipc=465.0) sim_rate=439121 (inst/sec) elapsed = 0:0:00:09 / Tue Mar 22 07:01:15 2016
GPGPU-Sim PTX: 4000000 instructions simulated : ctaid=(37,0,0) tid=(95,0,0)
GPGPU-Sim PTX: 4100000 instructions simulated : ctaid=(43,0,0) tid=(95,0,0)
GPGPU-Sim PTX: 4200000 instructions simulated : ctaid=(20,0,0) tid=(63,0,0)
GPGPU-Sim PTX: 4300000 instructions simulated : ctaid=(37,0,0) tid=(63,0,0)
GPGPU-Sim PTX: 4400000 instructions simulated : ctaid=(54,0,0) tid=(31,0,0)
GPGPU-Sim PTX: 4500000 instructions simulated : ctaid=(61,0,0) tid=(31,0,0)
GPGPU-Sim uArch: cycles simulated: 9500  inst.: 4527808 (ipc=476.6) sim_rate=452780 (inst/sec) elapsed = 0:0:00:10 / Tue Mar 22 07:01:16 2016
GPGPU-Sim PTX: 4600000 instructions simulated : ctaid=(118,0,0) tid=(63,0,0)
GPGPU-Sim PTX: 4700000 instructions simulated : ctaid=(108,0,0) tid=(63,0,0)
GPGPU-Sim PTX: 4800000 instructions simulated : ctaid=(25,0,0) tid=(127,0,0)
GPGPU-Sim PTX: 4900000 instructions simulated : ctaid=(56,0,0) tid=(63,0,0)
GPGPU-Sim PTX: 5000000 instructions simulated : ctaid=(25,0,0) tid=(95,0,0)
GPGPU-Sim uArch: cycles simulated: 10500  inst.: 5026528 (ipc=478.7) sim_rate=456957 (inst/sec) elapsed = 0:0:00:11 / Tue Mar 22 07:01:17 2016
GPGPU-Sim PTX: 5100000 instructions simulated : ctaid=(18,0,0) tid=(63,0,0)
GPGPU-Sim PTX: 5200000 instructions simulated : ctaid=(15,0,0) tid=(127,0,0)
GPGPU-Sim PTX: 5300000 instructions simulated : ctaid=(15,0,0) tid=(31,0,0)
GPGPU-Sim PTX: 5400000 instructions simulated : ctaid=(38,0,0) tid=(95,0,0)
GPGPU-Sim PTX: 5500000 instructions simulated : ctaid=(31,0,0) tid=(127,0,0)
GPGPU-Sim PTX: 5600000 instructions simulated : ctaid=(56,0,0) tid=(95,0,0)
GPGPU-Sim uArch: cycles simulated: 11500  inst.: 5560576 (ipc=483.5) sim_rate=463381 (inst/sec) elapsed = 0:0:00:12 / Tue Mar 22 07:01:18 2016
GPGPU-Sim PTX: 5700000 instructions simulated : ctaid=(83,0,0) tid=(31,0,0)
GPGPU-Sim PTX: 5800000 instructions simulated : ctaid=(86,0,0) tid=(31,0,0)
GPGPU-Sim PTX: 5900000 instructions simulated : ctaid=(0,0,0) tid=(31,0,0)
GPGPU-Sim PTX: 6000000 instructions simulated : ctaid=(4,0,0) tid=(127,0,0)
GPGPU-Sim PTX: 6100000 instructions simulated : ctaid=(24,0,0) tid=(63,0,0)
GPGPU-Sim PTX: 6200000 instructions simulated : ctaid=(87,0,0) tid=(31,0,0)
GPGPU-Sim uArch: cycles simulated: 12500  inst.: 6243104 (ipc=499.4) sim_rate=480238 (inst/sec) elapsed = 0:0:00:13 / Tue Mar 22 07:01:19 2016
GPGPU-Sim PTX: 6300000 instructions simulated : ctaid=(29,0,0) tid=(95,0,0)
GPGPU-Sim PTX: 6400000 instructions simulated : ctaid=(74,0,0) tid=(95,0,0)
GPGPU-Sim PTX: 6500000 instructions simulated : ctaid=(73,0,0) tid=(63,0,0)
GPGPU-Sim PTX: 6600000 instructions simulated : ctaid=(53,0,0) tid=(95,0,0)
GPGPU-Sim PTX: 6700000 instructions simulated : ctaid=(81,0,0) tid=(63,0,0)
GPGPU-Sim PTX: 6800000 instructions simulated : ctaid=(46,0,0) tid=(31,0,0)
GPGPU-Sim uArch: cycles simulated: 13500  inst.: 6858464 (ipc=508.0) sim_rate=489890 (inst/sec) elapsed = 0:0:00:14 / Tue Mar 22 07:01:20 2016
GPGPU-Sim PTX: 6900000 instructions simulated : ctaid=(28,0,0) tid=(95,0,0)
GPGPU-Sim PTX: 7000000 instructions simulated : ctaid=(43,0,0) tid=(31,0,0)
GPGPU-Sim PTX: 7100000 instructions simulated : ctaid=(4,0,0) tid=(63,0,0)
GPGPU-Sim PTX: 7200000 instructions simulated : ctaid=(6,0,0) tid=(63,0,0)
GPGPU-Sim PTX: 7300000 instructions simulated : ctaid=(22,0,0) tid=(127,0,0)
GPGPU-Sim PTX: 7400000 instructions simulated : ctaid=(35,0,0) tid=(63,0,0)
GPGPU-Sim uArch: cycles simulated: 14500  inst.: 7439904 (ipc=513.1) sim_rate=495993 (inst/sec) elapsed = 0:0:00:15 / Tue Mar 22 07:01:21 2016
GPGPU-Sim PTX: 7500000 instructions simulated : ctaid=(34,0,0) tid=(127,0,0)
GPGPU-Sim PTX: 7600000 instructions simulated : ctaid=(56,0,0) tid=(127,0,0)
GPGPU-Sim PTX: 7700000 instructions simulated : ctaid=(8,0,0) tid=(63,0,0)
GPGPU-Sim PTX: 7800000 instructions simulated : ctaid=(11,0,0) tid=(127,0,0)
GPGPU-Sim PTX: 7900000 instructions simulated : ctaid=(68,0,0) tid=(95,0,0)
GPGPU-Sim PTX: 8000000 instructions simulated : ctaid=(28,0,0) tid=(63,0,0)
GPGPU-Sim uArch: cycles simulated: 15500  inst.: 8022880 (ipc=517.6) sim_rate=501430 (inst/sec) elapsed = 0:0:00:16 / Tue Mar 22 07:01:22 2016
GPGPU-Sim PTX: 8100000 instructions simulated : ctaid=(26,0,0) tid=(95,0,0)
GPGPU-Sim PTX: 8200000 instructions simulated : ctaid=(13,0,0) tid=(95,0,0)
GPGPU-Sim PTX: 8300000 instructions simulated : ctaid=(3,0,0) tid=(127,0,0)
GPGPU-Sim PTX: 8400000 instructions simulated : ctaid=(20,0,0) tid=(95,0,0)
GPGPU-Sim PTX: 8500000 instructions simulated : ctaid=(79,0,0) tid=(127,0,0)
GPGPU-Sim uArch: cycles simulated: 16500  inst.: 8557696 (ipc=518.6) sim_rate=503393 (inst/sec) elapsed = 0:0:00:17 / Tue Mar 22 07:01:23 2016
GPGPU-Sim PTX: 8600000 instructions simulated : ctaid=(71,0,0) tid=(63,0,0)
GPGPU-Sim PTX: 8700000 instructions simulated : ctaid=(119,0,0) tid=(31,0,0)
GPGPU-Sim PTX: 8800000 instructions simulated : ctaid=(16,0,0) tid=(127,0,0)
GPGPU-Sim uArch: cycles simulated: 17000  inst.: 8828928 (ipc=519.3) sim_rate=490496 (inst/sec) elapsed = 0:0:00:18 / Tue Mar 22 07:01:24 2016
GPGPU-Sim PTX: 8900000 instructions simulated : ctaid=(15,0,0) tid=(63,0,0)
GPGPU-Sim PTX: 9000000 instructions simulated : ctaid=(67,0,0) tid=(63,0,0)
GPGPU-Sim PTX: 9100000 instructions simulated : ctaid=(25,0,0) tid=(95,0,0)
GPGPU-Sim PTX: 9200000 instructions simulated : ctaid=(26,0,0) tid=(95,0,0)
GPGPU-Sim PTX: 9300000 instructions simulated : ctaid=(59,0,0) tid=(31,0,0)
GPGPU-Sim PTX: 9400000 instructions simulated : ctaid=(6,0,0) tid=(63,0,0)
GPGPU-Sim uArch: cycles simulated: 18000  inst.: 9434784 (ipc=524.2) sim_rate=496567 (inst/sec) elapsed = 0:0:00:19 / Tue Mar 22 07:01:25 2016
GPGPU-Sim PTX: 9500000 instructions simulated : ctaid=(90,0,0) tid=(31,0,0)
GPGPU-Sim PTX: 9600000 instructions simulated : ctaid=(6,0,0) tid=(63,0,0)
GPGPU-Sim PTX: 9700000 instructions simulated : ctaid=(54,0,0) tid=(31,0,0)
GPGPU-Sim uArch: cycles simulated: 18500  inst.: 9733536 (ipc=526.1) sim_rate=486676 (inst/sec) elapsed = 0:0:00:20 / Tue Mar 22 07:01:26 2016
GPGPU-Sim PTX: 9800000 instructions simulated : ctaid=(9,0,0) tid=(127,0,0)
GPGPU-Sim PTX: 9900000 instructions simulated : ctaid=(7,0,0) tid=(31,0,0)
GPGPU-Sim PTX: 10000000 instructions simulated : ctaid=(53,0,0) tid=(127,0,0)
GPGPU-Sim PTX: 10100000 instructions simulated : ctaid=(8,0,0) tid=(95,0,0)
GPGPU-Sim PTX: 10200000 instructions simulated : ctaid=(47,0,0) tid=(127,0,0)
GPGPU-Sim PTX: 10300000 instructions simulated : ctaid=(105,0,0) tid=(31,0,0)
GPGPU-Sim uArch: cycles simulated: 19500  inst.: 10282400 (ipc=527.3) sim_rate=489638 (inst/sec) elapsed = 0:0:00:21 / Tue Mar 22 07:01:27 2016
GPGPU-Sim PTX: 10400000 instructions simulated : ctaid=(1,0,0) tid=(31,0,0)
GPGPU-Sim PTX: 10500000 instructions simulated : ctaid=(49,0,0) tid=(95,0,0)
GPGPU-Sim PTX: 10600000 instructions simulated : ctaid=(20,0,0) tid=(127,0,0)
GPGPU-Sim PTX: 10700000 instructions simulated : ctaid=(15,0,0) tid=(95,0,0)
GPGPU-Sim PTX: 10800000 instructions simulated : ctaid=(22,0,0) tid=(63,0,0)
GPGPU-Sim uArch: cycles simulated: 20500  inst.: 10853376 (ipc=529.4) sim_rate=493335 (inst/sec) elapsed = 0:0:00:22 / Tue Mar 22 07:01:28 2016
GPGPU-Sim PTX: 10900000 instructions simulated : ctaid=(13,0,0) tid=(31,0,0)
GPGPU-Sim PTX: 11000000 instructions simulated : ctaid=(27,0,0) tid=(31,0,0)
GPGPU-Sim PTX: 11100000 instructions simulated : ctaid=(98,0,0) tid=(63,0,0)
GPGPU-Sim uArch: cycles simulated: 21000  inst.: 11095936 (ipc=528.4) sim_rate=482432 (inst/sec) elapsed = 0:0:00:23 / Tue Mar 22 07:01:29 2016
GPGPU-Sim PTX: 11200000 instructions simulated : ctaid=(18,0,0) tid=(95,0,0)
GPGPU-Sim PTX: 11300000 instructions simulated : ctaid=(10,0,0) tid=(127,0,0)
GPGPU-Sim PTX: 11400000 instructions simulated : ctaid=(111,0,0) tid=(31,0,0)
GPGPU-Sim PTX: 11500000 instructions simulated : ctaid=(13,0,0) tid=(127,0,0)
GPGPU-Sim PTX: 11600000 instructions simulated : ctaid=(18,0,0) tid=(31,0,0)
GPGPU-Sim uArch: cycles simulated: 22000  inst.: 11649408 (ipc=529.5) sim_rate=485392 (inst/sec) elapsed = 0:0:00:24 / Tue Mar 22 07:01:30 2016
GPGPU-Sim PTX: 11700000 instructions simulated : ctaid=(88,0,0) tid=(127,0,0)
GPGPU-Sim PTX: 11800000 instructions simulated : ctaid=(61,0,0) tid=(31,0,0)
GPGPU-Sim PTX: 11900000 instructions simulated : ctaid=(61,0,0) tid=(31,0,0)
GPGPU-Sim PTX: 12000000 instructions simulated : ctaid=(55,0,0) tid=(31,0,0)
GPGPU-Sim PTX: 12100000 instructions simulated : ctaid=(84,0,0) tid=(127,0,0)
GPGPU-Sim PTX: 12200000 instructions simulated : ctaid=(19,0,0) tid=(63,0,0)
GPGPU-Sim PTX: 12300000 instructions simulated : ctaid=(46,0,0) tid=(127,0,0)
GPGPU-Sim uArch: cycles simulated: 23000  inst.: 12328640 (ipc=536.0) sim_rate=493145 (inst/sec) elapsed = 0:0:00:25 / Tue Mar 22 07:01:31 2016
GPGPU-Sim PTX: 12400000 instructions simulated : ctaid=(107,0,0) tid=(127,0,0)
GPGPU-Sim PTX: 12500000 instructions simulated : ctaid=(53,0,0) tid=(95,0,0)
GPGPU-Sim PTX: 12600000 instructions simulated : ctaid=(61,0,0) tid=(95,0,0)
GPGPU-Sim uArch: cycles simulated: 23500  inst.: 12648480 (ipc=538.2) sim_rate=486480 (inst/sec) elapsed = 0:0:00:26 / Tue Mar 22 07:01:32 2016
GPGPU-Sim PTX: 12700000 instructions simulated : ctaid=(71,0,0) tid=(95,0,0)
GPGPU-Sim PTX: 12800000 instructions simulated : ctaid=(114,0,0) tid=(127,0,0)
GPGPU-Sim PTX: 12900000 instructions simulated : ctaid=(36,0,0) tid=(95,0,0)
GPGPU-Sim PTX: 13000000 instructions simulated : ctaid=(64,0,0) tid=(95,0,0)
GPGPU-Sim PTX: 13100000 instructions simulated : ctaid=(6,0,0) tid=(95,0,0)
GPGPU-Sim PTX: 13200000 instructions simulated : ctaid=(29,0,0) tid=(95,0,0)
GPGPU-Sim uArch: cycles simulated: 24500  inst.: 13255616 (ipc=541.0) sim_rate=490948 (inst/sec) elapsed = 0:0:00:27 / Tue Mar 22 07:01:33 2016
GPGPU-Sim PTX: 13300000 instructions simulated : ctaid=(16,0,0) tid=(127,0,0)
GPGPU-Sim PTX: 13400000 instructions simulated : ctaid=(67,0,0) tid=(95,0,0)
GPGPU-Sim PTX: 13500000 instructions simulated : ctaid=(3,0,0) tid=(95,0,0)
GPGPU-Sim uArch: cycles simulated: 25000  inst.: 13547200 (ipc=541.9) sim_rate=483828 (inst/sec) elapsed = 0:0:00:28 / Tue Mar 22 07:01:34 2016
GPGPU-Sim PTX: 13600000 instructions simulated : ctaid=(12,0,0) tid=(127,0,0)
GPGPU-Sim PTX: 13700000 instructions simulated : ctaid=(72,0,0) tid=(95,0,0)
GPGPU-Sim PTX: 13800000 instructions simulated : ctaid=(54,0,0) tid=(63,0,0)
GPGPU-Sim PTX: 13900000 instructions simulated : ctaid=(65,0,0) tid=(95,0,0)
GPGPU-Sim PTX: 14000000 instructions simulated : ctaid=(65,0,0) tid=(127,0,0)
GPGPU-Sim PTX: 14100000 instructions simulated : ctaid=(20,0,0) tid=(127,0,0)
GPGPU-Sim uArch: cycles simulated: 26000  inst.: 14097920 (ipc=542.2) sim_rate=486135 (inst/sec) elapsed = 0:0:00:29 / Tue Mar 22 07:01:35 2016
GPGPU-Sim PTX: 14200000 instructions simulated : ctaid=(52,0,0) tid=(31,0,0)
GPGPU-Sim PTX: 14300000 instructions simulated : ctaid=(1,0,0) tid=(127,0,0)
GPGPU-Sim uArch: cycles simulated: 26500  inst.: 14351840 (ipc=541.6) sim_rate=478394 (inst/sec) elapsed = 0:0:00:30 / Tue Mar 22 07:01:36 2016
GPGPU-Sim PTX: 14400000 instructions simulated : ctaid=(26,0,0) tid=(63,0,0)
GPGPU-Sim PTX: 14500000 instructions simulated : ctaid=(92,0,0) tid=(31,0,0)
GPGPU-Sim PTX: 14600000 instructions simulated : ctaid=(110,0,0) tid=(63,0,0)
GPGPU-Sim PTX: 14700000 instructions simulated : ctaid=(51,0,0) tid=(31,0,0)
GPGPU-Sim PTX: 14800000 instructions simulated : ctaid=(84,0,0) tid=(95,0,0)
GPGPU-Sim PTX: 14900000 instructions simulated : ctaid=(49,0,0) tid=(127,0,0)
GPGPU-Sim uArch: cycles simulated: 27500  inst.: 14916096 (ipc=542.4) sim_rate=481164 (inst/sec) elapsed = 0:0:00:31 / Tue Mar 22 07:01:37 2016
GPGPU-Sim PTX: 15000000 instructions simulated : ctaid=(30,0,0) tid=(95,0,0)
GPGPU-Sim PTX: 15100000 instructions simulated : ctaid=(1,0,0) tid=(127,0,0)
GPGPU-Sim PTX: 15200000 instructions simulated : ctaid=(31,0,0) tid=(95,0,0)
GPGPU-Sim uArch: cycles simulated: 28000  inst.: 15211904 (ipc=543.3) sim_rate=475372 (inst/sec) elapsed = 0:0:00:32 / Tue Mar 22 07:01:38 2016
GPGPU-Sim PTX: 15300000 instructions simulated : ctaid=(82,0,0) tid=(31,0,0)
GPGPU-Sim PTX: 15400000 instructions simulated : ctaid=(6,0,0) tid=(95,0,0)
GPGPU-Sim PTX: 15500000 instructions simulated : ctaid=(63,0,0) tid=(31,0,0)
GPGPU-Sim PTX: 15600000 instructions simulated : ctaid=(19,0,0) tid=(127,0,0)
GPGPU-Sim PTX: 15700000 instructions simulated : ctaid=(80,0,0) tid=(63,0,0)
GPGPU-Sim PTX: 15800000 instructions simulated : ctaid=(25,0,0) tid=(127,0,0)
GPGPU-Sim uArch: cycles simulated: 29000  inst.: 15811712 (ipc=545.2) sim_rate=479142 (inst/sec) elapsed = 0:0:00:33 / Tue Mar 22 07:01:39 2016
GPGPU-Sim PTX: 15900000 instructions simulated : ctaid=(62,0,0) tid=(63,0,0)
GPGPU-Sim PTX: 16000000 instructions simulated : ctaid=(11,0,0) tid=(63,0,0)
GPGPU-Sim PTX: 16100000 instructions simulated : ctaid=(92,0,0) tid=(31,0,0)
GPGPU-Sim uArch: cycles simulated: 29500  inst.: 16116448 (ipc=546.3) sim_rate=474013 (inst/sec) elapsed = 0:0:00:34 / Tue Mar 22 07:01:40 2016
GPGPU-Sim PTX: 16200000 instructions simulated : ctaid=(92,0,0) tid=(127,0,0)
GPGPU-Sim PTX: 16300000 instructions simulated : ctaid=(5,0,0) tid=(95,0,0)
GPGPU-Sim PTX: 16400000 instructions simulated : ctaid=(54,0,0) tid=(95,0,0)
GPGPU-Sim PTX: 16500000 instructions simulated : ctaid=(73,0,0) tid=(63,0,0)
GPGPU-Sim PTX: 16600000 instructions simulated : ctaid=(4,0,0) tid=(127,0,0)
GPGPU-Sim PTX: 16700000 instructions simulated : ctaid=(5,0,0) tid=(63,0,0)
GPGPU-Sim uArch: cycles simulated: 30500  inst.: 16663424 (ipc=546.3) sim_rate=476097 (inst/sec) elapsed = 0:0:00:35 / Tue Mar 22 07:01:41 2016
GPGPU-Sim PTX: 16800000 instructions simulated : ctaid=(12,0,0) tid=(63,0,0)
GPGPU-Sim PTX: 16900000 instructions simulated : ctaid=(15,0,0) tid=(127,0,0)
GPGPU-Sim uArch: cycles simulated: 31000  inst.: 16944128 (ipc=546.6) sim_rate=470670 (inst/sec) elapsed = 0:0:00:36 / Tue Mar 22 07:01:42 2016
GPGPU-Sim PTX: 17000000 instructions simulated : ctaid=(47,0,0) tid=(127,0,0)
GPGPU-Sim PTX: 17100000 instructions simulated : ctaid=(17,0,0) tid=(127,0,0)
GPGPU-Sim PTX: 17200000 instructions simulated : ctaid=(17,0,0) tid=(127,0,0)
GPGPU-Sim PTX: 17300000 instructions simulated : ctaid=(13,0,0) tid=(127,0,0)
GPGPU-Sim PTX: 17400000 instructions simulated : ctaid=(27,0,0) tid=(127,0,0)
GPGPU-Sim PTX: 17500000 instructions simulated : ctaid=(12,0,0) tid=(95,0,0)
GPGPU-Sim uArch: cycles simulated: 32000  inst.: 17491808 (ipc=546.6) sim_rate=472751 (inst/sec) elapsed = 0:0:00:37 / Tue Mar 22 07:01:43 2016
GPGPU-Sim PTX: 17600000 instructions simulated : ctaid=(21,0,0) tid=(127,0,0)
GPGPU-Sim PTX: 17700000 instructions simulated : ctaid=(9,0,0) tid=(127,0,0)
GPGPU-Sim PTX: 17800000 instructions simulated : ctaid=(41,0,0) tid=(63,0,0)
GPGPU-Sim uArch: cycles simulated: 32500  inst.: 17767296 (ipc=546.7) sim_rate=467560 (inst/sec) elapsed = 0:0:00:38 / Tue Mar 22 07:01:44 2016
GPGPU-Sim PTX: 17900000 instructions simulated : ctaid=(62,0,0) tid=(95,0,0)
GPGPU-Sim PTX: 18000000 instructions simulated : ctaid=(27,0,0) tid=(95,0,0)
GPGPU-Sim PTX: 18100000 instructions simulated : ctaid=(7,0,0) tid=(95,0,0)
GPGPU-Sim PTX: 18200000 instructions simulated : ctaid=(61,0,0) tid=(95,0,0)
GPGPU-Sim PTX: 18300000 instructions simulated : ctaid=(28,0,0) tid=(63,0,0)
GPGPU-Sim PTX: 18400000 instructions simulated : ctaid=(12,0,0) tid=(95,0,0)
GPGPU-Sim uArch: cycles simulated: 33500  inst.: 18390080 (ipc=549.0) sim_rate=471540 (inst/sec) elapsed = 0:0:00:39 / Tue Mar 22 07:01:45 2016
GPGPU-Sim PTX: 18500000 instructions simulated : ctaid=(2,0,0) tid=(31,0,0)
GPGPU-Sim PTX: 18600000 instructions simulated : ctaid=(49,0,0) tid=(127,0,0)
GPGPU-Sim PTX: 18700000 instructions simulated : ctaid=(99,0,0) tid=(63,0,0)
GPGPU-Sim uArch: cycles simulated: 34000  inst.: 18696192 (ipc=549.9) sim_rate=467404 (inst/sec) elapsed = 0:0:00:40 / Tue Mar 22 07:01:46 2016
GPGPU-Sim PTX: 18800000 instructions simulated : ctaid=(55,0,0) tid=(63,0,0)
GPGPU-Sim PTX: 18900000 instructions simulated : ctaid=(18,0,0) tid=(31,0,0)
GPGPU-Sim PTX: 19000000 instructions simulated : ctaid=(10,0,0) tid=(31,0,0)
GPGPU-Sim PTX: 19100000 instructions simulated : ctaid=(25,0,0) tid=(127,0,0)
GPGPU-Sim PTX: 19200000 instructions simulated : ctaid=(119,0,0) tid=(63,0,0)
GPGPU-Sim PTX: 19300000 instructions simulated : ctaid=(42,0,0) tid=(95,0,0)
GPGPU-Sim uArch: cycles simulated: 35000  inst.: 19276032 (ipc=550.7) sim_rate=470147 (inst/sec) elapsed = 0:0:00:41 / Tue Mar 22 07:01:47 2016
GPGPU-Sim PTX: 19400000 instructions simulated : ctaid=(39,0,0) tid=(63,0,0)
GPGPU-Sim PTX: 19500000 instructions simulated : ctaid=(9,0,0) tid=(127,0,0)
GPGPU-Sim uArch: cycles simulated: 35500  inst.: 19559264 (ipc=551.0) sim_rate=465696 (inst/sec) elapsed = 0:0:00:42 / Tue Mar 22 07:01:48 2016
GPGPU-Sim PTX: 19600000 instructions simulated : ctaid=(17,0,0) tid=(127,0,0)
GPGPU-Sim PTX: 19700000 instructions simulated : ctaid=(4,0,0) tid=(127,0,0)
GPGPU-Sim PTX: 19800000 instructions simulated : ctaid=(53,0,0) tid=(127,0,0)
GPGPU-Sim PTX: 19900000 instructions simulated : ctaid=(85,0,0) tid=(95,0,0)
GPGPU-Sim PTX: 20000000 instructions simulated : ctaid=(7,0,0) tid=(95,0,0)
GPGPU-Sim PTX: 20100000 instructions simulated : ctaid=(0,0,0) tid=(95,0,0)
GPGPU-Sim uArch: cycles simulated: 36500  inst.: 20135680 (ipc=551.7) sim_rate=468271 (inst/sec) elapsed = 0:0:00:43 / Tue Mar 22 07:01:49 2016
GPGPU-Sim PTX: 20200000 instructions simulated : ctaid=(73,0,0) tid=(31,0,0)
GPGPU-Sim PTX: 20300000 instructions simulated : ctaid=(17,0,0) tid=(127,0,0)
GPGPU-Sim PTX: 20400000 instructions simulated : ctaid=(23,0,0) tid=(95,0,0)
GPGPU-Sim uArch: cycles simulated: 37000  inst.: 20405568 (ipc=551.5) sim_rate=463762 (inst/sec) elapsed = 0:0:00:44 / Tue Mar 22 07:01:50 2016
GPGPU-Sim PTX: 20500000 instructions simulated : ctaid=(113,0,0) tid=(63,0,0)
GPGPU-Sim PTX: 20600000 instructions simulated : ctaid=(109,0,0) tid=(127,0,0)
GPGPU-Sim PTX: 20700000 instructions simulated : ctaid=(33,0,0) tid=(31,0,0)
GPGPU-Sim PTX: 20800000 instructions simulated : ctaid=(5,0,0) tid=(31,0,0)
GPGPU-Sim PTX: 20900000 instructions simulated : ctaid=(15,0,0) tid=(95,0,0)
GPGPU-Sim PTX: 21000000 instructions simulated : ctaid=(34,0,0) tid=(31,0,0)
GPGPU-Sim uArch: cycles simulated: 38000  inst.: 20981152 (ipc=552.1) sim_rate=466247 (inst/sec) elapsed = 0:0:00:45 / Tue Mar 22 07:01:51 2016
GPGPU-Sim PTX: 21100000 instructions simulated : ctaid=(76,0,0) tid=(63,0,0)
GPGPU-Sim PTX: 21200000 instructions simulated : ctaid=(104,0,0) tid=(31,0,0)
GPGPU-Sim PTX: 21300000 instructions simulated : ctaid=(46,0,0) tid=(63,0,0)
GPGPU-Sim uArch: cycles simulated: 38500  inst.: 21287840 (ipc=552.9) sim_rate=462779 (inst/sec) elapsed = 0:0:00:46 / Tue Mar 22 07:01:52 2016
GPGPU-Sim PTX: 21400000 instructions simulated : ctaid=(1,0,0) tid=(127,0,0)
GPGPU-Sim PTX: 21500000 instructions simulated : ctaid=(38,0,0) tid=(63,0,0)
GPGPU-Sim PTX: 21600000 instructions simulated : ctaid=(96,0,0) tid=(127,0,0)
GPGPU-Sim uArch: cycles simulated: 39000  inst.: 21578560 (ipc=553.3) sim_rate=459118 (inst/sec) elapsed = 0:0:00:47 / Tue Mar 22 07:01:53 2016
GPGPU-Sim PTX: 21700000 instructions simulated : ctaid=(46,0,0) tid=(127,0,0)
GPGPU-Sim PTX: 21800000 instructions simulated : ctaid=(83,0,0) tid=(95,0,0)
GPGPU-Sim PTX: 21900000 instructions simulated : ctaid=(21,0,0) tid=(127,0,0)
GPGPU-Sim PTX: 22000000 instructions simulated : ctaid=(62,0,0) tid=(31,0,0)
GPGPU-Sim PTX: 22100000 instructions simulated : ctaid=(32,0,0) tid=(63,0,0)
GPGPU-Sim PTX: 22200000 instructions simulated : ctaid=(19,0,0) tid=(63,0,0)
GPGPU-Sim uArch: cycles simulated: 40000  inst.: 22177952 (ipc=554.4) sim_rate=462040 (inst/sec) elapsed = 0:0:00:48 / Tue Mar 22 07:01:54 2016
GPGPU-Sim PTX: 22300000 instructions simulated : ctaid=(49,0,0) tid=(63,0,0)
GPGPU-Sim PTX: 22400000 instructions simulated : ctaid=(83,0,0) tid=(31,0,0)
GPGPU-Sim PTX: 22500000 instructions simulated : ctaid=(4,0,0) tid=(95,0,0)
GPGPU-Sim PTX: 22600000 instructions simulated : ctaid=(51,0,0) tid=(127,0,0)
GPGPU-Sim PTX: 22700000 instructions simulated : ctaid=(30,0,0) tid=(95,0,0)
GPGPU-Sim uArch: cycles simulated: 41000  inst.: 22710144 (ipc=553.9) sim_rate=463472 (inst/sec) elapsed = 0:0:00:49 / Tue Mar 22 07:01:55 2016
GPGPU-Sim PTX: 22800000 instructions simulated : ctaid=(7,0,0) tid=(127,0,0)
GPGPU-Sim PTX: 22900000 instructions simulated : ctaid=(53,0,0) tid=(127,0,0)
GPGPU-Sim PTX: 23000000 instructions simulated : ctaid=(34,0,0) tid=(127,0,0)
GPGPU-Sim uArch: cycles simulated: 41500  inst.: 22976160 (ipc=553.6) sim_rate=459523 (inst/sec) elapsed = 0:0:00:50 / Tue Mar 22 07:01:56 2016
GPGPU-Sim PTX: 23100000 instructions simulated : ctaid=(40,0,0) tid=(127,0,0)
GPGPU-Sim PTX: 23200000 instructions simulated : ctaid=(2,0,0) tid=(127,0,0)
GPGPU-Sim PTX: 23300000 instructions simulated : ctaid=(23,0,0) tid=(31,0,0)
GPGPU-Sim PTX: 23400000 instructions simulated : ctaid=(37,0,0) tid=(31,0,0)
GPGPU-Sim PTX: 23500000 instructions simulated : ctaid=(61,0,0) tid=(95,0,0)
GPGPU-Sim uArch: cycles simulated: 42500  inst.: 23540128 (ipc=553.9) sim_rate=461571 (inst/sec) elapsed = 0:0:00:51 / Tue Mar 22 07:01:57 2016
GPGPU-Sim PTX: 23600000 instructions simulated : ctaid=(78,0,0) tid=(63,0,0)
GPGPU-Sim PTX: 23700000 instructions simulated : ctaid=(13,0,0) tid=(31,0,0)
GPGPU-Sim PTX: 23800000 instructions simulated : ctaid=(48,0,0) tid=(95,0,0)
GPGPU-Sim uArch: cycles simulated: 43000  inst.: 23804224 (ipc=553.6) sim_rate=457773 (inst/sec) elapsed = 0:0:00:52 / Tue Mar 22 07:01:58 2016
GPGPU-Sim PTX: 23900000 instructions simulated : ctaid=(50,0,0) tid=(63,0,0)
GPGPU-Sim PTX: 24000000 instructions simulated : ctaid=(50,0,0) tid=(95,0,0)
GPGPU-Sim PTX: 24100000 instructions simulated : ctaid=(23,0,0) tid=(31,0,0)
GPGPU-Sim PTX: 24200000 instructions simulated : ctaid=(12,0,0) tid=(31,0,0)
GPGPU-Sim PTX: 24300000 instructions simulated : ctaid=(38,0,0) tid=(95,0,0)
GPGPU-Sim PTX: 24400000 instructions simulated : ctaid=(31,0,0) tid=(95,0,0)
GPGPU-Sim uArch: cycles simulated: 44000  inst.: 24396320 (ipc=554.5) sim_rate=460307 (inst/sec) elapsed = 0:0:00:53 / Tue Mar 22 07:01:59 2016
GPGPU-Sim PTX: 24500000 instructions simulated : ctaid=(51,0,0) tid=(95,0,0)
GPGPU-Sim PTX: 24600000 instructions simulated : ctaid=(56,0,0) tid=(127,0,0)
GPGPU-Sim PTX: 24700000 instructions simulated : ctaid=(40,0,0) tid=(63,0,0)
GPGPU-Sim uArch: cycles simulated: 44500  inst.: 24721472 (ipc=555.5) sim_rate=457805 (inst/sec) elapsed = 0:0:00:54 / Tue Mar 22 07:02:00 2016
GPGPU-Sim PTX: 24800000 instructions simulated : ctaid=(70,0,0) tid=(31,0,0)
GPGPU-Sim PTX: 24900000 instructions simulated : ctaid=(8,0,0) tid=(95,0,0)
GPGPU-Sim PTX: 25000000 instructions simulated : ctaid=(90,0,0) tid=(31,0,0)
GPGPU-Sim PTX: 25100000 instructions simulated : ctaid=(19,0,0) tid=(95,0,0)
GPGPU-Sim PTX: 25200000 instructions simulated : ctaid=(73,0,0) tid=(31,0,0)
GPGPU-Sim PTX: 25300000 instructions simulated : ctaid=(93,0,0) tid=(127,0,0)
GPGPU-Sim uArch: cycles simulated: 45500  inst.: 25348704 (ipc=557.1) sim_rate=460885 (inst/sec) elapsed = 0:0:00:55 / Tue Mar 22 07:02:01 2016
GPGPU-Sim PTX: 25400000 instructions simulated : ctaid=(34,0,0) tid=(127,0,0)
GPGPU-Sim PTX: 25500000 instructions simulated : ctaid=(115,0,0) tid=(63,0,0)
GPGPU-Sim PTX: 25600000 instructions simulated : ctaid=(85,0,0) tid=(63,0,0)
GPGPU-Sim uArch: cycles simulated: 46000  inst.: 25656128 (ipc=557.7) sim_rate=458145 (inst/sec) elapsed = 0:0:00:56 / Tue Mar 22 07:02:02 2016
GPGPU-Sim PTX: 25700000 instructions simulated : ctaid=(78,0,0) tid=(63,0,0)
GPGPU-Sim PTX: 25800000 instructions simulated : ctaid=(109,0,0) tid=(127,0,0)
GPGPU-Sim PTX: 25900000 instructions simulated : ctaid=(58,0,0) tid=(95,0,0)
GPGPU-Sim PTX: 26000000 instructions simulated : ctaid=(13,0,0) tid=(95,0,0)
GPGPU-Sim PTX: 26100000 instructions simulated : ctaid=(27,0,0) tid=(63,0,0)
GPGPU-Sim PTX: 26200000 instructions simulated : ctaid=(2,0,0) tid=(95,0,0)
GPGPU-Sim uArch: cycles simulated: 47000  inst.: 26249824 (ipc=558.5) sim_rate=460523 (inst/sec) elapsed = 0:0:00:57 / Tue Mar 22 07:02:03 2016
GPGPU-Sim PTX: 26300000 instructions simulated : ctaid=(106,0,0) tid=(63,0,0)
GPGPU-Sim PTX: 26400000 instructions simulated : ctaid=(0,0,0) tid=(31,0,0)
GPGPU-Sim PTX: 26500000 instructions simulated : ctaid=(86,0,0) tid=(95,0,0)
GPGPU-Sim uArch: cycles simulated: 47500  inst.: 26533760 (ipc=558.6) sim_rate=457478 (inst/sec) elapsed = 0:0:00:58 / Tue Mar 22 07:02:04 2016
GPGPU-Sim PTX: 26600000 instructions simulated : ctaid=(31,0,0) tid=(63,0,0)
GPGPU-Sim PTX: 26700000 instructions simulated : ctaid=(12,0,0) tid=(63,0,0)
GPGPU-Sim PTX: 26800000 instructions simulated : ctaid=(23,0,0) tid=(31,0,0)
GPGPU-Sim PTX: 26900000 instructions simulated : ctaid=(8,0,0) tid=(95,0,0)
GPGPU-Sim PTX: 27000000 instructions simulated : ctaid=(45,0,0) tid=(95,0,0)
GPGPU-Sim PTX: 27100000 instructions simulated : ctaid=(46,0,0) tid=(95,0,0)
GPGPU-Sim uArch: cycles simulated: 48500  inst.: 27114528 (ipc=559.1) sim_rate=459568 (inst/sec) elapsed = 0:0:00:59 / Tue Mar 22 07:02:05 2016
GPGPU-Sim PTX: 27200000 instructions simulated : ctaid=(15,0,0) tid=(63,0,0)
GPGPU-Sim PTX: 27300000 instructions simulated : ctaid=(11,0,0) tid=(31,0,0)
GPGPU-Sim PTX: 27400000 instructions simulated : ctaid=(32,0,0) tid=(31,0,0)
GPGPU-Sim uArch: cycles simulated: 49000  inst.: 27408128 (ipc=559.3) sim_rate=456802 (inst/sec) elapsed = 0:0:01:00 / Tue Mar 22 07:02:06 2016
GPGPU-Sim PTX: 27500000 instructions simulated : ctaid=(4,0,0) tid=(31,0,0)
GPGPU-Sim PTX: 27600000 instructions simulated : ctaid=(11,0,0) tid=(31,0,0)
GPGPU-Sim PTX: 27700000 instructions simulated : ctaid=(7,0,0) tid=(95,0,0)
GPGPU-Sim PTX: 27800000 instructions simulated : ctaid=(14,0,0) tid=(127,0,0)
GPGPU-Sim PTX: 27900000 instructions simulated : ctaid=(16,0,0) tid=(127,0,0)
GPGPU-Sim PTX: 28000000 instructions simulated : ctaid=(75,0,0) tid=(63,0,0)
GPGPU-Sim uArch: cycles simulated: 50000  inst.: 27971808 (ipc=559.4) sim_rate=458554 (inst/sec) elapsed = 0:0:01:01 / Tue Mar 22 07:02:07 2016
GPGPU-Sim PTX: 28100000 instructions simulated : ctaid=(90,0,0) tid=(63,0,0)
GPGPU-Sim PTX: 28200000 instructions simulated : ctaid=(2,0,0) tid=(127,0,0)
GPGPU-Sim uArch: cycles simulated: 50500  inst.: 28234272 (ipc=559.1) sim_rate=455391 (inst/sec) elapsed = 0:0:01:02 / Tue Mar 22 07:02:08 2016
GPGPU-Sim PTX: 28300000 instructions simulated : ctaid=(29,0,0) tid=(95,0,0)
GPGPU-Sim PTX: 28400000 instructions simulated : ctaid=(62,0,0) tid=(63,0,0)
GPGPU-Sim PTX: 28500000 instructions simulated : ctaid=(15,0,0) tid=(127,0,0)
GPGPU-Sim PTX: 28600000 instructions simulated : ctaid=(52,0,0) tid=(95,0,0)
GPGPU-Sim PTX: 28700000 instructions simulated : ctaid=(40,0,0) tid=(95,0,0)
GPGPU-Sim uArch: cycles simulated: 51500  inst.: 28754816 (ipc=558.3) sim_rate=456425 (inst/sec) elapsed = 0:0:01:03 / Tue Mar 22 07:02:09 2016
GPGPU-Sim PTX: 28800000 instructions simulated : ctaid=(21,0,0) tid=(127,0,0)
GPGPU-Sim PTX: 28900000 instructions simulated : ctaid=(74,0,0) tid=(95,0,0)
GPGPU-Sim PTX: 29000000 instructions simulated : ctaid=(10,0,0) tid=(63,0,0)
GPGPU-Sim uArch: cycles simulated: 52000  inst.: 29053536 (ipc=558.7) sim_rate=453961 (inst/sec) elapsed = 0:0:01:04 / Tue Mar 22 07:02:10 2016
GPGPU-Sim PTX: 29100000 instructions simulated : ctaid=(57,0,0) tid=(31,0,0)
GPGPU-Sim PTX: 29200000 instructions simulated : ctaid=(45,0,0) tid=(63,0,0)
GPGPU-Sim PTX: 29300000 instructions simulated : ctaid=(71,0,0) tid=(31,0,0)
GPGPU-Sim PTX: 29400000 instructions simulated : ctaid=(11,0,0) tid=(31,0,0)
GPGPU-Sim PTX: 29500000 instructions simulated : ctaid=(80,0,0) tid=(31,0,0)
GPGPU-Sim PTX: 29600000 instructions simulated : ctaid=(106,0,0) tid=(95,0,0)
GPGPU-Sim uArch: cycles simulated: 53000  inst.: 29651808 (ipc=559.5) sim_rate=456181 (inst/sec) elapsed = 0:0:01:05 / Tue Mar 22 07:02:11 2016
GPGPU-Sim PTX: 29700000 instructions simulated : ctaid=(58,0,0) tid=(63,0,0)
GPGPU-Sim PTX: 29800000 instructions simulated : ctaid=(13,0,0) tid=(127,0,0)
GPGPU-Sim PTX: 29900000 instructions simulated : ctaid=(102,0,0) tid=(95,0,0)
GPGPU-Sim PTX: 30000000 instructions simulated : ctaid=(44,0,0) tid=(31,0,0)
GPGPU-Sim uArch: cycles simulated: 53500  inst.: 29965920 (ipc=560.1) sim_rate=454029 (inst/sec) elapsed = 0:0:01:06 / Tue Mar 22 07:02:12 2016
GPGPU-Sim PTX: 30100000 instructions simulated : ctaid=(71,0,0) tid=(127,0,0)
GPGPU-Sim PTX: 30200000 instructions simulated : ctaid=(2,0,0) tid=(127,0,0)
GPGPU-Sim PTX: 30300000 instructions simulated : ctaid=(39,0,0) tid=(63,0,0)
GPGPU-Sim PTX: 30400000 instructions simulated : ctaid=(20,0,0) tid=(127,0,0)
GPGPU-Sim PTX: 30500000 instructions simulated : ctaid=(15,0,0) tid=(63,0,0)
GPGPU-Sim PTX: 30600000 instructions simulated : ctaid=(11,0,0) tid=(63,0,0)
GPGPU-Sim uArch: cycles simulated: 54500  inst.: 30567104 (ipc=560.9) sim_rate=456225 (inst/sec) elapsed = 0:0:01:07 / Tue Mar 22 07:02:13 2016
GPGPU-Sim PTX: 30700000 instructions simulated : ctaid=(74,0,0) tid=(95,0,0)
GPGPU-Sim PTX: 30800000 instructions simulated : ctaid=(4,0,0) tid=(127,0,0)
GPGPU-Sim uArch: cycles simulated: 55000  inst.: 30849472 (ipc=560.9) sim_rate=453668 (inst/sec) elapsed = 0:0:01:08 / Tue Mar 22 07:02:14 2016
GPGPU-Sim PTX: 30900000 instructions simulated : ctaid=(24,0,0) tid=(31,0,0)
GPGPU-Sim PTX: 31000000 instructions simulated : ctaid=(3,0,0) tid=(31,0,0)
GPGPU-Sim PTX: 31100000 instructions simulated : ctaid=(56,0,0) tid=(127,0,0)
GPGPU-Sim PTX: 31200000 instructions simulated : ctaid=(111,0,0) tid=(95,0,0)
GPGPU-Sim PTX: 31300000 instructions simulated : ctaid=(102,0,0) tid=(95,0,0)
GPGPU-Sim PTX: 31400000 instructions simulated : ctaid=(59,0,0) tid=(95,0,0)
GPGPU-Sim PTX: 31500000 instructions simulated : ctaid=(65,0,0) tid=(95,0,0)
GPGPU-Sim uArch: cycles simulated: 56000  inst.: 31474656 (ipc=562.0) sim_rate=456154 (inst/sec) elapsed = 0:0:01:09 / Tue Mar 22 07:02:15 2016
GPGPU-Sim PTX: 31600000 instructions simulated : ctaid=(71,0,0) tid=(63,0,0)
GPGPU-Sim PTX: 31700000 instructions simulated : ctaid=(41,0,0) tid=(95,0,0)
GPGPU-Sim PTX: 31800000 instructions simulated : ctaid=(31,0,0) tid=(127,0,0)
GPGPU-Sim uArch: cycles simulated: 56500  inst.: 31775680 (ipc=562.4) sim_rate=453938 (inst/sec) elapsed = 0:0:01:10 / Tue Mar 22 07:02:16 2016
GPGPU-Sim PTX: 31900000 instructions simulated : ctaid=(78,0,0) tid=(95,0,0)
GPGPU-Sim PTX: 32000000 instructions simulated : ctaid=(66,0,0) tid=(63,0,0)
GPGPU-Sim PTX: 32100000 instructions simulated : ctaid=(115,0,0) tid=(31,0,0)
GPGPU-Sim PTX: 32200000 instructions simulated : ctaid=(59,0,0) tid=(95,0,0)
GPGPU-Sim PTX: 32300000 instructions simulated : ctaid=(6,0,0) tid=(127,0,0)
GPGPU-Sim uArch: cycles simulated: 57500  inst.: 32355680 (ipc=562.7) sim_rate=455713 (inst/sec) elapsed = 0:0:01:11 / Tue Mar 22 07:02:17 2016
GPGPU-Sim PTX: 32400000 instructions simulated : ctaid=(91,0,0) tid=(63,0,0)
GPGPU-Sim PTX: 32500000 instructions simulated : ctaid=(20,0,0) tid=(127,0,0)
GPGPU-Sim PTX: 32600000 instructions simulated : ctaid=(18,0,0) tid=(63,0,0)
GPGPU-Sim uArch: cycles simulated: 58000  inst.: 32623168 (ipc=562.5) sim_rate=453099 (inst/sec) elapsed = 0:0:01:12 / Tue Mar 22 07:02:18 2016
GPGPU-Sim PTX: 32700000 instructions simulated : ctaid=(28,0,0) tid=(31,0,0)
GPGPU-Sim PTX: 32800000 instructions simulated : ctaid=(59,0,0) tid=(31,0,0)
GPGPU-Sim PTX: 32900000 instructions simulated : ctaid=(7,0,0) tid=(63,0,0)
GPGPU-Sim PTX: 33000000 instructions simulated : ctaid=(31,0,0) tid=(127,0,0)
GPGPU-Sim PTX: 33100000 instructions simulated : ctaid=(81,0,0) tid=(31,0,0)
GPGPU-Sim uArch: cycles simulated: 59000  inst.: 33157632 (ipc=562.0) sim_rate=454214 (inst/sec) elapsed = 0:0:01:13 / Tue Mar 22 07:02:19 2016
GPGPU-Sim PTX: 33200000 instructions simulated : ctaid=(44,0,0) tid=(127,0,0)
GPGPU-Sim PTX: 33300000 instructions simulated : ctaid=(20,0,0) tid=(31,0,0)
GPGPU-Sim PTX: 33400000 instructions simulated : ctaid=(59,0,0) tid=(95,0,0)
GPGPU-Sim uArch: cycles simulated: 59500  inst.: 33413280 (ipc=561.6) sim_rate=451530 (inst/sec) elapsed = 0:0:01:14 / Tue Mar 22 07:02:20 2016
GPGPU-Sim uArch: Shader 8 finished CTA #0 (59579,0), 7 CTAs running
GPGPU-Sim uArch: core:  8, cta: 0 initialized @(59580,0)
GPGPU-Sim PTX: 33500000 instructions simulated : ctaid=(5,0,0) tid=(63,0,0)
GPGPU-Sim PTX: 33600000 instructions simulated : ctaid=(91,0,0) tid=(31,0,0)
GPGPU-Sim PTX: 33700000 instructions simulated : ctaid=(85,0,0) tid=(95,0,0)
GPGPU-Sim PTX: 33800000 instructions simulated : ctaid=(98,0,0) tid=(95,0,0)
GPGPU-Sim PTX: 33900000 instructions simulated : ctaid=(36,0,0) tid=(31,0,0)
GPGPU-Sim uArch: cycles simulated: 60500  inst.: 33940320 (ipc=561.0) sim_rate=452537 (inst/sec) elapsed = 0:0:01:15 / Tue Mar 22 07:02:21 2016
GPGPU-Sim PTX: 34000000 instructions simulated : ctaid=(116,0,0) tid=(127,0,0)
GPGPU-Sim PTX: 34100000 instructions simulated : ctaid=(89,0,0) tid=(63,0,0)
GPGPU-Sim PTX: 34200000 instructions simulated : ctaid=(79,0,0) tid=(95,0,0)
GPGPU-Sim PTX: 34300000 instructions simulated : ctaid=(119,0,0) tid=(63,0,0)
GPGPU-Sim PTX: 34400000 instructions simulated : ctaid=(113,0,0) tid=(127,0,0)
GPGPU-Sim uArch: cycles simulated: 61500  inst.: 34459808 (ipc=560.3) sim_rate=453418 (inst/sec) elapsed = 0:0:01:16 / Tue Mar 22 07:02:22 2016
GPGPU-Sim PTX: 34500000 instructions simulated : ctaid=(17,0,0) tid=(31,0,0)
GPGPU-Sim PTX: 34600000 instructions simulated : ctaid=(41,0,0) tid=(127,0,0)
GPGPU-Sim PTX: 34700000 instructions simulated : ctaid=(95,0,0) tid=(63,0,0)
GPGPU-Sim uArch: cycles simulated: 62000  inst.: 34701376 (ipc=559.7) sim_rate=450667 (inst/sec) elapsed = 0:0:01:17 / Tue Mar 22 07:02:23 2016
GPGPU-Sim PTX: 34800000 instructions simulated : ctaid=(37,0,0) tid=(63,0,0)
GPGPU-Sim PTX: 34900000 instructions simulated : ctaid=(55,0,0) tid=(63,0,0)
GPGPU-Sim PTX: 35000000 instructions simulated : ctaid=(81,0,0) tid=(31,0,0)
GPGPU-Sim PTX: 35100000 instructions simulated : ctaid=(83,0,0) tid=(95,0,0)
GPGPU-Sim PTX: 35200000 instructions simulated : ctaid=(1,0,0) tid=(63,0,0)
GPGPU-Sim uArch: cycles simulated: 63000  inst.: 35177984 (ipc=558.4) sim_rate=450999 (inst/sec) elapsed = 0:0:01:18 / Tue Mar 22 07:02:24 2016
GPGPU-Sim PTX: 35300000 instructions simulated : ctaid=(104,0,0) tid=(95,0,0)
GPGPU-Sim PTX: 35400000 instructions simulated : ctaid=(101,0,0) tid=(63,0,0)
GPGPU-Sim uArch: Shader 14 finished CTA #0 (63362,0), 7 CTAs running
GPGPU-Sim uArch: core: 14, cta: 0 initialized @(63363,0)
GPGPU-Sim PTX: 35500000 instructions simulated : ctaid=(87,0,0) tid=(95,0,0)
GPGPU-Sim uArch: Shader 4 finished CTA #0 (63720,0), 7 CTAs running
GPGPU-Sim uArch: core:  4, cta: 0 initialized @(63721,0)
GPGPU-Sim PTX: 35600000 instructions simulated : ctaid=(86,0,0) tid=(63,0,0)
GPGPU-Sim PTX: 35700000 instructions simulated : ctaid=(86,0,0) tid=(95,0,0)
GPGPU-Sim uArch: cycles simulated: 64000  inst.: 35685216 (ipc=557.6) sim_rate=451711 (inst/sec) elapsed = 0:0:01:19 / Tue Mar 22 07:02:25 2016
GPGPU-Sim uArch: Shader 0 finished CTA #0 (64039,0), 7 CTAs running
GPGPU-Sim uArch: core:  0, cta: 0 initialized @(64040,0)
GPGPU-Sim PTX: 35800000 instructions simulated : ctaid=(34,0,0) tid=(31,0,0)
GPGPU-Sim PTX: 35900000 instructions simulated : ctaid=(119,0,0) tid=(63,0,0)
GPGPU-Sim uArch: Shader 9 finished CTA #0 (64328,0), 7 CTAs running
GPGPU-Sim uArch: core:  9, cta: 0 initialized @(64329,0)
GPGPU-Sim uArch: Shader 3 finished CTA #0 (64458,0), 7 CTAs running
GPGPU-Sim uArch: core:  3, cta: 0 initialized @(64459,0)
GPGPU-Sim PTX: 36000000 instructions simulated : ctaid=(53,0,0) tid=(63,0,0)
GPGPU-Sim uArch: cycles simulated: 64500  inst.: 35962176 (ipc=557.6) sim_rate=449527 (inst/sec) elapsed = 0:0:01:20 / Tue Mar 22 07:02:26 2016
GPGPU-Sim uArch: Shader 7 finished CTA #0 (64503,0), 7 CTAs running
GPGPU-Sim uArch: core:  7, cta: 0 initialized @(64504,0)
GPGPU-Sim uArch: Shader 1 finished CTA #0 (64579,0), 7 CTAs running
GPGPU-Sim uArch: core:  1, cta: 0 initialized @(64580,0)
GPGPU-Sim uArch: Shader 8 finished CTA #1 (64608,0), 7 CTAs running
GPGPU-Sim uArch: core:  8, cta: 1 initialized @(64609,0)
GPGPU-Sim PTX: 36100000 instructions simulated : ctaid=(50,0,0) tid=(63,0,0)
GPGPU-Sim uArch: Shader 0 finished CTA #1 (64745,0), 7 CTAs running
GPGPU-Sim uArch: core:  0, cta: 1 initialized @(64746,0)
GPGPU-Sim uArch: Shader 5 finished CTA #0 (64772,0), 7 CTAs running
GPGPU-Sim uArch: core:  5, cta: 0 initialized @(64773,0)
GPGPU-Sim PTX: 36200000 instructions simulated : ctaid=(46,0,0) tid=(127,0,0)
GPGPU-Sim uArch: Shader 6 finished CTA #0 (64863,0), 7 CTAs running
GPGPU-Sim uArch: core:  6, cta: 0 initialized @(64864,0)
GPGPU-Sim PTX: 36300000 instructions simulated : ctaid=(55,0,0) tid=(127,0,0)
GPGPU-Sim uArch: Shader 13 finished CTA #0 (65113,0), 7 CTAs running
GPGPU-Sim uArch: core: 13, cta: 0 initialized @(65114,0)
GPGPU-Sim uArch: Shader 11 finished CTA #0 (65189,0), 7 CTAs running
GPGPU-Sim uArch: core: 11, cta: 0 initialized @(65190,0)
GPGPU-Sim PTX: 36400000 instructions simulated : ctaid=(69,0,0) tid=(127,0,0)
GPGPU-Sim uArch: Shader 11 finished CTA #1 (65372,0), 7 CTAs running
GPGPU-Sim uArch: core: 11, cta: 1 initialized @(65373,0)
GPGPU-Sim PTX: 36500000 instructions simulated : ctaid=(17,0,0) tid=(31,0,0)
GPGPU-Sim uArch: Shader 2 finished CTA #0 (65475,0), 7 CTAs running
GPGPU-Sim uArch: core:  2, cta: 0 initialized @(65476,0)
GPGPU-Sim uArch: cycles simulated: 65500  inst.: 36505632 (ipc=557.3) sim_rate=450686 (inst/sec) elapsed = 0:0:01:21 / Tue Mar 22 07:02:27 2016
GPGPU-Sim PTX: 36600000 instructions simulated : ctaid=(90,0,0) tid=(31,0,0)
GPGPU-Sim PTX: 36700000 instructions simulated : ctaid=(80,0,0) tid=(127,0,0)
GPGPU-Sim uArch: Shader 12 finished CTA #1 (65860,0), 7 CTAs running
GPGPU-Sim uArch: core: 12, cta: 1 initialized @(65861,0)
GPGPU-Sim uArch: Shader 2 finished CTA #1 (65869,0), 7 CTAs running
GPGPU-Sim uArch: core:  2, cta: 1 initialized @(65870,0)
GPGPU-Sim PTX: 36800000 instructions simulated : ctaid=(54,0,0) tid=(127,0,0)
GPGPU-Sim uArch: cycles simulated: 66000  inst.: 36783584 (ipc=557.3) sim_rate=448580 (inst/sec) elapsed = 0:0:01:22 / Tue Mar 22 07:02:28 2016
GPGPU-Sim PTX: 36900000 instructions simulated : ctaid=(113,0,0) tid=(31,0,0)
GPGPU-Sim uArch: Shader 10 finished CTA #1 (66222,0), 7 CTAs running
GPGPU-Sim uArch: core: 10, cta: 1 initialized @(66223,0)
GPGPU-Sim uArch: Shader 5 finished CTA #1 (66290,0), 7 CTAs running
GPGPU-Sim uArch: core:  5, cta: 1 initialized @(66291,0)
GPGPU-Sim PTX: 37000000 instructions simulated : ctaid=(100,0,0) tid=(127,0,0)
GPGPU-Sim uArch: Shader 2 finished CTA #2 (66402,0), 7 CTAs running
GPGPU-Sim uArch: core:  2, cta: 2 initialized @(66403,0)
GPGPU-Sim PTX: 37100000 instructions simulated : ctaid=(52,0,0) tid=(127,0,0)
GPGPU-Sim PTX: 37200000 instructions simulated : ctaid=(87,0,0) tid=(63,0,0)
GPGPU-Sim uArch: Shader 13 finished CTA #1 (66691,0), 7 CTAs running
GPGPU-Sim uArch: core: 13, cta: 1 initialized @(66692,0)
GPGPU-Sim uArch: Shader 6 finished CTA #1 (66811,0), 7 CTAs running
GPGPU-Sim uArch: core:  6, cta: 1 initialized @(66812,0)
GPGPU-Sim PTX: 37300000 instructions simulated : ctaid=(41,0,0) tid=(127,0,0)
GPGPU-Sim uArch: Shader 1 finished CTA #1 (66815,0), 7 CTAs running
GPGPU-Sim uArch: core:  1, cta: 1 initialized @(66816,0)
GPGPU-Sim uArch: Shader 7 finished CTA #2 (66823,0), 7 CTAs running
GPGPU-Sim uArch: core:  7, cta: 2 initialized @(66824,0)
GPGPU-Sim uArch: Shader 9 finished CTA #1 (66931,0), 7 CTAs running
GPGPU-Sim uArch: core:  9, cta: 1 initialized @(66932,0)
GPGPU-Sim PTX: 37400000 instructions simulated : ctaid=(75,0,0) tid=(127,0,0)
GPGPU-Sim uArch: cycles simulated: 67000  inst.: 37371296 (ipc=557.8) sim_rate=450256 (inst/sec) elapsed = 0:0:01:23 / Tue Mar 22 07:02:29 2016
GPGPU-Sim uArch: Shader 10 finished CTA #2 (67018,0), 7 CTAs running
GPGPU-Sim uArch: core: 10, cta: 2 initialized @(67019,0)
GPGPU-Sim uArch: Shader 10 finished CTA #0 (67106,0), 7 CTAs running
GPGPU-Sim uArch: core: 10, cta: 0 initialized @(67107,0)
GPGPU-Sim uArch: Shader 4 finished CTA #1 (67117,0), 7 CTAs running
GPGPU-Sim uArch: core:  4, cta: 1 initialized @(67118,0)
GPGPU-Sim PTX: 37500000 instructions simulated : ctaid=(90,0,0) tid=(31,0,0)
GPGPU-Sim uArch: Shader 0 finished CTA #2 (67149,0), 7 CTAs running
GPGPU-Sim uArch: core:  0, cta: 2 initialized @(67150,0)
GPGPU-Sim uArch: Shader 12 finished CTA #0 (67158,0), 7 CTAs running
GPGPU-Sim uArch: core: 12, cta: 0 initialized @(67159,0)
GPGPU-Sim uArch: Shader 7 finished CTA #1 (67223,0), 7 CTAs running
GPGPU-Sim uArch: core:  7, cta: 1 initialized @(67224,0)
GPGPU-Sim PTX: 37600000 instructions simulated : ctaid=(62,0,0) tid=(31,0,0)
GPGPU-Sim PTX: 37700000 instructions simulated : ctaid=(76,0,0) tid=(63,0,0)
GPGPU-Sim uArch: cycles simulated: 67500  inst.: 37689760 (ipc=558.4) sim_rate=448687 (inst/sec) elapsed = 0:0:01:24 / Tue Mar 22 07:02:30 2016
GPGPU-Sim uArch: Shader 13 finished CTA #2 (67569,0), 7 CTAs running
GPGPU-Sim uArch: core: 13, cta: 2 initialized @(67570,0)
GPGPU-Sim PTX: 37800000 instructions simulated : ctaid=(105,0,0) tid=(127,0,0)
GPGPU-Sim PTX: 37900000 instructions simulated : ctaid=(97,0,0) tid=(95,0,0)
GPGPU-Sim uArch: Shader 11 finished CTA #2 (67745,0), 7 CTAs running
GPGPU-Sim uArch: core: 11, cta: 2 initialized @(67746,0)
GPGPU-Sim PTX: 38000000 instructions simulated : ctaid=(79,0,0) tid=(95,0,0)
GPGPU-Sim PTX: 38100000 instructions simulated : ctaid=(78,0,0) tid=(127,0,0)
GPGPU-Sim uArch: Shader 14 finished CTA #1 (68072,0), 7 CTAs running
GPGPU-Sim uArch: core: 14, cta: 1 initialized @(68073,0)
GPGPU-Sim uArch: Shader 4 finished CTA #2 (68090,0), 7 CTAs running
GPGPU-Sim uArch: core:  4, cta: 2 initialized @(68091,0)
GPGPU-Sim PTX: 38200000 instructions simulated : ctaid=(41,0,0) tid=(127,0,0)
GPGPU-Sim PTX: 38300000 instructions simulated : ctaid=(103,0,0) tid=(127,0,0)
GPGPU-Sim uArch: cycles simulated: 68500  inst.: 38322048 (ipc=559.4) sim_rate=450847 (inst/sec) elapsed = 0:0:01:25 / Tue Mar 22 07:02:31 2016
GPGPU-Sim PTX: 38400000 instructions simulated : ctaid=(57,0,0) tid=(63,0,0)
GPGPU-Sim uArch: Shader 3 finished CTA #1 (68689,0), 7 CTAs running
GPGPU-Sim uArch: core:  3, cta: 1 initialized @(68690,0)
GPGPU-Sim PTX: 38500000 instructions simulated : ctaid=(93,0,0) tid=(127,0,0)
GPGPU-Sim uArch: Shader 6 finished CTA #2 (68812,0), 7 CTAs running
GPGPU-Sim uArch: core:  6, cta: 2 initialized @(68813,0)
GPGPU-Sim PTX: 38600000 instructions simulated : ctaid=(76,0,0) tid=(127,0,0)
GPGPU-Sim uArch: Shader 3 finished CTA #2 (68938,0), 7 CTAs running
GPGPU-Sim uArch: core:  3, cta: 2 initialized @(68939,0)
GPGPU-Sim uArch: cycles simulated: 69000  inst.: 38621024 (ipc=559.7) sim_rate=449081 (inst/sec) elapsed = 0:0:01:26 / Tue Mar 22 07:02:32 2016
GPGPU-Sim PTX: 38700000 instructions simulated : ctaid=(138,0,0) tid=(95,0,0)
GPGPU-Sim uArch: Shader 1 finished CTA #2 (69188,0), 7 CTAs running
GPGPU-Sim uArch: core:  1, cta: 2 initialized @(69189,0)
GPGPU-Sim PTX: 38800000 instructions simulated : ctaid=(75,0,0) tid=(95,0,0)
GPGPU-Sim uArch: Shader 9 finished CTA #2 (69229,0), 7 CTAs running
GPGPU-Sim uArch: core:  9, cta: 2 initialized @(69230,0)
GPGPU-Sim uArch: Shader 5 finished CTA #2 (69321,0), 7 CTAs running
GPGPU-Sim uArch: core:  5, cta: 2 initialized @(69322,0)
GPGPU-Sim PTX: 38900000 instructions simulated : ctaid=(148,0,0) tid=(31,0,0)
GPGPU-Sim uArch: Shader 7 finished CTA #3 (69366,0), 7 CTAs running
GPGPU-Sim uArch: core:  7, cta: 3 initialized @(69367,0)
GPGPU-Sim uArch: Shader 12 finished CTA #2 (69406,0), 7 CTAs running
GPGPU-Sim uArch: core: 12, cta: 2 initialized @(69407,0)
GPGPU-Sim uArch: cycles simulated: 69500  inst.: 38940928 (ipc=560.3) sim_rate=447596 (inst/sec) elapsed = 0:0:01:27 / Tue Mar 22 07:02:33 2016
GPGPU-Sim PTX: 39000000 instructions simulated : ctaid=(73,0,0) tid=(63,0,0)
GPGPU-Sim PTX: 39100000 instructions simulated : ctaid=(111,0,0) tid=(127,0,0)
GPGPU-Sim PTX: 39200000 instructions simulated : ctaid=(124,0,0) tid=(31,0,0)
GPGPU-Sim uArch: cycles simulated: 70000  inst.: 39243872 (ipc=560.6) sim_rate=445953 (inst/sec) elapsed = 0:0:01:28 / Tue Mar 22 07:02:34 2016
GPGPU-Sim PTX: 39300000 instructions simulated : ctaid=(139,0,0) tid=(31,0,0)
GPGPU-Sim uArch: Shader 4 finished CTA #3 (70156,0), 7 CTAs running
GPGPU-Sim uArch: core:  4, cta: 3 initialized @(70157,0)
GPGPU-Sim PTX: 39400000 instructions simulated : ctaid=(91,0,0) tid=(31,0,0)
GPGPU-Sim PTX: 39500000 instructions simulated : ctaid=(75,0,0) tid=(31,0,0)
GPGPU-Sim PTX: 39600000 instructions simulated : ctaid=(81,0,0) tid=(127,0,0)
GPGPU-Sim uArch: Shader 9 finished CTA #3 (70594,0), 7 CTAs running
GPGPU-Sim uArch: core:  9, cta: 3 initialized @(70595,0)
GPGPU-Sim uArch: Shader 14 finished CTA #2 (70666,0), 7 CTAs running
GPGPU-Sim uArch: core: 14, cta: 2 initialized @(70667,0)
GPGPU-Sim PTX: 39700000 instructions simulated : ctaid=(87,0,0) tid=(95,0,0)
GPGPU-Sim uArch: Shader 11 finished CTA #3 (70964,0), 7 CTAs running
GPGPU-Sim uArch: core: 11, cta: 3 initialized @(70965,0)
GPGPU-Sim PTX: 39800000 instructions simulated : ctaid=(100,0,0) tid=(63,0,0)
GPGPU-Sim uArch: cycles simulated: 71000  inst.: 39764032 (ipc=560.1) sim_rate=446786 (inst/sec) elapsed = 0:0:01:29 / Tue Mar 22 07:02:35 2016
GPGPU-Sim uArch: Shader 0 finished CTA #3 (71107,0), 7 CTAs running
GPGPU-Sim uArch: core:  0, cta: 3 initialized @(71108,0)
GPGPU-Sim uArch: Shader 5 finished CTA #3 (71163,0), 7 CTAs running
GPGPU-Sim uArch: core:  5, cta: 3 initialized @(71164,0)
GPGPU-Sim PTX: 39900000 instructions simulated : ctaid=(47,0,0) tid=(127,0,0)
GPGPU-Sim uArch: Shader 6 finished CTA #3 (71365,0), 7 CTAs running
GPGPU-Sim uArch: core:  6, cta: 3 initialized @(71366,0)
GPGPU-Sim PTX: 40000000 instructions simulated : ctaid=(80,0,0) tid=(127,0,0)
GPGPU-Sim uArch: cycles simulated: 71500  inst.: 40018528 (ipc=559.7) sim_rate=444650 (inst/sec) elapsed = 0:0:01:30 / Tue Mar 22 07:02:36 2016
GPGPU-Sim PTX: 40100000 instructions simulated : ctaid=(64,0,0) tid=(63,0,0)
GPGPU-Sim PTX: 40200000 instructions simulated : ctaid=(117,0,0) tid=(31,0,0)
GPGPU-Sim PTX: 40300000 instructions simulated : ctaid=(97,0,0) tid=(31,0,0)
GPGPU-Sim PTX: 40400000 instructions simulated : ctaid=(100,0,0) tid=(127,0,0)
GPGPU-Sim PTX: 40500000 instructions simulated : ctaid=(157,0,0) tid=(127,0,0)
GPGPU-Sim PTX: 40600000 instructions simulated : ctaid=(129,0,0) tid=(31,0,0)
GPGPU-Sim uArch: cycles simulated: 72500  inst.: 40628480 (ipc=560.4) sim_rate=446466 (inst/sec) elapsed = 0:0:01:31 / Tue Mar 22 07:02:37 2016
GPGPU-Sim PTX: 40700000 instructions simulated : ctaid=(157,0,0) tid=(95,0,0)
GPGPU-Sim PTX: 40800000 instructions simulated : ctaid=(107,0,0) tid=(63,0,0)
GPGPU-Sim uArch: Shader 8 finished CTA #2 (72813,0), 7 CTAs running
GPGPU-Sim uArch: core:  8, cta: 2 initialized @(72814,0)
GPGPU-Sim PTX: 40900000 instructions simulated : ctaid=(170,0,0) tid=(95,0,0)
GPGPU-Sim PTX: 41000000 instructions simulated : ctaid=(135,0,0) tid=(31,0,0)
GPGPU-Sim uArch: cycles simulated: 73000  inst.: 40970144 (ipc=561.2) sim_rate=445327 (inst/sec) elapsed = 0:0:01:32 / Tue Mar 22 07:02:38 2016
GPGPU-Sim PTX: 41100000 instructions simulated : ctaid=(98,0,0) tid=(95,0,0)
GPGPU-Sim uArch: Shader 10 finished CTA #3 (73193,0), 7 CTAs running
GPGPU-Sim uArch: core: 10, cta: 3 initialized @(73194,0)
GPGPU-Sim PTX: 41200000 instructions simulated : ctaid=(170,0,0) tid=(95,0,0)
GPGPU-Sim PTX: 41300000 instructions simulated : ctaid=(112,0,0) tid=(63,0,0)
GPGPU-Sim uArch: cycles simulated: 73500  inst.: 41294752 (ipc=561.8) sim_rate=444029 (inst/sec) elapsed = 0:0:01:33 / Tue Mar 22 07:02:39 2016
GPGPU-Sim PTX: 41400000 instructions simulated : ctaid=(145,0,0) tid=(95,0,0)
GPGPU-Sim PTX: 41500000 instructions simulated : ctaid=(125,0,0) tid=(31,0,0)
GPGPU-Sim PTX: 41600000 instructions simulated : ctaid=(119,0,0) tid=(63,0,0)
GPGPU-Sim PTX: 41700000 instructions simulated : ctaid=(114,0,0) tid=(31,0,0)
GPGPU-Sim uArch: Shader 1 finished CTA #3 (74078,0), 7 CTAs running
GPGPU-Sim uArch: core:  1, cta: 3 initialized @(74079,0)
GPGPU-Sim PTX: 41800000 instructions simulated : ctaid=(132,0,0) tid=(127,0,0)
GPGPU-Sim PTX: 41900000 instructions simulated : ctaid=(88,0,0) tid=(31,0,0)
GPGPU-Sim uArch: cycles simulated: 74500  inst.: 41892736 (ipc=562.3) sim_rate=445667 (inst/sec) elapsed = 0:0:01:34 / Tue Mar 22 07:02:40 2016
GPGPU-Sim PTX: 42000000 instructions simulated : ctaid=(101,0,0) tid=(31,0,0)
[...]
max_icnt2sh_latency = 536157 
mrq_lat_table:149131 	4609 	6154 	13524 	54936 	67922 	78892 	50313 	11471 	548 	9 	0 	0 	0 	0 	0 	0 	0 	0 	0 	0 	0 	0 	0 	0 	0 	0 	0 	0 	0 	0 	0 	
dq_lat_table:0 	0 	0 	0 	0 	0 	0 	0 	0 	0 	0 	0 	0 	0 	0 	0 	0 	0 	0 	0 	0 	0 	0 	0 	0 	0 	0 	0 	0 	0 	0 	0 	
mf_lat_table:0 	0 	0 	0 	0 	0 	0 	309 	164114 	141009 	7083 	0 	0 	0 	0 	0 	0 	0 	0 	0 	0 	0 	0 	0 	0 	0 	0 	0 	0 	0 	0 	0 	
icnt2mem_lat_table:0 	0 	0 	134444 	31758 	18294 	43517 	43113 	39847 	1662 	0 	0 	0 	0 	0 	0 	0 	0 	0 	0 	0 	0 	0 	0 	
icnt2sh_lat_table:0 	0 	0 	128912 	56504 	2097 	2 	0 	0 	0 	0 	227 	1340 	3096 	6103 	12078 	24393 	46702 	31028 	33 	0 	0 	0 	0 	
mf_lat_pw_table:0 	0 	0 	0 	0 	0 	0 	0 	712 	355 	0 	0 	0 	0 	0 	0 	0 	0 	0 	0 	0 	0 	0 	0 	0 	0 	0 	0 	0 	0 	0 	0 	
maximum concurrent accesses to same row:
dram[0]:        20        20        24        14        20        20        26        18        16        18        20        20        28        16        20        32 
dram[1]:        14        20        26        16        24        20        20        18        20        16        20        20        24        17        20        20 
dram[2]:        14        22        22        24        20        30        26        30        12        24        20        22        20        24        18        24 
dram[3]:        16        20        16        14        20        26        18        18        20        16        20        20        17        15        16        28 
dram[4]:        20        24        26        32        20        32        18        32        26        32        16        28        28        34        18        30 
dram[5]:        20        20        18        22        30        20        18        18        30        22        16        20        16        26        20        22 
maximum service time to same row:
dram[0]:     17906      6033     12392      6050     17887      7963     17915      6040     13306      6068     17897      6015     17919      6045     17879      6974 
dram[1]:     16295      5956     11534      5927     25068     10022     16287      5969     12662      5930     25059      5942     16281      5925     25084      8965 
dram[2]:      8254     10790      8256     10493      8691     10790      8247     10789      9906     10491      8258     10791      8256     10496      8266     15808 
dram[3]:      5954      7140      5978      9847      8238      7328      5960      9873      5954      9834      5958      7144      5966      9859      5969     13071 
dram[4]:      5992      9538      5983      9482      5966      9519      5981      9549      6871      9492      6006      9534      5976      9815      5966      9504 
dram[5]:      5981     10664      5921     10680      5962     10664      6454     10665      5929     10681      5972     10662      6454     10673      5948     10672 
average row accesses per activate:
dram[0]:  1.554832  1.567082  1.561246  1.552116  1.586835  1.563837  1.580111  1.571429  1.583391  1.569811  1.580111  1.566051  1.597765  1.574131  1.589993  1.581749 
dram[1]:  1.538670  1.529015  1.538357  1.526904  1.535230  1.541497  1.555933  1.548038  1.528901  1.528390  1.545946  1.536086  1.547514  1.538151  1.527370  1.539186 
dram[2]:  1.552361  1.591292  1.546795  1.565036  1.574158  1.585460  1.585586  1.601120  1.556463  1.570889  1.580111  1.577387  1.570889  1.582843  1.576300  1.587236 
dram[3]:  1.528302  1.545176  1.521754  1.524840  1.531599  1.547067  1.558052  1.554876  1.523810  1.534541  1.535055  1.546468  1.537118  1.539704  1.539186  1.548562 
dram[4]:  1.562909  1.569796  1.563410  1.571578  1.574158  1.584906  1.581203  1.626155  1.543860  1.586685  1.574131  1.588337  1.568197  1.595537  1.565515  1.610134 
dram[5]:  1.536428  1.535230  1.532609  1.525871  1.533153  1.531915  1.550135  1.562842  1.533512  1.541260  1.534541  1.546468  1.540741  1.545424  1.548562  1.544381 
average row locality = 437509/280967 = 1.557154
number of total memory accesses made:
dram[0]:         0         0         0         0         0         0         0         0         0         0         0         0         0         0         0         0 
dram[1]:         0         0         0         0         0         0         0         0         0         0         0         0         0         0         0         0 
dram[2]:         0         0         0         0         0         0         0         0         0         0         0         0         0         0         0         0 
dram[3]:         0         0         0         0         0         0         0         0         0         0         0         0         0         0         0         0 
dram[4]:         0         0         0         0         0         0         0         0         0         0         0         0         0         0         0         0 
dram[5]:         0         0         0         0         0         0         0         0         0         0         0         0         0         0         0         0 
total accesses: 0
min_bank_accesses = 0!
min_chip_accesses = 0!
number of total read accesses:
dram[0]:      3251      3246      3232      3232      3242      3242      3264      3264      3264      3264      3264      3264      3264      3264      3264      3264 
dram[1]:      3250      3246      3232      3232      3242      3242      3264      3264      3264      3264      3264      3264      3264      3264      3264      3264 
dram[2]:      3250      3246      3232      3232      3242      3244      3264      3264      3264      3264      3264      3264      3264      3264      3264      3264 
dram[3]:      3250      3246      3232      3232      3242      3244      3264      3264      3264      3264      3264      3264      3264      3264      3264      3264 
dram[4]:      3248      3246      3232      3232      3242      3244      3264      3264      3264      3264      3264      3264      3264      3264      3264      3264 
dram[5]:      3248      3246      3232      3232      3242      3244      3264      3264      3264      3264      3264      3264      3264      3264      3264      3264 
total reads: 312509
bank skew: 3264/3232 = 1.01
chip skew: 52086/52084 = 1.00
number of total write accesses:
dram[0]:      1286      1286      1280      1280      1290      1290      1312      1312      1312      1312      1312      1312      1312      1312      1312      1312 
dram[1]:      1286      1286      1280      1280      1290      1290      1312      1312      1312      1312      1312      1312      1312      1312      1312      1312 
dram[2]:      1286      1286      1280      1280      1290      1292      1312      1312      1312      1312      1312      1312      1312      1312      1312      1312 
dram[3]:      1286      1286      1280      1280      1290      1292      1312      1312      1312      1312      1312      1312      1312      1312      1312      1312 
dram[4]:      1286      1286      1280      1280      1290      1292      1312      1312      1312      1312      1312      1312      1312      1312      1312      1312 
dram[5]:      1286      1286      1280      1280      1290      1292      1312      1312      1312      1312      1312      1312      1312      1312      1312      1312 
total reads: 125000
bank skew: 1312/1280 = 1.02
chip skew: 20834/20832 = 1.00
average mf latency per bank:
dram[0]:        381       384       384       394       387       392       395       400       378       391       382       386       392       397       389       402
dram[1]:        332       338       341       347       337       345       341       353       335       340       335       341       345       353       343       351
dram[2]:        364       373       372       377       373       378       381       389       366       377       367       375       372       383       382       392
dram[3]:        354       353       363       363       365       363       374       371       359       359       360       355       367       366       370       375
dram[4]:        414       408       424       413       415       414       428       427       418       415       416       410       423       418       424       427
dram[5]:        367       357       365       362       370       365       375       379       360       360       366       362       370       369       377       377
maximum mf latency per bank:
dram[0]:       1652      1455      1697      1576      1728      1597      1731      1704      1365      1451      1355      1390      1790      1544      1666      1640
dram[1]:       1181      1276      1346      1226      1208      1175      1250      1223      1245      1210      1127      1356      1682      1334      1183      1180
dram[2]:       1255      1581      1341      1948      1361      1443      1567      1776      1407      1746      1349      1405      1391      1594      1440      1690
dram[3]:       1467      1340      1347      1448      1273      1336      1303      1412      1263      1324      1176      1198      1259      1542      1214      1961
dram[4]:       1486      2028      1573      1861      1520      2029      1588      1842      1797      1862      1417      1668      1564      1656      1565      1736
dram[5]:       1562      1227      1380      1318      1400      1250      1333      1291      1361      1267      1248      1239      1273      1273      1337      1746

Number of Memory Banks Accessed per Memory Operation per Warp (from 0):
0	0	0	0	0	0	0	0	0	0	0	0	0	0	0	0	0	0	0	0	0	0	0	0	0	0	0	0	0	0	0	0	0	0	0	0	0	0	0	0	0	0	0	0	0	0	0	0	0	0	0	0	0	0	0	0	0	0	0	0	0	0	0	0	0	0	0	0	0	0	0	0	0	0	0	0	0	0	0	0	0	0	0	0	0	0	0	0	0	0	0	0	0	0	0	0	
Average # of Memory Banks Accessed per Memory Operation per Warp=-nan

position of mrq chosen
0	0	0	0	0	0	0	0	0	0	0	0	0	0	0	0	

average position of mrq chosen = -nan
Memory Partition 0: 
Cache L2_bank_000:
MSHR contents

Cache L2_bank_001:
MSHR contents

In Dram Latency Queue (total = 0): 
DRAM[0]: 16 bks, busW=4 BL=8 CL=12, tRRD=2 tCCD=6, tRCD=12 tRAS=28 tRP=12 tRC=40
n_cmd=707728 n_nop=469242 n_act=46334 n_pre=46318 n_req=72917 n_rd=104170 n_write=41664 bw_util=0.4121
n_activity=517257 dram_eff=0.5639
bk0: 6502a 488833i bk1: 6492a 485484i bk2: 6464a 483239i bk3: 6464a 477153i bk4: 6484a 476161i bk5: 6484a 465102i bk6: 6528a 459090i bk7: 6528a 448233i bk8: 6528a 489600i bk9: 6528a 482052i bk10: 6528a 482164i bk11: 6528a 473780i bk12: 6528a 468547i bk13: 6528a 463016i bk14: 6528a 459102i bk15: 6528a 450277i 
dram_util_bins: 0 0 0 0 0 0 0 0 0 0
dram_eff_bins: 0 0 0 0 0 0 0 0 0 0
mrqq: max=16 avg=7.7045
Memory Partition 1: 
Cache L2_bank_002:
MSHR contents

Cache L2_bank_003:
MSHR contents

In Dram Latency Queue (total = 0): 
DRAM[1]: 16 bks, busW=4 BL=8 CL=12, tRRD=2 tCCD=6, tRCD=12 tRAS=28 tRP=12 tRC=40
n_cmd=707728 n_nop=467080 n_act=47416 n_pre=47400 n_req=72916 n_rd=104168 n_write=41664 bw_util=0.4121
n_activity=522400 dram_eff=0.5583
bk0: 6500a 490979i bk1: 6492a 483787i bk2: 6464a 480852i bk3: 6464a 474408i bk4: 6484a 471531i bk5: 6484a 464949i bk6: 6528a 456782i bk7: 6528a 450486i bk8: 6528a 485894i bk9: 6528a 481626i bk10: 6528a 478901i bk11: 6528a 471730i bk12: 6528a 467302i bk13: 6528a 460714i bk14: 6528a 457388i bk15: 6528a 449471i 
dram_util_bins: 0 0 0 0 0 0 0 0 0 0
dram_eff_bins: 0 0 0 0 0 0 0 0 0 0
mrqq: max=16 avg=7.28315
Memory Partition 2: 
Cache L2_bank_004:
MSHR contents

Cache L2_bank_005:
MSHR contents

In Dram Latency Queue (total = 0): 
DRAM[2]: 16 bks, busW=4 BL=8 CL=12, tRRD=2 tCCD=6, tRCD=12 tRAS=28 tRP=12 tRC=40
n_cmd=707728 n_nop=469316 n_act=46294 n_pre=46278 n_req=72920 n_rd=104172 n_write=41668 bw_util=0.4121
n_activity=515202 dram_eff=0.5661
bk0: 6500a 489995i bk1: 6492a 488486i bk2: 6464a 481526i bk3: 6464a 475721i bk4: 6484a 473561i bk5: 6488a 467581i bk6: 6528a 457241i bk7: 6528a 451962i bk8: 6528a 489784i bk9: 6528a 481783i bk10: 6528a 480983i bk11: 6528a 478523i bk12: 6528a 470256i bk13: 6528a 462935i bk14: 6528a 456534i bk15: 6528a 450136i 
dram_util_bins: 0 0 0 0 0 0 0 0 0 0
dram_eff_bins: 0 0 0 0 0 0 0 0 0 0
mrqq: max=16 avg=7.61105
Memory Partition 3: 
Cache L2_bank_006:
MSHR contents

Cache L2_bank_007:
MSHR contents
MSHR: tag=0x80f20500, atomic=0 1 entries : 0x7f7744d90980 :  mf: uid=5362003, sid05:w30, part=3, addr=0x80f20500, load , size=128, unknown  status = IN_PARTITION_DRAM (536155), 

In Dram Latency Queue (total = 0): 
DRAM[3]: 16 bks, busW=4 BL=8 CL=12, tRRD=2 tCCD=6, tRCD=12 tRAS=28 tRP=12 tRC=40
n_cmd=707728 n_nop=467108 n_act=47398 n_pre=47382 n_req=72920 n_rd=104172 n_write=41668 bw_util=0.4121
n_activity=521675 dram_eff=0.5591
bk0: 6500a 487057i bk1: 6492a 485838i bk2: 6464a 480800i bk3: 6464a 473144i bk4: 6484a 468243i bk5: 6488a 466145i bk6: 6528a 454136i bk7: 6528a 449086i bk8: 6528a 484129i bk9: 6528a 480246i bk10: 6528a 476189i bk11: 6528a 472626i bk12: 6528a 466127i bk13: 6528a 461092i bk14: 6528a 455111i bk15: 6528a 448277i 
dram_util_bins: 0 0 0 0 0 0 0 0 0 0
dram_eff_bins: 0 0 0 0 0 0 0 0 0 0
mrqq: max=16 avg=7.62882
Memory Partition 4: 
Cache L2_bank_008:
MSHR contents

Cache L2_bank_009:
MSHR contents

In Dram Latency Queue (total = 0): 
DRAM[4]: 16 bks, busW=4 BL=8 CL=12, tRRD=2 tCCD=6, tRCD=12 tRAS=28 tRP=12 tRC=40
n_cmd=707728 n_nop=469546 n_act=46181 n_pre=46165 n_req=72918 n_rd=104168 n_write=41668 bw_util=0.4121
n_activity=518293 dram_eff=0.5628
bk0: 6496a 490965i bk1: 6492a 488062i bk2: 6464a 482014i bk3: 6464a 478935i bk4: 6484a 472581i bk5: 6488a 470062i bk6: 6528a 460350i bk7: 6528a 455002i bk8: 6528a 485395i bk9: 6528a 480601i bk10: 6528a 478778i bk11: 6528a 476746i bk12: 6528a 470221i bk13: 6528a 465258i bk14: 6528a 459129i bk15: 6528a 450024i 
dram_util_bins: 0 0 0 0 0 0 0 0 0 0
dram_eff_bins: 0 0 0 0 0 0 0 0 0 0
mrqq: max=16 avg=7.87336
Memory Partition 5: 
Cache L2_bank_010:
MSHR contents

Cache L2_bank_011:
MSHR contents

In Dram Latency Queue (total = 0): 
DRAM[5]: 16 bks, busW=4 BL=8 CL=12, tRRD=2 tCCD=6, tRCD=12 tRAS=28 tRP=12 tRC=40
n_cmd=707728 n_nop=467220 n_act=47344 n_pre=47328 n_req=72918 n_rd=104168 n_write=41668 bw_util=0.4121
n_activity=523526 dram_eff=0.5571
bk0: 6496a 486680i bk1: 6492a 486406i bk2: 6464a 479442i bk3: 6464a 474606i bk4: 6484a 472095i bk5: 6488a 467666i bk6: 6528a 456535i bk7: 6528a 447893i bk8: 6528a 484524i bk9: 6528a 484215i bk10: 6528a 478802i bk11: 6528a 475988i bk12: 6528a 467986i bk13: 6528a 460387i bk14: 6528a 455811i bk15: 6528a 449873i 
dram_util_bins: 0 0 0 0 0 0 0 0 0 0
dram_eff_bins: 0 0 0 0 0 0 0 0 0 0
mrqq: max=16 avg=7.4986

========= L2 cache stats =========
L2_cache_bank[0]: Access = 26087, Miss = 26045, Miss_rate = 0.998, Pending_hits = 9, Reservation_fails = 13827
L2_cache_bank[1]: Access = 26040, Miss = 26040, Miss_rate = 1.000, Pending_hits = 0, Reservation_fails = 17659
L2_cache_bank[2]: Access = 26072, Miss = 26044, Miss_rate = 0.999, Pending_hits = 6, Reservation_fails = 14509
L2_cache_bank[3]: Access = 26040, Miss = 26040, Miss_rate = 1.000, Pending_hits = 0, Reservation_fails = 14618
L2_cache_bank[4]: Access = 26072, Miss = 26044, Miss_rate = 0.999, Pending_hits = 6, Reservation_fails = 12581
L2_cache_bank[5]: Access = 26042, Miss = 26042, Miss_rate = 1.000, Pending_hits = 0, Reservation_fails = 19224
L2_cache_bank[6]: Access = 26072, Miss = 26044, Miss_rate = 0.999, Pending_hits = 6, Reservation_fails = 12601
L2_cache_bank[7]: Access = 26042, Miss = 26042, Miss_rate = 1.000, Pending_hits = 0, Reservation_fails = 15897
L2_cache_bank[8]: Access = 26042, Miss = 26042, Miss_rate = 1.000, Pending_hits = 0, Reservation_fails = 21476
L2_cache_bank[9]: Access = 26042, Miss = 26042, Miss_rate = 1.000, Pending_hits = 0, Reservation_fails = 34537
L2_cache_bank[10]: Access = 26042, Miss = 26042, Miss_rate = 1.000, Pending_hits = 0, Reservation_fails = 19898
L2_cache_bank[11]: Access = 26042, Miss = 26042, Miss_rate = 1.000, Pending_hits = 0, Reservation_fails = 23659
L2_total_cache_accesses = 312635
L2_total_cache_misses = 312509
L2_total_cache_miss_rate = 0.9996
L2_total_cache_pending_hits = 27
L2_total_cache_reservation_fails = 220486
L2_total_cache_breakdown:
	L2_cache_stats_breakdown[GLOBAL_ACC_R][MISS] = 187500
	L2_cache_stats_breakdown[GLOBAL_ACC_R][RESERVATION_FAIL] = 130302
	L2_cache_stats_breakdown[CONST_ACC_R][HIT] = 11
	L2_cache_stats_breakdown[CONST_ACC_R][HIT_RESERVED] = 3
	L2_cache_stats_breakdown[CONST_ACC_R][MISS] = 1
	L2_cache_stats_breakdown[CONST_ACC_R][RESERVATION_FAIL] = 109
	L2_cache_stats_breakdown[GLOBAL_ACC_W][MISS] = 125000
	L2_cache_stats_breakdown[GLOBAL_ACC_W][RESERVATION_FAIL] = 89237
	L2_cache_stats_breakdown[INST_ACC_R][HIT] = 88
	L2_cache_stats_breakdown[INST_ACC_R][HIT_RESERVED] = 24
	L2_cache_stats_breakdown[INST_ACC_R][MISS] = 8
	L2_cache_stats_breakdown[INST_ACC_R][RESERVATION_FAIL] = 838
L2_cache_data_port_util = 0.000
L2_cache_fill_port_util = 0.194

icnt_total_pkts_mem_to_simt=1063145
icnt_total_pkts_simt_to_mem=812635
LD_mem_lat_dist  0 0 0 0 0 0 0 0 0 0 0 0 0 0 0 0 0 0 0 0 0 0 0 0 0 0 0
ST_mem_lat_dist  0 0 0 0 0 0 0 0 0 0 0 0 0 0 0 0 0 0 0 0 0 0 0 0 0 0 0
----------------------------Interconnect-DETAILS--------------------------------
Class 0:
Packet latency average = 30.7066
	minimum = 6
	maximum = 628
Network latency average = 22.3948
	minimum = 6
	maximum = 514
Slowest packet = 6095
Flit latency average = 16.837
	minimum = 6
	maximum = 514
Slowest flit = 360382
Fragmentation average = 0.279818
	minimum = 0
	maximum = 450
Injected packet rate average = 0.0431928
	minimum = 0.0340739 (at node 11)
	maximum = 0.0486554 (at node 15)
Accepted packet rate average = 0.0431928
	minimum = 0.0340739 (at node 11)
	maximum = 0.0486554 (at node 15)
Injected flit rate average = 0.129576
	minimum = 0.0885653 (at node 11)
	maximum = 0.165513 (at node 15)
Accepted flit rate average= 0.129576
	minimum = 0.115874 (at node 11)
	maximum = 0.144411 (at node 14)
Injected packet length average = 2.99995
Accepted packet length average = 2.99995
Total in-flight flits = 0 (0 measured)
====== Overall Traffic Statistics ======
====== Traffic class 0 ======
Packet latency average = 30.7066 (1 samples)
	minimum = 6 (1 samples)
	maximum = 628 (1 samples)
Network latency average = 22.3948 (1 samples)
	minimum = 6 (1 samples)
	maximum = 514 (1 samples)
Flit latency average = 16.837 (1 samples)
	minimum = 6 (1 samples)
	maximum = 514 (1 samples)
Fragmentation average = 0.279818 (1 samples)
	minimum = 0 (1 samples)
	maximum = 450 (1 samples)
Injected packet rate average = 0.0431928 (1 samples)
	minimum = 0.0340739 (1 samples)
	maximum = 0.0486554 (1 samples)
Accepted packet rate average = 0.0431928 (1 samples)
	minimum = 0.0340739 (1 samples)
	maximum = 0.0486554 (1 samples)
Injected flit rate average = 0.129576 (1 samples)
	minimum = 0.0885653 (1 samples)
	maximum = 0.165513 (1 samples)
Accepted flit rate average = 0.129576 (1 samples)
	minimum = 0.115874 (1 samples)
	maximum = 0.144411 (1 samples)
Injected packet size average = 2.99995 (1 samples)
Accepted packet size average = 2.99995 (1 samples)
Hops average = 1 (1 samples)
----------------------------END-of-Interconnect-DETAILS-------------------------


gpgpu_simulation_time = 0 days, 0 hrs, 7 min, 4 sec (424 sec)
gpgpu_simulation_rate = 461749 (inst/sec)
gpgpu_simulation_rate = 1264 (cycle/sec)
GPGPU-Sim: synchronize waiting for inactive GPU simulation
GPGPU-Sim API: Stream Manager State
GPGPU-Sim: detected inactive GPU simulation thread
Options count             : 4000000     
BlackScholesGPU() time    : 422159.093750 msec
Effective memory bandwidth: 0.000095 GB/s
Gigaoptions per second    : 0.000009     
Reading back GPU results...
Checking the results...
...running CPU calculations.
Comparing the results...
L1 norm: 1.729535E-07
Max absolute error: 1.192093E-05
TEST PASSED
Shutting down...
...releasing GPU memory.
...releasing CPU memory.
Shutdown done.
GPGPU-Sim: exit_simulation called
GPGPU-Sim: simulation thread signaled exit

Press ENTER to exit...
