

        *** GPGPU-Sim Simulator Version 3.2.2  [build 0] ***


GPGPU-Sim PTX: simulation mode 0 (can change with PTX_SIM_MODE_FUNC environment variable:
               1=functional simulation only, 0=detailed performance simulator)
GPGPU-Sim: Configuration options:

-network_mode                           1 # Interconnection network mode
-inter_config_file   config_fermi_islip.icnt # Interconnection network config file
-gpgpu_ptx_use_cuobjdump                    1 # Use cuobjdump to extract ptx and sass from binaries
-gpgpu_experimental_lib_support                    0 # Try to extract code from cuda libraries [Broken because of unknown cudaGetExportTable]
-gpgpu_ptx_convert_to_ptxplus                    0 # Convert SASS (native ISA) to ptxplus and run ptxplus
-gpgpu_ptx_force_max_capability                   20 # Force maximum compute capability
-gpgpu_ptx_inst_debug_to_file                    0 # Dump executed instructions' debug information to file
-gpgpu_ptx_inst_debug_file       inst_debug.txt # Executed instructions' debug output file
-gpgpu_ptx_inst_debug_thread_uid                    1 # Thread UID for executed instructions' debug output
-gpgpu_simd_model                       1 # 1 = post-dominator
-gpgpu_shader_core_pipeline              1536:32 # shader core pipeline config, i.e., {<nthread>:<warpsize>}
-gpgpu_tex_cache:l1  4:128:24,L:R:m:N:L,F:128:4,128:2 # per-shader L1 texture cache  (READ-ONLY) config  {<nsets>:<bsize>:<assoc>,<rep>:<wr>:<alloc>:<wr_alloc>,<mshr>:<N>:<merge>,<mq>:<rf>}
-gpgpu_const_cache:l1 64:64:2,L:R:f:N:L,A:2:32,4 # per-shader L1 constant memory cache  (READ-ONLY) config  {<nsets>:<bsize>:<assoc>,<rep>:<wr>:<alloc>:<wr_alloc>,<mshr>:<N>:<merge>,<mq>} 
-gpgpu_cache:il1     4:128:4,L:R:f:N:L,A:2:32,4 # shader L1 instruction cache config  {<nsets>:<bsize>:<assoc>,<rep>:<wr>:<alloc>:<wr_alloc>,<mshr>:<N>:<merge>,<mq>} 
-gpgpu_cache:dl1     32:128:4,L:L:m:N:H,A:32:8,8:2,0,1:0:1:1:0:1,1:4:8:16:32:64,/sciclone/data10/hwang07/GPU_RESEARCH/swl/swl_outputs/RESULTS/swl1/ # per-shader L1 data cache config  {<nsets>:<bsize>:<assoc>,<rep>:<wr>:<alloc>:<wr_alloc>,<mshr>:<N>:<merge>,<mq> | none}
-gpgpu_cache:dl1PrefL1                 none # per-shader L1 data cache config  {<nsets>:<bsize>:<assoc>,<rep>:<wr>:<alloc>:<wr_alloc>,<mshr>:<N>:<merge>,<mq> | none}
-gpgpu_cache:dl1PreShared                 none # per-shader L1 data cache config  {<nsets>:<bsize>:<assoc>,<rep>:<wr>:<alloc>:<wr_alloc>,<mshr>:<N>:<merge>,<mq> | none}
-gmem_skip_L1D                          0 # global memory access skip L1D cache (implements -Xptxas -dlcm=cg, default=no skip)
-gpgpu_perfect_mem                      0 # enable perfect memory mode (no cache miss)
-n_regfile_gating_group                    4 # group of lanes that should be read/written together)
-gpgpu_clock_gated_reg_file                    0 # enable clock gated reg file for power calculations
-gpgpu_clock_gated_lanes                    0 # enable clock gated lanes for power calculations
-gpgpu_shader_registers                32768 # Number of registers per shader core. Limits number of concurrent CTAs. (default 8192)
-gpgpu_shader_cta                       8 # Maximum number of concurrent CTAs in shader (default 8)
-gpgpu_num_cta_barriers                   16 # Maximum number of named barriers per CTA (default 16)
-gpgpu_n_clusters                      15 # number of processing clusters
-gpgpu_n_cores_per_cluster                    1 # number of simd cores per cluster
-gpgpu_n_cluster_ejection_buffer_size                    8 # number of packets in ejection buffer
-gpgpu_n_ldst_response_buffer_size                    2 # number of response packets in ld/st unit ejection buffer
-gpgpu_shmem_size                   16384 # Size of shared memory per shader core (default 16kB)
-gpgpu_shmem_size                   49152 # Size of shared memory per shader core (default 16kB)
-gpgpu_shmem_size_PrefL1                16384 # Size of shared memory per shader core (default 16kB)
-gpgpu_shmem_size_PrefShared                16384 # Size of shared memory per shader core (default 16kB)
-gpgpu_shmem_num_banks                   32 # Number of banks in the shared memory in each shader core (default 16)
-gpgpu_shmem_limited_broadcast                    0 # Limit shared memory to do one broadcast per cycle (default on)
-gpgpu_shmem_warp_parts                    1 # Number of portions a warp is divided into for shared memory bank conflict check 
-gpgpu_warpdistro_shader                   -1 # Specify which shader core to collect the warp size distribution from
-gpgpu_warp_issue_shader                    0 # Specify which shader core to collect the warp issue distribution from
-gpgpu_local_mem_map                    1 # Mapping from local memory space address to simulated GPU physical address space (default = enabled)
-gpgpu_num_reg_banks                   16 # Number of register banks (default = 8)
-gpgpu_reg_bank_use_warp_id                    0 # Use warp ID in mapping registers to banks (default = off)
-gpgpu_operand_collector_num_units_sp                    6 # number of collector units (default = 4)
-gpgpu_operand_collector_num_units_sfu                    8 # number of collector units (default = 4)
-gpgpu_operand_collector_num_units_mem                    2 # number of collector units (default = 2)
-gpgpu_operand_collector_num_units_gen                    0 # number of collector units (default = 0)
-gpgpu_operand_collector_num_in_ports_sp                    2 # number of collector unit in ports (default = 1)
-gpgpu_operand_collector_num_in_ports_sfu                    1 # number of collector unit in ports (default = 1)
-gpgpu_operand_collector_num_in_ports_mem                    1 # number of collector unit in ports (default = 1)
-gpgpu_operand_collector_num_in_ports_gen                    0 # number of collector unit in ports (default = 0)
-gpgpu_operand_collector_num_out_ports_sp                    2 # number of collector unit in ports (default = 1)
-gpgpu_operand_collector_num_out_ports_sfu                    1 # number of collector unit in ports (default = 1)
-gpgpu_operand_collector_num_out_ports_mem                    1 # number of collector unit in ports (default = 1)
-gpgpu_operand_collector_num_out_ports_gen                    0 # number of collector unit in ports (default = 0)
-gpgpu_coalesce_arch                   13 # Coalescing arch (default = 13, anything else is off for now)
-gpgpu_num_sched_per_core                    2 # Number of warp schedulers per core
-gpgpu_max_insn_issue_per_warp                    1 # Max number of instructions that can be issued per warp in one cycle by scheduler
-gpgpu_simt_core_sim_order                    1 # Select the simulation order of cores in a cluster (0=Fix, 1=Round-Robin)
-gpgpu_pipeline_widths        2,1,1,2,1,1,2 # Pipeline widths ID_OC_SP,ID_OC_SFU,ID_OC_MEM,OC_EX_SP,OC_EX_SFU,OC_EX_MEM,EX_WB
-gpgpu_num_sp_units                     2 # Number of SP units (default=1)
-gpgpu_num_sfu_units                    1 # Number of SF units (default=1)
-gpgpu_num_mem_units                    1 # Number if ldst units (default=1) WARNING: not hooked up to anything
-gpgpu_scheduler        warp_limiting:2:1 # Scheduler configuration: < lrr | gto | two_level_active > If two_level_active:<num_active_warps>:<inner_prioritization>:<outer_prioritization>For complete list of prioritization values see shader.h enum scheduler_prioritization_typeDefault: gto
-gpgpu_dram_scheduler                    1 # 0 = fifo, 1 = FR-FCFS (defaul)
-gpgpu_dram_partition_queues              8:8:8:8 # i2$:$2d:d2$:$2i
-l2_ideal                               0 # Use a ideal L2 cache that always hit
-gpgpu_cache:dl2     64:128:8,L:B:m:W:L,A:32:4,4:0,32 # unified banked L2 data cache config  {<nsets>:<bsize>:<assoc>,<rep>:<wr>:<alloc>:<wr_alloc>,<mshr>:<N>:<merge>,<mq>}
-gpgpu_cache:dl2_texture_only                    0 # L2 cache used for texture only
-gpgpu_n_mem                            6 # number of memory modules (e.g. memory controllers) in gpu
-gpgpu_n_sub_partition_per_mchannel                    2 # number of memory subpartition in each memory module
-gpgpu_n_mem_per_ctrlr                    2 # number of memory chips per memory controller
-gpgpu_memlatency_stat                   14 # track and display latency statistics 0x2 enables MC, 0x4 enables queue logs
-gpgpu_frfcfs_dram_sched_queue_size                   16 # 0 = unlimited (default); # entries per chip
-gpgpu_dram_return_queue_size                  116 # 0 = unlimited (default); # entries per chip
-gpgpu_dram_buswidth                    4 # default = 4 bytes (8 bytes per cycle at DDR)
-gpgpu_dram_burst_length                    8 # Burst length of each DRAM request (default = 4 data bus cycle)
-dram_data_command_freq_ratio                    4 # Frequency ratio between DRAM data bus and command bus (default = 2 times, i.e. DDR)
-gpgpu_dram_timing_opt nbk=16:CCD=2:RRD=6:RCD=12:RAS=28:RP=12:RC=40: CL=12:WL=4:CDLR=5:WR=12:nbkgrp=4:CCDL=3:RTPL=2 # DRAM timing parameters = {nbk:tCCD:tRRD:tRCD:tRAS:tRP:tRC:CL:WL:tCDLR:tWR:nbkgrp:tCCDL:tRTPL}
-rop_latency                          120 # ROP queue latency (default 85)
-dram_latency                         100 # DRAM latency (default 30)
-gpgpu_mem_addr_mapping dramid@8;00000000.00000000.00000000.00000000.0000RRRR.RRRRRRRR.BBBCCCCB.CCSSSSSS # mapping memory address to dram model {dramid@<start bit>;<memory address map>}
-gpgpu_mem_addr_test                    0 # run sweep test to check address mapping for aliased address
-gpgpu_mem_address_mask                    1 # 0 = old addressing mask, 1 = new addressing mask, 2 = new add. mask + flipped bank sel and chip sel bits
-gpuwattch_xml_file  gpuwattch_gtx480.xml # GPUWattch XML file
-power_simulation_enabled                    0 # Turn on power simulator (1=On, 0=Off)
-power_per_cycle_dump                    0 # Dump detailed power output each cycle
-power_trace_enabled                    0 # produce a file for the power trace (1=On, 0=Off)
-power_trace_zlevel                     6 # Compression level of the power trace output log (0=no comp, 9=highest)
-steady_power_levels_enabled                    0 # produce a file for the steady power levels (1=On, 0=Off)
-steady_state_definition                  8:4 # allowed deviation:number of samples
-gpgpu_max_cycle                        0 # terminates gpu simulation early (0 = no limit)
-gpgpu_max_insn                         0 # terminates gpu simulation early (0 = no limit)
-gpgpu_max_cta                          0 # terminates gpu simulation early (0 = no limit)
-gpgpu_runtime_stat                   500 # display runtime statistics such as dram utilization {<freq>:<flag>}
-liveness_message_freq                    1 # Minimum number of seconds between simulation liveness messages (0 = always print)
-gpgpu_flush_l1_cache                    0 # Flush L1 cache at the end of each kernel call
-gpgpu_flush_l2_cache                    0 # Flush L2 cache at the end of each kernel call
-gpgpu_deadlock_detect                    1 # Stop the simulation at deadlock (1=on (default), 0=off)
-gpgpu_ptx_instruction_classification                    0 # if enabled will classify ptx instruction types per kernel (Max 255 kernels now)
-gpgpu_ptx_sim_mode                     0 # Select between Performance (default) or Functional simulation (1)
-gpgpu_clock_domains 700.0:700.0:700.0:924.0 # Clock Domain Frequencies in MhZ {<Core Clock>:<ICNT Clock>:<L2 Clock>:<DRAM Clock>}
-gpgpu_max_concurrent_kernel                    8 # maximum kernels that can run concurrently on GPU
-gpgpu_cflog_interval                    0 # Interval between each snapshot in control flow logger
-visualizer_enabled                     0 # Turn on visualizer output (1=On, 0=Off)
-visualizer_outputfile                 NULL # Specifies the output log file for visualizer
-visualizer_zlevel                      6 # Compression level of the visualizer output log (0=no comp, 9=highest)
-trace_enabled                          0 # Turn on traces
-trace_components                    none # comma seperated list of traces to enable. Complete list found in trace_streams.tup. Default none
-trace_sampling_core                    0 # The core which is printed using CORE_DPRINTF. Default 0
-trace_sampling_memory_partition                   -1 # The memory partition which is printed using MEMPART_DPRINTF. Default -1 (i.e. all)
-enable_ptx_file_line_stats                    1 # Turn on PTX source line statistic profiling. (1 = On)
-ptx_line_stats_filename gpgpu_inst_stats.txt # Output file for PTX source line statistics.
-save_embedded_ptx                      0 # saves ptx files embedded in binary as <n>.ptx
-keep                                   0 # keep intermediate files created by GPGPU-Sim when interfacing with external programs
-gpgpu_ptx_save_converted_ptxplus                    0 # Saved converted ptxplus to a file
-ptx_opcode_latency_int         4,13,4,5,145 # Opcode latencies for integers <ADD,MAX,MUL,MAD,DIV>Default 1,1,19,25,145
-ptx_opcode_latency_fp          4,13,4,5,39 # Opcode latencies for single precision floating points <ADD,MAX,MUL,MAD,DIV>Default 1,1,1,1,30
-ptx_opcode_latency_dp         8,19,8,8,330 # Opcode latencies for double precision floating points <ADD,MAX,MUL,MAD,DIV>Default 8,8,8,8,335
-ptx_opcode_initiation_int            1,2,2,1,8 # Opcode initiation intervals for integers <ADD,MAX,MUL,MAD,DIV>Default 1,1,4,4,32
-ptx_opcode_initiation_fp            1,2,1,1,4 # Opcode initiation intervals for single precision floating points <ADD,MAX,MUL,MAD,DIV>Default 1,1,1,1,5
-ptx_opcode_initiation_dp         8,16,8,8,130 # Opcode initiation intervals for double precision floating points <ADD,MAX,MUL,MAD,DIV>Default 8,8,8,8,130
DRAM Timing Options:
nbk                                    16 # number of banks
CCD                                     2 # column to column delay
RRD                                     6 # minimal delay between activation of rows in different banks
RCD                                    12 # row to column delay
RAS                                    28 # time needed to activate row
RP                                     12 # time needed to precharge (deactivate) row
RC                                     40 # row cycle time
CDLR                                    5 # switching from write to read (changes tWTR)
WR                                     12 # last data-in to row precharge
CL                                     12 # CAS latency
WL                                      4 # Write latency
nbkgrp                                  4 # number of bank groups
CCDL                                    3 # column to column delay between accesses to different bank groups
RTPL                                    2 # read to precharge delay between accesses to different bank groups
Total number of memory sub partition = 12
addr_dec_mask[CHIP]  = 0000000000000000 	high:64 low:0
addr_dec_mask[BK]    = 000000000000e100 	high:16 low:8
addr_dec_mask[ROW]   = 000000000fff0000 	high:28 low:16
addr_dec_mask[COL]   = 0000000000001eff 	high:13 low:0
addr_dec_mask[BURST] = 000000000000003f 	high:6 low:0
sub_partition_id_mask = 0000000000000100
GPGPU-Sim uArch: clock freqs: 700000000.000000:700000000.000000:700000000.000000:924000000.000000
GPGPU-Sim uArch: clock periods: 0.00000000142857142857:0.00000000142857142857:0.00000000142857142857:0.00000000108225108225
*** Initializing Memory Statistics ***
GPGPU-Sim uArch: interconnect node map (shaderID+MemID to icntID)
GPGPU-Sim uArch: Memory nodes ID start from index: 15
GPGPU-Sim uArch:    0   1   2   3   4
GPGPU-Sim uArch:    5   6   7   8   9
GPGPU-Sim uArch:   10  11  12  13  14
GPGPU-Sim uArch:   15  16  17  18  19
GPGPU-Sim uArch:   20  21  22  23  24
GPGPU-Sim uArch:   25  26
GPGPU-Sim uArch: interconnect node reverse map (icntID to shaderID+MemID)
GPGPU-Sim uArch: Memory nodes start from ID: 15
GPGPU-Sim uArch:    0   1   2   3   4
GPGPU-Sim uArch:    5   6   7   8   9
GPGPU-Sim uArch:   10  11  12  13  14
GPGPU-Sim uArch:   15  16  17  18  19
GPGPU-Sim uArch:   20  21  22  23  24
GPGPU-Sim uArch:   25  26
8b4aaf7e3609dab37e573b39f9f1cd11  /sciclone/data10/hwang07/adwait/applications/benchmarks/CUDA/BFS2/gpgpu_ptx_sim__BFS2
GPGPU-Sim uArch: performance model initialization complete.
GPGPU-Sim PTX: __cudaRegisterFatBinary, fat_cubin_handle = 1, filename=bfs.cu
self exe links to: /sciclone/data10/hwang07/adwait/applications/benchmarks/CUDA/BFS2/gpgpu_ptx_sim__BFS2
Running md5sum using "md5sum /sciclone/data10/hwang07/adwait/applications/benchmarks/CUDA/BFS2/gpgpu_ptx_sim__BFS2 "
Parsing file _cuobjdump_complete_output_ASylbe
######### cuobjdump parser ########
## Adding new section ELF
Adding arch: sm_20
Adding identifier: bfs.cu
## Adding new section PTX
Adding ptx filename: _cuobjdump_1.ptx
Adding arch: sm_20
Adding identifier: bfs.cu
Done parsing!!!
GPGPU-Sim PTX: __cudaRegisterFunction _Z7Kernel2PbS_S_S_i : hostFun 0x0x4016ca, fat_cubin_handle = 1
GPGPU-Sim PTX: instruction assembly for function '_Z6KernelP4NodePiPbS2_S2_S1_i'...   done.
GPGPU-Sim PTX: finding reconvergence points for '_Z6KernelP4NodePiPbS2_S2_S1_i'...
GPGPU-Sim PTX: Finding dominators for '_Z6KernelP4NodePiPbS2_S2_S1_i'...
GPGPU-Sim PTX: Finding immediate dominators for '_Z6KernelP4NodePiPbS2_S2_S1_i'...
GPGPU-Sim PTX: Finding postdominators for '_Z6KernelP4NodePiPbS2_S2_S1_i'...
GPGPU-Sim PTX: Finding immediate postdominators for '_Z6KernelP4NodePiPbS2_S2_S1_i'...
GPGPU-Sim PTX: pre-decoding instructions for '_Z6KernelP4NodePiPbS2_S2_S1_i'...
GPGPU-Sim PTX: reconvergence points for _Z6KernelP4NodePiPbS2_S2_S1_i...
GPGPU-Sim PTX:  1 (potential) branch divergence @  PC=0x030 (_1.ptx:73) @%p1 bra $Lt_0_5122;
GPGPU-Sim PTX:    immediate post dominator      @  PC=0x1c0 (_1.ptx:135) exit;
GPGPU-Sim PTX:  2 (potential) branch divergence @  PC=0x068 (_1.ptx:80) @%p2 bra $Lt_0_5122;
GPGPU-Sim PTX:    immediate post dominator      @  PC=0x1c0 (_1.ptx:135) exit;
GPGPU-Sim PTX:  3 (potential) branch divergence @  PC=0x0c0 (_1.ptx:93) @%p3 bra $Lt_0_5122;
GPGPU-Sim PTX:    immediate post dominator      @  PC=0x1c0 (_1.ptx:135) exit;
GPGPU-Sim PTX:  4 (potential) branch divergence @  PC=0x120 (_1.ptx:108) @%p4 bra $Lt_0_4354;
GPGPU-Sim PTX:    immediate post dominator      @  PC=0x1a0 (_1.ptx:128) add.s32 %r10, %r10, 1;
GPGPU-Sim PTX:  5 (potential) branch divergence @  PC=0x1b8 (_1.ptx:131) @%p5 bra $Lt_0_4098;
GPGPU-Sim PTX:    immediate post dominator      @  PC=0x1c0 (_1.ptx:135) exit;
GPGPU-Sim PTX: ... end of reconvergence points for _Z6KernelP4NodePiPbS2_S2_S1_i
GPGPU-Sim PTX: ... done pre-decoding instructions for '_Z6KernelP4NodePiPbS2_S2_S1_i'.
GPGPU-Sim PTX: instruction assembly for function '_Z7Kernel2PbS_S_S_i'...   done.
GPGPU-Sim PTX: finding reconvergence points for '_Z7Kernel2PbS_S_S_i'...
GPGPU-Sim PTX: Finding dominators for '_Z7Kernel2PbS_S_S_i'...
GPGPU-Sim PTX: Finding immediate dominators for '_Z7Kernel2PbS_S_S_i'...
GPGPU-Sim PTX: Finding postdominators for '_Z7Kernel2PbS_S_S_i'...
GPGPU-Sim PTX: Finding immediate postdominators for '_Z7Kernel2PbS_S_S_i'...
GPGPU-Sim PTX: pre-decoding instructions for '_Z7Kernel2PbS_S_S_i'...
GPGPU-Sim PTX: reconvergence points for _Z7Kernel2PbS_S_S_i...
GPGPU-Sim PTX:  1 (potential) branch divergence @  PC=0x1f8 (_1.ptx:157) @%p1 bra $Lt_1_1794;
GPGPU-Sim PTX:    immediate post dominator      @  PC=0x2a0 (_1.ptx:185) exit;
GPGPU-Sim PTX:  2 (potential) branch divergence @  PC=0x230 (_1.ptx:164) @%p2 bra $Lt_1_1794;
GPGPU-Sim PTX:    immediate post dominator      @  PC=0x2a0 (_1.ptx:185) exit;
GPGPU-Sim PTX: ... end of reconvergence points for _Z7Kernel2PbS_S_S_i
GPGPU-Sim PTX: ... done pre-decoding instructions for '_Z7Kernel2PbS_S_S_i'.
GPGPU-Sim PTX: finished parsing EMBEDDED .ptx file _1.ptx
Adding _cuobjdump_1.ptx with cubin handle 1
GPGPU-Sim PTX: extracting embedded .ptx to temporary file "_ptx_DPnmWs"
Running: cat _ptx_DPnmWs | sed 's/.version 1.5/.version 1.4/' | sed 's/, texmode_independent//' | sed 's/\(\.extern \.const\[1\] .b8 \w\+\)\[\]/\1\[1\]/' | sed 's/const\[.\]/const\[0\]/g' > _ptx2_N0tisK
GPGPU-Sim PTX: generating ptxinfo using "$CUDA_INSTALL_PATH/bin/ptxas --gpu-name=sm_20 -v _ptx2_N0tisK --output-file  /dev/null 2> _ptx_DPnmWsinfo"
GPGPU-Sim PTX: Kernel '_Z7Kernel2PbS_S_S_i' : regs=12, lmem=0, smem=0, cmem=68
GPGPU-Sim PTX: Kernel '_Z6KernelP4NodePiPbS2_S2_S1_i' : regs=15, lmem=0, smem=0, cmem=84
GPGPU-Sim PTX: removing ptxinfo using "rm -f _ptx_DPnmWs _ptx2_N0tisK _ptx_DPnmWsinfo"
GPGPU-Sim PTX: loading globals with explicit initializers... 
GPGPU-Sim PTX: finished loading globals (0 bytes total).
GPGPU-Sim PTX: loading constants with explicit initializers...  done.
GPGPU-Sim PTX: __cudaRegisterFunction _Z6KernelP4NodePiPbS2_S2_S1_i : hostFun 0x0x40158e, fat_cubin_handle = 1
Input file: ./data/graph32k500kedges_SV.txt
Reading File
Read File
Copied Everything to GPU memory

GPGPU-Sim PTX: cudaLaunch for 0x0x40158e (mode=performance simulation) on stream 0
GPGPU-Sim PTX: pushing kernel '_Z6KernelP4NodePiPbS2_S2_S1_i' to stream 0, gridDim= (63,1,1) blockDim = (512,1,1) 
kernel '_Z6KernelP4NodePiPbS2_S2_S1_i' transfer to GPU hardware scheduler
GPGPU-Sim uArch: Shader 1 bind to kernel 1 '_Z6KernelP4NodePiPbS2_S2_S1_i'
GPGPU-Sim uArch: CTA/core = 3, limited by: threads
GPGPU-Sim uArch: core:  1, cta: 0 initialized @(1,0)
GPGPU-Sim uArch: Shader 2 bind to kernel 1 '_Z6KernelP4NodePiPbS2_S2_S1_i'
GPGPU-Sim uArch: core:  2, cta: 0 initialized @(1,0)
GPGPU-Sim uArch: Shader 3 bind to kernel 1 '_Z6KernelP4NodePiPbS2_S2_S1_i'
GPGPU-Sim uArch: core:  3, cta: 0 initialized @(1,0)
GPGPU-Sim uArch: Shader 4 bind to kernel 1 '_Z6KernelP4NodePiPbS2_S2_S1_i'
GPGPU-Sim uArch: core:  4, cta: 0 initialized @(1,0)
GPGPU-Sim uArch: Shader 5 bind to kernel 1 '_Z6KernelP4NodePiPbS2_S2_S1_i'
GPGPU-Sim uArch: core:  5, cta: 0 initialized @(1,0)
GPGPU-Sim uArch: Shader 6 bind to kernel 1 '_Z6KernelP4NodePiPbS2_S2_S1_i'
GPGPU-Sim uArch: core:  6, cta: 0 initialized @(1,0)
GPGPU-Sim uArch: Shader 7 bind to kernel 1 '_Z6KernelP4NodePiPbS2_S2_S1_i'
GPGPU-Sim uArch: core:  7, cta: 0 initialized @(1,0)
GPGPU-Sim uArch: Shader 8 bind to kernel 1 '_Z6KernelP4NodePiPbS2_S2_S1_i'
GPGPU-Sim uArch: core:  8, cta: 0 initialized @(1,0)
GPGPU-Sim uArch: Shader 9 bind to kernel 1 '_Z6KernelP4NodePiPbS2_S2_S1_i'
GPGPU-Sim uArch: core:  9, cta: 0 initialized @(1,0)
GPGPU-Sim uArch: Shader 10 bind to kernel 1 '_Z6KernelP4NodePiPbS2_S2_S1_i'
GPGPU-Sim uArch: core: 10, cta: 0 initialized @(1,0)
GPGPU-Sim uArch: Shader 11 bind to kernel 1 '_Z6KernelP4NodePiPbS2_S2_S1_i'
GPGPU-Sim uArch: core: 11, cta: 0 initialized @(1,0)
GPGPU-Sim uArch: Shader 12 bind to kernel 1 '_Z6KernelP4NodePiPbS2_S2_S1_i'
GPGPU-Sim uArch: core: 12, cta: 0 initialized @(1,0)
GPGPU-Sim uArch: Shader 13 bind to kernel 1 '_Z6KernelP4NodePiPbS2_S2_S1_i'
GPGPU-Sim uArch: core: 13, cta: 0 initialized @(1,0)
GPGPU-Sim uArch: Shader 14 bind to kernel 1 '_Z6KernelP4NodePiPbS2_S2_S1_i'
GPGPU-Sim uArch: core: 14, cta: 0 initialized @(1,0)
GPGPU-Sim uArch: Shader 0 bind to kernel 1 '_Z6KernelP4NodePiPbS2_S2_S1_i'
GPGPU-Sim uArch: core:  0, cta: 0 initialized @(1,0)
GPGPU-Sim uArch: core:  1, cta: 1 initialized @(2,0)
GPGPU-Sim uArch: core:  2, cta: 1 initialized @(2,0)
GPGPU-Sim uArch: core:  3, cta: 1 initialized @(2,0)
GPGPU-Sim uArch: core:  4, cta: 1 initialized @(2,0)
GPGPU-Sim uArch: core:  5, cta: 1 initialized @(2,0)
GPGPU-Sim uArch: core:  6, cta: 1 initialized @(2,0)
GPGPU-Sim uArch: core:  7, cta: 1 initialized @(2,0)
GPGPU-Sim uArch: core:  8, cta: 1 initialized @(2,0)
GPGPU-Sim uArch: core:  9, cta: 1 initialized @(2,0)
GPGPU-Sim uArch: core: 10, cta: 1 initialized @(2,0)
GPGPU-Sim uArch: core: 11, cta: 1 initialized @(2,0)
GPGPU-Sim uArch: core: 12, cta: 1 initialized @(2,0)
GPGPU-Sim uArch: core: 13, cta: 1 initialized @(2,0)
GPGPU-Sim uArch: core: 14, cta: 1 initialized @(2,0)
GPGPU-Sim uArch: core:  0, cta: 1 initialized @(2,0)
GPGPU-Sim uArch: core:  1, cta: 2 initialized @(3,0)
GPGPU-Sim uArch: core:  2, cta: 2 initialized @(3,0)
GPGPU-Sim uArch: core:  3, cta: 2 initialized @(3,0)
GPGPU-Sim uArch: core:  4, cta: 2 initialized @(3,0)
GPGPU-Sim uArch: core:  5, cta: 2 initialized @(3,0)
GPGPU-Sim uArch: core:  6, cta: 2 initialized @(3,0)
GPGPU-Sim uArch: core:  7, cta: 2 initialized @(3,0)
GPGPU-Sim uArch: core:  8, cta: 2 initialized @(3,0)
GPGPU-Sim uArch: core:  9, cta: 2 initialized @(3,0)
GPGPU-Sim uArch: core: 10, cta: 2 initialized @(3,0)
GPGPU-Sim uArch: core: 11, cta: 2 initialized @(3,0)
GPGPU-Sim uArch: core: 12, cta: 2 initialized @(3,0)
GPGPU-Sim uArch: core: 13, cta: 2 initialized @(3,0)
GPGPU-Sim uArch: core: 14, cta: 2 initialized @(3,0)
GPGPU-Sim uArch: core:  0, cta: 2 initialized @(3,0)
GPGPU-Sim uArch: cycles simulated: 500  inst.: 3840 (ipc= 7.7) sim_rate=426 (inst/sec) elapsed = 0:0:00:09 / Tue Mar 22 12:39:48 2016
GPGPU-Sim uArch: cycles simulated: 1000  inst.: 12481 (ipc=12.5) sim_rate=1248 (inst/sec) elapsed = 0:0:00:10 / Tue Mar 22 12:39:49 2016
GPGPU-Sim PTX: 100000 instructions simulated : ctaid=(1,0,0) tid=(452,0,0)
GPGPU-Sim uArch: Shader 3 finished CTA #0 (2496,0), 2 CTAs running
GPGPU-Sim uArch: core:  3, cta: 0 initialized @(2497,0)
GPGPU-Sim uArch: cycles simulated: 2500  inst.: 98839 (ipc=39.5) sim_rate=8985 (inst/sec) elapsed = 0:0:00:11 / Tue Mar 22 12:39:50 2016
GPGPU-Sim uArch: Shader 0 finished CTA #0 (2502,0), 2 CTAs running
GPGPU-Sim uArch: Shader 4 finished CTA #0 (2502,0), 2 CTAs running
GPGPU-Sim uArch: core:  4, cta: 0 initialized @(2503,0)
GPGPU-Sim uArch: core:  0, cta: 0 initialized @(2503,0)
GPGPU-Sim uArch: Shader 5 finished CTA #0 (2514,0), 2 CTAs running
GPGPU-Sim uArch: core:  5, cta: 0 initialized @(2515,0)
GPGPU-Sim uArch: Shader 2 finished CTA #0 (2520,0), 2 CTAs running
GPGPU-Sim uArch: core:  2, cta: 0 initialized @(2521,0)
GPGPU-Sim uArch: Shader 7 finished CTA #0 (2524,0), 2 CTAs running
GPGPU-Sim uArch: core:  7, cta: 0 initialized @(2525,0)
GPGPU-Sim uArch: Shader 8 finished CTA #0 (2529,0), 2 CTAs running
GPGPU-Sim uArch: core:  8, cta: 0 initialized @(2530,0)
GPGPU-Sim uArch: Shader 6 finished CTA #0 (2530,0), 2 CTAs running
GPGPU-Sim uArch: core:  6, cta: 0 initialized @(2531,0)
GPGPU-Sim uArch: Shader 9 finished CTA #0 (2535,0), 2 CTAs running
GPGPU-Sim uArch: core:  9, cta: 0 initialized @(2536,0)
GPGPU-Sim uArch: Shader 10 finished CTA #0 (2540,0), 2 CTAs running
GPGPU-Sim uArch: core: 10, cta: 0 initialized @(2541,0)
GPGPU-Sim uArch: Shader 11 finished CTA #0 (2547,0), 2 CTAs running
GPGPU-Sim uArch: core: 11, cta: 0 initialized @(2548,0)
GPGPU-Sim uArch: Shader 12 finished CTA #0 (2552,0), 2 CTAs running
GPGPU-Sim uArch: core: 12, cta: 0 initialized @(2553,0)
GPGPU-Sim uArch: Shader 13 finished CTA #0 (2558,0), 2 CTAs running
GPGPU-Sim uArch: core: 13, cta: 0 initialized @(2559,0)
GPGPU-Sim uArch: Shader 14 finished CTA #0 (2565,0), 2 CTAs running
GPGPU-Sim uArch: core: 14, cta: 0 initialized @(2566,0)
GPGPU-Sim PTX: 200000 instructions simulated : ctaid=(15,0,0) tid=(380,0,0)
GPGPU-Sim uArch: Shader 3 finished CTA #1 (4127,0), 2 CTAs running
GPGPU-Sim uArch: core:  3, cta: 1 initialized @(4128,0)
GPGPU-Sim uArch: Shader 4 finished CTA #1 (4131,0), 2 CTAs running
GPGPU-Sim uArch: core:  4, cta: 1 initialized @(4132,0)
GPGPU-Sim uArch: Shader 0 finished CTA #1 (4133,0), 2 CTAs running
GPGPU-Sim uArch: core:  0, cta: 1 initialized @(4134,0)
GPGPU-Sim uArch: Shader 5 finished CTA #1 (4145,0), 2 CTAs running
GPGPU-Sim uArch: core:  5, cta: 1 initialized @(4146,0)
GPGPU-Sim uArch: Shader 2 finished CTA #1 (4150,0), 2 CTAs running
GPGPU-Sim uArch: Shader 7 finished CTA #1 (4155,0), 2 CTAs running
GPGPU-Sim uArch: Shader 6 finished CTA #1 (4159,0), 2 CTAs running
GPGPU-Sim uArch: Shader 8 finished CTA #1 (4159,0), 2 CTAs running
GPGPU-Sim uArch: Shader 9 finished CTA #1 (4166,0), 2 CTAs running
GPGPU-Sim uArch: Shader 10 finished CTA #1 (4170,0), 2 CTAs running
GPGPU-Sim uArch: Shader 11 finished CTA #1 (4177,0), 2 CTAs running
GPGPU-Sim uArch: Shader 12 finished CTA #1 (4181,0), 2 CTAs running
GPGPU-Sim uArch: Shader 13 finished CTA #1 (4188,0), 2 CTAs running
GPGPU-Sim uArch: Shader 14 finished CTA #1 (4195,0), 2 CTAs running
GPGPU-Sim uArch: cycles simulated: 5000  inst.: 264392 (ipc=52.9) sim_rate=22032 (inst/sec) elapsed = 0:0:00:12 / Tue Mar 22 12:39:51 2016
GPGPU-Sim PTX: 300000 instructions simulated : ctaid=(38,0,0) tid=(340,0,0)
GPGPU-Sim uArch: Shader 3 finished CTA #2 (5758,0), 2 CTAs running
GPGPU-Sim uArch: Shader 4 finished CTA #2 (5762,0), 2 CTAs running
GPGPU-Sim uArch: Shader 5 finished CTA #2 (5776,0), 2 CTAs running
GPGPU-Sim uArch: Shader 0 finished CTA #2 (5781,0), 2 CTAs running
GPGPU-Sim uArch: Shader 2 finished CTA #2 (5781,0), 1 CTAs running
GPGPU-Sim uArch: Shader 7 finished CTA #2 (5783,0), 1 CTAs running
GPGPU-Sim uArch: Shader 6 finished CTA #2 (5787,0), 1 CTAs running
GPGPU-Sim uArch: Shader 8 finished CTA #2 (5787,0), 1 CTAs running
GPGPU-Sim uArch: Shader 9 finished CTA #2 (5794,0), 1 CTAs running
GPGPU-Sim uArch: Shader 10 finished CTA #2 (5798,0), 1 CTAs running
GPGPU-Sim uArch: Shader 11 finished CTA #2 (5805,0), 1 CTAs running
GPGPU-Sim uArch: Shader 12 finished CTA #2 (5808,0), 1 CTAs running
GPGPU-Sim uArch: Shader 13 finished CTA #2 (5816,0), 1 CTAs running
GPGPU-Sim uArch: Shader 14 finished CTA #2 (5831,0), 1 CTAs running
GPGPU-Sim PTX: 400000 instructions simulated : ctaid=(45,0,0) tid=(370,0,0)
GPGPU-Sim uArch: Shader 3 finished CTA #0 (7384,0), 1 CTAs running
GPGPU-Sim uArch: Shader 4 finished CTA #0 (7390,0), 1 CTAs running
GPGPU-Sim uArch: Shader 2 finished CTA #0 (7406,0), 0 CTAs running
GPGPU-Sim uArch: Shader 2 empty (release kernel 1 '_Z6KernelP4NodePiPbS2_S2_S1_i').
GPGPU-Sim uArch: Shader 7 finished CTA #0 (7407,0), 0 CTAs running
GPGPU-Sim uArch: Shader 7 empty (release kernel 1 '_Z6KernelP4NodePiPbS2_S2_S1_i').
GPGPU-Sim uArch: Shader 6 finished CTA #0 (7413,0), 0 CTAs running
GPGPU-Sim uArch: Shader 6 empty (release kernel 1 '_Z6KernelP4NodePiPbS2_S2_S1_i').
GPGPU-Sim uArch: Shader 8 finished CTA #0 (7413,0), 0 CTAs running
GPGPU-Sim uArch: Shader 8 empty (release kernel 1 '_Z6KernelP4NodePiPbS2_S2_S1_i').
GPGPU-Sim uArch: Shader 0 finished CTA #0 (7415,0), 1 CTAs running
GPGPU-Sim uArch: Shader 5 finished CTA #0 (7419,0), 1 CTAs running
GPGPU-Sim uArch: Shader 9 finished CTA #0 (7420,0), 0 CTAs running
GPGPU-Sim uArch: Shader 9 empty (release kernel 1 '_Z6KernelP4NodePiPbS2_S2_S1_i').
GPGPU-Sim uArch: Shader 10 finished CTA #0 (7424,0), 0 CTAs running
GPGPU-Sim uArch: Shader 10 empty (release kernel 1 '_Z6KernelP4NodePiPbS2_S2_S1_i').
GPGPU-Sim uArch: Shader 11 finished CTA #0 (7431,0), 0 CTAs running
GPGPU-Sim uArch: Shader 11 empty (release kernel 1 '_Z6KernelP4NodePiPbS2_S2_S1_i').
GPGPU-Sim uArch: Shader 12 finished CTA #0 (7432,0), 0 CTAs running
GPGPU-Sim uArch: Shader 12 empty (release kernel 1 '_Z6KernelP4NodePiPbS2_S2_S1_i').
GPGPU-Sim uArch: Shader 13 finished CTA #0 (7442,0), 0 CTAs running
GPGPU-Sim uArch: Shader 13 empty (release kernel 1 '_Z6KernelP4NodePiPbS2_S2_S1_i').
GPGPU-Sim uArch: Shader 14 finished CTA #0 (7456,0), 0 CTAs running
GPGPU-Sim uArch: Shader 14 empty (release kernel 1 '_Z6KernelP4NodePiPbS2_S2_S1_i').
GPGPU-Sim uArch: Shader 5 finished CTA #1 (8388,0), 0 CTAs running
GPGPU-Sim uArch: Shader 5 empty (release kernel 1 '_Z6KernelP4NodePiPbS2_S2_S1_i').
GPGPU-Sim uArch: Shader 1 finished CTA #0 (8579,0), 2 CTAs running
GPGPU-Sim uArch: Shader 3 finished CTA #1 (9010,0), 0 CTAs running
GPGPU-Sim uArch: Shader 3 empty (release kernel 1 '_Z6KernelP4NodePiPbS2_S2_S1_i').
GPGPU-Sim uArch: Shader 4 finished CTA #1 (9014,0), 0 CTAs running
GPGPU-Sim uArch: Shader 4 empty (release kernel 1 '_Z6KernelP4NodePiPbS2_S2_S1_i').
GPGPU-Sim uArch: Shader 0 finished CTA #1 (9039,0), 0 CTAs running
GPGPU-Sim uArch: Shader 0 empty (release kernel 1 '_Z6KernelP4NodePiPbS2_S2_S1_i').
GPGPU-Sim uArch: Shader 1 finished CTA #1 (9171,0), 1 CTAs running
GPGPU-Sim uArch: cycles simulated: 9500  inst.: 448836 (ipc=47.2) sim_rate=34525 (inst/sec) elapsed = 0:0:00:13 / Tue Mar 22 12:39:52 2016
GPGPU-Sim uArch: Shader 1 finished CTA #2 (9763,0), 0 CTAs running
GPGPU-Sim uArch: Shader 1 empty (release kernel 1 '_Z6KernelP4NodePiPbS2_S2_S1_i').
GPGPU-Sim uArch: GPU detected kernel '_Z6KernelP4NodePiPbS2_S2_S1_i' finished on shader 1.

GPGPU-Sim PTX: cudaLaunch for 0x0x4016ca (mode=performance simulation) on stream 0
GPGPU-Sim PTX: pushing kernel '_Z7Kernel2PbS_S_S_i' to stream 0, gridDim= (63,1,1) blockDim = (512,1,1) 
kernel_name = _Z6KernelP4NodePiPbS2_S2_S1_i 
kernel_launch_uid = 1 
gpu_sim_cycle = 9764
gpu_sim_insn = 450436
gpu_ipc =      46.1323
gpu_tot_sim_cycle = 9764
gpu_tot_sim_insn = 450436
gpu_tot_ipc =      46.1323
gpu_tot_issued_cta = 63
gpu_stall_dramfull = 291
gpu_stall_icnt2sh    = 148
gpu_total_sim_rate=34648

========= Core cache stats =========
L1I_cache:
	L1I_total_cache_accesses = 9256
	L1I_total_cache_misses = 511
	L1I_total_cache_miss_rate = 0.0552
	L1I_total_cache_pending_hits = 0
	L1I_total_cache_reservation_fails = 4140
L1D_cache:
	L1D_cache_core[0]: Access = 80, Miss = 20, Miss_rate = 0.250, Pending_hits = 20, Reservation_fails = 0
	L1D_cache_core[1]: Access = 156, Miss = 60, Miss_rate = 0.385, Pending_hits = 1, Reservation_fails = 0
	L1D_cache_core[2]: Access = 64, Miss = 16, Miss_rate = 0.250, Pending_hits = 16, Reservation_fails = 0
	L1D_cache_core[3]: Access = 80, Miss = 20, Miss_rate = 0.250, Pending_hits = 20, Reservation_fails = 0
	L1D_cache_core[4]: Access = 80, Miss = 20, Miss_rate = 0.250, Pending_hits = 20, Reservation_fails = 0
	L1D_cache_core[5]: Access = 72, Miss = 18, Miss_rate = 0.250, Pending_hits = 18, Reservation_fails = 0
	L1D_cache_core[6]: Access = 64, Miss = 16, Miss_rate = 0.250, Pending_hits = 16, Reservation_fails = 0
	L1D_cache_core[7]: Access = 64, Miss = 16, Miss_rate = 0.250, Pending_hits = 16, Reservation_fails = 0
	L1D_cache_core[8]: Access = 64, Miss = 16, Miss_rate = 0.250, Pending_hits = 16, Reservation_fails = 0
	L1D_cache_core[9]: Access = 64, Miss = 16, Miss_rate = 0.250, Pending_hits = 16, Reservation_fails = 0
	L1D_cache_core[10]: Access = 64, Miss = 16, Miss_rate = 0.250, Pending_hits = 16, Reservation_fails = 0
	L1D_cache_core[11]: Access = 64, Miss = 16, Miss_rate = 0.250, Pending_hits = 16, Reservation_fails = 0
	L1D_cache_core[12]: Access = 64, Miss = 16, Miss_rate = 0.250, Pending_hits = 16, Reservation_fails = 0
	L1D_cache_core[13]: Access = 64, Miss = 16, Miss_rate = 0.250, Pending_hits = 16, Reservation_fails = 0
	L1D_cache_core[14]: Access = 64, Miss = 16, Miss_rate = 0.250, Pending_hits = 16, Reservation_fails = 0
	L1D_total_cache_accesses = 1108
	L1D_total_cache_misses = 298
	L1D_total_cache_miss_rate = 0.2690
	L1D_total_cache_pending_hits = 239
	L1D_total_cache_reservation_fails = 0
	L1D_cache_data_port_util = 0.005
	L1D_cache_fill_port_util = 0.002
L1C_cache:
	L1C_total_cache_accesses = 2041
	L1C_total_cache_misses = 30
	L1C_total_cache_miss_rate = 0.0147
	L1C_total_cache_pending_hits = 0
	L1C_total_cache_reservation_fails = 0
L1T_cache:
	L1T_total_cache_accesses = 0
	L1T_total_cache_misses = 0
	L1T_total_cache_pending_hits = 0
	L1T_total_cache_reservation_fails = 0

Total_core_cache_stats:
	Total_core_cache_stats_breakdown[GLOBAL_ACC_R][HIT] = 570
	Total_core_cache_stats_breakdown[GLOBAL_ACC_R][HIT_RESERVED] = 239
	Total_core_cache_stats_breakdown[GLOBAL_ACC_R][MISS] = 268
	Total_core_cache_stats_breakdown[CONST_ACC_R][HIT] = 2011
	Total_core_cache_stats_breakdown[CONST_ACC_R][MISS] = 30
	Total_core_cache_stats_breakdown[GLOBAL_ACC_W][HIT] = 1
	Total_core_cache_stats_breakdown[GLOBAL_ACC_W][MISS] = 30
	Total_core_cache_stats_breakdown[INST_ACC_R][HIT] = 8745
	Total_core_cache_stats_breakdown[INST_ACC_R][MISS] = 511
	Total_core_cache_stats_breakdown[INST_ACC_R][RESERVATION_FAIL] = 4140
Shader 0 warp_id issue ditsribution:
warp_id:
0, 1, 2, 3, 4, 5, 6, 7, 8, 9, 10, 11, 12, 13, 14, 15, 16, 17, 18, 19, 20, 21, 22, 23, 24, 25, 26, 27, 28, 29, 30, 31, 32, 33, 34, 35, 36, 37, 38, 39, 40, 41, 42, 43, 44, 45, 46, 47, 
distro:
30, 30, 30, 30, 30, 30, 30, 30, 30, 30, 30, 30, 30, 30, 30, 30, 30, 30, 30, 30, 30, 30, 30, 30, 30, 30, 30, 30, 30, 30, 30, 30, 15, 15, 15, 15, 15, 15, 15, 15, 15, 15, 15, 15, 15, 15, 15, 15, 
gpgpu_n_tot_thrd_icount = 495040
gpgpu_n_tot_w_icount = 15470
gpgpu_n_stall_shd_mem = 0
gpgpu_n_mem_read_local = 0
gpgpu_n_mem_write_local = 0
gpgpu_n_mem_read_global = 268
gpgpu_n_mem_write_global = 31
gpgpu_n_mem_texture = 0
gpgpu_n_mem_const = 15
gpgpu_n_load_insn  = 32077
gpgpu_n_store_insn = 31
gpgpu_n_shmem_insn = 0
gpgpu_n_tex_insn = 0
gpgpu_n_const_mem_insn = 0
gpgpu_n_param_mem_insn = 64289
gpgpu_n_shmem_bkconflict = 0
gpgpu_n_cache_bkconflict = 0
gpgpu_n_intrawarp_mshr_merge = 0
gpgpu_n_cmem_portconflict = 0
gpgpu_stall_shd_mem[c_mem][bk_conf] = 0
gpgpu_stall_shd_mem[c_mem][mshr_rc] = 0
gpgpu_stall_shd_mem[c_mem][icnt_rc] = 0
gpgpu_stall_shd_mem[c_mem][data_port_stall] = 0
gpgpu_stall_shd_mem[t_mem][mshr_rc] = 0
gpgpu_stall_shd_mem[t_mem][icnt_rc] = 0
gpgpu_stall_shd_mem[t_mem][data_port_stall] = 0
gpgpu_stall_shd_mem[s_mem][bk_conf] = 0
gpgpu_stall_shd_mem[gl_mem][bk_conf] = 0
gpgpu_stall_shd_mem[gl_mem][coal_stall] = 0
gpgpu_stall_shd_mem[gl_mem][data_port_stall] = 0
gpgpu_stall_shd_mem[g_mem_ld][mshr_rc] = 0
gpgpu_stall_shd_mem[g_mem_ld][icnt_rc] = 0
gpgpu_stall_shd_mem[g_mem_ld][wb_icnt_rc] = 0
gpgpu_stall_shd_mem[g_mem_ld][wb_rsrv_fail] = 0
gpgpu_stall_shd_mem[g_mem_st][mshr_rc] = 0
gpgpu_stall_shd_mem[g_mem_st][icnt_rc] = 0
gpgpu_stall_shd_mem[g_mem_st][wb_icnt_rc] = 0
gpgpu_stall_shd_mem[g_mem_st][wb_rsrv_fail] = 0
gpgpu_stall_shd_mem[l_mem_ld][mshr_rc] = 0
gpgpu_stall_shd_mem[l_mem_ld][icnt_rc] = 0
gpgpu_stall_shd_mem[l_mem_ld][wb_icnt_rc] = 0
gpgpu_stall_shd_mem[l_mem_ld][wb_rsrv_fail] = 0
gpgpu_stall_shd_mem[l_mem_st][mshr_rc] = 0
gpgpu_stall_shd_mem[l_mem_st][icnt_rc] = 0
gpgpu_stall_shd_mem[l_mem_ld][wb_icnt_rc] = 0
gpgpu_stall_shd_mem[l_mem_ld][wb_rsrv_fail] = 0
gpu_reg_bank_conflict_stalls = 0
Warp Occupancy Distribution:
Stall:2	W0_Idle:33182	W0_Scoreboard:190292	W1:406	W2:0	W3:0	W4:0	W5:0	W6:0	W7:0	W8:0	W9:0	W10:0	W11:0	W12:0	W13:0	W14:0	W15:0	W16:0	W17:0	W18:0	W19:0	W20:0	W21:0	W22:0	W23:0	W24:0	W25:0	W26:0	W27:0	W28:0	W29:0	W30:0	W31:0	W32:15064
traffic_breakdown_coretomem[CONST_ACC_R] = 120 {8:15,}
traffic_breakdown_coretomem[GLOBAL_ACC_R] = 2144 {8:268,}
traffic_breakdown_coretomem[GLOBAL_ACC_W] = 1240 {40:31,}
traffic_breakdown_coretomem[INST_ACC_R] = 256 {8:32,}
traffic_breakdown_memtocore[CONST_ACC_R] = 1080 {72:15,}
traffic_breakdown_memtocore[GLOBAL_ACC_R] = 36448 {136:268,}
traffic_breakdown_memtocore[GLOBAL_ACC_W] = 248 {8:31,}
traffic_breakdown_memtocore[INST_ACC_R] = 4352 {136:32,}
maxmrqlatency = 15 
maxdqlatency = 0 
maxmflatency = 278 
averagemflatency = 257 
max_icnt2mem_latency = 36 
max_icnt2sh_latency = 8278 
mrq_lat_table:311 	0 	18 	1 	0 	0 	0 	0 	0 	0 	0 	0 	0 	0 	0 	0 	0 	0 	0 	0 	0 	0 	0 	0 	0 	0 	0 	0 	0 	0 	0 	0 	
dq_lat_table:0 	0 	0 	0 	0 	0 	0 	0 	0 	0 	0 	0 	0 	0 	0 	0 	0 	0 	0 	0 	0 	0 	0 	0 	0 	0 	0 	0 	0 	0 	0 	0 	
mf_lat_table:0 	0 	0 	0 	0 	0 	0 	37 	277 	0 	0 	0 	0 	0 	0 	0 	0 	0 	0 	0 	0 	0 	0 	0 	0 	0 	0 	0 	0 	0 	0 	0 	
icnt2mem_lat_table:0 	0 	0 	335 	8 	3 	0 	0 	0 	0 	0 	0 	0 	0 	0 	0 	0 	0 	0 	0 	0 	0 	0 	0 	
icnt2sh_lat_table:0 	0 	0 	270 	13 	0 	0 	0 	0 	0 	1 	6 	22 	2 	0 	0 	0 	0 	0 	0 	0 	0 	0 	0 	
mf_lat_pw_table:0 	0 	0 	0 	0 	0 	0 	3 	14 	0 	0 	0 	0 	0 	0 	0 	0 	0 	0 	0 	0 	0 	0 	0 	0 	0 	0 	0 	0 	0 	0 	0 	
maximum concurrent accesses to same row:
dram[0]:         1         0         0         0         0         0         0         0         0         0         0         0         0         0         0         0 
dram[1]:         0         0         0         0         0         0         0         0         0         0         0         0         0         0         0         0 
dram[2]:         0         0         0         0         0         1         0         0         0         0         0         0         0         0         0         0 
dram[3]:         0         0         0         0         0         0         0         0         0         0         0         0         0         0         0         0 
dram[4]:         0         0         0         0         0         0         0         0         0         0         0         0         0         0         0         0 
dram[5]:         0         0         0         0         0         0         0         0         0         0         0         0         0         0         0         0 
maximum service time to same row:
dram[0]:       609         0      1981      1975      5291      5362      2644      5344         0      7450      8247         0         0         0      1791         0 
dram[1]:      1141         0       862       885      4419      5756      3816         0         0         0      2943         0         0         0         0         0 
dram[2]:         0         0      1957      1991      5241      2700         0      3413      7057         0         0         0         0         0         0         0 
dram[3]:         0         0       866       878      3766      6059         0      3010         0      6525         0      5738         0         0         0         0 
dram[4]:         0         0      1963      1985      3363      4613         0      2338      3749         0         0         0         0         0         0         0 
dram[5]:         0         0       874       882      2960      4563         0      7519         0         0      7854      3346         0         0         0         0 
average row accesses per activate:
dram[0]:  1.000000      -nan 14.000000 14.000000  8.000000 11.000000  4.000000  2.000000      -nan  2.000000  2.000000      -nan      -nan      -nan  1.000000      -nan 
dram[1]:  2.000000      -nan 14.000000 14.000000 10.000000  9.000000  4.000000      -nan      -nan      -nan  4.000000      -nan      -nan      -nan      -nan      -nan 
dram[2]:      -nan      -nan 14.000000 14.000000  8.000000  6.000000      -nan  3.000000  2.000000      -nan      -nan      -nan      -nan      -nan      -nan      -nan 
dram[3]:      -nan      -nan 14.000000 16.000000 10.000000  6.000000      -nan  2.000000      -nan  2.000000      -nan  2.000000      -nan      -nan      -nan      -nan 
dram[4]:      -nan      -nan 14.000000 16.000000 11.000000  7.000000      -nan  1.000000  2.000000      -nan      -nan      -nan      -nan      -nan      -nan      -nan 
dram[5]:      -nan      -nan 14.000000 16.000000 10.000000  9.000000      -nan  1.000000      -nan      -nan  2.000000  4.000000      -nan      -nan      -nan      -nan 
average row locality = 330/46 = 7.173913
number of total memory accesses made:
dram[0]:         0         0         0         0         0         0         0         0         0         0         0         0         0         0         0         0 
dram[1]:         0         0         0         0         0         0         0         0         0         0         0         0         0         0         0         0 
dram[2]:         0         0         0         0         0         0         0         0         0         0         0         0         0         0         0         0 
dram[3]:         0         0         0         0         0         0         0         0         0         0         0         0         0         0         0         0 
dram[4]:         0         0         0         0         0         0         0         0         0         0         0         0         0         0         0         0 
dram[5]:         0         0         0         0         0         0         0         0         0         0         0         0         0         0         0         0 
total accesses: 0
min_bank_accesses = 0!
min_chip_accesses = 0!
number of total read accesses:
dram[0]:         3         0        14        14         8         9         3         1         0         1         1         0         0         0         1         0 
dram[1]:         2         0        14        14         9         8         3         0         0         0         2         0         0         0         0         0 
dram[2]:         0         0        14        14         7        10         0         2         1         0         0         0         0         0         0         0 
dram[3]:         0         0        14        16         8         6         0         2         0         1         0         1         0         0         0         0 
dram[4]:         0         0        14        16         9         7         0         1         1         0         0         0         0         0         0         0 
dram[5]:         0         0        14        16         8         8         0         1         0         0         1         2         0         0         0         0 
total reads: 301
min_bank_accesses = 0!
chip skew: 55/48 = 1.15
number of total write accesses:
dram[0]:         0         0         0         0         0         2         1         1         0         1         1         0         0         0         0         0 
dram[1]:         0         0         0         0         1         1         1         0         0         0         2         0         0         0         0         0 
dram[2]:         0         0         0         0         1         2         0         1         1         0         0         0         0         0         0         0 
dram[3]:         0         0         0         0         2         0         0         0         0         1         0         1         0         0         0         0 
dram[4]:         0         0         0         0         2         0         0         0         1         0         0         0         0         0         0         0 
dram[5]:         0         0         0         0         2         1         0         0         0         0         1         2         0         0         0         0 
total reads: 29
min_bank_accesses = 0!
chip skew: 6/3 = 2.00
average mf latency per bank:
dram[0]:       1297    none         259       259       259       210       193       126    none         126       126    none      none      none         268    none  
dram[1]:          0    none         260       259       232       230       193    none      none      none         124    none      none      none      none      none  
dram[2]:     none      none         259       259       226       215    none         171       126    none      none      none      none      none      none      none  
dram[3]:     none      none         259       277       205       261    none         263    none         126    none         126    none      none      none      none  
dram[4]:     none      none         259       259       222       260    none         268       126    none      none      none      none      none      none      none  
dram[5]:     none      none         259       259       205       229    none         268    none      none         126       124    none      none      none      none  
maximum mf latency per bank:
dram[0]:        278         0       268       268       268       259       268       252         0       252       252         0         0         0       268         0
dram[1]:          0         0       268       268       268       263       268         0         0         0       252         0         0         0         0         0
dram[2]:          0         0       268       268       268       268         0       268       252         0         0         0         0         0         0         0
dram[3]:          0         0       268       268       259       273         0       268         0       252         0       252         0         0         0         0
dram[4]:          0         0       268       268       259       268         0       268       252         0         0         0         0         0         0         0
dram[5]:          0         0       268       268       259       259         0       268         0         0       252       252         0         0         0         0

Number of Memory Banks Accessed per Memory Operation per Warp (from 0):
0	0	0	0	0	0	0	0	0	0	0	0	0	0	0	0	0	0	0	0	0	0	0	0	0	0	0	0	0	0	0	0	0	0	0	0	0	0	0	0	0	0	0	0	0	0	0	0	0	0	0	0	0	0	0	0	0	0	0	0	0	0	0	0	0	0	0	0	0	0	0	0	0	0	0	0	0	0	0	0	0	0	0	0	0	0	0	0	0	0	0	0	0	0	0	0	
Average # of Memory Banks Accessed per Memory Operation per Warp=-nan

position of mrq chosen
0	0	0	0	0	0	0	0	0	0	0	0	0	0	0	0	

average position of mrq chosen = -nan
Memory Partition 0: 
Cache L2_bank_000:
MSHR contents

Cache L2_bank_001:
MSHR contents

In Dram Latency Queue (total = 0): 
DRAM[0]: 16 bks, busW=4 BL=8 CL=12, tRRD=2 tCCD=6, tRCD=12 tRAS=28 tRP=12 tRC=40
n_cmd=12888 n_nop=12758 n_act=12 n_pre=2 n_req=61 n_rd=110 n_write=6 bw_util=0.018
n_activity=1034 dram_eff=0.2244
bk0: 6a 12816i bk1: 0a 12887i bk2: 28a 12823i bk3: 28a 12823i bk4: 16a 12844i bk5: 18a 12820i bk6: 6a 12851i bk7: 2a 12862i bk8: 0a 12886i bk9: 2a 12864i bk10: 2a 12864i bk11: 0a 12886i bk12: 0a 12888i bk13: 0a 12888i bk14: 2a 12872i bk15: 0a 12887i 
dram_util_bins: 0 0 0 0 0 0 0 0 0 0
dram_eff_bins: 0 0 0 0 0 0 0 0 0 0
mrqq: max=1 avg=0.00217256
Memory Partition 1: 
Cache L2_bank_002:
MSHR contents

Cache L2_bank_003:
MSHR contents

In Dram Latency Queue (total = 0): 
DRAM[1]: 16 bks, busW=4 BL=8 CL=12, tRRD=2 tCCD=6, tRCD=12 tRAS=28 tRP=12 tRC=40
n_cmd=12888 n_nop=12772 n_act=7 n_pre=0 n_req=57 n_rd=104 n_write=5 bw_util=0.01691
n_activity=856 dram_eff=0.2547
bk0: 4a 12870i bk1: 0a 12890i bk2: 28a 12818i bk3: 28a 12821i bk4: 18a 12828i bk5: 16a 12828i bk6: 6a 12850i bk7: 0a 12885i bk8: 0a 12885i bk9: 0a 12886i bk10: 4a 12849i bk11: 0a 12886i bk12: 0a 12888i bk13: 0a 12889i bk14: 0a 12889i bk15: 0a 12890i 
dram_util_bins: 0 0 0 0 0 0 0 0 0 0
dram_eff_bins: 0 0 0 0 0 0 0 0 0 0
mrqq: max=1 avg=0.00155183
Memory Partition 2: 
Cache L2_bank_004:
MSHR contents

Cache L2_bank_005:
MSHR contents

In Dram Latency Queue (total = 0): 
DRAM[2]: 16 bks, busW=4 BL=8 CL=12, tRRD=2 tCCD=6, tRCD=12 tRAS=28 tRP=12 tRC=40
n_cmd=12888 n_nop=12779 n_act=7 n_pre=1 n_req=53 n_rd=96 n_write=5 bw_util=0.01567
n_activity=787 dram_eff=0.2567
bk0: 0a 12889i bk1: 0a 12891i bk2: 28a 12819i bk3: 28a 12822i bk4: 14a 12830i bk5: 20a 12795i bk6: 0a 12886i bk7: 4a 12855i bk8: 2a 12862i bk9: 0a 12885i bk10: 0a 12885i bk11: 0a 12886i bk12: 0a 12887i bk13: 0a 12887i bk14: 0a 12888i bk15: 0a 12889i 
dram_util_bins: 0 0 0 0 0 0 0 0 0 0
dram_eff_bins: 0 0 0 0 0 0 0 0 0 0
mrqq: max=1 avg=0.00263811
Memory Partition 3: 
Cache L2_bank_006:
MSHR contents

Cache L2_bank_007:
MSHR contents

In Dram Latency Queue (total = 0): 
DRAM[3]: 16 bks, busW=4 BL=8 CL=12, tRRD=2 tCCD=6, tRCD=12 tRAS=28 tRP=12 tRC=40
n_cmd=12888 n_nop=12781 n_act=7 n_pre=0 n_req=52 n_rd=96 n_write=4 bw_util=0.01552
n_activity=816 dram_eff=0.2451
bk0: 0a 12889i bk1: 0a 12891i bk2: 28a 12823i bk3: 32a 12812i bk4: 16a 12828i bk5: 12a 12844i bk6: 0a 12888i bk7: 4a 12868i bk8: 0a 12887i bk9: 2a 12864i bk10: 0a 12885i bk11: 2a 12862i bk12: 0a 12884i bk13: 0a 12885i bk14: 0a 12887i bk15: 0a 12888i 
dram_util_bins: 0 0 0 0 0 0 0 0 0 0
dram_eff_bins: 0 0 0 0 0 0 0 0 0 0
mrqq: max=1 avg=0.00147424
Memory Partition 4: 
Cache L2_bank_008:
MSHR contents

Cache L2_bank_009:
MSHR contents

In Dram Latency Queue (total = 0): 
DRAM[4]: 16 bks, busW=4 BL=8 CL=12, tRRD=2 tCCD=6, tRCD=12 tRAS=28 tRP=12 tRC=40
n_cmd=12888 n_nop=12783 n_act=6 n_pre=0 n_req=51 n_rd=96 n_write=3 bw_util=0.01536
n_activity=833 dram_eff=0.2377
bk0: 0a 12889i bk1: 0a 12891i bk2: 28a 12822i bk3: 32a 12813i bk4: 18a 12823i bk5: 14a 12846i bk6: 0a 12887i bk7: 2a 12871i bk8: 2a 12864i bk9: 0a 12885i bk10: 0a 12885i bk11: 0a 12886i bk12: 0a 12888i bk13: 0a 12888i bk14: 0a 12889i bk15: 0a 12889i 
dram_util_bins: 0 0 0 0 0 0 0 0 0 0
dram_eff_bins: 0 0 0 0 0 0 0 0 0 0
mrqq: max=1 avg=0.00100869
Memory Partition 5: 
Cache L2_bank_010:
MSHR contents

Cache L2_bank_011:
MSHR contents

In Dram Latency Queue (total = 0): 
DRAM[5]: 16 bks, busW=4 BL=8 CL=12, tRRD=2 tCCD=6, tRCD=12 tRAS=28 tRP=12 tRC=40
n_cmd=12888 n_nop=12775 n_act=7 n_pre=0 n_req=56 n_rd=100 n_write=6 bw_util=0.01645
n_activity=824 dram_eff=0.2573
bk0: 0a 12888i bk1: 0a 12889i bk2: 28a 12821i bk3: 32a 12806i bk4: 16a 12829i bk5: 16a 12838i bk6: 0a 12887i bk7: 2a 12870i bk8: 0a 12886i bk9: 0a 12887i bk10: 2a 12865i bk11: 4a 12849i bk12: 0a 12888i bk13: 0a 12888i bk14: 0a 12888i bk15: 0a 12888i 
dram_util_bins: 0 0 0 0 0 0 0 0 0 0
dram_eff_bins: 0 0 0 0 0 0 0 0 0 0
mrqq: max=1 avg=0.00201738

========= L2 cache stats =========
L2_cache_bank[0]: Access = 58, Miss = 30, Miss_rate = 0.517, Pending_hits = 6, Reservation_fails = 221
L2_cache_bank[1]: Access = 25, Miss = 25, Miss_rate = 1.000, Pending_hits = 0, Reservation_fails = 0
L2_cache_bank[2]: Access = 44, Miss = 30, Miss_rate = 0.682, Pending_hits = 3, Reservation_fails = 108
L2_cache_bank[3]: Access = 22, Miss = 22, Miss_rate = 1.000, Pending_hits = 0, Reservation_fails = 0
L2_cache_bank[4]: Access = 22, Miss = 22, Miss_rate = 1.000, Pending_hits = 0, Reservation_fails = 0
L2_cache_bank[5]: Access = 26, Miss = 26, Miss_rate = 1.000, Pending_hits = 0, Reservation_fails = 0
L2_cache_bank[6]: Access = 22, Miss = 22, Miss_rate = 1.000, Pending_hits = 0, Reservation_fails = 0
L2_cache_bank[7]: Access = 28, Miss = 26, Miss_rate = 0.929, Pending_hits = 0, Reservation_fails = 0
L2_cache_bank[8]: Access = 25, Miss = 24, Miss_rate = 0.960, Pending_hits = 0, Reservation_fails = 0
L2_cache_bank[9]: Access = 24, Miss = 24, Miss_rate = 1.000, Pending_hits = 0, Reservation_fails = 0
L2_cache_bank[10]: Access = 23, Miss = 23, Miss_rate = 1.000, Pending_hits = 0, Reservation_fails = 0
L2_cache_bank[11]: Access = 27, Miss = 27, Miss_rate = 1.000, Pending_hits = 0, Reservation_fails = 0
L2_total_cache_accesses = 346
L2_total_cache_misses = 301
L2_total_cache_miss_rate = 0.8699
L2_total_cache_pending_hits = 9
L2_total_cache_reservation_fails = 329
L2_total_cache_breakdown:
	L2_cache_stats_breakdown[GLOBAL_ACC_R][HIT] = 1
	L2_cache_stats_breakdown[GLOBAL_ACC_R][MISS] = 267
	L2_cache_stats_breakdown[CONST_ACC_R][HIT] = 11
	L2_cache_stats_breakdown[CONST_ACC_R][HIT_RESERVED] = 3
	L2_cache_stats_breakdown[CONST_ACC_R][MISS] = 1
	L2_cache_stats_breakdown[CONST_ACC_R][RESERVATION_FAIL] = 105
	L2_cache_stats_breakdown[GLOBAL_ACC_W][HIT] = 2
	L2_cache_stats_breakdown[GLOBAL_ACC_W][MISS] = 29
	L2_cache_stats_breakdown[INST_ACC_R][HIT] = 22
	L2_cache_stats_breakdown[INST_ACC_R][HIT_RESERVED] = 6
	L2_cache_stats_breakdown[INST_ACC_R][MISS] = 4
	L2_cache_stats_breakdown[INST_ACC_R][RESERVATION_FAIL] = 224
L2_cache_data_port_util = 0.001
L2_cache_fill_port_util = 0.010

icnt_total_pkts_mem_to_simt=1576
icnt_total_pkts_simt_to_mem=377
LD_mem_lat_dist  0 0 0 0 0 0 0 0 0 0 0 0 0 0 0 0 0 0 0 0 0 0 0 0 0 0 0
ST_mem_lat_dist  0 0 0 0 0 0 0 0 0 0 0 0 0 0 0 0 0 0 0 0 0 0 0 0 0 0 0
----------------------------Interconnect-DETAILS--------------------------------
Class 0:
Packet latency average = 8.73844
	minimum = 6
	maximum = 34
Network latency average = 8.41329
	minimum = 6
	maximum = 34
Slowest packet = 14
Flit latency average = 6.5151
	minimum = 6
	maximum = 34
Slowest flit = 14
Fragmentation average = 0
	minimum = 0
	maximum = 0
Injected packet rate average = 0.00262491
	minimum = 0.00194592 (at node 2)
	maximum = 0.00675952 (at node 1)
Accepted packet rate average = 0.00262491
	minimum = 0.00194592 (at node 2)
	maximum = 0.00675952 (at node 1)
Injected flit rate average = 0.00740817
	minimum = 0.00194592 (at node 2)
	maximum = 0.0258091 (at node 15)
Accepted flit rate average= 0.00740817
	minimum = 0.00235559 (at node 18)
	maximum = 0.0208931 (at node 1)
Injected packet length average = 2.82225
Accepted packet length average = 2.82225
Total in-flight flits = 0 (0 measured)
====== Overall Traffic Statistics ======
====== Traffic class 0 ======
Packet latency average = 8.73844 (1 samples)
	minimum = 6 (1 samples)
	maximum = 34 (1 samples)
Network latency average = 8.41329 (1 samples)
	minimum = 6 (1 samples)
	maximum = 34 (1 samples)
Flit latency average = 6.5151 (1 samples)
	minimum = 6 (1 samples)
	maximum = 34 (1 samples)
Fragmentation average = 0 (1 samples)
	minimum = 0 (1 samples)
	maximum = 0 (1 samples)
Injected packet rate average = 0.00262491 (1 samples)
	minimum = 0.00194592 (1 samples)
	maximum = 0.00675952 (1 samples)
Accepted packet rate average = 0.00262491 (1 samples)
	minimum = 0.00194592 (1 samples)
	maximum = 0.00675952 (1 samples)
Injected flit rate average = 0.00740817 (1 samples)
	minimum = 0.00194592 (1 samples)
	maximum = 0.0258091 (1 samples)
Accepted flit rate average = 0.00740817 (1 samples)
	minimum = 0.00235559 (1 samples)
	maximum = 0.0208931 (1 samples)
Injected packet size average = 2.82225 (1 samples)
Accepted packet size average = 2.82225 (1 samples)
Hops average = 1 (1 samples)
----------------------------END-of-Interconnect-DETAILS-------------------------


gpgpu_simulation_time = 0 days, 0 hrs, 0 min, 13 sec (13 sec)
gpgpu_simulation_rate = 34648 (inst/sec)
gpgpu_simulation_rate = 751 (cycle/sec)
kernel '_Z7Kernel2PbS_S_S_i' transfer to GPU hardware scheduler
GPGPU-Sim uArch: Shader 6 bind to kernel 2 '_Z7Kernel2PbS_S_S_i'
GPGPU-Sim uArch: CTA/core = 3, limited by: threads
GPGPU-Sim uArch: core:  6, cta: 0 initialized @(1,9764)
GPGPU-Sim uArch: Shader 7 bind to kernel 2 '_Z7Kernel2PbS_S_S_i'
GPGPU-Sim uArch: core:  7, cta: 0 initialized @(1,9764)
GPGPU-Sim uArch: Shader 8 bind to kernel 2 '_Z7Kernel2PbS_S_S_i'
GPGPU-Sim uArch: core:  8, cta: 0 initialized @(1,9764)
GPGPU-Sim uArch: Shader 9 bind to kernel 2 '_Z7Kernel2PbS_S_S_i'
GPGPU-Sim uArch: core:  9, cta: 0 initialized @(1,9764)
GPGPU-Sim uArch: Shader 10 bind to kernel 2 '_Z7Kernel2PbS_S_S_i'
GPGPU-Sim uArch: core: 10, cta: 0 initialized @(1,9764)
GPGPU-Sim uArch: Shader 11 bind to kernel 2 '_Z7Kernel2PbS_S_S_i'
GPGPU-Sim uArch: core: 11, cta: 0 initialized @(1,9764)
GPGPU-Sim uArch: Shader 12 bind to kernel 2 '_Z7Kernel2PbS_S_S_i'
GPGPU-Sim uArch: core: 12, cta: 0 initialized @(1,9764)
GPGPU-Sim uArch: Shader 13 bind to kernel 2 '_Z7Kernel2PbS_S_S_i'
GPGPU-Sim uArch: core: 13, cta: 0 initialized @(1,9764)
GPGPU-Sim uArch: Shader 14 bind to kernel 2 '_Z7Kernel2PbS_S_S_i'
GPGPU-Sim uArch: core: 14, cta: 0 initialized @(1,9764)
GPGPU-Sim uArch: Shader 0 bind to kernel 2 '_Z7Kernel2PbS_S_S_i'
GPGPU-Sim uArch: core:  0, cta: 0 initialized @(1,9764)
GPGPU-Sim uArch: Shader 1 bind to kernel 2 '_Z7Kernel2PbS_S_S_i'
GPGPU-Sim uArch: core:  1, cta: 0 initialized @(1,9764)
GPGPU-Sim uArch: Shader 2 bind to kernel 2 '_Z7Kernel2PbS_S_S_i'
GPGPU-Sim uArch: core:  2, cta: 0 initialized @(1,9764)
GPGPU-Sim uArch: Shader 3 bind to kernel 2 '_Z7Kernel2PbS_S_S_i'
GPGPU-Sim uArch: core:  3, cta: 0 initialized @(1,9764)
GPGPU-Sim uArch: Shader 4 bind to kernel 2 '_Z7Kernel2PbS_S_S_i'
GPGPU-Sim uArch: core:  4, cta: 0 initialized @(1,9764)
GPGPU-Sim uArch: Shader 5 bind to kernel 2 '_Z7Kernel2PbS_S_S_i'
GPGPU-Sim uArch: core:  5, cta: 0 initialized @(1,9764)
GPGPU-Sim uArch: core:  6, cta: 1 initialized @(2,9764)
GPGPU-Sim uArch: core:  7, cta: 1 initialized @(2,9764)
GPGPU-Sim uArch: core:  8, cta: 1 initialized @(2,9764)
GPGPU-Sim uArch: core:  9, cta: 1 initialized @(2,9764)
GPGPU-Sim uArch: core: 10, cta: 1 initialized @(2,9764)
GPGPU-Sim uArch: core: 11, cta: 1 initialized @(2,9764)
GPGPU-Sim uArch: core: 12, cta: 1 initialized @(2,9764)
GPGPU-Sim uArch: core: 13, cta: 1 initialized @(2,9764)
GPGPU-Sim uArch: core: 14, cta: 1 initialized @(2,9764)
GPGPU-Sim uArch: core:  0, cta: 1 initialized @(2,9764)
GPGPU-Sim uArch: core:  1, cta: 1 initialized @(2,9764)
GPGPU-Sim uArch: core:  2, cta: 1 initialized @(2,9764)
GPGPU-Sim uArch: core:  3, cta: 1 initialized @(2,9764)
GPGPU-Sim uArch: core:  4, cta: 1 initialized @(2,9764)
GPGPU-Sim uArch: core:  5, cta: 1 initialized @(2,9764)
GPGPU-Sim uArch: core:  6, cta: 2 initialized @(3,9764)
GPGPU-Sim uArch: core:  7, cta: 2 initialized @(3,9764)
GPGPU-Sim uArch: core:  8, cta: 2 initialized @(3,9764)
GPGPU-Sim uArch: core:  9, cta: 2 initialized @(3,9764)
GPGPU-Sim uArch: core: 10, cta: 2 initialized @(3,9764)
GPGPU-Sim uArch: core: 11, cta: 2 initialized @(3,9764)
GPGPU-Sim uArch: core: 12, cta: 2 initialized @(3,9764)
GPGPU-Sim uArch: core: 13, cta: 2 initialized @(3,9764)
GPGPU-Sim uArch: core: 14, cta: 2 initialized @(3,9764)
GPGPU-Sim uArch: core:  0, cta: 2 initialized @(3,9764)
GPGPU-Sim uArch: core:  1, cta: 2 initialized @(3,9764)
GPGPU-Sim uArch: core:  2, cta: 2 initialized @(3,9764)
GPGPU-Sim uArch: core:  3, cta: 2 initialized @(3,9764)
GPGPU-Sim uArch: core:  4, cta: 2 initialized @(3,9764)
GPGPU-Sim uArch: core:  5, cta: 2 initialized @(3,9764)
GPGPU-Sim PTX: 500000 instructions simulated : ctaid=(13,0,0) tid=(73,0,0)
GPGPU-Sim uArch: cycles simulated: 10764  inst.: 474276 (ipc=23.8) sim_rate=33876 (inst/sec) elapsed = 0:0:00:14 / Tue Mar 22 12:39:53 2016
GPGPU-Sim uArch: Shader 7 finished CTA #0 (2136,9764), 2 CTAs running
GPGPU-Sim uArch: core:  7, cta: 0 initialized @(2137,9764)
GPGPU-Sim uArch: Shader 1 finished CTA #0 (2198,9764), 2 CTAs running
GPGPU-Sim uArch: core:  1, cta: 0 initialized @(2199,9764)
GPGPU-Sim uArch: Shader 13 finished CTA #0 (2209,9764), 2 CTAs running
GPGPU-Sim uArch: core: 13, cta: 0 initialized @(2210,9764)
GPGPU-Sim uArch: Shader 0 finished CTA #0 (2222,9764), 2 CTAs running
GPGPU-Sim uArch: core:  0, cta: 0 initialized @(2223,9764)
GPGPU-Sim uArch: Shader 2 finished CTA #0 (2228,9764), 2 CTAs running
GPGPU-Sim uArch: core:  2, cta: 0 initialized @(2229,9764)
GPGPU-Sim uArch: Shader 4 finished CTA #0 (2234,9764), 2 CTAs running
GPGPU-Sim uArch: core:  4, cta: 0 initialized @(2235,9764)
GPGPU-Sim uArch: Shader 5 finished CTA #0 (2238,9764), 2 CTAs running
GPGPU-Sim uArch: core:  5, cta: 0 initialized @(2239,9764)
GPGPU-Sim uArch: Shader 14 finished CTA #0 (2243,9764), 2 CTAs running
GPGPU-Sim uArch: core: 14, cta: 0 initialized @(2244,9764)
GPGPU-Sim uArch: Shader 6 finished CTA #0 (2245,9764), 2 CTAs running
GPGPU-Sim uArch: core:  6, cta: 0 initialized @(2246,9764)
GPGPU-Sim PTX: 600000 instructions simulated : ctaid=(17,0,0) tid=(27,0,0)
GPGPU-Sim uArch: Shader 8 finished CTA #0 (2256,9764), 2 CTAs running
GPGPU-Sim uArch: core:  8, cta: 0 initialized @(2257,9764)
GPGPU-Sim uArch: Shader 9 finished CTA #0 (2263,9764), 2 CTAs running
GPGPU-Sim uArch: core:  9, cta: 0 initialized @(2264,9764)
GPGPU-Sim uArch: Shader 11 finished CTA #0 (2275,9764), 2 CTAs running
GPGPU-Sim uArch: core: 11, cta: 0 initialized @(2276,9764)
GPGPU-Sim uArch: Shader 3 finished CTA #0 (2278,9764), 2 CTAs running
GPGPU-Sim uArch: core:  3, cta: 0 initialized @(2279,9764)
GPGPU-Sim uArch: Shader 12 finished CTA #0 (2281,9764), 2 CTAs running
GPGPU-Sim uArch: core: 12, cta: 0 initialized @(2282,9764)
GPGPU-Sim uArch: Shader 10 finished CTA #0 (2295,9764), 2 CTAs running
GPGPU-Sim uArch: core: 10, cta: 0 initialized @(2296,9764)
GPGPU-Sim uArch: cycles simulated: 13264  inst.: 643396 (ipc=55.1) sim_rate=42893 (inst/sec) elapsed = 0:0:00:15 / Tue Mar 22 12:39:54 2016
GPGPU-Sim uArch: Shader 1 finished CTA #1 (3712,9764), 2 CTAs running
GPGPU-Sim uArch: core:  1, cta: 1 initialized @(3713,9764)
GPGPU-Sim uArch: Shader 7 finished CTA #1 (3766,9764), 2 CTAs running
GPGPU-Sim uArch: core:  7, cta: 1 initialized @(3767,9764)
GPGPU-Sim PTX: 700000 instructions simulated : ctaid=(26,0,0) tid=(385,0,0)
GPGPU-Sim uArch: Shader 13 finished CTA #1 (3838,9764), 2 CTAs running
GPGPU-Sim uArch: core: 13, cta: 1 initialized @(3839,9764)
GPGPU-Sim uArch: Shader 0 finished CTA #1 (3852,9764), 2 CTAs running
GPGPU-Sim uArch: Shader 2 finished CTA #1 (3859,9764), 2 CTAs running
GPGPU-Sim uArch: Shader 4 finished CTA #1 (3863,9764), 2 CTAs running
GPGPU-Sim uArch: Shader 5 finished CTA #1 (3869,9764), 2 CTAs running
GPGPU-Sim uArch: Shader 6 finished CTA #1 (3875,9764), 2 CTAs running
GPGPU-Sim uArch: Shader 14 finished CTA #1 (3875,9764), 2 CTAs running
GPGPU-Sim uArch: Shader 8 finished CTA #1 (3887,9764), 2 CTAs running
GPGPU-Sim uArch: Shader 11 finished CTA #1 (3905,9764), 2 CTAs running
GPGPU-Sim uArch: Shader 3 finished CTA #1 (3909,9764), 2 CTAs running
GPGPU-Sim uArch: Shader 12 finished CTA #1 (3915,9764), 2 CTAs running
GPGPU-Sim uArch: Shader 9 finished CTA #1 (3919,9764), 2 CTAs running
GPGPU-Sim uArch: Shader 10 finished CTA #1 (3925,9764), 2 CTAs running
GPGPU-Sim PTX: 800000 instructions simulated : ctaid=(35,0,0) tid=(340,0,0)
GPGPU-Sim uArch: Shader 1 finished CTA #2 (5341,9764), 2 CTAs running
GPGPU-Sim uArch: Shader 5 finished CTA #2 (5381,9764), 1 CTAs running
GPGPU-Sim uArch: Shader 7 finished CTA #2 (5394,9764), 2 CTAs running
GPGPU-Sim uArch: Shader 13 finished CTA #2 (5469,9764), 2 CTAs running
GPGPU-Sim uArch: Shader 0 finished CTA #2 (5480,9764), 1 CTAs running
GPGPU-Sim uArch: Shader 2 finished CTA #2 (5487,9764), 1 CTAs running
GPGPU-Sim uArch: Shader 4 finished CTA #2 (5491,9764), 1 CTAs running
GPGPU-Sim uArch: Shader 6 finished CTA #2 (5501,9764), 1 CTAs running
GPGPU-Sim uArch: Shader 14 finished CTA #2 (5501,9764), 1 CTAs running
GPGPU-Sim uArch: Shader 8 finished CTA #2 (5515,9764), 1 CTAs running
GPGPU-Sim uArch: Shader 11 finished CTA #2 (5533,9764), 1 CTAs running
GPGPU-Sim uArch: Shader 3 finished CTA #2 (5537,9764), 1 CTAs running
GPGPU-Sim uArch: Shader 12 finished CTA #2 (5543,9764), 1 CTAs running
GPGPU-Sim uArch: Shader 9 finished CTA #2 (5548,9764), 1 CTAs running
GPGPU-Sim uArch: Shader 10 finished CTA #2 (5551,9764), 1 CTAs running
GPGPU-Sim uArch: cycles simulated: 16264  inst.: 838304 (ipc=59.7) sim_rate=52394 (inst/sec) elapsed = 0:0:00:16 / Tue Mar 22 12:39:55 2016
GPGPU-Sim PTX: 900000 instructions simulated : ctaid=(46,0,0) tid=(320,0,0)
GPGPU-Sim uArch: Shader 7 finished CTA #0 (6905,9764), 1 CTAs running
GPGPU-Sim uArch: Shader 1 finished CTA #0 (6969,9764), 1 CTAs running
GPGPU-Sim uArch: Shader 9 finished CTA #0 (6987,9764), 0 CTAs running
GPGPU-Sim uArch: Shader 9 empty (release kernel 2 '_Z7Kernel2PbS_S_S_i').
GPGPU-Sim uArch: Shader 4 finished CTA #0 (7001,9764), 0 CTAs running
GPGPU-Sim uArch: Shader 4 empty (release kernel 2 '_Z7Kernel2PbS_S_S_i').
GPGPU-Sim uArch: Shader 5 finished CTA #0 (7032,9764), 0 CTAs running
GPGPU-Sim uArch: Shader 5 empty (release kernel 2 '_Z7Kernel2PbS_S_S_i').
GPGPU-Sim uArch: Shader 13 finished CTA #0 (7097,9764), 1 CTAs running
GPGPU-Sim uArch: Shader 0 finished CTA #0 (7106,9764), 0 CTAs running
GPGPU-Sim uArch: Shader 0 empty (release kernel 2 '_Z7Kernel2PbS_S_S_i').
GPGPU-Sim uArch: Shader 2 finished CTA #0 (7113,9764), 0 CTAs running
GPGPU-Sim uArch: Shader 2 empty (release kernel 2 '_Z7Kernel2PbS_S_S_i').
GPGPU-Sim uArch: Shader 6 finished CTA #0 (7126,9764), 0 CTAs running
GPGPU-Sim uArch: Shader 6 empty (release kernel 2 '_Z7Kernel2PbS_S_S_i').
GPGPU-Sim uArch: Shader 14 finished CTA #0 (7126,9764), 0 CTAs running
GPGPU-Sim uArch: Shader 14 empty (release kernel 2 '_Z7Kernel2PbS_S_S_i').
GPGPU-Sim uArch: Shader 8 finished CTA #0 (7139,9764), 0 CTAs running
GPGPU-Sim uArch: Shader 8 empty (release kernel 2 '_Z7Kernel2PbS_S_S_i').
GPGPU-Sim uArch: Shader 11 finished CTA #0 (7157,9764), 0 CTAs running
GPGPU-Sim uArch: Shader 11 empty (release kernel 2 '_Z7Kernel2PbS_S_S_i').
GPGPU-Sim uArch: Shader 3 finished CTA #0 (7163,9764), 0 CTAs running
GPGPU-Sim uArch: Shader 3 empty (release kernel 2 '_Z7Kernel2PbS_S_S_i').
GPGPU-Sim uArch: Shader 12 finished CTA #0 (7167,9764), 0 CTAs running
GPGPU-Sim uArch: Shader 12 empty (release kernel 2 '_Z7Kernel2PbS_S_S_i').
GPGPU-Sim uArch: Shader 10 finished CTA #0 (7176,9764), 0 CTAs running
GPGPU-Sim uArch: Shader 10 empty (release kernel 2 '_Z7Kernel2PbS_S_S_i').
GPGPU-Sim uArch: Shader 13 finished CTA #1 (8064,9764), 0 CTAs running
GPGPU-Sim uArch: Shader 13 empty (release kernel 2 '_Z7Kernel2PbS_S_S_i').
GPGPU-Sim uArch: Shader 7 finished CTA #1 (8531,9764), 0 CTAs running
GPGPU-Sim uArch: Shader 7 empty (release kernel 2 '_Z7Kernel2PbS_S_S_i').
GPGPU-Sim uArch: Shader 1 finished CTA #1 (8595,9764), 0 CTAs running
GPGPU-Sim uArch: Shader 1 empty (release kernel 2 '_Z7Kernel2PbS_S_S_i').
GPGPU-Sim uArch: GPU detected kernel '_Z7Kernel2PbS_S_S_i' finished on shader 1.
kernel_name = _Z7Kernel2PbS_S_S_i 
kernel_launch_uid = 2 
gpu_sim_cycle = 8596
gpu_sim_insn = 450228
gpu_ipc =      52.3765
gpu_tot_sim_cycle = 18360
gpu_tot_sim_insn = 900664
gpu_tot_ipc =      49.0558
gpu_tot_issued_cta = 126
gpu_stall_dramfull = 468
gpu_stall_icnt2sh    = 268
gpu_total_sim_rate=56291

========= Core cache stats =========
L1I_cache:
	L1I_total_cache_accesses = 18371
	L1I_total_cache_misses = 571
	L1I_total_cache_miss_rate = 0.0311
	L1I_total_cache_pending_hits = 0
	L1I_total_cache_reservation_fails = 4140
L1D_cache:
	L1D_cache_core[0]: Access = 144, Miss = 36, Miss_rate = 0.250, Pending_hits = 36, Reservation_fails = 0
	L1D_cache_core[1]: Access = 240, Miss = 82, Miss_rate = 0.342, Pending_hits = 21, Reservation_fails = 0
	L1D_cache_core[2]: Access = 132, Miss = 36, Miss_rate = 0.273, Pending_hits = 33, Reservation_fails = 0
	L1D_cache_core[3]: Access = 152, Miss = 44, Miss_rate = 0.289, Pending_hits = 38, Reservation_fails = 0
	L1D_cache_core[4]: Access = 148, Miss = 39, Miss_rate = 0.264, Pending_hits = 36, Reservation_fails = 0
	L1D_cache_core[5]: Access = 144, Miss = 41, Miss_rate = 0.285, Pending_hits = 35, Reservation_fails = 0
	L1D_cache_core[6]: Access = 128, Miss = 32, Miss_rate = 0.250, Pending_hits = 32, Reservation_fails = 0
	L1D_cache_core[7]: Access = 152, Miss = 42, Miss_rate = 0.276, Pending_hits = 36, Reservation_fails = 0
	L1D_cache_core[8]: Access = 128, Miss = 32, Miss_rate = 0.250, Pending_hits = 32, Reservation_fails = 0
	L1D_cache_core[9]: Access = 144, Miss = 46, Miss_rate = 0.319, Pending_hits = 33, Reservation_fails = 0
	L1D_cache_core[10]: Access = 132, Miss = 36, Miss_rate = 0.273, Pending_hits = 33, Reservation_fails = 0
	L1D_cache_core[11]: Access = 128, Miss = 32, Miss_rate = 0.250, Pending_hits = 32, Reservation_fails = 0
	L1D_cache_core[12]: Access = 128, Miss = 32, Miss_rate = 0.250, Pending_hits = 32, Reservation_fails = 0
	L1D_cache_core[13]: Access = 136, Miss = 34, Miss_rate = 0.250, Pending_hits = 34, Reservation_fails = 0
	L1D_cache_core[14]: Access = 132, Miss = 36, Miss_rate = 0.273, Pending_hits = 33, Reservation_fails = 0
	L1D_total_cache_accesses = 2168
	L1D_total_cache_misses = 600
	L1D_total_cache_miss_rate = 0.2768
	L1D_total_cache_pending_hits = 496
	L1D_total_cache_reservation_fails = 0
	L1D_cache_data_port_util = 0.005
	L1D_cache_fill_port_util = 0.002
L1C_cache:
	L1C_total_cache_accesses = 4094
	L1C_total_cache_misses = 30
	L1C_total_cache_miss_rate = 0.0073
	L1C_total_cache_pending_hits = 0
	L1C_total_cache_reservation_fails = 0
L1T_cache:
	L1T_total_cache_accesses = 0
	L1T_total_cache_misses = 0
	L1T_total_cache_pending_hits = 0
	L1T_total_cache_reservation_fails = 0

Total_core_cache_stats:
	Total_core_cache_stats_breakdown[GLOBAL_ACC_R][HIT] = 1056
	Total_core_cache_stats_breakdown[GLOBAL_ACC_R][HIT_RESERVED] = 496
	Total_core_cache_stats_breakdown[GLOBAL_ACC_R][MISS] = 525
	Total_core_cache_stats_breakdown[CONST_ACC_R][HIT] = 4064
	Total_core_cache_stats_breakdown[CONST_ACC_R][MISS] = 30
	Total_core_cache_stats_breakdown[GLOBAL_ACC_W][HIT] = 16
	Total_core_cache_stats_breakdown[GLOBAL_ACC_W][MISS] = 75
	Total_core_cache_stats_breakdown[INST_ACC_R][HIT] = 17800
	Total_core_cache_stats_breakdown[INST_ACC_R][MISS] = 571
	Total_core_cache_stats_breakdown[INST_ACC_R][RESERVATION_FAIL] = 4140
Shader 0 warp_id issue ditsribution:
warp_id:
0, 1, 2, 3, 4, 5, 6, 7, 8, 9, 10, 11, 12, 13, 14, 15, 16, 17, 18, 19, 20, 21, 22, 23, 24, 25, 26, 27, 28, 29, 30, 31, 32, 33, 34, 35, 36, 37, 38, 39, 40, 41, 42, 43, 44, 45, 46, 47, 
distro:
60, 60, 60, 60, 60, 60, 60, 60, 60, 60, 60, 60, 60, 60, 60, 60, 45, 45, 45, 45, 45, 45, 45, 45, 45, 45, 45, 45, 45, 45, 45, 45, 30, 30, 30, 30, 30, 30, 30, 30, 30, 30, 30, 30, 30, 30, 30, 30, 
gpgpu_n_tot_thrd_icount = 983328
gpgpu_n_tot_w_icount = 30729
gpgpu_n_stall_shd_mem = 0
gpgpu_n_mem_read_local = 0
gpgpu_n_mem_write_local = 0
gpgpu_n_mem_read_global = 525
gpgpu_n_mem_write_global = 91
gpgpu_n_mem_texture = 0
gpgpu_n_mem_const = 15
gpgpu_n_load_insn  = 64077
gpgpu_n_store_insn = 91
gpgpu_n_shmem_insn = 0
gpgpu_n_tex_insn = 0
gpgpu_n_const_mem_insn = 0
gpgpu_n_param_mem_insn = 128590
gpgpu_n_shmem_bkconflict = 0
gpgpu_n_cache_bkconflict = 0
gpgpu_n_intrawarp_mshr_merge = 0
gpgpu_n_cmem_portconflict = 0
gpgpu_stall_shd_mem[c_mem][bk_conf] = 0
gpgpu_stall_shd_mem[c_mem][mshr_rc] = 0
gpgpu_stall_shd_mem[c_mem][icnt_rc] = 0
gpgpu_stall_shd_mem[c_mem][data_port_stall] = 0
gpgpu_stall_shd_mem[t_mem][mshr_rc] = 0
gpgpu_stall_shd_mem[t_mem][icnt_rc] = 0
gpgpu_stall_shd_mem[t_mem][data_port_stall] = 0
gpgpu_stall_shd_mem[s_mem][bk_conf] = 0
gpgpu_stall_shd_mem[gl_mem][bk_conf] = 0
gpgpu_stall_shd_mem[gl_mem][coal_stall] = 0
gpgpu_stall_shd_mem[gl_mem][data_port_stall] = 0
gpgpu_stall_shd_mem[g_mem_ld][mshr_rc] = 0
gpgpu_stall_shd_mem[g_mem_ld][icnt_rc] = 0
gpgpu_stall_shd_mem[g_mem_ld][wb_icnt_rc] = 0
gpgpu_stall_shd_mem[g_mem_ld][wb_rsrv_fail] = 0
gpgpu_stall_shd_mem[g_mem_st][mshr_rc] = 0
gpgpu_stall_shd_mem[g_mem_st][icnt_rc] = 0
gpgpu_stall_shd_mem[g_mem_st][wb_icnt_rc] = 0
gpgpu_stall_shd_mem[g_mem_st][wb_rsrv_fail] = 0
gpgpu_stall_shd_mem[l_mem_ld][mshr_rc] = 0
gpgpu_stall_shd_mem[l_mem_ld][icnt_rc] = 0
gpgpu_stall_shd_mem[l_mem_ld][wb_icnt_rc] = 0
gpgpu_stall_shd_mem[l_mem_ld][wb_rsrv_fail] = 0
gpgpu_stall_shd_mem[l_mem_st][mshr_rc] = 0
gpgpu_stall_shd_mem[l_mem_st][icnt_rc] = 0
gpgpu_stall_shd_mem[l_mem_ld][wb_icnt_rc] = 0
gpgpu_stall_shd_mem[l_mem_ld][wb_rsrv_fail] = 0
gpu_reg_bank_conflict_stalls = 0
Warp Occupancy Distribution:
Stall:11	W0_Idle:61294	W0_Scoreboard:367908	W1:601	W2:0	W3:0	W4:0	W5:0	W6:0	W7:0	W8:0	W9:0	W10:0	W11:0	W12:0	W13:0	W14:0	W15:0	W16:0	W17:0	W18:0	W19:0	W20:0	W21:0	W22:0	W23:0	W24:0	W25:0	W26:0	W27:0	W28:0	W29:0	W30:0	W31:0	W32:30128
traffic_breakdown_coretomem[CONST_ACC_R] = 120 {8:15,}
traffic_breakdown_coretomem[GLOBAL_ACC_R] = 4200 {8:525,}
traffic_breakdown_coretomem[GLOBAL_ACC_W] = 3640 {40:91,}
traffic_breakdown_coretomem[INST_ACC_R] = 496 {8:62,}
traffic_breakdown_memtocore[CONST_ACC_R] = 1080 {72:15,}
traffic_breakdown_memtocore[GLOBAL_ACC_R] = 71400 {136:525,}
traffic_breakdown_memtocore[GLOBAL_ACC_W] = 728 {8:91,}
traffic_breakdown_memtocore[INST_ACC_R] = 8432 {136:62,}
maxmrqlatency = 15 
maxdqlatency = 0 
maxmflatency = 278 
averagemflatency = 243 
max_icnt2mem_latency = 36 
max_icnt2sh_latency = 16540 
mrq_lat_table:550 	1 	19 	1 	0 	0 	0 	0 	0 	0 	0 	0 	0 	0 	0 	0 	0 	0 	0 	0 	0 	0 	0 	0 	0 	0 	0 	0 	0 	0 	0 	0 	
dq_lat_table:0 	0 	0 	0 	0 	0 	0 	0 	0 	0 	0 	0 	0 	0 	0 	0 	0 	0 	0 	0 	0 	0 	0 	0 	0 	0 	0 	0 	0 	0 	0 	0 	
mf_lat_table:0 	0 	0 	0 	0 	0 	0 	117 	514 	0 	0 	0 	0 	0 	0 	0 	0 	0 	0 	0 	0 	0 	0 	0 	0 	0 	0 	0 	0 	0 	0 	0 	
icnt2mem_lat_table:0 	0 	0 	671 	16 	6 	0 	0 	0 	0 	0 	0 	0 	0 	0 	0 	0 	0 	0 	0 	0 	0 	0 	0 	
icnt2sh_lat_table:0 	0 	0 	527 	13 	0 	0 	0 	0 	0 	1 	6 	22 	54 	8 	0 	0 	0 	0 	0 	0 	0 	0 	0 	
mf_lat_pw_table:0 	0 	0 	0 	0 	0 	0 	12 	21 	0 	0 	0 	0 	0 	0 	0 	0 	0 	0 	0 	0 	0 	0 	0 	0 	0 	0 	0 	0 	0 	0 	0 	
maximum concurrent accesses to same row:
dram[0]:         1         0         0         0         0         0         0         0         0         0         0         0         0         0         0         0 
dram[1]:         0         0         0         0         0         0         0         0         0         0         0         0         0         0         0         0 
dram[2]:         0         0         0         0         0         1         0         0         0         0         0         0         0         0         0         0 
dram[3]:         0         0         0         0         0         0         0         0         0         0         0         0         0         0         0         0 
dram[4]:         0         0         0         0         0         0         0         0         0         0         0         0         0         0         0         0 
dram[5]:         0         0         0         0         0         0         0         0         0         0         0         0         0         0         0         0 
maximum service time to same row:
dram[0]:       609         0      1981      1975      5291      5362      2644      5344         0      7450      8247         0         0         0      1791         0 
dram[1]:      1141         0       862       885      4419      5756      3816         0         0         0      2943         0         0         0         0         0 
dram[2]:       309         0      1957      1991      5241      2700         0      3413      7057         0         0         0         0      1479         0         0 
dram[3]:         0         0       866       878      3766      6059         0      3010         0      6525         0      5738         0         0         0         0 
dram[4]:         0         0      1963      1985      3363      4613         0      2338      3749         0         0         0         0         0         0         0 
dram[5]:         0         0       874       882      2960      4563         0      7519         0         0      7854      3346         0         0         0         0 
average row accesses per activate:
dram[0]:  1.000000      -nan 14.000000 14.000000 28.000000 31.000000  4.000000  2.000000      -nan  2.000000  2.000000      -nan      -nan      -nan  1.000000      -nan 
dram[1]:  2.000000      -nan 14.000000 14.000000 29.000000 28.000000  4.000000      -nan      -nan      -nan  4.000000      -nan      -nan      -nan      -nan      -nan 
dram[2]:  2.000000      -nan 14.000000 14.000000 29.000000 15.000000      -nan  3.000000  2.000000      -nan      -nan      -nan      -nan  3.000000      -nan      -nan 
dram[3]:      -nan      -nan 14.000000 16.000000 30.000000 26.000000      -nan  2.000000      -nan  2.000000      -nan  2.000000      -nan      -nan      -nan      -nan 
dram[4]:      -nan      -nan 14.000000 16.000000 31.000000 27.000000      -nan  1.000000  2.000000      -nan      -nan      -nan      -nan      -nan      -nan      -nan 
dram[5]:      -nan      -nan 14.000000 16.000000 30.000000 28.000000      -nan  1.000000      -nan      -nan  2.000000  4.000000      -nan      -nan      -nan      -nan 
average row locality = 571/48 = 11.895833
number of total memory accesses made:
dram[0]:         0         0         0         0         0         0         0         0         0         0         0         0         0         0         0         0 
dram[1]:         0         0         0         0         0         0         0         0         0         0         0         0         0         0         0         0 
dram[2]:         0         0         0         0         0         0         0         0         0         0         0         0         0         0         0         0 
dram[3]:         0         0         0         0         0         0         0         0         0         0         0         0         0         0         0         0 
dram[4]:         0         0         0         0         0         0         0         0         0         0         0         0         0         0         0         0 
dram[5]:         0         0         0         0         0         0         0         0         0         0         0         0         0         0         0         0 
total accesses: 0
min_bank_accesses = 0!
min_chip_accesses = 0!
number of total read accesses:
dram[0]:         3         0        14        14        28        29         3         1         0         1         1         0         0         0         1         0 
dram[1]:         2         0        14        14        28        27         3         0         0         0         2         0         0         0         0         0 
dram[2]:         2         0        14        14        28        28         0         2         1         0         0         0         0         1         0         0 
dram[3]:         0         0        14        16        28        26         0         2         0         1         0         1         0         0         0         0 
dram[4]:         0         0        14        16        29        27         0         1         1         0         0         0         0         0         0         0 
dram[5]:         0         0        14        16        28        27         0         1         0         0         1         2         0         0         0         0 
total reads: 540
min_bank_accesses = 0!
chip skew: 95/88 = 1.08
number of total write accesses:
dram[0]:         0         0         0         0         0         2         1         1         0         1         1         0         0         0         0         0 
dram[1]:         0         0         0         0         1         1         1         0         0         0         2         0         0         0         0         0 
dram[2]:         0         0         0         0         1         2         0         1         1         0         0         0         0         2         0         0 
dram[3]:         0         0         0         0         2         0         0         0         0         1         0         1         0         0         0         0 
dram[4]:         0         0         0         0         2         0         0         0         1         0         0         0         0         0         0         0 
dram[5]:         0         0         0         0         2         1         0         0         0         0         1         2         0         0         0         0 
total reads: 31
min_bank_accesses = 0!
chip skew: 7/3 = 2.33
average mf latency per bank:
dram[0]:       1297    none         269       269       264       268       228       126    none         126       126    none      none      none         268    none  
dram[1]:          0    none         270       259       269       264       263    none      none      none         124    none      none      none      none      none  
dram[2]:          0    none         259       269       269       270    none         218       126    none      none      none      none         776    none      none  
dram[3]:     none      none         259       286       278       259    none         475    none         126    none         126    none      none      none      none  
dram[4]:     none      none         259       276       273       264    none         408       126    none      none      none      none      none      none      none  
dram[5]:     none      none         259       268       259       279    none         408    none      none         126       124    none      none      none      none  
maximum mf latency per bank:
dram[0]:        278         0       268       268       268       259       268       252         0       252       252         0         0         0       268         0
dram[1]:          0         0       268       268       268       263       268         0         0         0       252         0         0         0         0         0
dram[2]:          0         0       268       268       268       268         0       268       252         0         0         0         0       257         0         0
dram[3]:          0         0       268       268       259       273         0       268         0       252         0       252         0         0         0         0
dram[4]:          0         0       268       268       259       268         0       268       252         0         0         0         0         0         0         0
dram[5]:          0         0       268       268       259       259         0       268         0         0       252       252         0         0         0         0

Number of Memory Banks Accessed per Memory Operation per Warp (from 0):
0	0	0	0	0	0	0	0	0	0	0	0	0	0	0	0	0	0	0	0	0	0	0	0	0	0	0	0	0	0	0	0	0	0	0	0	0	0	0	0	0	0	0	0	0	0	0	0	0	0	0	0	0	0	0	0	0	0	0	0	0	0	0	0	0	0	0	0	0	0	0	0	0	0	0	0	0	0	0	0	0	0	0	0	0	0	0	0	0	0	0	0	0	0	0	0	
Average # of Memory Banks Accessed per Memory Operation per Warp=-nan

position of mrq chosen
0	0	0	0	0	0	0	0	0	0	0	0	0	0	0	0	

average position of mrq chosen = -nan
Memory Partition 0: 
Cache L2_bank_000:
MSHR contents

Cache L2_bank_001:
MSHR contents

In Dram Latency Queue (total = 0): 
DRAM[0]: 16 bks, busW=4 BL=8 CL=12, tRRD=2 tCCD=6, tRCD=12 tRAS=28 tRP=12 tRC=40
n_cmd=24234 n_nop=24024 n_act=12 n_pre=2 n_req=101 n_rd=190 n_write=6 bw_util=0.01618
n_activity=1611 dram_eff=0.2433
bk0: 6a 24162i bk1: 0a 24233i bk2: 28a 24169i bk3: 28a 24169i bk4: 56a 24110i bk5: 58a 24086i bk6: 6a 24197i bk7: 2a 24208i bk8: 0a 24232i bk9: 2a 24210i bk10: 2a 24210i bk11: 0a 24232i bk12: 0a 24234i bk13: 0a 24234i bk14: 2a 24218i bk15: 0a 24233i 
dram_util_bins: 0 0 0 0 0 0 0 0 0 0
dram_eff_bins: 0 0 0 0 0 0 0 0 0 0
mrqq: max=1 avg=0.0011554
Memory Partition 1: 
Cache L2_bank_002:
MSHR contents

Cache L2_bank_003:
MSHR contents

In Dram Latency Queue (total = 0): 
DRAM[1]: 16 bks, busW=4 BL=8 CL=12, tRRD=2 tCCD=6, tRCD=12 tRAS=28 tRP=12 tRC=40
n_cmd=24234 n_nop=24042 n_act=7 n_pre=0 n_req=95 n_rd=180 n_write=5 bw_util=0.01527
n_activity=1390 dram_eff=0.2662
bk0: 4a 24216i bk1: 0a 24236i bk2: 28a 24164i bk3: 28a 24167i bk4: 56a 24098i bk5: 54a 24098i bk6: 6a 24196i bk7: 0a 24231i bk8: 0a 24231i bk9: 0a 24232i bk10: 4a 24195i bk11: 0a 24232i bk12: 0a 24234i bk13: 0a 24235i bk14: 0a 24235i bk15: 0a 24236i 
dram_util_bins: 0 0 0 0 0 0 0 0 0 0
dram_eff_bins: 0 0 0 0 0 0 0 0 0 0
mrqq: max=1 avg=0.000825287
Memory Partition 2: 
Cache L2_bank_004:
MSHR contents

Cache L2_bank_005:
MSHR contents

In Dram Latency Queue (total = 0): 
DRAM[2]: 16 bks, busW=4 BL=8 CL=12, tRRD=2 tCCD=6, tRCD=12 tRAS=28 tRP=12 tRC=40
n_cmd=24234 n_nop=24037 n_act=9 n_pre=1 n_req=97 n_rd=180 n_write=7 bw_util=0.01543
n_activity=1421 dram_eff=0.2632
bk0: 4a 24215i bk1: 0a 24236i bk2: 28a 24164i bk3: 28a 24167i bk4: 56a 24091i bk5: 56a 24066i bk6: 0a 24232i bk7: 4a 24201i bk8: 2a 24208i bk9: 0a 24231i bk10: 0a 24231i bk11: 0a 24232i bk12: 0a 24235i bk13: 2a 24200i bk14: 0a 24234i bk15: 0a 24235i 
dram_util_bins: 0 0 0 0 0 0 0 0 0 0
dram_eff_bins: 0 0 0 0 0 0 0 0 0 0
mrqq: max=1 avg=0.00181563
Memory Partition 3: 
Cache L2_bank_006:
MSHR contents

Cache L2_bank_007:
MSHR contents

In Dram Latency Queue (total = 0): 
DRAM[3]: 16 bks, busW=4 BL=8 CL=12, tRRD=2 tCCD=6, tRCD=12 tRAS=28 tRP=12 tRC=40
n_cmd=24234 n_nop=24047 n_act=7 n_pre=0 n_req=92 n_rd=176 n_write=4 bw_util=0.01486
n_activity=1357 dram_eff=0.2653
bk0: 0a 24235i bk1: 0a 24237i bk2: 28a 24169i bk3: 32a 24158i bk4: 56a 24093i bk5: 52a 24109i bk6: 0a 24234i bk7: 4a 24214i bk8: 0a 24233i bk9: 2a 24210i bk10: 0a 24231i bk11: 2a 24208i bk12: 0a 24230i bk13: 0a 24231i bk14: 0a 24233i bk15: 0a 24234i 
dram_util_bins: 0 0 0 0 0 0 0 0 0 0
dram_eff_bins: 0 0 0 0 0 0 0 0 0 0
mrqq: max=1 avg=0.000784022
Memory Partition 4: 
Cache L2_bank_008:
MSHR contents

Cache L2_bank_009:
MSHR contents

In Dram Latency Queue (total = 0): 
DRAM[4]: 16 bks, busW=4 BL=8 CL=12, tRRD=2 tCCD=6, tRCD=12 tRAS=28 tRP=12 tRC=40
n_cmd=24234 n_nop=24049 n_act=6 n_pre=0 n_req=91 n_rd=176 n_write=3 bw_util=0.01477
n_activity=1425 dram_eff=0.2512
bk0: 0a 24235i bk1: 0a 24237i bk2: 28a 24168i bk3: 32a 24159i bk4: 58a 24089i bk5: 54a 24112i bk6: 0a 24233i bk7: 2a 24217i bk8: 2a 24210i bk9: 0a 24231i bk10: 0a 24231i bk11: 0a 24232i bk12: 0a 24234i bk13: 0a 24234i bk14: 0a 24235i bk15: 0a 24235i 
dram_util_bins: 0 0 0 0 0 0 0 0 0 0
dram_eff_bins: 0 0 0 0 0 0 0 0 0 0
mrqq: max=1 avg=0.000536436
Memory Partition 5: 
Cache L2_bank_010:
MSHR contents

Cache L2_bank_011:
MSHR contents

In Dram Latency Queue (total = 0): 
DRAM[5]: 16 bks, busW=4 BL=8 CL=12, tRRD=2 tCCD=6, tRCD=12 tRAS=28 tRP=12 tRC=40
n_cmd=24234 n_nop=24043 n_act=7 n_pre=0 n_req=95 n_rd=178 n_write=6 bw_util=0.01519
n_activity=1409 dram_eff=0.2612
bk0: 0a 24234i bk1: 0a 24235i bk2: 28a 24167i bk3: 32a 24152i bk4: 56a 24095i bk5: 54a 24108i bk6: 0a 24233i bk7: 2a 24216i bk8: 0a 24232i bk9: 0a 24233i bk10: 2a 24211i bk11: 4a 24195i bk12: 0a 24234i bk13: 0a 24234i bk14: 0a 24234i bk15: 0a 24234i 
dram_util_bins: 0 0 0 0 0 0 0 0 0 0
dram_eff_bins: 0 0 0 0 0 0 0 0 0 0
mrqq: max=1 avg=0.00107287

========= L2 cache stats =========
L2_cache_bank[0]: Access = 81, Miss = 50, Miss_rate = 0.617, Pending_hits = 6, Reservation_fails = 221
L2_cache_bank[1]: Access = 52, Miss = 45, Miss_rate = 0.865, Pending_hits = 0, Reservation_fails = 0
L2_cache_bank[2]: Access = 70, Miss = 49, Miss_rate = 0.700, Pending_hits = 3, Reservation_fails = 108
L2_cache_bank[3]: Access = 44, Miss = 41, Miss_rate = 0.932, Pending_hits = 0, Reservation_fails = 0
L2_cache_bank[4]: Access = 77, Miss = 45, Miss_rate = 0.584, Pending_hits = 6, Reservation_fails = 207
L2_cache_bank[5]: Access = 67, Miss = 45, Miss_rate = 0.672, Pending_hits = 1, Reservation_fails = 0
L2_cache_bank[6]: Access = 50, Miss = 42, Miss_rate = 0.840, Pending_hits = 0, Reservation_fails = 0
L2_cache_bank[7]: Access = 52, Miss = 46, Miss_rate = 0.885, Pending_hits = 0, Reservation_fails = 0
L2_cache_bank[8]: Access = 51, Miss = 44, Miss_rate = 0.863, Pending_hits = 0, Reservation_fails = 0
L2_cache_bank[9]: Access = 48, Miss = 44, Miss_rate = 0.917, Pending_hits = 0, Reservation_fails = 0
L2_cache_bank[10]: Access = 47, Miss = 43, Miss_rate = 0.915, Pending_hits = 0, Reservation_fails = 0
L2_cache_bank[11]: Access = 54, Miss = 46, Miss_rate = 0.852, Pending_hits = 0, Reservation_fails = 0
L2_total_cache_accesses = 693
L2_total_cache_misses = 540
L2_total_cache_miss_rate = 0.7792
L2_total_cache_pending_hits = 16
L2_total_cache_reservation_fails = 536
L2_total_cache_breakdown:
	L2_cache_stats_breakdown[GLOBAL_ACC_R][HIT] = 22
	L2_cache_stats_breakdown[GLOBAL_ACC_R][MISS] = 503
	L2_cache_stats_breakdown[CONST_ACC_R][HIT] = 11
	L2_cache_stats_breakdown[CONST_ACC_R][HIT_RESERVED] = 3
	L2_cache_stats_breakdown[CONST_ACC_R][MISS] = 1
	L2_cache_stats_breakdown[CONST_ACC_R][RESERVATION_FAIL] = 105
	L2_cache_stats_breakdown[GLOBAL_ACC_W][HIT] = 60
	L2_cache_stats_breakdown[GLOBAL_ACC_W][HIT_RESERVED] = 1
	L2_cache_stats_breakdown[GLOBAL_ACC_W][MISS] = 30
	L2_cache_stats_breakdown[INST_ACC_R][HIT] = 44
	L2_cache_stats_breakdown[INST_ACC_R][HIT_RESERVED] = 12
	L2_cache_stats_breakdown[INST_ACC_R][MISS] = 6
	L2_cache_stats_breakdown[INST_ACC_R][RESERVATION_FAIL] = 431
L2_cache_data_port_util = 0.002
L2_cache_fill_port_util = 0.010

icnt_total_pkts_mem_to_simt=3071
icnt_total_pkts_simt_to_mem=784
LD_mem_lat_dist  0 0 0 0 0 0 0 0 0 0 0 0 0 0 0 0 0 0 0 0 0 0 0 0 0 0 0
ST_mem_lat_dist  0 0 0 0 0 0 0 0 0 0 0 0 0 0 0 0 0 0 0 0 0 0 0 0 0 0 0
----------------------------Interconnect-DETAILS--------------------------------
Class 0:
Packet latency average = 8.41931
	minimum = 6
	maximum = 34
Network latency average = 8.23055
	minimum = 6
	maximum = 34
Slowest packet = 704
Flit latency average = 6.42166
	minimum = 6
	maximum = 34
Slowest flit = 1965
Fragmentation average = 0
	minimum = 0
	maximum = 0
Injected packet rate average = 0.00299019
	minimum = 0.002094 (at node 0)
	maximum = 0.00639832 (at node 19)
Accepted packet rate average = 0.00299019
	minimum = 0.002094 (at node 0)
	maximum = 0.00639832 (at node 19)
Injected flit rate average = 0.00819503
	minimum = 0.002094 (at node 0)
	maximum = 0.031061 (at node 19)
Accepted flit rate average= 0.00819503
	minimum = 0.002792 (at node 18)
	maximum = 0.0137273 (at node 7)
Injected packet length average = 2.74063
Accepted packet length average = 2.74063
Total in-flight flits = 0 (0 measured)
====== Overall Traffic Statistics ======
====== Traffic class 0 ======
Packet latency average = 8.57887 (2 samples)
	minimum = 6 (2 samples)
	maximum = 34 (2 samples)
Network latency average = 8.32192 (2 samples)
	minimum = 6 (2 samples)
	maximum = 34 (2 samples)
Flit latency average = 6.46838 (2 samples)
	minimum = 6 (2 samples)
	maximum = 34 (2 samples)
Fragmentation average = 0 (2 samples)
	minimum = 0 (2 samples)
	maximum = 0 (2 samples)
Injected packet rate average = 0.00280755 (2 samples)
	minimum = 0.00201996 (2 samples)
	maximum = 0.00657892 (2 samples)
Accepted packet rate average = 0.00280755 (2 samples)
	minimum = 0.00201996 (2 samples)
	maximum = 0.00657892 (2 samples)
Injected flit rate average = 0.0078016 (2 samples)
	minimum = 0.00201996 (2 samples)
	maximum = 0.028435 (2 samples)
Accepted flit rate average = 0.0078016 (2 samples)
	minimum = 0.00257379 (2 samples)
	maximum = 0.0173102 (2 samples)
Injected packet size average = 2.77879 (2 samples)
Accepted packet size average = 2.77879 (2 samples)
Hops average = 1 (2 samples)
