

        *** GPGPU-Sim Simulator Version 3.2.2  [build 0] ***


GPGPU-Sim PTX: simulation mode 0 (can change with PTX_SIM_MODE_FUNC environment variable:
               1=functional simulation only, 0=detailed performance simulator)
GPGPU-Sim: Configuration options:

-network_mode                           1 # Interconnection network mode
-inter_config_file   config_fermi_islip.icnt # Interconnection network config file
-gpgpu_ptx_use_cuobjdump                    1 # Use cuobjdump to extract ptx and sass from binaries
-gpgpu_experimental_lib_support                    0 # Try to extract code from cuda libraries [Broken because of unknown cudaGetExportTable]
-gpgpu_ptx_convert_to_ptxplus                    0 # Convert SASS (native ISA) to ptxplus and run ptxplus
-gpgpu_ptx_force_max_capability                   20 # Force maximum compute capability
-gpgpu_ptx_inst_debug_to_file                    0 # Dump executed instructions' debug information to file
-gpgpu_ptx_inst_debug_file       inst_debug.txt # Executed instructions' debug output file
-gpgpu_ptx_inst_debug_thread_uid                    1 # Thread UID for executed instructions' debug output
-gpgpu_simd_model                       1 # 1 = post-dominator
-gpgpu_shader_core_pipeline              1536:32 # shader core pipeline config, i.e., {<nthread>:<warpsize>}
-gpgpu_tex_cache:l1  4:128:24,L:R:m:N:L,F:128:4,128:2 # per-shader L1 texture cache  (READ-ONLY) config  {<nsets>:<bsize>:<assoc>,<rep>:<wr>:<alloc>:<wr_alloc>,<mshr>:<N>:<merge>,<mq>:<rf>}
-gpgpu_const_cache:l1 64:64:2,L:R:f:N:L,A:2:32,4 # per-shader L1 constant memory cache  (READ-ONLY) config  {<nsets>:<bsize>:<assoc>,<rep>:<wr>:<alloc>:<wr_alloc>,<mshr>:<N>:<merge>,<mq>} 
-gpgpu_cache:il1     4:128:4,L:R:f:N:L,A:2:32,4 # shader L1 instruction cache config  {<nsets>:<bsize>:<assoc>,<rep>:<wr>:<alloc>:<wr_alloc>,<mshr>:<N>:<merge>,<mq>} 
-gpgpu_cache:dl1     32:128:4,L:L:m:N:H,A:32:8,8:2,0,1:0:1:1:0:1,1:4:8:16:32:64,/sciclone/data10/hwang07/GPU_RESEARCH/swl/swl_outputs/RESULTS/swl16/ # per-shader L1 data cache config  {<nsets>:<bsize>:<assoc>,<rep>:<wr>:<alloc>:<wr_alloc>,<mshr>:<N>:<merge>,<mq> | none}
-gpgpu_cache:dl1PrefL1                 none # per-shader L1 data cache config  {<nsets>:<bsize>:<assoc>,<rep>:<wr>:<alloc>:<wr_alloc>,<mshr>:<N>:<merge>,<mq> | none}
-gpgpu_cache:dl1PreShared                 none # per-shader L1 data cache config  {<nsets>:<bsize>:<assoc>,<rep>:<wr>:<alloc>:<wr_alloc>,<mshr>:<N>:<merge>,<mq> | none}
-gmem_skip_L1D                          0 # global memory access skip L1D cache (implements -Xptxas -dlcm=cg, default=no skip)
-gpgpu_perfect_mem                      0 # enable perfect memory mode (no cache miss)
-n_regfile_gating_group                    4 # group of lanes that should be read/written together)
-gpgpu_clock_gated_reg_file                    0 # enable clock gated reg file for power calculations
-gpgpu_clock_gated_lanes                    0 # enable clock gated lanes for power calculations
-gpgpu_shader_registers                32768 # Number of registers per shader core. Limits number of concurrent CTAs. (default 8192)
-gpgpu_shader_cta                       8 # Maximum number of concurrent CTAs in shader (default 8)
-gpgpu_num_cta_barriers                   16 # Maximum number of named barriers per CTA (default 16)
-gpgpu_n_clusters                      15 # number of processing clusters
-gpgpu_n_cores_per_cluster                    1 # number of simd cores per cluster
-gpgpu_n_cluster_ejection_buffer_size                    8 # number of packets in ejection buffer
-gpgpu_n_ldst_response_buffer_size                    2 # number of response packets in ld/st unit ejection buffer
-gpgpu_shmem_size                   16384 # Size of shared memory per shader core (default 16kB)
-gpgpu_shmem_size                   49152 # Size of shared memory per shader core (default 16kB)
-gpgpu_shmem_size_PrefL1                16384 # Size of shared memory per shader core (default 16kB)
-gpgpu_shmem_size_PrefShared                16384 # Size of shared memory per shader core (default 16kB)
-gpgpu_shmem_num_banks                   32 # Number of banks in the shared memory in each shader core (default 16)
-gpgpu_shmem_limited_broadcast                    0 # Limit shared memory to do one broadcast per cycle (default on)
-gpgpu_shmem_warp_parts                    1 # Number of portions a warp is divided into for shared memory bank conflict check 
-gpgpu_warpdistro_shader                   -1 # Specify which shader core to collect the warp size distribution from
-gpgpu_warp_issue_shader                    0 # Specify which shader core to collect the warp issue distribution from
-gpgpu_local_mem_map                    1 # Mapping from local memory space address to simulated GPU physical address space (default = enabled)
-gpgpu_num_reg_banks                   16 # Number of register banks (default = 8)
-gpgpu_reg_bank_use_warp_id                    0 # Use warp ID in mapping registers to banks (default = off)
-gpgpu_operand_collector_num_units_sp                    6 # number of collector units (default = 4)
-gpgpu_operand_collector_num_units_sfu                    8 # number of collector units (default = 4)
-gpgpu_operand_collector_num_units_mem                    2 # number of collector units (default = 2)
-gpgpu_operand_collector_num_units_gen                    0 # number of collector units (default = 0)
-gpgpu_operand_collector_num_in_ports_sp                    2 # number of collector unit in ports (default = 1)
-gpgpu_operand_collector_num_in_ports_sfu                    1 # number of collector unit in ports (default = 1)
-gpgpu_operand_collector_num_in_ports_mem                    1 # number of collector unit in ports (default = 1)
-gpgpu_operand_collector_num_in_ports_gen                    0 # number of collector unit in ports (default = 0)
-gpgpu_operand_collector_num_out_ports_sp                    2 # number of collector unit in ports (default = 1)
-gpgpu_operand_collector_num_out_ports_sfu                    1 # number of collector unit in ports (default = 1)
-gpgpu_operand_collector_num_out_ports_mem                    1 # number of collector unit in ports (default = 1)
-gpgpu_operand_collector_num_out_ports_gen                    0 # number of collector unit in ports (default = 0)
-gpgpu_coalesce_arch                   13 # Coalescing arch (default = 13, anything else is off for now)
-gpgpu_num_sched_per_core                    2 # Number of warp schedulers per core
-gpgpu_max_insn_issue_per_warp                    1 # Max number of instructions that can be issued per warp in one cycle by scheduler
-gpgpu_simt_core_sim_order                    1 # Select the simulation order of cores in a cluster (0=Fix, 1=Round-Robin)
-gpgpu_pipeline_widths        2,1,1,2,1,1,2 # Pipeline widths ID_OC_SP,ID_OC_SFU,ID_OC_MEM,OC_EX_SP,OC_EX_SFU,OC_EX_MEM,EX_WB
-gpgpu_num_sp_units                     2 # Number of SP units (default=1)
-gpgpu_num_sfu_units                    1 # Number of SF units (default=1)
-gpgpu_num_mem_units                    1 # Number if ldst units (default=1) WARNING: not hooked up to anything
-gpgpu_scheduler       warp_limiting:2:16 # Scheduler configuration: < lrr | gto | two_level_active > If two_level_active:<num_active_warps>:<inner_prioritization>:<outer_prioritization>For complete list of prioritization values see shader.h enum scheduler_prioritization_typeDefault: gto
-gpgpu_dram_scheduler                    1 # 0 = fifo, 1 = FR-FCFS (defaul)
-gpgpu_dram_partition_queues              8:8:8:8 # i2$:$2d:d2$:$2i
-l2_ideal                               0 # Use a ideal L2 cache that always hit
-gpgpu_cache:dl2     64:128:8,L:B:m:W:L,A:32:4,4:0,32 # unified banked L2 data cache config  {<nsets>:<bsize>:<assoc>,<rep>:<wr>:<alloc>:<wr_alloc>,<mshr>:<N>:<merge>,<mq>}
-gpgpu_cache:dl2_texture_only                    0 # L2 cache used for texture only
-gpgpu_n_mem                            6 # number of memory modules (e.g. memory controllers) in gpu
-gpgpu_n_sub_partition_per_mchannel                    2 # number of memory subpartition in each memory module
-gpgpu_n_mem_per_ctrlr                    2 # number of memory chips per memory controller
-gpgpu_memlatency_stat                   14 # track and display latency statistics 0x2 enables MC, 0x4 enables queue logs
-gpgpu_frfcfs_dram_sched_queue_size                   16 # 0 = unlimited (default); # entries per chip
-gpgpu_dram_return_queue_size                  116 # 0 = unlimited (default); # entries per chip
-gpgpu_dram_buswidth                    4 # default = 4 bytes (8 bytes per cycle at DDR)
-gpgpu_dram_burst_length                    8 # Burst length of each DRAM request (default = 4 data bus cycle)
-dram_data_command_freq_ratio                    4 # Frequency ratio between DRAM data bus and command bus (default = 2 times, i.e. DDR)
-gpgpu_dram_timing_opt nbk=16:CCD=2:RRD=6:RCD=12:RAS=28:RP=12:RC=40: CL=12:WL=4:CDLR=5:WR=12:nbkgrp=4:CCDL=3:RTPL=2 # DRAM timing parameters = {nbk:tCCD:tRRD:tRCD:tRAS:tRP:tRC:CL:WL:tCDLR:tWR:nbkgrp:tCCDL:tRTPL}
-rop_latency                          120 # ROP queue latency (default 85)
-dram_latency                         100 # DRAM latency (default 30)
-gpgpu_mem_addr_mapping dramid@8;00000000.00000000.00000000.00000000.0000RRRR.RRRRRRRR.BBBCCCCB.CCSSSSSS # mapping memory address to dram model {dramid@<start bit>;<memory address map>}
-gpgpu_mem_addr_test                    0 # run sweep test to check address mapping for aliased address
-gpgpu_mem_address_mask                    1 # 0 = old addressing mask, 1 = new addressing mask, 2 = new add. mask + flipped bank sel and chip sel bits
-gpuwattch_xml_file  gpuwattch_gtx480.xml # GPUWattch XML file
-power_simulation_enabled                    0 # Turn on power simulator (1=On, 0=Off)
-power_per_cycle_dump                    0 # Dump detailed power output each cycle
-power_trace_enabled                    0 # produce a file for the power trace (1=On, 0=Off)
-power_trace_zlevel                     6 # Compression level of the power trace output log (0=no comp, 9=highest)
-steady_power_levels_enabled                    0 # produce a file for the steady power levels (1=On, 0=Off)
-steady_state_definition                  8:4 # allowed deviation:number of samples
-gpgpu_max_cycle                        0 # terminates gpu simulation early (0 = no limit)
-gpgpu_max_insn                         0 # terminates gpu simulation early (0 = no limit)
-gpgpu_max_cta                          0 # terminates gpu simulation early (0 = no limit)
-gpgpu_runtime_stat                   500 # display runtime statistics such as dram utilization {<freq>:<flag>}
-liveness_message_freq                    1 # Minimum number of seconds between simulation liveness messages (0 = always print)
-gpgpu_flush_l1_cache                    0 # Flush L1 cache at the end of each kernel call
-gpgpu_flush_l2_cache                    0 # Flush L2 cache at the end of each kernel call
-gpgpu_deadlock_detect                    1 # Stop the simulation at deadlock (1=on (default), 0=off)
-gpgpu_ptx_instruction_classification                    0 # if enabled will classify ptx instruction types per kernel (Max 255 kernels now)
-gpgpu_ptx_sim_mode                     0 # Select between Performance (default) or Functional simulation (1)
-gpgpu_clock_domains 700.0:700.0:700.0:924.0 # Clock Domain Frequencies in MhZ {<Core Clock>:<ICNT Clock>:<L2 Clock>:<DRAM Clock>}
-gpgpu_max_concurrent_kernel                    8 # maximum kernels that can run concurrently on GPU
-gpgpu_cflog_interval                    0 # Interval between each snapshot in control flow logger
-visualizer_enabled                     0 # Turn on visualizer output (1=On, 0=Off)
-visualizer_outputfile                 NULL # Specifies the output log file for visualizer
-visualizer_zlevel                      6 # Compression level of the visualizer output log (0=no comp, 9=highest)
-trace_enabled                          0 # Turn on traces
-trace_components                    none # comma seperated list of traces to enable. Complete list found in trace_streams.tup. Default none
-trace_sampling_core                    0 # The core which is printed using CORE_DPRINTF. Default 0
-trace_sampling_memory_partition                   -1 # The memory partition which is printed using MEMPART_DPRINTF. Default -1 (i.e. all)
-enable_ptx_file_line_stats                    1 # Turn on PTX source line statistic profiling. (1 = On)
-ptx_line_stats_filename gpgpu_inst_stats.txt # Output file for PTX source line statistics.
-save_embedded_ptx                      0 # saves ptx files embedded in binary as <n>.ptx
-keep                                   0 # keep intermediate files created by GPGPU-Sim when interfacing with external programs
-gpgpu_ptx_save_converted_ptxplus                    0 # Saved converted ptxplus to a file
-ptx_opcode_latency_int         4,13,4,5,145 # Opcode latencies for integers <ADD,MAX,MUL,MAD,DIV>Default 1,1,19,25,145
-ptx_opcode_latency_fp          4,13,4,5,39 # Opcode latencies for single precision floating points <ADD,MAX,MUL,MAD,DIV>Default 1,1,1,1,30
-ptx_opcode_latency_dp         8,19,8,8,330 # Opcode latencies for double precision floating points <ADD,MAX,MUL,MAD,DIV>Default 8,8,8,8,335
-ptx_opcode_initiation_int            1,2,2,1,8 # Opcode initiation intervals for integers <ADD,MAX,MUL,MAD,DIV>Default 1,1,4,4,32
-ptx_opcode_initiation_fp            1,2,1,1,4 # Opcode initiation intervals for single precision floating points <ADD,MAX,MUL,MAD,DIV>Default 1,1,1,1,5
-ptx_opcode_initiation_dp         8,16,8,8,130 # Opcode initiation intervals for double precision floating points <ADD,MAX,MUL,MAD,DIV>Default 8,8,8,8,130
DRAM Timing Options:
nbk                                    16 # number of banks
CCD                                     2 # column to column delay
RRD                                     6 # minimal delay between activation of rows in different banks
RCD                                    12 # row to column delay
RAS                                    28 # time needed to activate row
RP                                     12 # time needed to precharge (deactivate) row
RC                                     40 # row cycle time
CDLR                                    5 # switching from write to read (changes tWTR)
WR                                     12 # last data-in to row precharge
CL                                     12 # CAS latency
WL                                      4 # Write latency
nbkgrp                                  4 # number of bank groups
CCDL                                    3 # column to column delay between accesses to different bank groups
RTPL                                    2 # read to precharge delay between accesses to different bank groups
Total number of memory sub partition = 12
addr_dec_mask[CHIP]  = 0000000000000000 	high:64 low:0
addr_dec_mask[BK]    = 000000000000e100 	high:16 low:8
addr_dec_mask[ROW]   = 000000000fff0000 	high:28 low:16
addr_dec_mask[COL]   = 0000000000001eff 	high:13 low:0
addr_dec_mask[BURST] = 000000000000003f 	high:6 low:0
sub_partition_id_mask = 0000000000000100
GPGPU-Sim uArch: clock freqs: 700000000.000000:700000000.000000:700000000.000000:924000000.000000
GPGPU-Sim uArch: clock periods: 0.00000000142857142857:0.00000000142857142857:0.00000000142857142857:0.00000000108225108225
*** Initializing Memory Statistics ***
GPGPU-Sim uArch: interconnect node map (shaderID+MemID to icntID)
GPGPU-Sim uArch: Memory nodes ID start from index: 15
GPGPU-Sim uArch:    0   1   2   3   4
GPGPU-Sim uArch:    5   6   7   8   9
GPGPU-Sim uArch:   10  11  12  13  14
GPGPU-Sim uArch:   15  16  17  18  19
GPGPU-Sim uArch:   20  21  22  23  24
GPGPU-Sim uArch:   25  26
GPGPU-Sim uArch: interconnect node reverse map (icntID to shaderID+MemID)
GPGPU-Sim uArch: Memory nodes start from ID: 15
GPGPU-Sim uArch:    0   1   2   3   4
GPGPU-Sim uArch:    5   6   7   8   9
GPGPU-Sim uArch:   10  11  12  13  14
GPGPU-Sim uArch:   15  16  17  18  19
GPGPU-Sim uArch:   20  21  22  23  24
GPGPU-Sim uArch:   25  26
a5bfea9a69faaeaeb73abbaec6868abd  /sciclone/data10/hwang07/adwait/applications/benchmarks/rodinia/cuda/streamcluster/gpgpu_ptx_sim__streamcluster
GPGPU-Sim uArch: performance model initialization complete.
GPGPU-Sim PTX: __cudaRegisterFatBinary, fat_cubin_handle = 1, filename=streamcluster_cuda.cu
self exe links to: /sciclone/data10/hwang07/adwait/applications/benchmarks/rodinia/cuda/streamcluster/gpgpu_ptx_sim__streamcluster
Running md5sum using "md5sum /sciclone/data10/hwang07/adwait/applications/benchmarks/rodinia/cuda/streamcluster/gpgpu_ptx_sim__streamcluster "
Parsing file _cuobjdump_complete_output_yZHqKV
######### cuobjdump parser ########
## Adding new section ELF
Adding arch: sm_20
Adding identifier: streamcluster_cuda.cu
## Adding new section PTX
Adding ptx filename: _cuobjdump_1.ptx
Adding arch: sm_20
Adding identifier: streamcluster_cuda.cu
Done parsing!!!
GPGPU-Sim PTX: __cudaRegisterFunction _Z12pgain_kerneliilP5PointiPfS1_PiPb : hostFun 0x0x404fe3, fat_cubin_handle = 1
GPGPU-Sim PTX: allocating shared region for "coord_s" from 0x0 to 0x0 (shared memory space)
GPGPU-Sim PTX: instruction assembly for function '_Z12pgain_kerneliilP5PointiPfS1_PiPb'...   done.
GPGPU-Sim PTX: finding reconvergence points for '_Z12pgain_kerneliilP5PointiPfS1_PiPb'...
GPGPU-Sim PTX: Finding dominators for '_Z12pgain_kerneliilP5PointiPfS1_PiPb'...
GPGPU-Sim PTX: Finding immediate dominators for '_Z12pgain_kerneliilP5PointiPfS1_PiPb'...
GPGPU-Sim PTX: Finding postdominators for '_Z12pgain_kerneliilP5PointiPfS1_PiPb'...
GPGPU-Sim PTX: Finding immediate postdominators for '_Z12pgain_kerneliilP5PointiPfS1_PiPb'...
GPGPU-Sim PTX: pre-decoding instructions for '_Z12pgain_kerneliilP5PointiPfS1_PiPb'...
GPGPU-Sim PTX: reconvergence points for _Z12pgain_kerneliilP5PointiPfS1_PiPb...
GPGPU-Sim PTX:  1 (potential) branch divergence @  PC=0x030 (_1.ptx:76) @%p2 bra $Lt_0_3842;
GPGPU-Sim PTX:    immediate post dominator      @  PC=0x0e0 (_1.ptx:103) mov.u64 %rd1, coord_s;
GPGPU-Sim PTX:  2 (potential) branch divergence @  PC=0x038 (_1.ptx:77) @!%p1 bra $Lt_0_4354;
GPGPU-Sim PTX:    immediate post dominator      @  PC=0x0d8 (_1.ptx:101) mov.u64 %rd1, coord_s;
GPGPU-Sim PTX:  3 (potential) branch divergence @  PC=0x0d0 (_1.ptx:99) @%p3 bra $Lt_0_4866;
GPGPU-Sim PTX:    immediate post dominator      @  PC=0x0d8 (_1.ptx:101) mov.u64 %rd1, coord_s;
GPGPU-Sim PTX:  4 (potential) branch divergence @  PC=0x110 (_1.ptx:110) @!%p1 bra $Lt_0_7170;
GPGPU-Sim PTX:    immediate post dominator      @  PC=0x218 (_1.ptx:149) ld.param.u64 %rd15, [__cudaparm__Z12pgain_kerneliilP5PointiPfS1_PiPb_p];
GPGPU-Sim PTX:  5 (potential) branch divergence @  PC=0x1d8 (_1.ptx:138) @%p4 bra $Lt_0_5890;
GPGPU-Sim PTX:    immediate post dominator      @  PC=0x1e0 (_1.ptx:139) bra.uni $Lt_0_5378;
GPGPU-Sim PTX:  6 (potential) branch divergence @  PC=0x1e0 (_1.ptx:139) bra.uni $Lt_0_5378;
GPGPU-Sim PTX:    immediate post dominator      @  PC=0x218 (_1.ptx:149) ld.param.u64 %rd15, [__cudaparm__Z12pgain_kerneliilP5PointiPfS1_PiPb_p];
GPGPU-Sim PTX:  7 (potential) branch divergence @  PC=0x288 (_1.ptx:164) @!%p5 bra $Lt_0_6658;
GPGPU-Sim PTX:    immediate post dominator      @  PC=0x358 (_1.ptx:197) exit;
GPGPU-Sim PTX:  8 (potential) branch divergence @  PC=0x2e8 (_1.ptx:178) bra.uni $Lt_0_6402;
GPGPU-Sim PTX:    immediate post dominator      @  PC=0x358 (_1.ptx:197) exit;
GPGPU-Sim PTX: ... end of reconvergence points for _Z12pgain_kerneliilP5PointiPfS1_PiPb
GPGPU-Sim PTX: ... done pre-decoding instructions for '_Z12pgain_kerneliilP5PointiPfS1_PiPb'.
GPGPU-Sim PTX: finished parsing EMBEDDED .ptx file _1.ptx
Adding _cuobjdump_1.ptx with cubin handle 1
GPGPU-Sim PTX: extracting embedded .ptx to temporary file "_ptx_7QtfgH"
Running: cat _ptx_7QtfgH | sed 's/.version 1.5/.version 1.4/' | sed 's/, texmode_independent//' | sed 's/\(\.extern \.const\[1\] .b8 \w\+\)\[\]/\1\[1\]/' | sed 's/const\[.\]/const\[0\]/g' > _ptx2_DNdXjt
GPGPU-Sim PTX: generating ptxinfo using "$CUDA_INSTALL_PATH/bin/ptxas --gpu-name=sm_20 -v _ptx2_DNdXjt --output-file  /dev/null 2> _ptx_7QtfgHinfo"
GPGPU-Sim PTX: Kernel '_Z12pgain_kerneliilP5PointiPfS1_PiPb' : regs=12, lmem=0, smem=0, cmem=96
GPGPU-Sim PTX: removing ptxinfo using "rm -f _ptx_7QtfgH _ptx2_DNdXjt _ptx_7QtfgHinfo"
GPGPU-Sim PTX: loading globals with explicit initializers... 
GPGPU-Sim PTX: finished loading globals (0 bytes total).
GPGPU-Sim PTX: loading constants with explicit initializers...  done.
PARSEC Benchmark Suite

GPGPU-Sim PTX: cudaLaunch for 0x0x404fe3 (mode=performance simulation) on stream 0
GPGPU-Sim PTX: pushing kernel '_Z12pgain_kerneliilP5PointiPfS1_PiPb' to stream 0, gridDim= (128,1,1) blockDim = (512,1,1) 
kernel '_Z12pgain_kerneliilP5PointiPfS1_PiPb' transfer to GPU hardware scheduler
GPGPU-Sim uArch: Shader 1 bind to kernel 1 '_Z12pgain_kerneliilP5PointiPfS1_PiPb'
GPGPU-Sim uArch: CTA/core = 3, limited by: threads
GPGPU-Sim uArch: core:  1, cta: 0 initialized @(1,0)
GPGPU-Sim uArch: Shader 2 bind to kernel 1 '_Z12pgain_kerneliilP5PointiPfS1_PiPb'
GPGPU-Sim uArch: core:  2, cta: 0 initialized @(1,0)
GPGPU-Sim uArch: Shader 3 bind to kernel 1 '_Z12pgain_kerneliilP5PointiPfS1_PiPb'
GPGPU-Sim uArch: core:  3, cta: 0 initialized @(1,0)
GPGPU-Sim uArch: Shader 4 bind to kernel 1 '_Z12pgain_kerneliilP5PointiPfS1_PiPb'
GPGPU-Sim uArch: core:  4, cta: 0 initialized @(1,0)
GPGPU-Sim uArch: Shader 5 bind to kernel 1 '_Z12pgain_kerneliilP5PointiPfS1_PiPb'
GPGPU-Sim uArch: core:  5, cta: 0 initialized @(1,0)
GPGPU-Sim uArch: Shader 6 bind to kernel 1 '_Z12pgain_kerneliilP5PointiPfS1_PiPb'
GPGPU-Sim uArch: core:  6, cta: 0 initialized @(1,0)
GPGPU-Sim uArch: Shader 7 bind to kernel 1 '_Z12pgain_kerneliilP5PointiPfS1_PiPb'
GPGPU-Sim uArch: core:  7, cta: 0 initialized @(1,0)
GPGPU-Sim uArch: Shader 8 bind to kernel 1 '_Z12pgain_kerneliilP5PointiPfS1_PiPb'
GPGPU-Sim uArch: core:  8, cta: 0 initialized @(1,0)
GPGPU-Sim uArch: Shader 9 bind to kernel 1 '_Z12pgain_kerneliilP5PointiPfS1_PiPb'
GPGPU-Sim uArch: core:  9, cta: 0 initialized @(1,0)
GPGPU-Sim uArch: Shader 10 bind to kernel 1 '_Z12pgain_kerneliilP5PointiPfS1_PiPb'
GPGPU-Sim uArch: core: 10, cta: 0 initialized @(1,0)
GPGPU-Sim uArch: Shader 11 bind to kernel 1 '_Z12pgain_kerneliilP5PointiPfS1_PiPb'
GPGPU-Sim uArch: core: 11, cta: 0 initialized @(1,0)
GPGPU-Sim uArch: Shader 12 bind to kernel 1 '_Z12pgain_kerneliilP5PointiPfS1_PiPb'
GPGPU-Sim uArch: core: 12, cta: 0 initialized @(1,0)
GPGPU-Sim uArch: Shader 13 bind to kernel 1 '_Z12pgain_kerneliilP5PointiPfS1_PiPb'
GPGPU-Sim uArch: core: 13, cta: 0 initialized @(1,0)
GPGPU-Sim uArch: Shader 14 bind to kernel 1 '_Z12pgain_kerneliilP5PointiPfS1_PiPb'
GPGPU-Sim uArch: core: 14, cta: 0 initialized @(1,0)
GPGPU-Sim uArch: Shader 0 bind to kernel 1 '_Z12pgain_kerneliilP5PointiPfS1_PiPb'
GPGPU-Sim uArch: core:  0, cta: 0 initialized @(1,0)
GPGPU-Sim uArch: core:  1, cta: 1 initialized @(2,0)
GPGPU-Sim uArch: core:  2, cta: 1 initialized @(2,0)
GPGPU-Sim uArch: core:  3, cta: 1 initialized @(2,0)
GPGPU-Sim uArch: core:  4, cta: 1 initialized @(2,0)
GPGPU-Sim uArch: core:  5, cta: 1 initialized @(2,0)
GPGPU-Sim uArch: core:  6, cta: 1 initialized @(2,0)
GPGPU-Sim uArch: core:  7, cta: 1 initialized @(2,0)
GPGPU-Sim uArch: core:  8, cta: 1 initialized @(2,0)
GPGPU-Sim uArch: core:  9, cta: 1 initialized @(2,0)
GPGPU-Sim uArch: core: 10, cta: 1 initialized @(2,0)
GPGPU-Sim uArch: core: 11, cta: 1 initialized @(2,0)
GPGPU-Sim uArch: core: 12, cta: 1 initialized @(2,0)
GPGPU-Sim uArch: core: 13, cta: 1 initialized @(2,0)
GPGPU-Sim uArch: core: 14, cta: 1 initialized @(2,0)
GPGPU-Sim uArch: core:  0, cta: 1 initialized @(2,0)
GPGPU-Sim uArch: core:  1, cta: 2 initialized @(3,0)
GPGPU-Sim uArch: core:  2, cta: 2 initialized @(3,0)
GPGPU-Sim uArch: core:  3, cta: 2 initialized @(3,0)
GPGPU-Sim uArch: core:  4, cta: 2 initialized @(3,0)
GPGPU-Sim uArch: core:  5, cta: 2 initialized @(3,0)
GPGPU-Sim uArch: core:  6, cta: 2 initialized @(3,0)
GPGPU-Sim uArch: core:  7, cta: 2 initialized @(3,0)
GPGPU-Sim uArch: core:  8, cta: 2 initialized @(3,0)
GPGPU-Sim uArch: core:  9, cta: 2 initialized @(3,0)
GPGPU-Sim uArch: core: 10, cta: 2 initialized @(3,0)
GPGPU-Sim uArch: core: 11, cta: 2 initialized @(3,0)
GPGPU-Sim uArch: core: 12, cta: 2 initialized @(3,0)
GPGPU-Sim uArch: core: 13, cta: 2 initialized @(3,0)
GPGPU-Sim uArch: core: 14, cta: 2 initialized @(3,0)
GPGPU-Sim uArch: core:  0, cta: 2 initialized @(3,0)
GPGPU-Sim uArch: cycles simulated: 500  inst.: 15360 (ipc=30.7) sim_rate=2194 (inst/sec) elapsed = 0:0:00:07 / Tue Mar 22 13:02:35 2016
GPGPU-Sim PTX: 100000 instructions simulated : ctaid=(13,0,0) tid=(485,0,0)
GPGPU-Sim PTX: 200000 instructions simulated : ctaid=(41,0,0) tid=(400,0,0)
GPGPU-Sim uArch: cycles simulated: 2000  inst.: 205920 (ipc=103.0) sim_rate=25740 (inst/sec) elapsed = 0:0:00:08 / Tue Mar 22 13:02:36 2016
GPGPU-Sim uArch: cycles simulated: 5000  inst.: 209070 (ipc=41.8) sim_rate=23230 (inst/sec) elapsed = 0:0:00:09 / Tue Mar 22 13:02:37 2016
GPGPU-Sim uArch: cycles simulated: 8500  inst.: 212535 (ipc=25.0) sim_rate=21253 (inst/sec) elapsed = 0:0:00:10 / Tue Mar 22 13:02:38 2016
GPGPU-Sim uArch: cycles simulated: 11500  inst.: 215685 (ipc=18.8) sim_rate=19607 (inst/sec) elapsed = 0:0:00:11 / Tue Mar 22 13:02:39 2016
GPGPU-Sim uArch: cycles simulated: 14500  inst.: 218835 (ipc=15.1) sim_rate=18236 (inst/sec) elapsed = 0:0:00:12 / Tue Mar 22 13:02:40 2016
GPGPU-Sim uArch: cycles simulated: 17500  inst.: 221985 (ipc=12.7) sim_rate=17075 (inst/sec) elapsed = 0:0:00:13 / Tue Mar 22 13:02:41 2016
GPGPU-Sim uArch: cycles simulated: 20500  inst.: 225123 (ipc=11.0) sim_rate=16080 (inst/sec) elapsed = 0:0:00:14 / Tue Mar 22 13:02:42 2016
GPGPU-Sim uArch: cycles simulated: 23500  inst.: 228115 (ipc= 9.7) sim_rate=15207 (inst/sec) elapsed = 0:0:00:15 / Tue Mar 22 13:02:43 2016
GPGPU-Sim uArch: cycles simulated: 27000  inst.: 231750 (ipc= 8.6) sim_rate=14484 (inst/sec) elapsed = 0:0:00:16 / Tue Mar 22 13:02:44 2016
GPGPU-Sim uArch: cycles simulated: 30000  inst.: 234900 (ipc= 7.8) sim_rate=13817 (inst/sec) elapsed = 0:0:00:17 / Tue Mar 22 13:02:45 2016
GPGPU-Sim uArch: cycles simulated: 33000  inst.: 238028 (ipc= 7.2) sim_rate=13223 (inst/sec) elapsed = 0:0:00:18 / Tue Mar 22 13:02:46 2016
GPGPU-Sim uArch: cycles simulated: 36500  inst.: 241515 (ipc= 6.6) sim_rate=12711 (inst/sec) elapsed = 0:0:00:19 / Tue Mar 22 13:02:47 2016
GPGPU-Sim uArch: cycles simulated: 39500  inst.: 244665 (ipc= 6.2) sim_rate=12233 (inst/sec) elapsed = 0:0:00:20 / Tue Mar 22 13:02:48 2016
GPGPU-Sim uArch: cycles simulated: 42500  inst.: 247815 (ipc= 5.8) sim_rate=11800 (inst/sec) elapsed = 0:0:00:21 / Tue Mar 22 13:02:49 2016
GPGPU-Sim uArch: cycles simulated: 46000  inst.: 251280 (ipc= 5.5) sim_rate=11421 (inst/sec) elapsed = 0:0:00:22 / Tue Mar 22 13:02:50 2016
GPGPU-Sim uArch: cycles simulated: 49000  inst.: 254430 (ipc= 5.2) sim_rate=11062 (inst/sec) elapsed = 0:0:00:23 / Tue Mar 22 13:02:51 2016
GPGPU-Sim uArch: cycles simulated: 52000  inst.: 257580 (ipc= 5.0) sim_rate=10732 (inst/sec) elapsed = 0:0:00:24 / Tue Mar 22 13:02:52 2016
GPGPU-Sim uArch: cycles simulated: 55500  inst.: 261101 (ipc= 4.7) sim_rate=10444 (inst/sec) elapsed = 0:0:00:25 / Tue Mar 22 13:02:53 2016
GPGPU-Sim uArch: cycles simulated: 58500  inst.: 264195 (ipc= 4.5) sim_rate=10161 (inst/sec) elapsed = 0:0:00:26 / Tue Mar 22 13:02:54 2016
GPGPU-Sim uArch: cycles simulated: 61500  inst.: 267345 (ipc= 4.3) sim_rate=9901 (inst/sec) elapsed = 0:0:00:27 / Tue Mar 22 13:02:55 2016
GPGPU-Sim uArch: cycles simulated: 65000  inst.: 271025 (ipc= 4.2) sim_rate=9679 (inst/sec) elapsed = 0:0:00:28 / Tue Mar 22 13:02:56 2016
GPGPU-Sim uArch: cycles simulated: 68000  inst.: 274001 (ipc= 4.0) sim_rate=9448 (inst/sec) elapsed = 0:0:00:29 / Tue Mar 22 13:02:57 2016
GPGPU-Sim uArch: cycles simulated: 71000  inst.: 277110 (ipc= 3.9) sim_rate=9237 (inst/sec) elapsed = 0:0:00:30 / Tue Mar 22 13:02:58 2016
GPGPU-Sim uArch: cycles simulated: 74500  inst.: 280890 (ipc= 3.8) sim_rate=9060 (inst/sec) elapsed = 0:0:00:31 / Tue Mar 22 13:02:59 2016
GPGPU-Sim uArch: cycles simulated: 77500  inst.: 283921 (ipc= 3.7) sim_rate=8872 (inst/sec) elapsed = 0:0:00:32 / Tue Mar 22 13:03:00 2016
GPGPU-Sim PTX: 300000 instructions simulated : ctaid=(29,0,0) tid=(349,0,0)
GPGPU-Sim PTX: 400000 instructions simulated : ctaid=(9,0,0) tid=(487,0,0)
GPGPU-Sim uArch: cycles simulated: 79500  inst.: 460288 (ipc= 5.8) sim_rate=13948 (inst/sec) elapsed = 0:0:00:33 / Tue Mar 22 13:03:01 2016
GPGPU-Sim PTX: 500000 instructions simulated : ctaid=(22,0,0) tid=(167,0,0)
GPGPU-Sim PTX: 600000 instructions simulated : ctaid=(23,0,0) tid=(327,0,0)
GPGPU-Sim PTX: 700000 instructions simulated : ctaid=(17,0,0) tid=(199,0,0)
GPGPU-Sim uArch: cycles simulated: 80500  inst.: 750624 (ipc= 9.3) sim_rate=22077 (inst/sec) elapsed = 0:0:00:34 / Tue Mar 22 13:03:02 2016
GPGPU-Sim PTX: 800000 instructions simulated : ctaid=(25,0,0) tid=(103,0,0)
GPGPU-Sim PTX: 900000 instructions simulated : ctaid=(23,0,0) tid=(423,0,0)
GPGPU-Sim PTX: 1000000 instructions simulated : ctaid=(10,0,0) tid=(455,0,0)
GPGPU-Sim PTX: 1100000 instructions simulated : ctaid=(27,0,0) tid=(423,0,0)
GPGPU-Sim uArch: cycles simulated: 81500  inst.: 1110112 (ipc=13.6) sim_rate=31717 (inst/sec) elapsed = 0:0:00:35 / Tue Mar 22 13:03:03 2016
GPGPU-Sim PTX: 1200000 instructions simulated : ctaid=(15,0,0) tid=(71,0,0)
GPGPU-Sim PTX: 1300000 instructions simulated : ctaid=(20,0,0) tid=(487,0,0)
GPGPU-Sim uArch: cycles simulated: 82000  inst.: 1299968 (ipc=15.9) sim_rate=36110 (inst/sec) elapsed = 0:0:00:36 / Tue Mar 22 13:03:04 2016
GPGPU-Sim PTX: 1400000 instructions simulated : ctaid=(27,0,0) tid=(359,0,0)
GPGPU-Sim PTX: 1500000 instructions simulated : ctaid=(9,0,0) tid=(71,0,0)
GPGPU-Sim PTX: 1600000 instructions simulated : ctaid=(11,0,0) tid=(423,0,0)
GPGPU-Sim uArch: cycles simulated: 83000  inst.: 1666560 (ipc=20.1) sim_rate=45042 (inst/sec) elapsed = 0:0:00:37 / Tue Mar 22 13:03:05 2016
GPGPU-Sim PTX: 1700000 instructions simulated : ctaid=(10,0,0) tid=(423,0,0)
GPGPU-Sim PTX: 1800000 instructions simulated : ctaid=(10,0,0) tid=(295,0,0)
GPGPU-Sim PTX: 1900000 instructions simulated : ctaid=(16,0,0) tid=(391,0,0)
GPGPU-Sim PTX: 2000000 instructions simulated : ctaid=(0,0,0) tid=(135,0,0)
GPGPU-Sim uArch: cycles simulated: 84000  inst.: 2034496 (ipc=24.2) sim_rate=53539 (inst/sec) elapsed = 0:0:00:38 / Tue Mar 22 13:03:06 2016
GPGPU-Sim PTX: 2100000 instructions simulated : ctaid=(16,0,0) tid=(71,0,0)
GPGPU-Sim PTX: 2200000 instructions simulated : ctaid=(27,0,0) tid=(423,0,0)
GPGPU-Sim uArch: cycles simulated: 84500  inst.: 2215040 (ipc=26.2) sim_rate=56795 (inst/sec) elapsed = 0:0:00:39 / Tue Mar 22 13:03:07 2016
GPGPU-Sim PTX: 2300000 instructions simulated : ctaid=(0,0,0) tid=(103,0,0)
GPGPU-Sim PTX: 2400000 instructions simulated : ctaid=(6,0,0) tid=(455,0,0)
GPGPU-Sim PTX: 2500000 instructions simulated : ctaid=(21,0,0) tid=(487,0,0)
GPGPU-Sim PTX: 2600000 instructions simulated : ctaid=(27,0,0) tid=(135,0,0)
GPGPU-Sim uArch: cycles simulated: 85500  inst.: 2594656 (ipc=30.3) sim_rate=64866 (inst/sec) elapsed = 0:0:00:40 / Tue Mar 22 13:03:08 2016
GPGPU-Sim PTX: 2700000 instructions simulated : ctaid=(5,0,0) tid=(39,0,0)
GPGPU-Sim PTX: 2800000 instructions simulated : ctaid=(10,0,0) tid=(391,0,0)
GPGPU-Sim uArch: cycles simulated: 86000  inst.: 2777408 (ipc=32.3) sim_rate=67741 (inst/sec) elapsed = 0:0:00:41 / Tue Mar 22 13:03:09 2016
GPGPU-Sim PTX: 2900000 instructions simulated : ctaid=(7,0,0) tid=(7,0,0)
GPGPU-Sim PTX: 3000000 instructions simulated : ctaid=(5,0,0) tid=(423,0,0)
GPGPU-Sim PTX: 3100000 instructions simulated : ctaid=(10,0,0) tid=(263,0,0)
GPGPU-Sim uArch: cycles simulated: 87000  inst.: 3139008 (ipc=36.1) sim_rate=74738 (inst/sec) elapsed = 0:0:00:42 / Tue Mar 22 13:03:10 2016
GPGPU-Sim PTX: 3200000 instructions simulated : ctaid=(23,0,0) tid=(7,0,0)
GPGPU-Sim PTX: 3300000 instructions simulated : ctaid=(8,0,0) tid=(39,0,0)
GPGPU-Sim uArch: cycles simulated: 87500  inst.: 3326624 (ipc=38.0) sim_rate=77363 (inst/sec) elapsed = 0:0:00:43 / Tue Mar 22 13:03:11 2016
GPGPU-Sim PTX: 3400000 instructions simulated : ctaid=(14,0,0) tid=(199,0,0)
GPGPU-Sim PTX: 3500000 instructions simulated : ctaid=(29,0,0) tid=(7,0,0)
GPGPU-Sim PTX: 3600000 instructions simulated : ctaid=(7,0,0) tid=(71,0,0)
GPGPU-Sim PTX: 3700000 instructions simulated : ctaid=(18,0,0) tid=(167,0,0)
GPGPU-Sim uArch: cycles simulated: 88500  inst.: 3701952 (ipc=41.8) sim_rate=84135 (inst/sec) elapsed = 0:0:00:44 / Tue Mar 22 13:03:12 2016
GPGPU-Sim PTX: 3800000 instructions simulated : ctaid=(11,0,0) tid=(423,0,0)
GPGPU-Sim PTX: 3900000 instructions simulated : ctaid=(17,0,0) tid=(199,0,0)
GPGPU-Sim uArch: cycles simulated: 89000  inst.: 3888832 (ipc=43.7) sim_rate=86418 (inst/sec) elapsed = 0:0:00:45 / Tue Mar 22 13:03:13 2016
GPGPU-Sim PTX: 4000000 instructions simulated : ctaid=(6,0,0) tid=(39,0,0)
GPGPU-Sim PTX: 4100000 instructions simulated : ctaid=(12,0,0) tid=(391,0,0)
GPGPU-Sim PTX: 4200000 instructions simulated : ctaid=(13,0,0) tid=(295,0,0)
GPGPU-Sim uArch: cycles simulated: 90000  inst.: 4247424 (ipc=47.2) sim_rate=92335 (inst/sec) elapsed = 0:0:00:46 / Tue Mar 22 13:03:14 2016
GPGPU-Sim PTX: 4300000 instructions simulated : ctaid=(22,0,0) tid=(359,0,0)
GPGPU-Sim PTX: 4400000 instructions simulated : ctaid=(16,0,0) tid=(135,0,0)
GPGPU-Sim PTX: 4500000 instructions simulated : ctaid=(27,0,0) tid=(359,0,0)
GPGPU-Sim PTX: 4600000 instructions simulated : ctaid=(14,0,0) tid=(359,0,0)
GPGPU-Sim uArch: cycles simulated: 91000  inst.: 4607008 (ipc=50.6) sim_rate=98021 (inst/sec) elapsed = 0:0:00:47 / Tue Mar 22 13:03:15 2016
GPGPU-Sim PTX: 4700000 instructions simulated : ctaid=(0,0,0) tid=(135,0,0)
GPGPU-Sim PTX: 4800000 instructions simulated : ctaid=(2,0,0) tid=(327,0,0)
GPGPU-Sim uArch: cycles simulated: 91500  inst.: 4790496 (ipc=52.4) sim_rate=99802 (inst/sec) elapsed = 0:0:00:48 / Tue Mar 22 13:03:16 2016
GPGPU-Sim PTX: 4900000 instructions simulated : ctaid=(16,0,0) tid=(71,0,0)
GPGPU-Sim PTX: 5000000 instructions simulated : ctaid=(16,0,0) tid=(39,0,0)
GPGPU-Sim PTX: 5100000 instructions simulated : ctaid=(12,0,0) tid=(423,0,0)
GPGPU-Sim uArch: cycles simulated: 92500  inst.: 5166144 (ipc=55.9) sim_rate=105431 (inst/sec) elapsed = 0:0:00:49 / Tue Mar 22 13:03:17 2016
GPGPU-Sim PTX: 5200000 instructions simulated : ctaid=(26,0,0) tid=(295,0,0)
GPGPU-Sim PTX: 5300000 instructions simulated : ctaid=(24,0,0) tid=(39,0,0)
GPGPU-Sim uArch: cycles simulated: 93000  inst.: 5353408 (ipc=57.6) sim_rate=107068 (inst/sec) elapsed = 0:0:00:50 / Tue Mar 22 13:03:18 2016
GPGPU-Sim PTX: 5400000 instructions simulated : ctaid=(4,0,0) tid=(231,0,0)
GPGPU-Sim PTX: 5500000 instructions simulated : ctaid=(16,0,0) tid=(327,0,0)
GPGPU-Sim PTX: 5600000 instructions simulated : ctaid=(20,0,0) tid=(39,0,0)
GPGPU-Sim PTX: 5700000 instructions simulated : ctaid=(9,0,0) tid=(135,0,0)
GPGPU-Sim uArch: cycles simulated: 94000  inst.: 5740544 (ipc=61.1) sim_rate=112559 (inst/sec) elapsed = 0:0:00:51 / Tue Mar 22 13:03:19 2016
GPGPU-Sim PTX: 5800000 instructions simulated : ctaid=(26,0,0) tid=(327,0,0)
GPGPU-Sim PTX: 5900000 instructions simulated : ctaid=(21,0,0) tid=(327,0,0)
GPGPU-Sim uArch: cycles simulated: 94500  inst.: 5926688 (ipc=62.7) sim_rate=113974 (inst/sec) elapsed = 0:0:00:52 / Tue Mar 22 13:03:20 2016
GPGPU-Sim PTX: 6000000 instructions simulated : ctaid=(27,0,0) tid=(39,0,0)
GPGPU-Sim PTX: 6100000 instructions simulated : ctaid=(16,0,0) tid=(391,0,0)
GPGPU-Sim PTX: 6200000 instructions simulated : ctaid=(15,0,0) tid=(103,0,0)
GPGPU-Sim PTX: 6300000 instructions simulated : ctaid=(13,0,0) tid=(487,0,0)
GPGPU-Sim uArch: cycles simulated: 95500  inst.: 6305472 (ipc=66.0) sim_rate=118971 (inst/sec) elapsed = 0:0:00:53 / Tue Mar 22 13:03:21 2016
GPGPU-Sim PTX: 6400000 instructions simulated : ctaid=(11,0,0) tid=(231,0,0)
GPGPU-Sim PTX: 6500000 instructions simulated : ctaid=(15,0,0) tid=(327,0,0)
GPGPU-Sim PTX: 6600000 instructions simulated : ctaid=(2,0,0) tid=(391,0,0)
GPGPU-Sim uArch: cycles simulated: 96500  inst.: 6659424 (ipc=69.0) sim_rate=123322 (inst/sec) elapsed = 0:0:00:54 / Tue Mar 22 13:03:22 2016
GPGPU-Sim PTX: 6700000 instructions simulated : ctaid=(22,0,0) tid=(359,0,0)
GPGPU-Sim PTX: 6800000 instructions simulated : ctaid=(24,0,0) tid=(263,0,0)
GPGPU-Sim uArch: cycles simulated: 97000  inst.: 6843968 (ipc=70.6) sim_rate=124435 (inst/sec) elapsed = 0:0:00:55 / Tue Mar 22 13:03:23 2016
GPGPU-Sim PTX: 6900000 instructions simulated : ctaid=(18,0,0) tid=(39,0,0)
GPGPU-Sim PTX: 7000000 instructions simulated : ctaid=(12,0,0) tid=(71,0,0)
GPGPU-Sim PTX: 7100000 instructions simulated : ctaid=(17,0,0) tid=(455,0,0)
GPGPU-Sim PTX: 7200000 instructions simulated : ctaid=(16,0,0) tid=(391,0,0)
GPGPU-Sim uArch: cycles simulated: 98000  inst.: 7201728 (ipc=73.5) sim_rate=128602 (inst/sec) elapsed = 0:0:00:56 / Tue Mar 22 13:03:24 2016
GPGPU-Sim PTX: 7300000 instructions simulated : ctaid=(19,0,0) tid=(487,0,0)
GPGPU-Sim PTX: 7400000 instructions simulated : ctaid=(19,0,0) tid=(71,0,0)
GPGPU-Sim uArch: cycles simulated: 98500  inst.: 7386592 (ipc=75.0) sim_rate=129589 (inst/sec) elapsed = 0:0:00:57 / Tue Mar 22 13:03:25 2016
GPGPU-Sim PTX: 7500000 instructions simulated : ctaid=(9,0,0) tid=(167,0,0)
GPGPU-Sim PTX: 7600000 instructions simulated : ctaid=(29,0,0) tid=(231,0,0)
GPGPU-Sim PTX: 7700000 instructions simulated : ctaid=(19,0,0) tid=(487,0,0)
GPGPU-Sim uArch: cycles simulated: 99500  inst.: 7758176 (ipc=78.0) sim_rate=133761 (inst/sec) elapsed = 0:0:00:58 / Tue Mar 22 13:03:26 2016
GPGPU-Sim PTX: 7800000 instructions simulated : ctaid=(28,0,0) tid=(423,0,0)
GPGPU-Sim PTX: 7900000 instructions simulated : ctaid=(0,0,0) tid=(71,0,0)
GPGPU-Sim PTX: 8000000 instructions simulated : ctaid=(8,0,0) tid=(103,0,0)
GPGPU-Sim PTX: 8100000 instructions simulated : ctaid=(5,0,0) tid=(455,0,0)
GPGPU-Sim uArch: cycles simulated: 100500  inst.: 8111136 (ipc=80.7) sim_rate=137476 (inst/sec) elapsed = 0:0:00:59 / Tue Mar 22 13:03:27 2016
GPGPU-Sim PTX: 8200000 instructions simulated : ctaid=(18,0,0) tid=(295,0,0)
GPGPU-Sim PTX: 8300000 instructions simulated : ctaid=(16,0,0) tid=(103,0,0)
GPGPU-Sim uArch: cycles simulated: 101000  inst.: 8288352 (ipc=82.1) sim_rate=138139 (inst/sec) elapsed = 0:0:01:00 / Tue Mar 22 13:03:28 2016
GPGPU-Sim PTX: 8400000 instructions simulated : ctaid=(25,0,0) tid=(7,0,0)
GPGPU-Sim PTX: 8500000 instructions simulated : ctaid=(9,0,0) tid=(295,0,0)
GPGPU-Sim PTX: 8600000 instructions simulated : ctaid=(2,0,0) tid=(327,0,0)
GPGPU-Sim uArch: cycles simulated: 102000  inst.: 8643616 (ipc=84.7) sim_rate=141698 (inst/sec) elapsed = 0:0:01:01 / Tue Mar 22 13:03:29 2016
GPGPU-Sim PTX: 8700000 instructions simulated : ctaid=(22,0,0) tid=(327,0,0)
GPGPU-Sim PTX: 8800000 instructions simulated : ctaid=(14,0,0) tid=(231,0,0)
GPGPU-Sim uArch: cycles simulated: 102500  inst.: 8817856 (ipc=86.0) sim_rate=142223 (inst/sec) elapsed = 0:0:01:02 / Tue Mar 22 13:03:30 2016
GPGPU-Sim PTX: 8900000 instructions simulated : ctaid=(28,0,0) tid=(455,0,0)
GPGPU-Sim PTX: 9000000 instructions simulated : ctaid=(22,0,0) tid=(199,0,0)
GPGPU-Sim PTX: 9100000 instructions simulated : ctaid=(24,0,0) tid=(455,0,0)
GPGPU-Sim uArch: cycles simulated: 103500  inst.: 9167680 (ipc=88.6) sim_rate=145518 (inst/sec) elapsed = 0:0:01:03 / Tue Mar 22 13:03:31 2016
GPGPU-Sim PTX: 9200000 instructions simulated : ctaid=(15,0,0) tid=(103,0,0)
GPGPU-Sim PTX: 9300000 instructions simulated : ctaid=(22,0,0) tid=(327,0,0)
GPGPU-Sim PTX: 9400000 instructions simulated : ctaid=(14,0,0) tid=(391,0,0)
GPGPU-Sim PTX: 9500000 instructions simulated : ctaid=(17,0,0) tid=(103,0,0)
GPGPU-Sim uArch: cycles simulated: 104500  inst.: 9515648 (ipc=91.1) sim_rate=148682 (inst/sec) elapsed = 0:0:01:04 / Tue Mar 22 13:03:32 2016
GPGPU-Sim PTX: 9600000 instructions simulated : ctaid=(10,0,0) tid=(199,0,0)
GPGPU-Sim PTX: 9700000 instructions simulated : ctaid=(14,0,0) tid=(103,0,0)
GPGPU-Sim uArch: cycles simulated: 105000  inst.: 9691776 (ipc=92.3) sim_rate=149104 (inst/sec) elapsed = 0:0:01:05 / Tue Mar 22 13:03:33 2016
GPGPU-Sim PTX: 9800000 instructions simulated : ctaid=(17,0,0) tid=(135,0,0)
GPGPU-Sim PTX: 9900000 instructions simulated : ctaid=(19,0,0) tid=(455,0,0)
GPGPU-Sim PTX: 10000000 instructions simulated : ctaid=(2,0,0) tid=(455,0,0)
GPGPU-Sim uArch: cycles simulated: 106000  inst.: 10056640 (ipc=94.9) sim_rate=152373 (inst/sec) elapsed = 0:0:01:06 / Tue Mar 22 13:03:34 2016
GPGPU-Sim PTX: 10100000 instructions simulated : ctaid=(27,0,0) tid=(167,0,0)
GPGPU-Sim PTX: 10200000 instructions simulated : ctaid=(2,0,0) tid=(295,0,0)
GPGPU-Sim uArch: cycles simulated: 106500  inst.: 10245696 (ipc=96.2) sim_rate=152920 (inst/sec) elapsed = 0:0:01:07 / Tue Mar 22 13:03:35 2016
GPGPU-Sim PTX: 10300000 instructions simulated : ctaid=(24,0,0) tid=(71,0,0)
GPGPU-Sim PTX: 10400000 instructions simulated : ctaid=(26,0,0) tid=(7,0,0)
GPGPU-Sim PTX: 10500000 instructions simulated : ctaid=(11,0,0) tid=(327,0,0)
GPGPU-Sim PTX: 10600000 instructions simulated : ctaid=(2,0,0) tid=(295,0,0)
GPGPU-Sim uArch: cycles simulated: 107500  inst.: 10613184 (ipc=98.7) sim_rate=156076 (inst/sec) elapsed = 0:0:01:08 / Tue Mar 22 13:03:36 2016
GPGPU-Sim PTX: 10700000 instructions simulated : ctaid=(8,0,0) tid=(423,0,0)
GPGPU-Sim PTX: 10800000 instructions simulated : ctaid=(5,0,0) tid=(455,0,0)
GPGPU-Sim uArch: cycles simulated: 108000  inst.: 10797120 (ipc=100.0) sim_rate=156480 (inst/sec) elapsed = 0:0:01:09 / Tue Mar 22 13:03:37 2016
GPGPU-Sim PTX: 10900000 instructions simulated : ctaid=(15,0,0) tid=(487,0,0)
GPGPU-Sim PTX: 11000000 instructions simulated : ctaid=(4,0,0) tid=(167,0,0)
GPGPU-Sim PTX: 11100000 instructions simulated : ctaid=(29,0,0) tid=(391,0,0)
GPGPU-Sim PTX: 11200000 instructions simulated : ctaid=(24,0,0) tid=(231,0,0)
GPGPU-Sim uArch: cycles simulated: 109000  inst.: 11177120 (ipc=102.5) sim_rate=159673 (inst/sec) elapsed = 0:0:01:10 / Tue Mar 22 13:03:38 2016
GPGPU-Sim PTX: 11300000 instructions simulated : ctaid=(11,0,0) tid=(359,0,0)
GPGPU-Sim uArch: cycles simulated: 109500  inst.: 11359744 (ipc=103.7) sim_rate=159996 (inst/sec) elapsed = 0:0:01:11 / Tue Mar 22 13:03:39 2016
GPGPU-Sim PTX: 11400000 instructions simulated : ctaid=(29,0,0) tid=(455,0,0)
GPGPU-Sim PTX: 11500000 instructions simulated : ctaid=(21,0,0) tid=(135,0,0)
GPGPU-Sim PTX: 11600000 instructions simulated : ctaid=(12,0,0) tid=(455,0,0)
GPGPU-Sim PTX: 11700000 instructions simulated : ctaid=(2,0,0) tid=(423,0,0)
GPGPU-Sim uArch: cycles simulated: 110500  inst.: 11737024 (ipc=106.2) sim_rate=163014 (inst/sec) elapsed = 0:0:01:12 / Tue Mar 22 13:03:40 2016
GPGPU-Sim PTX: 11800000 instructions simulated : ctaid=(21,0,0) tid=(455,0,0)
GPGPU-Sim PTX: 11900000 instructions simulated : ctaid=(18,0,0) tid=(359,0,0)
GPGPU-Sim PTX: 12000000 instructions simulated : ctaid=(5,0,0) tid=(423,0,0)
GPGPU-Sim PTX: 12100000 instructions simulated : ctaid=(9,0,0) tid=(103,0,0)
GPGPU-Sim uArch: cycles simulated: 111500  inst.: 12122080 (ipc=108.7) sim_rate=166055 (inst/sec) elapsed = 0:0:01:13 / Tue Mar 22 13:03:41 2016
GPGPU-Sim PTX: 12200000 instructions simulated : ctaid=(9,0,0) tid=(263,0,0)
GPGPU-Sim PTX: 12300000 instructions simulated : ctaid=(20,0,0) tid=(135,0,0)
GPGPU-Sim uArch: cycles simulated: 112000  inst.: 12314944 (ipc=110.0) sim_rate=166418 (inst/sec) elapsed = 0:0:01:14 / Tue Mar 22 13:03:42 2016
GPGPU-Sim PTX: 12400000 instructions simulated : ctaid=(15,0,0) tid=(39,0,0)
GPGPU-Sim PTX: 12500000 instructions simulated : ctaid=(16,0,0) tid=(39,0,0)
GPGPU-Sim PTX: 12600000 instructions simulated : ctaid=(22,0,0) tid=(263,0,0)
GPGPU-Sim PTX: 12700000 instructions simulated : ctaid=(5,0,0) tid=(423,0,0)
GPGPU-Sim uArch: cycles simulated: 113000  inst.: 12691424 (ipc=112.3) sim_rate=169218 (inst/sec) elapsed = 0:0:01:15 / Tue Mar 22 13:03:43 2016
GPGPU-Sim PTX: 12800000 instructions simulated : ctaid=(0,0,0) tid=(295,0,0)
GPGPU-Sim PTX: 12900000 instructions simulated : ctaid=(13,0,0) tid=(487,0,0)
GPGPU-Sim uArch: cycles simulated: 113500  inst.: 12878592 (ipc=113.5) sim_rate=169455 (inst/sec) elapsed = 0:0:01:16 / Tue Mar 22 13:03:44 2016
GPGPU-Sim PTX: 13000000 instructions simulated : ctaid=(27,0,0) tid=(263,0,0)
GPGPU-Sim PTX: 13100000 instructions simulated : ctaid=(9,0,0) tid=(7,0,0)
GPGPU-Sim PTX: 13200000 instructions simulated : ctaid=(16,0,0) tid=(135,0,0)
GPGPU-Sim uArch: cycles simulated: 114500  inst.: 13256224 (ipc=115.8) sim_rate=172158 (inst/sec) elapsed = 0:0:01:17 / Tue Mar 22 13:03:45 2016
GPGPU-Sim PTX: 13300000 instructions simulated : ctaid=(12,0,0) tid=(199,0,0)
GPGPU-Sim PTX: 13400000 instructions simulated : ctaid=(20,0,0) tid=(39,0,0)
GPGPU-Sim uArch: cycles simulated: 115000  inst.: 13451200 (ipc=117.0) sim_rate=172451 (inst/sec) elapsed = 0:0:01:18 / Tue Mar 22 13:03:46 2016
GPGPU-Sim PTX: 13500000 instructions simulated : ctaid=(9,0,0) tid=(7,0,0)
GPGPU-Sim PTX: 13600000 instructions simulated : ctaid=(2,0,0) tid=(135,0,0)
GPGPU-Sim PTX: 13700000 instructions simulated : ctaid=(27,0,0) tid=(295,0,0)
GPGPU-Sim PTX: 13800000 instructions simulated : ctaid=(23,0,0) tid=(295,0,0)
GPGPU-Sim uArch: cycles simulated: 116000  inst.: 13819936 (ipc=119.1) sim_rate=174935 (inst/sec) elapsed = 0:0:01:19 / Tue Mar 22 13:03:47 2016
GPGPU-Sim PTX: 13900000 instructions simulated : ctaid=(5,0,0) tid=(135,0,0)
GPGPU-Sim PTX: 14000000 instructions simulated : ctaid=(17,0,0) tid=(423,0,0)
GPGPU-Sim PTX: 14100000 instructions simulated : ctaid=(16,0,0) tid=(295,0,0)
GPGPU-Sim PTX: 14200000 instructions simulated : ctaid=(0,0,0) tid=(135,0,0)
GPGPU-Sim uArch: cycles simulated: 117000  inst.: 14180160 (ipc=121.2) sim_rate=177252 (inst/sec) elapsed = 0:0:01:20 / Tue Mar 22 13:03:48 2016
GPGPU-Sim PTX: 14300000 instructions simulated : ctaid=(28,0,0) tid=(231,0,0)
GPGPU-Sim uArch: cycles simulated: 117500  inst.: 14362752 (ipc=122.2) sim_rate=177317 (inst/sec) elapsed = 0:0:01:21 / Tue Mar 22 13:03:49 2016
GPGPU-Sim PTX: 14400000 instructions simulated : ctaid=(13,0,0) tid=(135,0,0)
GPGPU-Sim PTX: 14500000 instructions simulated : ctaid=(21,0,0) tid=(359,0,0)
GPGPU-Sim PTX: 14600000 instructions simulated : ctaid=(9,0,0) tid=(7,0,0)
GPGPU-Sim PTX: 14700000 instructions simulated : ctaid=(26,0,0) tid=(7,0,0)
GPGPU-Sim uArch: cycles simulated: 118500  inst.: 14730304 (ipc=124.3) sim_rate=179637 (inst/sec) elapsed = 0:0:01:22 / Tue Mar 22 13:03:50 2016
GPGPU-Sim PTX: 14800000 instructions simulated : ctaid=(28,0,0) tid=(295,0,0)
GPGPU-Sim PTX: 14900000 instructions simulated : ctaid=(2,0,0) tid=(487,0,0)
GPGPU-Sim uArch: cycles simulated: 119000  inst.: 14911424 (ipc=125.3) sim_rate=179655 (inst/sec) elapsed = 0:0:01:23 / Tue Mar 22 13:03:51 2016
GPGPU-Sim PTX: 15000000 instructions simulated : ctaid=(21,0,0) tid=(167,0,0)
GPGPU-Sim PTX: 15100000 instructions simulated : ctaid=(20,0,0) tid=(455,0,0)
GPGPU-Sim PTX: 15200000 instructions simulated : ctaid=(8,0,0) tid=(487,0,0)
GPGPU-Sim PTX: 15300000 instructions simulated : ctaid=(3,0,0) tid=(39,0,0)
GPGPU-Sim uArch: cycles simulated: 120000  inst.: 15290368 (ipc=127.4) sim_rate=182028 (inst/sec) elapsed = 0:0:01:24 / Tue Mar 22 13:03:52 2016
GPGPU-Sim PTX: 15400000 instructions simulated : ctaid=(24,0,0) tid=(487,0,0)
GPGPU-Sim PTX: 15500000 instructions simulated : ctaid=(26,0,0) tid=(487,0,0)
GPGPU-Sim uArch: cycles simulated: 120500  inst.: 15481408 (ipc=128.5) sim_rate=182134 (inst/sec) elapsed = 0:0:01:25 / Tue Mar 22 13:03:53 2016
GPGPU-Sim PTX: 15600000 instructions simulated : ctaid=(12,0,0) tid=(295,0,0)
GPGPU-Sim PTX: 15700000 instructions simulated : ctaid=(25,0,0) tid=(423,0,0)
GPGPU-Sim PTX: 15800000 instructions simulated : ctaid=(25,0,0) tid=(391,0,0)
GPGPU-Sim uArch: cycles simulated: 121500  inst.: 15858784 (ipc=130.5) sim_rate=184404 (inst/sec) elapsed = 0:0:01:26 / Tue Mar 22 13:03:54 2016
GPGPU-Sim PTX: 15900000 instructions simulated : ctaid=(29,0,0) tid=(391,0,0)
GPGPU-Sim PTX: 16000000 instructions simulated : ctaid=(2,0,0) tid=(167,0,0)
GPGPU-Sim uArch: cycles simulated: 122000  inst.: 16041824 (ipc=131.5) sim_rate=184388 (inst/sec) elapsed = 0:0:01:27 / Tue Mar 22 13:03:55 2016
GPGPU-Sim PTX: 16100000 instructions simulated : ctaid=(2,0,0) tid=(39,0,0)
GPGPU-Sim PTX: 16200000 instructions simulated : ctaid=(24,0,0) tid=(295,0,0)
GPGPU-Sim PTX: 16300000 instructions simulated : ctaid=(20,0,0) tid=(359,0,0)
GPGPU-Sim PTX: 16400000 instructions simulated : ctaid=(23,0,0) tid=(167,0,0)
GPGPU-Sim uArch: cycles simulated: 123000  inst.: 16410432 (ipc=133.4) sim_rate=186482 (inst/sec) elapsed = 0:0:01:28 / Tue Mar 22 13:03:56 2016
GPGPU-Sim PTX: 16500000 instructions simulated : ctaid=(2,0,0) tid=(39,0,0)
GPGPU-Sim PTX: 16600000 instructions simulated : ctaid=(10,0,0) tid=(455,0,0)
GPGPU-Sim PTX: 16700000 instructions simulated : ctaid=(9,0,0) tid=(455,0,0)
GPGPU-Sim PTX: 16800000 instructions simulated : ctaid=(17,0,0) tid=(167,0,0)
GPGPU-Sim uArch: cycles simulated: 124000  inst.: 16786368 (ipc=135.4) sim_rate=188610 (inst/sec) elapsed = 0:0:01:29 / Tue Mar 22 13:03:57 2016
GPGPU-Sim PTX: 16900000 instructions simulated : ctaid=(27,0,0) tid=(71,0,0)
GPGPU-Sim uArch: cycles simulated: 124500  inst.: 16967072 (ipc=136.3) sim_rate=188523 (inst/sec) elapsed = 0:0:01:30 / Tue Mar 22 13:03:58 2016
GPGPU-Sim PTX: 17000000 instructions simulated : ctaid=(24,0,0) tid=(199,0,0)
GPGPU-Sim PTX: 17100000 instructions simulated : ctaid=(28,0,0) tid=(327,0,0)
GPGPU-Sim PTX: 17200000 instructions simulated : ctaid=(25,0,0) tid=(135,0,0)
GPGPU-Sim PTX: 17300000 instructions simulated : ctaid=(7,0,0) tid=(359,0,0)
GPGPU-Sim uArch: cycles simulated: 125500  inst.: 17334272 (ipc=138.1) sim_rate=190486 (inst/sec) elapsed = 0:0:01:31 / Tue Mar 22 13:03:59 2016
GPGPU-Sim PTX: 17400000 instructions simulated : ctaid=(20,0,0) tid=(135,0,0)
GPGPU-Sim PTX: 17500000 instructions simulated : ctaid=(19,0,0) tid=(7,0,0)
GPGPU-Sim uArch: cycles simulated: 126000  inst.: 17513440 (ipc=139.0) sim_rate=190363 (inst/sec) elapsed = 0:0:01:32 / Tue Mar 22 13:04:00 2016
GPGPU-Sim PTX: 17600000 instructions simulated : ctaid=(11,0,0) tid=(167,0,0)
GPGPU-Sim PTX: 17700000 instructions simulated : ctaid=(5,0,0) tid=(167,0,0)
GPGPU-Sim PTX: 17800000 instructions simulated : ctaid=(21,0,0) tid=(71,0,0)
GPGPU-Sim PTX: 17900000 instructions simulated : ctaid=(27,0,0) tid=(135,0,0)
GPGPU-Sim uArch: cycles simulated: 127000  inst.: 17889952 (ipc=140.9) sim_rate=192365 (inst/sec) elapsed = 0:0:01:33 / Tue Mar 22 13:04:01 2016
GPGPU-Sim PTX: 18000000 instructions simulated : ctaid=(20,0,0) tid=(423,0,0)
GPGPU-Sim PTX: 18100000 instructions simulated : ctaid=(26,0,0) tid=(295,0,0)
GPGPU-Sim uArch: cycles simulated: 127500  inst.: 18068224 (ipc=141.7) sim_rate=192215 (inst/sec) elapsed = 0:0:01:34 / Tue Mar 22 13:04:02 2016
GPGPU-Sim PTX: 18200000 instructions simulated : ctaid=(23,0,0) tid=(295,0,0)
GPGPU-Sim PTX: 18300000 instructions simulated : ctaid=(27,0,0) tid=(103,0,0)
GPGPU-Sim PTX: 18400000 instructions simulated : ctaid=(7,0,0) tid=(391,0,0)
GPGPU-Sim uArch: cycles simulated: 128500  inst.: 18439264 (ipc=143.5) sim_rate=194097 (inst/sec) elapsed = 0:0:01:35 / Tue Mar 22 13:04:03 2016
GPGPU-Sim PTX: 18500000 instructions simulated : ctaid=(2,0,0) tid=(263,0,0)
GPGPU-Sim PTX: 18600000 instructions simulated : ctaid=(27,0,0) tid=(327,0,0)
GPGPU-Sim uArch: cycles simulated: 129000  inst.: 18626176 (ipc=144.4) sim_rate=194022 (inst/sec) elapsed = 0:0:01:36 / Tue Mar 22 13:04:04 2016
GPGPU-Sim PTX: 18700000 instructions simulated : ctaid=(13,0,0) tid=(455,0,0)
GPGPU-Sim PTX: 18800000 instructions simulated : ctaid=(20,0,0) tid=(135,0,0)
GPGPU-Sim PTX: 18900000 instructions simulated : ctaid=(1,0,0) tid=(455,0,0)
GPGPU-Sim PTX: 19000000 instructions simulated : ctaid=(12,0,0) tid=(103,0,0)
GPGPU-Sim uArch: cycles simulated: 130000  inst.: 18991680 (ipc=146.1) sim_rate=195790 (inst/sec) elapsed = 0:0:01:37 / Tue Mar 22 13:04:05 2016
GPGPU-Sim PTX: 19100000 instructions simulated : ctaid=(14,0,0) tid=(71,0,0)
GPGPU-Sim PTX: 19200000 instructions simulated : ctaid=(0,0,0) tid=(487,0,0)
GPGPU-Sim PTX: 19300000 instructions simulated : ctaid=(2,0,0) tid=(231,0,0)
GPGPU-Sim uArch: cycles simulated: 131000  inst.: 19355712 (ipc=147.8) sim_rate=197507 (inst/sec) elapsed = 0:0:01:38 / Tue Mar 22 13:04:06 2016
GPGPU-Sim PTX: 19400000 instructions simulated : ctaid=(13,0,0) tid=(455,0,0)
GPGPU-Sim PTX: 19500000 instructions simulated : ctaid=(8,0,0) tid=(327,0,0)
GPGPU-Sim uArch: cycles simulated: 131500  inst.: 19533152 (ipc=148.5) sim_rate=197304 (inst/sec) elapsed = 0:0:01:39 / Tue Mar 22 13:04:07 2016
GPGPU-Sim PTX: 19600000 instructions simulated : ctaid=(24,0,0) tid=(135,0,0)
GPGPU-Sim PTX: 19700000 instructions simulated : ctaid=(12,0,0) tid=(455,0,0)
GPGPU-Sim PTX: 19800000 instructions simulated : ctaid=(18,0,0) tid=(487,0,0)
GPGPU-Sim PTX: 19900000 instructions simulated : ctaid=(14,0,0) tid=(167,0,0)
GPGPU-Sim uArch: cycles simulated: 132500  inst.: 19914880 (ipc=150.3) sim_rate=199148 (inst/sec) elapsed = 0:0:01:40 / Tue Mar 22 13:04:08 2016
GPGPU-Sim PTX: 20000000 instructions simulated : ctaid=(22,0,0) tid=(103,0,0)
GPGPU-Sim PTX: 20100000 instructions simulated : ctaid=(9,0,0) tid=(487,0,0)
GPGPU-Sim PTX: 20200000 instructions simulated : ctaid=(10,0,0) tid=(135,0,0)
GPGPU-Sim PTX: 20300000 instructions simulated : ctaid=(1,0,0) tid=(39,0,0)
GPGPU-Sim uArch: cycles simulated: 133500  inst.: 20272192 (ipc=151.9) sim_rate=200714 (inst/sec) elapsed = 0:0:01:41 / Tue Mar 22 13:04:09 2016
GPGPU-Sim PTX: 20400000 instructions simulated : ctaid=(10,0,0) tid=(103,0,0)
GPGPU-Sim PTX: 20500000 instructions simulated : ctaid=(26,0,0) tid=(103,0,0)
GPGPU-Sim PTX: 20600000 instructions simulated : ctaid=(17,0,0) tid=(199,0,0)
GPGPU-Sim uArch: cycles simulated: 134500  inst.: 20639744 (ipc=153.5) sim_rate=202350 (inst/sec) elapsed = 0:0:01:42 / Tue Mar 22 13:04:10 2016
GPGPU-Sim PTX: 20700000 instructions simulated : ctaid=(28,0,0) tid=(7,0,0)
GPGPU-Sim PTX: 20800000 instructions simulated : ctaid=(11,0,0) tid=(199,0,0)
GPGPU-Sim PTX: 20900000 instructions simulated : ctaid=(17,0,0) tid=(167,0,0)
GPGPU-Sim PTX: 21000000 instructions simulated : ctaid=(0,0,0) tid=(231,0,0)
GPGPU-Sim uArch: cycles simulated: 135500  inst.: 21005664 (ipc=155.0) sim_rate=203938 (inst/sec) elapsed = 0:0:01:43 / Tue Mar 22 13:04:11 2016
GPGPU-Sim PTX: 21100000 instructions simulated : ctaid=(23,0,0) tid=(7,0,0)
GPGPU-Sim PTX: 21200000 instructions simulated : ctaid=(23,0,0) tid=(135,0,0)
GPGPU-Sim uArch: cycles simulated: 136000  inst.: 21188288 (ipc=155.8) sim_rate=203733 (inst/sec) elapsed = 0:0:01:44 / Tue Mar 22 13:04:12 2016
GPGPU-Sim PTX: 21300000 instructions simulated : ctaid=(23,0,0) tid=(327,0,0)
GPGPU-Sim PTX: 21400000 instructions simulated : ctaid=(10,0,0) tid=(295,0,0)
GPGPU-Sim PTX: 21500000 instructions simulated : ctaid=(10,0,0) tid=(103,0,0)
GPGPU-Sim PTX: 21600000 instructions simulated : ctaid=(17,0,0) tid=(295,0,0)
GPGPU-Sim uArch: cycles simulated: 137000  inst.: 21571168 (ipc=157.5) sim_rate=205439 (inst/sec) elapsed = 0:0:01:45 / Tue Mar 22 13:04:13 2016
GPGPU-Sim PTX: 21700000 instructions simulated : ctaid=(27,0,0) tid=(455,0,0)
GPGPU-Sim PTX: 21800000 instructions simulated : ctaid=(5,0,0) tid=(167,0,0)
GPGPU-Sim PTX: 21900000 instructions simulated : ctaid=(26,0,0) tid=(295,0,0)
GPGPU-Sim uArch: cycles simulated: 138000  inst.: 21960512 (ipc=159.1) sim_rate=207174 (inst/sec) elapsed = 0:0:01:46 / Tue Mar 22 13:04:14 2016
GPGPU-Sim PTX: 22000000 instructions simulated : ctaid=(13,0,0) tid=(167,0,0)
GPGPU-Sim PTX: 22100000 instructions simulated : ctaid=(1,0,0) tid=(135,0,0)
GPGPU-Sim PTX: 22200000 instructions simulated : ctaid=(14,0,0) tid=(71,0,0)
GPGPU-Sim PTX: 22300000 instructions simulated : ctaid=(9,0,0) tid=(487,0,0)
GPGPU-Sim uArch: cycles simulated: 139000  inst.: 22342912 (ipc=160.7) sim_rate=208812 (inst/sec) elapsed = 0:0:01:47 / Tue Mar 22 13:04:15 2016
GPGPU-Sim PTX: 22400000 instructions simulated : ctaid=(21,0,0) tid=(359,0,0)
GPGPU-Sim PTX: 22500000 instructions simulated : ctaid=(24,0,0) tid=(327,0,0)
GPGPU-Sim PTX: 22600000 instructions simulated : ctaid=(16,0,0) tid=(327,0,0)
GPGPU-Sim PTX: 22700000 instructions simulated : ctaid=(12,0,0) tid=(7,0,0)
GPGPU-Sim uArch: cycles simulated: 140000  inst.: 22708832 (ipc=162.2) sim_rate=210266 (inst/sec) elapsed = 0:0:01:48 / Tue Mar 22 13:04:16 2016
GPGPU-Sim PTX: 22800000 instructions simulated : ctaid=(6,0,0) tid=(295,0,0)
GPGPU-Sim PTX: 22900000 instructions simulated : ctaid=(0,0,0) tid=(263,0,0)
GPGPU-Sim PTX: 23000000 instructions simulated : ctaid=(28,0,0) tid=(455,0,0)
GPGPU-Sim PTX: 23100000 instructions simulated : ctaid=(7,0,0) tid=(455,0,0)
GPGPU-Sim uArch: cycles simulated: 141000  inst.: 23078208 (ipc=163.7) sim_rate=211726 (inst/sec) elapsed = 0:0:01:49 / Tue Mar 22 13:04:17 2016
GPGPU-Sim PTX: 23200000 instructions simulated : ctaid=(22,0,0) tid=(167,0,0)
GPGPU-Sim PTX: 23300000 instructions simulated : ctaid=(24,0,0) tid=(71,0,0)
GPGPU-Sim PTX: 23400000 instructions simulated : ctaid=(6,0,0) tid=(455,0,0)
GPGPU-Sim uArch: cycles simulated: 142000  inst.: 23449824 (ipc=165.1) sim_rate=213180 (inst/sec) elapsed = 0:0:01:50 / Tue Mar 22 13:04:18 2016
GPGPU-Sim PTX: 23500000 instructions simulated : ctaid=(6,0,0) tid=(327,0,0)
GPGPU-Sim PTX: 23600000 instructions simulated : ctaid=(1,0,0) tid=(71,0,0)
GPGPU-Sim uArch: cycles simulated: 142500  inst.: 23637568 (ipc=165.9) sim_rate=212951 (inst/sec) elapsed = 0:0:01:51 / Tue Mar 22 13:04:19 2016
GPGPU-Sim PTX: 23700000 instructions simulated : ctaid=(29,0,0) tid=(327,0,0)
GPGPU-Sim PTX: 23800000 instructions simulated : ctaid=(9,0,0) tid=(199,0,0)
GPGPU-Sim PTX: 23900000 instructions simulated : ctaid=(25,0,0) tid=(167,0,0)
GPGPU-Sim PTX: 24000000 instructions simulated : ctaid=(4,0,0) tid=(7,0,0)
GPGPU-Sim uArch: cycles simulated: 143500  inst.: 24017888 (ipc=167.4) sim_rate=214445 (inst/sec) elapsed = 0:0:01:52 / Tue Mar 22 13:04:20 2016
GPGPU-Sim PTX: 24100000 instructions simulated : ctaid=(24,0,0) tid=(135,0,0)
GPGPU-Sim PTX: 24200000 instructions simulated : ctaid=(22,0,0) tid=(7,0,0)
GPGPU-Sim uArch: cycles simulated: 144000  inst.: 24213984 (ipc=168.2) sim_rate=214283 (inst/sec) elapsed = 0:0:01:53 / Tue Mar 22 13:04:21 2016
GPGPU-Sim PTX: 24300000 instructions simulated : ctaid=(10,0,0) tid=(423,0,0)
GPGPU-Sim PTX: 24400000 instructions simulated : ctaid=(23,0,0) tid=(423,0,0)
GPGPU-Sim PTX: 24500000 instructions simulated : ctaid=(24,0,0) tid=(231,0,0)
GPGPU-Sim PTX: 24600000 instructions simulated : ctaid=(1,0,0) tid=(39,0,0)
GPGPU-Sim uArch: cycles simulated: 145000  inst.: 24601856 (ipc=169.7) sim_rate=215805 (inst/sec) elapsed = 0:0:01:54 / Tue Mar 22 13:04:22 2016
GPGPU-Sim PTX: 24700000 instructions simulated : ctaid=(8,0,0) tid=(295,0,0)
GPGPU-Sim PTX: 24800000 instructions simulated : ctaid=(10,0,0) tid=(455,0,0)
GPGPU-Sim PTX: 24900000 instructions simulated : ctaid=(24,0,0) tid=(327,0,0)
GPGPU-Sim PTX: 25000000 instructions simulated : ctaid=(13,0,0) tid=(167,0,0)
GPGPU-Sim uArch: cycles simulated: 146000  inst.: 24979392 (ipc=171.1) sim_rate=217212 (inst/sec) elapsed = 0:0:01:55 / Tue Mar 22 13:04:23 2016
GPGPU-Sim PTX: 25100000 instructions simulated : ctaid=(15,0,0) tid=(327,0,0)
GPGPU-Sim uArch: cycles simulated: 146500  inst.: 25167360 (ipc=171.8) sim_rate=216960 (inst/sec) elapsed = 0:0:01:56 / Tue Mar 22 13:04:24 2016
GPGPU-Sim PTX: 25200000 instructions simulated : ctaid=(25,0,0) tid=(327,0,0)
GPGPU-Sim PTX: 25300000 instructions simulated : ctaid=(13,0,0) tid=(455,0,0)
GPGPU-Sim PTX: 25400000 instructions simulated : ctaid=(15,0,0) tid=(391,0,0)
GPGPU-Sim PTX: 25500000 instructions simulated : ctaid=(20,0,0) tid=(135,0,0)
GPGPU-Sim uArch: cycles simulated: 147500  inst.: 25535744 (ipc=173.1) sim_rate=218254 (inst/sec) elapsed = 0:0:01:57 / Tue Mar 22 13:04:25 2016
GPGPU-Sim PTX: 25600000 instructions simulated : ctaid=(22,0,0) tid=(39,0,0)
GPGPU-Sim PTX: 25700000 instructions simulated : ctaid=(24,0,0) tid=(135,0,0)
GPGPU-Sim uArch: cycles simulated: 148000  inst.: 25717760 (ipc=173.8) sim_rate=217947 (inst/sec) elapsed = 0:0:01:58 / Tue Mar 22 13:04:26 2016
GPGPU-Sim PTX: 25800000 instructions simulated : ctaid=(13,0,0) tid=(71,0,0)
GPGPU-Sim PTX: 25900000 instructions simulated : ctaid=(24,0,0) tid=(71,0,0)
GPGPU-Sim PTX: 26000000 instructions simulated : ctaid=(28,0,0) tid=(103,0,0)
GPGPU-Sim PTX: 26100000 instructions simulated : ctaid=(24,0,0) tid=(327,0,0)
GPGPU-Sim uArch: cycles simulated: 149000  inst.: 26087168 (ipc=175.1) sim_rate=219219 (inst/sec) elapsed = 0:0:01:59 / Tue Mar 22 13:04:27 2016
GPGPU-Sim PTX: 26200000 instructions simulated : ctaid=(2,0,0) tid=(39,0,0)
GPGPU-Sim PTX: 26300000 instructions simulated : ctaid=(13,0,0) tid=(7,0,0)
GPGPU-Sim PTX: 26400000 instructions simulated : ctaid=(19,0,0) tid=(487,0,0)
GPGPU-Sim uArch: cycles simulated: 150000  inst.: 26451104 (ipc=176.3) sim_rate=220425 (inst/sec) elapsed = 0:0:02:00 / Tue Mar 22 13:04:28 2016
GPGPU-Sim PTX: 26500000 instructions simulated : ctaid=(14,0,0) tid=(199,0,0)
GPGPU-Sim PTX: 26600000 instructions simulated : ctaid=(6,0,0) tid=(295,0,0)
GPGPU-Sim uArch: cycles simulated: 150500  inst.: 26632096 (ipc=177.0) sim_rate=220099 (inst/sec) elapsed = 0:0:02:01 / Tue Mar 22 13:04:29 2016
GPGPU-Sim PTX: 26700000 instructions simulated : ctaid=(22,0,0) tid=(263,0,0)
GPGPU-Sim PTX: 26800000 instructions simulated : ctaid=(23,0,0) tid=(167,0,0)
GPGPU-Sim PTX: 26900000 instructions simulated : ctaid=(10,0,0) tid=(7,0,0)
GPGPU-Sim PTX: 27000000 instructions simulated : ctaid=(19,0,0) tid=(103,0,0)
GPGPU-Sim uArch: cycles simulated: 151500  inst.: 27000608 (ipc=178.2) sim_rate=221316 (inst/sec) elapsed = 0:0:02:02 / Tue Mar 22 13:04:30 2016
GPGPU-Sim PTX: 27100000 instructions simulated : ctaid=(4,0,0) tid=(391,0,0)
GPGPU-Sim PTX: 27200000 instructions simulated : ctaid=(15,0,0) tid=(295,0,0)
GPGPU-Sim uArch: cycles simulated: 152000  inst.: 27197376 (ipc=178.9) sim_rate=221116 (inst/sec) elapsed = 0:0:02:03 / Tue Mar 22 13:04:31 2016
GPGPU-Sim PTX: 27300000 instructions simulated : ctaid=(20,0,0) tid=(327,0,0)
GPGPU-Sim PTX: 27400000 instructions simulated : ctaid=(20,0,0) tid=(423,0,0)
GPGPU-Sim PTX: 27500000 instructions simulated : ctaid=(5,0,0) tid=(231,0,0)
GPGPU-Sim PTX: 27600000 instructions simulated : ctaid=(20,0,0) tid=(455,0,0)
GPGPU-Sim uArch: cycles simulated: 153000  inst.: 27586048 (ipc=180.3) sim_rate=222468 (inst/sec) elapsed = 0:0:02:04 / Tue Mar 22 13:04:32 2016
GPGPU-Sim PTX: 27700000 instructions simulated : ctaid=(1,0,0) tid=(295,0,0)
GPGPU-Sim PTX: 27800000 instructions simulated : ctaid=(15,0,0) tid=(103,0,0)
GPGPU-Sim PTX: 27900000 instructions simulated : ctaid=(8,0,0) tid=(391,0,0)
GPGPU-Sim PTX: 28000000 instructions simulated : ctaid=(1,0,0) tid=(103,0,0)
GPGPU-Sim uArch: cycles simulated: 154000  inst.: 27969120 (ipc=181.6) sim_rate=223752 (inst/sec) elapsed = 0:0:02:05 / Tue Mar 22 13:04:33 2016
GPGPU-Sim PTX: 28100000 instructions simulated : ctaid=(14,0,0) tid=(295,0,0)
GPGPU-Sim uArch: cycles simulated: 154500  inst.: 28152384 (ipc=182.2) sim_rate=223431 (inst/sec) elapsed = 0:0:02:06 / Tue Mar 22 13:04:34 2016
GPGPU-Sim PTX: 28200000 instructions simulated : ctaid=(18,0,0) tid=(199,0,0)
GPGPU-Sim PTX: 28300000 instructions simulated : ctaid=(3,0,0) tid=(167,0,0)
GPGPU-Sim PTX: 28400000 instructions simulated : ctaid=(8,0,0) tid=(167,0,0)
GPGPU-Sim PTX: 28500000 instructions simulated : ctaid=(27,0,0) tid=(263,0,0)
GPGPU-Sim uArch: cycles simulated: 155500  inst.: 28533024 (ipc=183.5) sim_rate=224669 (inst/sec) elapsed = 0:0:02:07 / Tue Mar 22 13:04:35 2016
GPGPU-Sim PTX: 28600000 instructions simulated : ctaid=(6,0,0) tid=(7,0,0)
GPGPU-Sim PTX: 28700000 instructions simulated : ctaid=(29,0,0) tid=(103,0,0)
GPGPU-Sim uArch: cycles simulated: 156000  inst.: 28720736 (ipc=184.1) sim_rate=224380 (inst/sec) elapsed = 0:0:02:08 / Tue Mar 22 13:04:36 2016
GPGPU-Sim PTX: 28800000 instructions simulated : ctaid=(9,0,0) tid=(423,0,0)
GPGPU-Sim PTX: 28900000 instructions simulated : ctaid=(10,0,0) tid=(455,0,0)
GPGPU-Sim PTX: 29000000 instructions simulated : ctaid=(17,0,0) tid=(455,0,0)
GPGPU-Sim PTX: 29100000 instructions simulated : ctaid=(22,0,0) tid=(263,0,0)
GPGPU-Sim uArch: cycles simulated: 157000  inst.: 29090016 (ipc=185.3) sim_rate=225504 (inst/sec) elapsed = 0:0:02:09 / Tue Mar 22 13:04:37 2016
GPGPU-Sim PTX: 29200000 instructions simulated : ctaid=(9,0,0) tid=(327,0,0)
GPGPU-Sim PTX: 29300000 instructions simulated : ctaid=(0,0,0) tid=(423,0,0)
GPGPU-Sim PTX: 29400000 instructions simulated : ctaid=(29,0,0) tid=(487,0,0)
GPGPU-Sim uArch: cycles simulated: 158000  inst.: 29459232 (ipc=186.5) sim_rate=226609 (inst/sec) elapsed = 0:0:02:10 / Tue Mar 22 13:04:38 2016
GPGPU-Sim PTX: 29500000 instructions simulated : ctaid=(6,0,0) tid=(103,0,0)
GPGPU-Sim PTX: 29600000 instructions simulated : ctaid=(27,0,0) tid=(167,0,0)
GPGPU-Sim uArch: cycles simulated: 158500  inst.: 29643936 (ipc=187.0) sim_rate=226289 (inst/sec) elapsed = 0:0:02:11 / Tue Mar 22 13:04:39 2016
GPGPU-Sim PTX: 29700000 instructions simulated : ctaid=(22,0,0) tid=(199,0,0)
GPGPU-Sim PTX: 29800000 instructions simulated : ctaid=(19,0,0) tid=(7,0,0)
GPGPU-Sim PTX: 29900000 instructions simulated : ctaid=(9,0,0) tid=(423,0,0)
GPGPU-Sim PTX: 30000000 instructions simulated : ctaid=(7,0,0) tid=(199,0,0)
GPGPU-Sim uArch: cycles simulated: 159500  inst.: 30002976 (ipc=188.1) sim_rate=227295 (inst/sec) elapsed = 0:0:02:12 / Tue Mar 22 13:04:40 2016
GPGPU-Sim PTX: 30100000 instructions simulated : ctaid=(21,0,0) tid=(263,0,0)
GPGPU-Sim PTX: 30200000 instructions simulated : ctaid=(11,0,0) tid=(455,0,0)
GPGPU-Sim uArch: cycles simulated: 160000  inst.: 30189632 (ipc=188.7) sim_rate=226989 (inst/sec) elapsed = 0:0:02:13 / Tue Mar 22 13:04:41 2016
GPGPU-Sim PTX: 30300000 instructions simulated : ctaid=(25,0,0) tid=(295,0,0)
GPGPU-Sim PTX: 30400000 instructions simulated : ctaid=(3,0,0) tid=(327,0,0)
GPGPU-Sim PTX: 30500000 instructions simulated : ctaid=(3,0,0) tid=(455,0,0)
GPGPU-Sim PTX: 30600000 instructions simulated : ctaid=(28,0,0) tid=(231,0,0)
GPGPU-Sim uArch: cycles simulated: 161000  inst.: 30568320 (ipc=189.9) sim_rate=228121 (inst/sec) elapsed = 0:0:02:14 / Tue Mar 22 13:04:42 2016
GPGPU-Sim PTX: 30700000 instructions simulated : ctaid=(26,0,0) tid=(295,0,0)
GPGPU-Sim PTX: 30800000 instructions simulated : ctaid=(28,0,0) tid=(487,0,0)
GPGPU-Sim PTX: 30900000 instructions simulated : ctaid=(12,0,0) tid=(135,0,0)
GPGPU-Sim uArch: cycles simulated: 162000  inst.: 30947488 (ipc=191.0) sim_rate=229240 (inst/sec) elapsed = 0:0:02:15 / Tue Mar 22 13:04:43 2016
GPGPU-Sim PTX: 31000000 instructions simulated : ctaid=(20,0,0) tid=(487,0,0)
GPGPU-Sim PTX: 31100000 instructions simulated : ctaid=(25,0,0) tid=(39,0,0)
GPGPU-Sim uArch: cycles simulated: 162500  inst.: 31133376 (ipc=191.6) sim_rate=228921 (inst/sec) elapsed = 0:0:02:16 / Tue Mar 22 13:04:44 2016
GPGPU-Sim PTX: 31200000 instructions simulated : ctaid=(17,0,0) tid=(295,0,0)
GPGPU-Sim PTX: 31300000 instructions simulated : ctaid=(28,0,0) tid=(391,0,0)
GPGPU-Sim PTX: 31400000 instructions simulated : ctaid=(6,0,0) tid=(391,0,0)
GPGPU-Sim PTX: 31500000 instructions simulated : ctaid=(12,0,0) tid=(199,0,0)
GPGPU-Sim uArch: cycles simulated: 163500  inst.: 31502432 (ipc=192.7) sim_rate=229944 (inst/sec) elapsed = 0:0:02:17 / Tue Mar 22 13:04:45 2016
GPGPU-Sim PTX: 31600000 instructions simulated : ctaid=(28,0,0) tid=(7,0,0)
GPGPU-Sim PTX: 31700000 instructions simulated : ctaid=(25,0,0) tid=(359,0,0)
GPGPU-Sim uArch: cycles simulated: 164000  inst.: 31685568 (ipc=193.2) sim_rate=229605 (inst/sec) elapsed = 0:0:02:18 / Tue Mar 22 13:04:46 2016
GPGPU-Sim PTX: 31800000 instructions simulated : ctaid=(12,0,0) tid=(135,0,0)
GPGPU-Sim PTX: 31900000 instructions simulated : ctaid=(17,0,0) tid=(455,0,0)
GPGPU-Sim PTX: 32000000 instructions simulated : ctaid=(1,0,0) tid=(487,0,0)
GPGPU-Sim PTX: 32100000 instructions simulated : ctaid=(9,0,0) tid=(487,0,0)
GPGPU-Sim uArch: cycles simulated: 165000  inst.: 32067872 (ipc=194.4) sim_rate=230704 (inst/sec) elapsed = 0:0:02:19 / Tue Mar 22 13:04:47 2016
GPGPU-Sim PTX: 32200000 instructions simulated : ctaid=(13,0,0) tid=(103,0,0)
GPGPU-Sim uArch: cycles simulated: 165500  inst.: 32258464 (ipc=194.9) sim_rate=230417 (inst/sec) elapsed = 0:0:02:20 / Tue Mar 22 13:04:48 2016
GPGPU-Sim PTX: 32300000 instructions simulated : ctaid=(1,0,0) tid=(199,0,0)
GPGPU-Sim PTX: 32400000 instructions simulated : ctaid=(4,0,0) tid=(263,0,0)
GPGPU-Sim PTX: 32500000 instructions simulated : ctaid=(27,0,0) tid=(7,0,0)
GPGPU-Sim PTX: 32600000 instructions simulated : ctaid=(0,0,0) tid=(167,0,0)
GPGPU-Sim uArch: cycles simulated: 166500  inst.: 32636256 (ipc=196.0) sim_rate=231462 (inst/sec) elapsed = 0:0:02:21 / Tue Mar 22 13:04:49 2016
GPGPU-Sim PTX: 32700000 instructions simulated : ctaid=(22,0,0) tid=(263,0,0)
GPGPU-Sim PTX: 32800000 instructions simulated : ctaid=(25,0,0) tid=(135,0,0)
GPGPU-Sim PTX: 32900000 instructions simulated : ctaid=(18,0,0) tid=(199,0,0)
GPGPU-Sim PTX: 33000000 instructions simulated : ctaid=(15,0,0) tid=(455,0,0)
GPGPU-Sim uArch: cycles simulated: 167500  inst.: 33016928 (ipc=197.1) sim_rate=232513 (inst/sec) elapsed = 0:0:02:22 / Tue Mar 22 13:04:50 2016
GPGPU-Sim PTX: 33100000 instructions simulated : ctaid=(5,0,0) tid=(359,0,0)
GPGPU-Sim PTX: 33200000 instructions simulated : ctaid=(5,0,0) tid=(167,0,0)
GPGPU-Sim uArch: cycles simulated: 168000  inst.: 33198592 (ipc=197.6) sim_rate=232157 (inst/sec) elapsed = 0:0:02:23 / Tue Mar 22 13:04:51 2016
GPGPU-Sim PTX: 33300000 instructions simulated : ctaid=(8,0,0) tid=(487,0,0)
GPGPU-Sim PTX: 33400000 instructions simulated : ctaid=(12,0,0) tid=(455,0,0)
GPGPU-Sim PTX: 33500000 instructions simulated : ctaid=(11,0,0) tid=(231,0,0)
GPGPU-Sim uArch: cycles simulated: 169000  inst.: 33566112 (ipc=198.6) sim_rate=233098 (inst/sec) elapsed = 0:0:02:24 / Tue Mar 22 13:04:52 2016
GPGPU-Sim PTX: 33600000 instructions simulated : ctaid=(12,0,0) tid=(71,0,0)
GPGPU-Sim PTX: 33700000 instructions simulated : ctaid=(22,0,0) tid=(487,0,0)
GPGPU-Sim uArch: cycles simulated: 169500  inst.: 33744128 (ipc=199.1) sim_rate=232718 (inst/sec) elapsed = 0:0:02:25 / Tue Mar 22 13:04:53 2016
GPGPU-Sim PTX: 33800000 instructions simulated : ctaid=(2,0,0) tid=(359,0,0)
GPGPU-Sim PTX: 33900000 instructions simulated : ctaid=(24,0,0) tid=(135,0,0)
GPGPU-Sim PTX: 34000000 instructions simulated : ctaid=(20,0,0) tid=(327,0,0)
GPGPU-Sim PTX: 34100000 instructions simulated : ctaid=(25,0,0) tid=(487,0,0)
GPGPU-Sim uArch: cycles simulated: 170500  inst.: 34113760 (ipc=200.1) sim_rate=233655 (inst/sec) elapsed = 0:0:02:26 / Tue Mar 22 13:04:54 2016
GPGPU-Sim PTX: 34200000 instructions simulated : ctaid=(11,0,0) tid=(455,0,0)
GPGPU-Sim PTX: 34300000 instructions simulated : ctaid=(9,0,0) tid=(135,0,0)
GPGPU-Sim PTX: 34400000 instructions simulated : ctaid=(15,0,0) tid=(71,0,0)
GPGPU-Sim PTX: 34500000 instructions simulated : ctaid=(10,0,0) tid=(487,0,0)
GPGPU-Sim uArch: cycles simulated: 171500  inst.: 34495776 (ipc=201.1) sim_rate=234665 (inst/sec) elapsed = 0:0:02:27 / Tue Mar 22 13:04:55 2016
GPGPU-Sim PTX: 34600000 instructions simulated : ctaid=(6,0,0) tid=(199,0,0)
GPGPU-Sim PTX: 34700000 instructions simulated : ctaid=(29,0,0) tid=(487,0,0)
GPGPU-Sim uArch: cycles simulated: 172000  inst.: 34680672 (ipc=201.6) sim_rate=234328 (inst/sec) elapsed = 0:0:02:28 / Tue Mar 22 13:04:56 2016
GPGPU-Sim PTX: 34800000 instructions simulated : ctaid=(27,0,0) tid=(295,0,0)
GPGPU-Sim PTX: 34900000 instructions simulated : ctaid=(18,0,0) tid=(359,0,0)
GPGPU-Sim PTX: 35000000 instructions simulated : ctaid=(25,0,0) tid=(327,0,0)
GPGPU-Sim uArch: cycles simulated: 173000  inst.: 35058528 (ipc=202.7) sim_rate=235292 (inst/sec) elapsed = 0:0:02:29 / Tue Mar 22 13:04:57 2016
GPGPU-Sim PTX: 35100000 instructions simulated : ctaid=(24,0,0) tid=(455,0,0)
GPGPU-Sim PTX: 35200000 instructions simulated : ctaid=(26,0,0) tid=(327,0,0)
GPGPU-Sim uArch: cycles simulated: 173500  inst.: 35249824 (ipc=203.2) sim_rate=234998 (inst/sec) elapsed = 0:0:02:30 / Tue Mar 22 13:04:58 2016
GPGPU-Sim PTX: 35300000 instructions simulated : ctaid=(4,0,0) tid=(199,0,0)
GPGPU-Sim PTX: 35400000 instructions simulated : ctaid=(4,0,0) tid=(327,0,0)
GPGPU-Sim PTX: 35500000 instructions simulated : ctaid=(2,0,0) tid=(263,0,0)
GPGPU-Sim PTX: 35600000 instructions simulated : ctaid=(28,0,0) tid=(295,0,0)
GPGPU-Sim uArch: cycles simulated: 174500  inst.: 35595328 (ipc=204.0) sim_rate=235730 (inst/sec) elapsed = 0:0:02:31 / Tue Mar 22 13:04:59 2016
GPGPU-Sim PTX: 35700000 instructions simulated : ctaid=(10,0,0) tid=(231,0,0)
GPGPU-Sim uArch: cycles simulated: 175500  inst.: 35745387 (ipc=203.7) sim_rate=235167 (inst/sec) elapsed = 0:0:02:32 / Tue Mar 22 13:05:00 2016
GPGPU-Sim PTX: 35800000 instructions simulated : ctaid=(2,0,0) tid=(412,0,0)
GPGPU-Sim uArch: cycles simulated: 176500  inst.: 35845864 (ipc=203.1) sim_rate=234286 (inst/sec) elapsed = 0:0:02:33 / Tue Mar 22 13:05:01 2016
GPGPU-Sim PTX: 35900000 instructions simulated : ctaid=(7,0,0) tid=(270,0,0)
GPGPU-Sim uArch: cycles simulated: 178000  inst.: 35902060 (ipc=201.7) sim_rate=233130 (inst/sec) elapsed = 0:0:02:34 / Tue Mar 22 13:05:02 2016
GPGPU-Sim uArch: cycles simulated: 179500  inst.: 35961858 (ipc=200.3) sim_rate=232011 (inst/sec) elapsed = 0:0:02:35 / Tue Mar 22 13:05:03 2016
GPGPU-Sim PTX: 36000000 instructions simulated : ctaid=(18,0,0) tid=(149,0,0)
GPGPU-Sim uArch: cycles simulated: 180500  inst.: 36006896 (ipc=199.5) sim_rate=230813 (inst/sec) elapsed = 0:0:02:36 / Tue Mar 22 13:05:04 2016
GPGPU-Sim PTX: 36100000 instructions simulated : ctaid=(41,0,0) tid=(139,0,0)
GPGPU-Sim uArch: cycles simulated: 181500  inst.: 36071592 (ipc=198.7) sim_rate=229755 (inst/sec) elapsed = 0:0:02:37 / Tue Mar 22 13:05:05 2016
GPGPU-Sim PTX: 36200000 instructions simulated : ctaid=(29,0,0) tid=(152,0,0)
GPGPU-Sim uArch: cycles simulated: 183000  inst.: 36170065 (ipc=197.7) sim_rate=228924 (inst/sec) elapsed = 0:0:02:38 / Tue Mar 22 13:05:06 2016
GPGPU-Sim uArch: cycles simulated: 184000  inst.: 36228357 (ipc=196.9) sim_rate=227851 (inst/sec) elapsed = 0:0:02:39 / Tue Mar 22 13:05:07 2016
GPGPU-Sim PTX: 36300000 instructions simulated : ctaid=(36,0,0) tid=(74,0,0)
GPGPU-Sim uArch: cycles simulated: 185000  inst.: 36302903 (ipc=196.2) sim_rate=226893 (inst/sec) elapsed = 0:0:02:40 / Tue Mar 22 13:05:08 2016
GPGPU-Sim PTX: 36400000 instructions simulated : ctaid=(23,0,0) tid=(397,0,0)
GPGPU-Sim uArch: cycles simulated: 186500  inst.: 36454688 (ipc=195.5) sim_rate=226426 (inst/sec) elapsed = 0:0:02:41 / Tue Mar 22 13:05:09 2016
GPGPU-Sim PTX: 36500000 instructions simulated : ctaid=(35,0,0) tid=(342,0,0)
GPGPU-Sim PTX: 36600000 instructions simulated : ctaid=(31,0,0) tid=(397,0,0)
GPGPU-Sim uArch: cycles simulated: 187500  inst.: 36570168 (ipc=195.0) sim_rate=225741 (inst/sec) elapsed = 0:0:02:42 / Tue Mar 22 13:05:10 2016
GPGPU-Sim PTX: 36700000 instructions simulated : ctaid=(30,0,0) tid=(339,0,0)
GPGPU-Sim uArch: cycles simulated: 188500  inst.: 36686832 (ipc=194.6) sim_rate=225072 (inst/sec) elapsed = 0:0:02:43 / Tue Mar 22 13:05:11 2016
GPGPU-Sim PTX: 36800000 instructions simulated : ctaid=(44,0,0) tid=(425,0,0)
GPGPU-Sim uArch: Shader 7 finished CTA #0 (189117,0), 2 CTAs running
GPGPU-Sim uArch: core:  7, cta: 0 initialized @(189118,0)
GPGPU-Sim uArch: cycles simulated: 189500  inst.: 36814440 (ipc=194.3) sim_rate=224478 (inst/sec) elapsed = 0:0:02:44 / Tue Mar 22 13:05:12 2016
GPGPU-Sim PTX: 36900000 instructions simulated : ctaid=(16,0,0) tid=(446,0,0)
GPGPU-Sim uArch: Shader 10 finished CTA #0 (190318,0), 2 CTAs running
GPGPU-Sim uArch: core: 10, cta: 0 initialized @(190319,0)
GPGPU-Sim uArch: Shader 4 finished CTA #0 (190702,0), 2 CTAs running
GPGPU-Sim uArch: core:  4, cta: 0 initialized @(190703,0)
GPGPU-Sim uArch: Shader 8 finished CTA #0 (190708,0), 2 CTAs running
GPGPU-Sim uArch: core:  8, cta: 0 initialized @(190709,0)
GPGPU-Sim PTX: 37000000 instructions simulated : ctaid=(37,0,0) tid=(9,0,0)
GPGPU-Sim uArch: Shader 13 finished CTA #0 (190995,0), 2 CTAs running
GPGPU-Sim uArch: core: 13, cta: 0 initialized @(190996,0)
GPGPU-Sim uArch: cycles simulated: 191000  inst.: 36955616 (ipc=193.5) sim_rate=223973 (inst/sec) elapsed = 0:0:02:45 / Tue Mar 22 13:05:13 2016
GPGPU-Sim uArch: Shader 2 finished CTA #0 (191033,0), 2 CTAs running
GPGPU-Sim uArch: core:  2, cta: 0 initialized @(191034,0)
GPGPU-Sim uArch: Shader 3 finished CTA #0 (191226,0), 2 CTAs running
GPGPU-Sim uArch: core:  3, cta: 0 initialized @(191227,0)
GPGPU-Sim uArch: Shader 0 finished CTA #0 (191335,0), 2 CTAs running
GPGPU-Sim uArch: core:  0, cta: 0 initialized @(191336,0)
GPGPU-Sim uArch: Shader 9 finished CTA #0 (191391,0), 2 CTAs running
GPGPU-Sim uArch: core:  9, cta: 0 initialized @(191392,0)
GPGPU-Sim PTX: 37100000 instructions simulated : ctaid=(38,0,0) tid=(67,0,0)
GPGPU-Sim uArch: Shader 12 finished CTA #0 (191670,0), 2 CTAs running
GPGPU-Sim uArch: core: 12, cta: 0 initialized @(191671,0)
GPGPU-Sim uArch: Shader 1 finished CTA #0 (191677,0), 2 CTAs running
GPGPU-Sim uArch: core:  1, cta: 0 initialized @(191678,0)
GPGPU-Sim uArch: Shader 5 finished CTA #0 (191808,0), 2 CTAs running
GPGPU-Sim uArch: core:  5, cta: 0 initialized @(191809,0)
GPGPU-Sim uArch: cycles simulated: 192000  inst.: 37096104 (ipc=193.2) sim_rate=223470 (inst/sec) elapsed = 0:0:02:46 / Tue Mar 22 13:05:14 2016
GPGPU-Sim PTX: 37200000 instructions simulated : ctaid=(39,0,0) tid=(30,0,0)
GPGPU-Sim uArch: Shader 11 finished CTA #0 (192526,0), 2 CTAs running
GPGPU-Sim uArch: core: 11, cta: 0 initialized @(192527,0)
GPGPU-Sim uArch: Shader 6 finished CTA #0 (192900,0), 2 CTAs running
GPGPU-Sim uArch: core:  6, cta: 0 initialized @(192901,0)
GPGPU-Sim uArch: cycles simulated: 193000  inst.: 37243521 (ipc=193.0) sim_rate=223015 (inst/sec) elapsed = 0:0:02:47 / Tue Mar 22 13:05:15 2016
GPGPU-Sim PTX: 37300000 instructions simulated : ctaid=(44,0,0) tid=(346,0,0)
GPGPU-Sim uArch: Shader 14 finished CTA #0 (193386,0), 2 CTAs running
GPGPU-Sim uArch: core: 14, cta: 0 initialized @(193387,0)
GPGPU-Sim PTX: 37400000 instructions simulated : ctaid=(37,0,0) tid=(366,0,0)
GPGPU-Sim uArch: Shader 7 finished CTA #1 (193638,0), 2 CTAs running
GPGPU-Sim uArch: core:  7, cta: 1 initialized @(193639,0)
GPGPU-Sim uArch: Shader 9 finished CTA #1 (193808,0), 2 CTAs running
GPGPU-Sim uArch: core:  9, cta: 1 initialized @(193809,0)
GPGPU-Sim uArch: Shader 3 finished CTA #1 (193908,0), 2 CTAs running
GPGPU-Sim uArch: core:  3, cta: 1 initialized @(193909,0)
GPGPU-Sim uArch: Shader 2 finished CTA #1 (194011,0), 2 CTAs running
GPGPU-Sim uArch: core:  2, cta: 1 initialized @(194012,0)
GPGPU-Sim PTX: 37500000 instructions simulated : ctaid=(63,0,0) tid=(214,0,0)
GPGPU-Sim uArch: Shader 4 finished CTA #1 (194340,0), 2 CTAs running
GPGPU-Sim uArch: core:  4, cta: 1 initialized @(194341,0)
GPGPU-Sim uArch: Shader 1 finished CTA #1 (194356,0), 2 CTAs running
GPGPU-Sim uArch: core:  1, cta: 1 initialized @(194357,0)
GPGPU-Sim uArch: cycles simulated: 194500  inst.: 37541299 (ipc=193.0) sim_rate=223460 (inst/sec) elapsed = 0:0:02:48 / Tue Mar 22 13:05:16 2016
GPGPU-Sim uArch: Shader 8 finished CTA #1 (194535,0), 2 CTAs running
GPGPU-Sim uArch: core:  8, cta: 1 initialized @(194536,0)
GPGPU-Sim PTX: 37600000 instructions simulated : ctaid=(37,0,0) tid=(298,0,0)
GPGPU-Sim uArch: Shader 10 finished CTA #1 (194850,0), 2 CTAs running
GPGPU-Sim uArch: core: 10, cta: 1 initialized @(194851,0)
GPGPU-Sim PTX: 37700000 instructions simulated : ctaid=(37,0,0) tid=(352,0,0)
GPGPU-Sim uArch: Shader 0 finished CTA #1 (195073,0), 2 CTAs running
[...]
traffic_breakdown_coretomem[GLOBAL_ACC_W] = 4514512 {40:10327,72:1856,136:29175,}
traffic_breakdown_coretomem[INST_ACC_R] = 840 {8:105,}
traffic_breakdown_memtocore[CONST_ACC_R] = 1080 {72:15,}
traffic_breakdown_memtocore[GLOBAL_ACC_R] = 159943752 {136:1176057,}
traffic_breakdown_memtocore[GLOBAL_ACC_W] = 330864 {8:41358,}
traffic_breakdown_memtocore[INST_ACC_R] = 14280 {136:105,}
maxmrqlatency = 554 
maxdqlatency = 0 
maxmflatency = 1211 
averagemflatency = 322 
max_icnt2mem_latency = 693 
max_icnt2sh_latency = 1461736 
mrq_lat_table:612846 	42101 	54650 	132858 	186800 	76907 	32801 	7168 	409 	1 	0 	0 	0 	0 	0 	0 	0 	0 	0 	0 	0 	0 	0 	0 	0 	0 	0 	0 	0 	0 	0 	0 	
dq_lat_table:0 	0 	0 	0 	0 	0 	0 	0 	0 	0 	0 	0 	0 	0 	0 	0 	0 	0 	0 	0 	0 	0 	0 	0 	0 	0 	0 	0 	0 	0 	0 	0 	
mf_lat_table:0 	0 	0 	0 	0 	0 	0 	27063 	1153647 	36702 	18 	0 	0 	0 	0 	0 	0 	0 	0 	0 	0 	0 	0 	0 	0 	0 	0 	0 	0 	0 	0 	0 	
icnt2mem_lat_table:0 	0 	0 	1079320 	21075 	28633 	45608 	30848 	11777 	274 	0 	0 	0 	0 	0 	0 	0 	0 	0 	0 	0 	0 	0 	0 	
icnt2sh_lat_table:0 	0 	0 	278602 	656568 	235479 	5411 	12 	0 	0 	0 	0 	0 	0 	0 	0 	0 	7257 	10967 	16494 	6640 	0 	0 	0 	
mf_lat_pw_table:0 	0 	0 	0 	0 	0 	0 	16 	2903 	2 	0 	0 	0 	0 	0 	0 	0 	0 	0 	0 	0 	0 	0 	0 	0 	0 	0 	0 	0 	0 	0 	0 	
maximum concurrent accesses to same row:
dram[0]:        32        32        28        32        42        58        27        27        32        34        42        52        32        32        30        32 
dram[1]:        32        32        26        32        42        52        22        27        48        48        42        50        32        32        30        32 
dram[2]:        32        32        30        28        48        42        29        32        34        42        52        44        32        32        32        32 
dram[3]:        32        32        32        26        48        42        22        32        38        58        52        44        32        32        32        28 
dram[4]:        32        31        30        28        44        42        27        32        34        32        52        44        32        32        32        28 
dram[5]:        32        32        30        26        60        42        27        32        64        34        52        45        32        25        32        28 
maximum service time to same row:
dram[0]:    174743    175354     86913     86405    160697    159896    174407    174540     86927     85245     80904     81300     94371    166540     81891     82417 
dram[1]:     96306    175257     86872     80332    161045    161156    174391    174447     87196     85847     81391     81851     93439     94153     81898     82387 
dram[2]:    173982    175071     87060     84950    160958    161704    174351    170951     87076     87053     80919     81458     93347     93340     81907     80858 
dram[3]:    175238    175047     86428     86443    160329    161812    174337    174301     87212     86780     80757     82425     93319     93300     81109     82395 
dram[4]:    175413    175257     85924     85612    161111    160728    174513    174294     85703     86726     81281     81389     94356     94849     84772     82209 
dram[5]:    175354    175231     86379     84880    159285    161199    174501    174287     85847     87019     82497     82250     94323     94487     85250     81644 
average row accesses per activate:
dram[0]:  2.252522  2.443364  2.432597  2.836550  3.138624  3.243983  1.980852  2.079357  5.341124  5.517178  2.258095  2.309686  2.375803  2.337611  4.500000  4.330651 
dram[1]:  2.079020  2.484349  2.993717  2.345243  3.099268  3.119411  1.991130  2.349595  5.142363  4.581727  2.401053  2.292070  2.483431  2.118826  4.253592  4.296081 
dram[2]:  2.005817  2.401914  2.814832  2.891209  3.190694  3.017540  1.972476  1.809916  5.204556  6.243172  2.307183  2.174711  2.346878  2.534774  3.909901  3.496753 
dram[3]:  2.097425  2.343781  2.611878  3.072793  3.095798  2.892596  1.859306  1.932435  4.468597  5.513915  2.471741  2.222431  2.340384  2.476997  3.960535  4.098996 
dram[4]:  2.205748  2.442238  2.984203  2.894942  2.719395  2.706661  2.069950  2.034017  5.459348  5.496300  2.492114  2.340047  2.056708  2.446281  4.868421  4.203408 
dram[5]:  2.273774  2.616070  2.790436  2.734038  3.140890  2.856077  2.048365  1.749045  4.892549  4.798869  2.234684  2.412459  2.363473  2.109734  4.732214  3.824935 
average row locality = 1146541/420611 = 2.725894
number of total memory accesses made:
dram[0]:         0         0         0         0         0         0         0         0         0         0         0         0         0         0         0         0 
dram[1]:         0         0         0         0         0         0         0         0         0         0         0         0         0         0         0         0 
dram[2]:         0         0         0         0         0         0         0         0         0         0         0         0         0         0         0         0 
dram[3]:         0         0         0         0         0         0         0         0         0         0         0         0         0         0         0         0 
dram[4]:         0         0         0         0         0         0         0         0         0         0         0         0         0         0         0         0 
dram[5]:         0         0         0         0         0         0         0         0         0         0         0         0         0         0         0         0 
total accesses: 0
min_bank_accesses = 0!
min_chip_accesses = 0!
number of total read accesses:
dram[0]:     11624     11620     12437     11572     11566     11562     11585     11584     11586     11584     11567     11563     11553     11552     11555     11552 
dram[1]:     11621     11622     11576     12338     11566     11562     11585     11584     11586     11585     11566     11562     11553     11552     11554     11552 
dram[2]:     11626     11618     11576     11573     11565     11571     11584     12428     11584     11589     11564     11562     11552     11557     11559     11559 
dram[3]:     11621     11617     11576     11572     11562     11577     12335     11586     11584     11590     11564     11562     11552     11557     11554     11554 
dram[4]:     11622     11618     11572     11574     11564     11566     11584     11587     11585     11585     11562     11562     12404     11552     11552     11553 
dram[5]:     11621     11620     11572     11573     11562     11567     11589     11592     11584     11584     11567     11562     11553     12305     11552     11554 
total reads: 1116055
bank skew: 12437/11552 = 1.08
chip skew: 186067/185957 = 1.00
number of total write accesses:
dram[0]:       436       438       339       333       298       298       312       312       298       300       288       288       288       288       289       288 
dram[1]:       429       442       336       331       298       298       312       312       298       300       288       288       288       288       288       288 
dram[2]:       443       430       342       333       298       300       312       312       298       298       288       288       288       288       288       288 
dram[3]:       435       423       342       332       298       300       312       312       298       298       288       288       288       288       288       288 
dram[4]:       428       432       329       330       298       300       312       312       300       298       288       288       290       288       288       288 
dram[5]:       430       427       332       331       298       300       312       312       300       298       288       288       288       288       288       288 
total reads: 30486
bank skew: 443/288 = 1.54
chip skew: 5094/5068 = 1.01
average mf latency per bank:
dram[0]:        323       310       499       335       344       334       326       319       347       344       335       322       331       330       352       352
dram[1]:        314       313       324       488       327       332       316       318       330       337       322       322       323       327       333       345
dram[2]:        313       327       326       337       332       344       319       497       334       352       323       332       323       346       344       353
dram[3]:        314       321       324       337       333       349       477       324       331       355       323       327       323       341       340       348
dram[4]:        322       318       334       331       341       339       326       321       342       343       332       326       498       329       347       349
dram[5]:        315       318       331       331       335       338       325       326       337       342       331       326       330       491       347       349
maximum mf latency per bank:
dram[0]:       1211       883       902      1005       912       883       977      1015       857       835      1057       876       926       970       949       893
dram[1]:        941       923       960       941       954       769       968       882       957       904       844       912       875       907       787       822
dram[2]:        981      1088       863      1184       878       930       915      1141       891       893       932      1135       926      1000       860       906
dram[3]:       1004      1031       921       934       909       905       870       905       860       907       973       894       969       931       838       970
dram[4]:        976       963      1000       977       968       919       960       943       820       833       885      1007      1046       886       839      1031
dram[5]:        898       903       939       986       866       900       814       863       811       955       845       853       996       974       867       877

Number of Memory Banks Accessed per Memory Operation per Warp (from 0):
0	0	0	0	0	0	0	0	0	0	0	0	0	0	0	0	0	0	0	0	0	0	0	0	0	0	0	0	0	0	0	0	0	0	0	0	0	0	0	0	0	0	0	0	0	0	0	0	0	0	0	0	0	0	0	0	0	0	0	0	0	0	0	0	0	0	0	0	0	0	0	0	0	0	0	0	0	0	0	0	0	0	0	0	0	0	0	0	0	0	0	0	0	0	0	0	
Average # of Memory Banks Accessed per Memory Operation per Warp=-nan

position of mrq chosen
0	0	0	0	0	0	0	0	0	0	0	0	0	0	0	0	

average position of mrq chosen = -nan
Memory Partition 0: 
Cache L2_bank_000:
MSHR contents

Cache L2_bank_001:
MSHR contents

In Dram Latency Queue (total = 0): 
DRAM[0]: 16 bks, busW=4 BL=8 CL=12, tRRD=2 tCCD=6, tRCD=12 tRAS=28 tRP=12 tRC=40
n_cmd=1929491 n_nop=1409269 n_act=69076 n_pre=69060 n_req=191155 n_rd=372124 n_write=9962 bw_util=0.396
n_activity=1482267 dram_eff=0.5155
bk0: 23248a 1684435i bk1: 23240a 1689863i bk2: 24874a 1675360i bk3: 23144a 1698685i bk4: 23132a 1716763i bk5: 23124a 1710217i bk6: 23170a 1655960i bk7: 23168a 1649866i bk8: 23172a 1753635i bk9: 23168a 1749868i bk10: 23134a 1676326i bk11: 23126a 1673740i bk12: 23106a 1681887i bk13: 23104a 1663911i bk14: 23110a 1704630i bk15: 23104a 1688809i 
dram_util_bins: 0 0 0 0 0 0 0 0 0 0
dram_eff_bins: 0 0 0 0 0 0 0 0 0 0
mrqq: max=16 avg=1.55312
Memory Partition 1: 
Cache L2_bank_002:
MSHR contents

Cache L2_bank_003:
MSHR contents

In Dram Latency Queue (total = 0): 
DRAM[1]: 16 bks, busW=4 BL=8 CL=12, tRRD=2 tCCD=6, tRCD=12 tRAS=28 tRP=12 tRC=40
n_cmd=1929491 n_nop=1408413 n_act=69609 n_pre=69593 n_req=191048 n_rd=371928 n_write=9948 bw_util=0.3958
n_activity=1487649 dram_eff=0.5134
bk0: 23242a 1676528i bk1: 23244a 1688796i bk2: 23152a 1717424i bk3: 24676a 1668610i bk4: 23132a 1718954i bk5: 23124a 1707015i bk6: 23170a 1661984i bk7: 23168a 1672008i bk8: 23172a 1756892i bk9: 23170a 1742263i bk10: 23132a 1691729i bk11: 23124a 1675611i bk12: 23106a 1687866i bk13: 23104a 1655037i bk14: 23108a 1708480i bk15: 23104a 1694181i 
dram_util_bins: 0 0 0 0 0 0 0 0 0 0
dram_eff_bins: 0 0 0 0 0 0 0 0 0 0
mrqq: max=16 avg=1.41701
Memory Partition 2: 
Cache L2_bank_004:
MSHR contents

Cache L2_bank_005:
MSHR contents

In Dram Latency Queue (total = 0): 
DRAM[2]: 16 bks, busW=4 BL=8 CL=12, tRRD=2 tCCD=6, tRCD=12 tRAS=28 tRP=12 tRC=40
n_cmd=1929491 n_nop=1405381 n_act=71016 n_pre=71000 n_req=191161 n_rd=372134 n_write=9960 bw_util=0.3961
n_activity=1485523 dram_eff=0.5144
bk0: 23252a 1666802i bk1: 23236a 1683547i bk2: 23152a 1707036i bk3: 23146a 1705044i bk4: 23130a 1723929i bk5: 23142a 1700284i bk6: 23168a 1655941i bk7: 24856a 1611393i bk8: 23168a 1751138i bk9: 23178a 1757430i bk10: 23128a 1687844i bk11: 23124a 1665303i bk12: 23104a 1680015i bk13: 23114a 1675030i bk14: 23118a 1700026i bk15: 23118a 1673786i 
dram_util_bins: 0 0 0 0 0 0 0 0 0 0
dram_eff_bins: 0 0 0 0 0 0 0 0 0 0
mrqq: max=16 avg=1.47075
Memory Partition 3: 
Cache L2_bank_006:
MSHR contents

Cache L2_bank_007:
MSHR contents

In Dram Latency Queue (total = 0): 
DRAM[3]: 16 bks, busW=4 BL=8 CL=12, tRRD=2 tCCD=6, tRCD=12 tRAS=28 tRP=12 tRC=40
n_cmd=1929491 n_nop=1405876 n_act=70880 n_pre=70864 n_req=191041 n_rd=371926 n_write=9945 bw_util=0.3958
n_activity=1486647 dram_eff=0.5137
bk0: 23242a 1677399i bk1: 23234a 1683877i bk2: 23152a 1697688i bk3: 23144a 1708287i bk4: 23124a 1717048i bk5: 23154a 1698243i bk6: 24670a 1629304i bk7: 23172a 1639526i bk8: 23168a 1740109i bk9: 23180a 1752728i bk10: 23128a 1692899i bk11: 23124a 1671162i bk12: 23104a 1679440i bk13: 23114a 1677402i bk14: 23108a 1699516i bk15: 23108a 1690040i 
dram_util_bins: 0 0 0 0 0 0 0 0 0 0
dram_eff_bins: 0 0 0 0 0 0 0 0 0 0
mrqq: max=16 avg=1.48205
Memory Partition 4: 
Cache L2_bank_008:
MSHR contents

Cache L2_bank_009:
MSHR contents

In Dram Latency Queue (total = 0): 
DRAM[4]: 16 bks, busW=4 BL=8 CL=12, tRRD=2 tCCD=6, tRCD=12 tRAS=28 tRP=12 tRC=40
n_cmd=1929491 n_nop=1408968 n_act=69259 n_pre=69243 n_req=191111 n_rd=372084 n_write=9937 bw_util=0.396
n_activity=1488162 dram_eff=0.5134
bk0: 23244a 1682112i bk1: 23236a 1691570i bk2: 23144a 1715031i bk3: 23148a 1707426i bk4: 23128a 1701082i bk5: 23132a 1687341i bk6: 23168a 1660485i bk7: 23174a 1647746i bk8: 23170a 1757234i bk9: 23170a 1750638i bk10: 23124a 1694930i bk11: 23124a 1679034i bk12: 24808a 1647065i bk13: 23104a 1671346i bk14: 23104a 1718120i bk15: 23106a 1685589i 
dram_util_bins: 0 0 0 0 0 0 0 0 0 0
dram_eff_bins: 0 0 0 0 0 0 0 0 0 0
mrqq: max=16 avg=1.51754
Memory Partition 5: 
Cache L2_bank_010:
MSHR contents

Cache L2_bank_011:
MSHR contents

In Dram Latency Queue (total = 0): 
DRAM[5]: 16 bks, busW=4 BL=8 CL=12, tRRD=2 tCCD=6, tRCD=12 tRAS=28 tRP=12 tRC=40
n_cmd=1929491 n_nop=1406119 n_act=70771 n_pre=70755 n_req=191025 n_rd=371914 n_write=9932 bw_util=0.3958
n_activity=1486353 dram_eff=0.5138
bk0: 23242a 1687612i bk1: 23240a 1697567i bk2: 23144a 1710280i bk3: 23146a 1699267i bk4: 23124a 1720134i bk5: 23134a 1694410i bk6: 23178a 1661742i bk7: 23184a 1619352i bk8: 23168a 1747460i bk9: 23168a 1737872i bk10: 23134a 1682802i bk11: 23124a 1679347i bk12: 23106a 1680839i bk13: 24610a 1632666i bk14: 23104a 1709963i bk15: 23108a 1677791i 
dram_util_bins: 0 0 0 0 0 0 0 0 0 0
dram_eff_bins: 0 0 0 0 0 0 0 0 0 0
mrqq: max=16 avg=1.50861

========= L2 cache stats =========
L2_cache_bank[0]: Access = 105545, Miss = 93473, Miss_rate = 0.886, Pending_hits = 1656, Reservation_fails = 54837
L2_cache_bank[1]: Access = 96993, Miss = 92589, Miss_rate = 0.955, Pending_hits = 22, Reservation_fails = 1975
L2_cache_bank[2]: Access = 97246, Miss = 92607, Miss_rate = 0.952, Pending_hits = 22, Reservation_fails = 1285
L2_cache_bank[3]: Access = 105279, Miss = 93357, Miss_rate = 0.887, Pending_hits = 1323, Reservation_fails = 47133
L2_cache_bank[4]: Access = 97458, Miss = 92610, Miss_rate = 0.950, Pending_hits = 41, Reservation_fails = 1304
L2_cache_bank[5]: Access = 106380, Miss = 93457, Miss_rate = 0.879, Pending_hits = 1670, Reservation_fails = 56318
L2_cache_bank[6]: Access = 105168, Miss = 93348, Miss_rate = 0.888, Pending_hits = 1304, Reservation_fails = 47111
L2_cache_bank[7]: Access = 98123, Miss = 92615, Miss_rate = 0.944, Pending_hits = 31, Reservation_fails = 2209
L2_cache_bank[8]: Access = 105407, Miss = 93445, Miss_rate = 0.887, Pending_hits = 1639, Reservation_fails = 53862
L2_cache_bank[9]: Access = 97174, Miss = 92597, Miss_rate = 0.953, Pending_hits = 17, Reservation_fails = 1963
L2_cache_bank[10]: Access = 97405, Miss = 92600, Miss_rate = 0.951, Pending_hits = 25, Reservation_fails = 2053
L2_cache_bank[11]: Access = 105357, Miss = 93357, Miss_rate = 0.886, Pending_hits = 1290, Reservation_fails = 48210
L2_total_cache_accesses = 1217535
L2_total_cache_misses = 1116055
L2_total_cache_miss_rate = 0.9167
L2_total_cache_pending_hits = 9040
L2_total_cache_reservation_fails = 318260
L2_total_cache_breakdown:
	L2_cache_stats_breakdown[GLOBAL_ACC_R][HIT] = 52291
	L2_cache_stats_breakdown[GLOBAL_ACC_R][HIT_RESERVED] = 8796
	L2_cache_stats_breakdown[GLOBAL_ACC_R][MISS] = 1114970
	L2_cache_stats_breakdown[GLOBAL_ACC_R][RESERVATION_FAIL] = 317585
	L2_cache_stats_breakdown[CONST_ACC_R][HIT] = 11
	L2_cache_stats_breakdown[CONST_ACC_R][HIT_RESERVED] = 3
	L2_cache_stats_breakdown[CONST_ACC_R][MISS] = 1
	L2_cache_stats_breakdown[CONST_ACC_R][RESERVATION_FAIL] = 109
	L2_cache_stats_breakdown[GLOBAL_ACC_W][HIT] = 40059
	L2_cache_stats_breakdown[GLOBAL_ACC_W][HIT_RESERVED] = 222
	L2_cache_stats_breakdown[GLOBAL_ACC_W][MISS] = 1077
	L2_cache_stats_breakdown[GLOBAL_ACC_W][RESERVATION_FAIL] = 52
	L2_cache_stats_breakdown[INST_ACC_R][HIT] = 79
	L2_cache_stats_breakdown[INST_ACC_R][HIT_RESERVED] = 19
	L2_cache_stats_breakdown[INST_ACC_R][MISS] = 7
	L2_cache_stats_breakdown[INST_ACC_R][RESERVATION_FAIL] = 514
L2_cache_data_port_util = 0.026
L2_cache_fill_port_util = 0.255

icnt_total_pkts_mem_to_simt=5922213
icnt_total_pkts_simt_to_mem=1348274
LD_mem_lat_dist  0 0 0 0 0 0 0 0 0 0 0 0 0 0 0 0 0 0 0 0 0 0 0 0 0 0 0
ST_mem_lat_dist  0 0 0 0 0 0 0 0 0 0 0 0 0 0 0 0 0 0 0 0 0 0 0 0 0 0 0
----------------------------Interconnect-DETAILS--------------------------------
Class 0:
Packet latency average = 15.4635
	minimum = 6
	maximum = 505
Network latency average = 12.7088
	minimum = 6
	maximum = 408
Slowest packet = 1521956
Flit latency average = 11.9002
	minimum = 6
	maximum = 408
Slowest flit = 4561297
Fragmentation average = 0.00821652
	minimum = 0
	maximum = 361
Injected packet rate average = 0.0608824
	minimum = 0.0511708 (at node 8)
	maximum = 0.07704 (at node 18)
Accepted packet rate average = 0.0608824
	minimum = 0.0511708 (at node 8)
	maximum = 0.07704 (at node 18)
Injected flit rate average = 0.182318
	minimum = 0.0542144 (at node 8)
	maximum = 0.380434 (at node 18)
Accepted flit rate average= 0.182318
	minimum = 0.0696151 (at node 23)
	maximum = 0.286051 (at node 11)
Injected packet length average = 2.99459
Accepted packet length average = 2.99459
Total in-flight flits = 0 (0 measured)
====== Overall Traffic Statistics ======
====== Traffic class 0 ======
Packet latency average = 17.2239 (2 samples)
	minimum = 6 (2 samples)
	maximum = 564 (2 samples)
Network latency average = 13.7435 (2 samples)
	minimum = 6 (2 samples)
	maximum = 464.5 (2 samples)
Flit latency average = 12.4074 (2 samples)
	minimum = 6 (2 samples)
	maximum = 464.5 (2 samples)
Fragmentation average = 0.0148577 (2 samples)
	minimum = 0 (2 samples)
	maximum = 388 (2 samples)
Injected packet rate average = 0.0616781 (2 samples)
	minimum = 0.0518666 (2 samples)
	maximum = 0.0781844 (2 samples)
Accepted packet rate average = 0.0616781 (2 samples)
	minimum = 0.0518666 (2 samples)
	maximum = 0.0781844 (2 samples)
Injected flit rate average = 0.184169 (2 samples)
	minimum = 0.0573746 (2 samples)
	maximum = 0.381676 (2 samples)
Accepted flit rate average = 0.184169 (2 samples)
	minimum = 0.0735874 (2 samples)
	maximum = 0.285656 (2 samples)
Injected packet size average = 2.98596 (2 samples)
Accepted packet size average = 2.98596 (2 samples)
Hops average = 1 (2 samples)
----------------------------END-of-Interconnect-DETAILS-------------------------
GPGPU-Sim API: Stream Manager State
