

        *** GPGPU-Sim Simulator Version 3.2.2  [build 0] ***


GPGPU-Sim PTX: simulation mode 0 (can change with PTX_SIM_MODE_FUNC environment variable:
               1=functional simulation only, 0=detailed performance simulator)
GPGPU-Sim: Configuration options:

-network_mode                           1 # Interconnection network mode
-inter_config_file   config_fermi_islip.icnt # Interconnection network config file
-gpgpu_ptx_use_cuobjdump                    1 # Use cuobjdump to extract ptx and sass from binaries
-gpgpu_experimental_lib_support                    0 # Try to extract code from cuda libraries [Broken because of unknown cudaGetExportTable]
-gpgpu_ptx_convert_to_ptxplus                    0 # Convert SASS (native ISA) to ptxplus and run ptxplus
-gpgpu_ptx_force_max_capability                   20 # Force maximum compute capability
-gpgpu_ptx_inst_debug_to_file                    0 # Dump executed instructions' debug information to file
-gpgpu_ptx_inst_debug_file       inst_debug.txt # Executed instructions' debug output file
-gpgpu_ptx_inst_debug_thread_uid                    1 # Thread UID for executed instructions' debug output
-gpgpu_simd_model                       1 # 1 = post-dominator
-gpgpu_shader_core_pipeline              1536:32 # shader core pipeline config, i.e., {<nthread>:<warpsize>}
-gpgpu_tex_cache:l1  4:128:24,L:R:m:N:L,F:128:4,128:2 # per-shader L1 texture cache  (READ-ONLY) config  {<nsets>:<bsize>:<assoc>,<rep>:<wr>:<alloc>:<wr_alloc>,<mshr>:<N>:<merge>,<mq>:<rf>}
-gpgpu_const_cache:l1 64:64:2,L:R:f:N:L,A:2:32,4 # per-shader L1 constant memory cache  (READ-ONLY) config  {<nsets>:<bsize>:<assoc>,<rep>:<wr>:<alloc>:<wr_alloc>,<mshr>:<N>:<merge>,<mq>} 
-gpgpu_cache:il1     4:128:4,L:R:f:N:L,A:2:32,4 # shader L1 instruction cache config  {<nsets>:<bsize>:<assoc>,<rep>:<wr>:<alloc>:<wr_alloc>,<mshr>:<N>:<merge>,<mq>} 
-gpgpu_cache:dl1     32:128:4,L:L:m:N:H,A:32:8,8:2,0,1:0:1:1:0:1,1:4:8:16:32:64,/sciclone/data10/hwang07/GPU_RESEARCH/swl/swl_outputs/RESULTS/twolevel601/ # per-shader L1 data cache config  {<nsets>:<bsize>:<assoc>,<rep>:<wr>:<alloc>:<wr_alloc>,<mshr>:<N>:<merge>,<mq> | none}
-gpgpu_cache:dl1PrefL1                 none # per-shader L1 data cache config  {<nsets>:<bsize>:<assoc>,<rep>:<wr>:<alloc>:<wr_alloc>,<mshr>:<N>:<merge>,<mq> | none}
-gpgpu_cache:dl1PreShared                 none # per-shader L1 data cache config  {<nsets>:<bsize>:<assoc>,<rep>:<wr>:<alloc>:<wr_alloc>,<mshr>:<N>:<merge>,<mq> | none}
-gmem_skip_L1D                          0 # global memory access skip L1D cache (implements -Xptxas -dlcm=cg, default=no skip)
-gpgpu_perfect_mem                      0 # enable perfect memory mode (no cache miss)
-n_regfile_gating_group                    4 # group of lanes that should be read/written together)
-gpgpu_clock_gated_reg_file                    0 # enable clock gated reg file for power calculations
-gpgpu_clock_gated_lanes                    0 # enable clock gated lanes for power calculations
-gpgpu_shader_registers                32768 # Number of registers per shader core. Limits number of concurrent CTAs. (default 8192)
-gpgpu_shader_cta                       8 # Maximum number of concurrent CTAs in shader (default 8)
-gpgpu_num_cta_barriers                   16 # Maximum number of named barriers per CTA (default 16)
-gpgpu_n_clusters                      15 # number of processing clusters
-gpgpu_n_cores_per_cluster                    1 # number of simd cores per cluster
-gpgpu_n_cluster_ejection_buffer_size                    8 # number of packets in ejection buffer
-gpgpu_n_ldst_response_buffer_size                    2 # number of response packets in ld/st unit ejection buffer
-gpgpu_shmem_size                   16384 # Size of shared memory per shader core (default 16kB)
-gpgpu_shmem_size                   49152 # Size of shared memory per shader core (default 16kB)
-gpgpu_shmem_size_PrefL1                16384 # Size of shared memory per shader core (default 16kB)
-gpgpu_shmem_size_PrefShared                16384 # Size of shared memory per shader core (default 16kB)
-gpgpu_shmem_num_banks                   32 # Number of banks in the shared memory in each shader core (default 16)
-gpgpu_shmem_limited_broadcast                    0 # Limit shared memory to do one broadcast per cycle (default on)
-gpgpu_shmem_warp_parts                    1 # Number of portions a warp is divided into for shared memory bank conflict check 
-gpgpu_warpdistro_shader                   -1 # Specify which shader core to collect the warp size distribution from
-gpgpu_warp_issue_shader                    0 # Specify which shader core to collect the warp issue distribution from
-gpgpu_local_mem_map                    1 # Mapping from local memory space address to simulated GPU physical address space (default = enabled)
-gpgpu_num_reg_banks                   16 # Number of register banks (default = 8)
-gpgpu_reg_bank_use_warp_id                    0 # Use warp ID in mapping registers to banks (default = off)
-gpgpu_operand_collector_num_units_sp                    6 # number of collector units (default = 4)
-gpgpu_operand_collector_num_units_sfu                    8 # number of collector units (default = 4)
-gpgpu_operand_collector_num_units_mem                    2 # number of collector units (default = 2)
-gpgpu_operand_collector_num_units_gen                    0 # number of collector units (default = 0)
-gpgpu_operand_collector_num_in_ports_sp                    2 # number of collector unit in ports (default = 1)
-gpgpu_operand_collector_num_in_ports_sfu                    1 # number of collector unit in ports (default = 1)
-gpgpu_operand_collector_num_in_ports_mem                    1 # number of collector unit in ports (default = 1)
-gpgpu_operand_collector_num_in_ports_gen                    0 # number of collector unit in ports (default = 0)
-gpgpu_operand_collector_num_out_ports_sp                    2 # number of collector unit in ports (default = 1)
-gpgpu_operand_collector_num_out_ports_sfu                    1 # number of collector unit in ports (default = 1)
-gpgpu_operand_collector_num_out_ports_mem                    1 # number of collector unit in ports (default = 1)
-gpgpu_operand_collector_num_out_ports_gen                    0 # number of collector unit in ports (default = 0)
-gpgpu_coalesce_arch                   13 # Coalescing arch (default = 13, anything else is off for now)
-gpgpu_num_sched_per_core                    2 # Number of warp schedulers per core
-gpgpu_max_insn_issue_per_warp                    1 # Max number of instructions that can be issued per warp in one cycle by scheduler
-gpgpu_simt_core_sim_order                    1 # Select the simulation order of cores in a cluster (0=Fix, 1=Round-Robin)
-gpgpu_pipeline_widths        2,1,1,2,1,1,2 # Pipeline widths ID_OC_SP,ID_OC_SFU,ID_OC_MEM,OC_EX_SP,OC_EX_SFU,OC_EX_MEM,EX_WB
-gpgpu_num_sp_units                     2 # Number of SP units (default=1)
-gpgpu_num_sfu_units                    1 # Number of SF units (default=1)
-gpgpu_num_mem_units                    1 # Number if ldst units (default=1) WARNING: not hooked up to anything
-gpgpu_scheduler     two_level_active:6:0:1 # Scheduler configuration: < lrr | gto | two_level_active > If two_level_active:<num_active_warps>:<inner_prioritization>:<outer_prioritization>For complete list of prioritization values see shader.h enum scheduler_prioritization_typeDefault: gto
-gpgpu_dram_scheduler                    1 # 0 = fifo, 1 = FR-FCFS (defaul)
-gpgpu_dram_partition_queues              8:8:8:8 # i2$:$2d:d2$:$2i
-l2_ideal                               0 # Use a ideal L2 cache that always hit
-gpgpu_cache:dl2     64:128:8,L:B:m:W:L,A:32:4,4:0,32 # unified banked L2 data cache config  {<nsets>:<bsize>:<assoc>,<rep>:<wr>:<alloc>:<wr_alloc>,<mshr>:<N>:<merge>,<mq>}
-gpgpu_cache:dl2_texture_only                    0 # L2 cache used for texture only
-gpgpu_n_mem                            6 # number of memory modules (e.g. memory controllers) in gpu
-gpgpu_n_sub_partition_per_mchannel                    2 # number of memory subpartition in each memory module
-gpgpu_n_mem_per_ctrlr                    2 # number of memory chips per memory controller
-gpgpu_memlatency_stat                   14 # track and display latency statistics 0x2 enables MC, 0x4 enables queue logs
-gpgpu_frfcfs_dram_sched_queue_size                   16 # 0 = unlimited (default); # entries per chip
-gpgpu_dram_return_queue_size                  116 # 0 = unlimited (default); # entries per chip
-gpgpu_dram_buswidth                    4 # default = 4 bytes (8 bytes per cycle at DDR)
-gpgpu_dram_burst_length                    8 # Burst length of each DRAM request (default = 4 data bus cycle)
-dram_data_command_freq_ratio                    4 # Frequency ratio between DRAM data bus and command bus (default = 2 times, i.e. DDR)
-gpgpu_dram_timing_opt nbk=16:CCD=2:RRD=6:RCD=12:RAS=28:RP=12:RC=40: CL=12:WL=4:CDLR=5:WR=12:nbkgrp=4:CCDL=3:RTPL=2 # DRAM timing parameters = {nbk:tCCD:tRRD:tRCD:tRAS:tRP:tRC:CL:WL:tCDLR:tWR:nbkgrp:tCCDL:tRTPL}
-rop_latency                          120 # ROP queue latency (default 85)
-dram_latency                         100 # DRAM latency (default 30)
-gpgpu_mem_addr_mapping dramid@8;00000000.00000000.00000000.00000000.0000RRRR.RRRRRRRR.BBBCCCCB.CCSSSSSS # mapping memory address to dram model {dramid@<start bit>;<memory address map>}
-gpgpu_mem_addr_test                    0 # run sweep test to check address mapping for aliased address
-gpgpu_mem_address_mask                    1 # 0 = old addressing mask, 1 = new addressing mask, 2 = new add. mask + flipped bank sel and chip sel bits
-gpuwattch_xml_file  gpuwattch_gtx480.xml # GPUWattch XML file
-power_simulation_enabled                    0 # Turn on power simulator (1=On, 0=Off)
-power_per_cycle_dump                    0 # Dump detailed power output each cycle
-power_trace_enabled                    0 # produce a file for the power trace (1=On, 0=Off)
-power_trace_zlevel                     6 # Compression level of the power trace output log (0=no comp, 9=highest)
-steady_power_levels_enabled                    0 # produce a file for the steady power levels (1=On, 0=Off)
-steady_state_definition                  8:4 # allowed deviation:number of samples
-gpgpu_max_cycle                        0 # terminates gpu simulation early (0 = no limit)
-gpgpu_max_insn                         0 # terminates gpu simulation early (0 = no limit)
-gpgpu_max_cta                          0 # terminates gpu simulation early (0 = no limit)
-gpgpu_runtime_stat                   500 # display runtime statistics such as dram utilization {<freq>:<flag>}
-liveness_message_freq                    1 # Minimum number of seconds between simulation liveness messages (0 = always print)
-gpgpu_flush_l1_cache                    0 # Flush L1 cache at the end of each kernel call
-gpgpu_flush_l2_cache                    0 # Flush L2 cache at the end of each kernel call
-gpgpu_deadlock_detect                    1 # Stop the simulation at deadlock (1=on (default), 0=off)
-gpgpu_ptx_instruction_classification                    0 # if enabled will classify ptx instruction types per kernel (Max 255 kernels now)
-gpgpu_ptx_sim_mode                     0 # Select between Performance (default) or Functional simulation (1)
-gpgpu_clock_domains 700.0:700.0:700.0:924.0 # Clock Domain Frequencies in MhZ {<Core Clock>:<ICNT Clock>:<L2 Clock>:<DRAM Clock>}
-gpgpu_max_concurrent_kernel                    8 # maximum kernels that can run concurrently on GPU
-gpgpu_cflog_interval                    0 # Interval between each snapshot in control flow logger
-visualizer_enabled                     0 # Turn on visualizer output (1=On, 0=Off)
-visualizer_outputfile                 NULL # Specifies the output log file for visualizer
-visualizer_zlevel                      6 # Compression level of the visualizer output log (0=no comp, 9=highest)
-trace_enabled                          0 # Turn on traces
-trace_components                    none # comma seperated list of traces to enable. Complete list found in trace_streams.tup. Default none
-trace_sampling_core                    0 # The core which is printed using CORE_DPRINTF. Default 0
-trace_sampling_memory_partition                   -1 # The memory partition which is printed using MEMPART_DPRINTF. Default -1 (i.e. all)
-enable_ptx_file_line_stats                    1 # Turn on PTX source line statistic profiling. (1 = On)
-ptx_line_stats_filename gpgpu_inst_stats.txt # Output file for PTX source line statistics.
-save_embedded_ptx                      0 # saves ptx files embedded in binary as <n>.ptx
-keep                                   0 # keep intermediate files created by GPGPU-Sim when interfacing with external programs
-gpgpu_ptx_save_converted_ptxplus                    0 # Saved converted ptxplus to a file
-ptx_opcode_latency_int         4,13,4,5,145 # Opcode latencies for integers <ADD,MAX,MUL,MAD,DIV>Default 1,1,19,25,145
-ptx_opcode_latency_fp          4,13,4,5,39 # Opcode latencies for single precision floating points <ADD,MAX,MUL,MAD,DIV>Default 1,1,1,1,30
-ptx_opcode_latency_dp         8,19,8,8,330 # Opcode latencies for double precision floating points <ADD,MAX,MUL,MAD,DIV>Default 8,8,8,8,335
-ptx_opcode_initiation_int            1,2,2,1,8 # Opcode initiation intervals for integers <ADD,MAX,MUL,MAD,DIV>Default 1,1,4,4,32
-ptx_opcode_initiation_fp            1,2,1,1,4 # Opcode initiation intervals for single precision floating points <ADD,MAX,MUL,MAD,DIV>Default 1,1,1,1,5
-ptx_opcode_initiation_dp         8,16,8,8,130 # Opcode initiation intervals for double precision floating points <ADD,MAX,MUL,MAD,DIV>Default 8,8,8,8,130
DRAM Timing Options:
nbk                                    16 # number of banks
CCD                                     2 # column to column delay
RRD                                     6 # minimal delay between activation of rows in different banks
RCD                                    12 # row to column delay
RAS                                    28 # time needed to activate row
RP                                     12 # time needed to precharge (deactivate) row
RC                                     40 # row cycle time
CDLR                                    5 # switching from write to read (changes tWTR)
WR                                     12 # last data-in to row precharge
CL                                     12 # CAS latency
WL                                      4 # Write latency
nbkgrp                                  4 # number of bank groups
CCDL                                    3 # column to column delay between accesses to different bank groups
RTPL                                    2 # read to precharge delay between accesses to different bank groups
Total number of memory sub partition = 12
addr_dec_mask[CHIP]  = 0000000000000000 	high:64 low:0
addr_dec_mask[BK]    = 000000000000e100 	high:16 low:8
addr_dec_mask[ROW]   = 000000000fff0000 	high:28 low:16
addr_dec_mask[COL]   = 0000000000001eff 	high:13 low:0
addr_dec_mask[BURST] = 000000000000003f 	high:6 low:0
sub_partition_id_mask = 0000000000000100
GPGPU-Sim uArch: clock freqs: 700000000.000000:700000000.000000:700000000.000000:924000000.000000
GPGPU-Sim uArch: clock periods: 0.00000000142857142857:0.00000000142857142857:0.00000000142857142857:0.00000000108225108225
*** Initializing Memory Statistics ***
GPGPU-Sim uArch: interconnect node map (shaderID+MemID to icntID)
GPGPU-Sim uArch: Memory nodes ID start from index: 15
GPGPU-Sim uArch:    0   1   2   3   4
GPGPU-Sim uArch:    5   6   7   8   9
GPGPU-Sim uArch:   10  11  12  13  14
GPGPU-Sim uArch:   15  16  17  18  19
GPGPU-Sim uArch:   20  21  22  23  24
GPGPU-Sim uArch:   25  26
GPGPU-Sim uArch: interconnect node reverse map (icntID to shaderID+MemID)
GPGPU-Sim uArch: Memory nodes start from ID: 15
GPGPU-Sim uArch:    0   1   2   3   4
GPGPU-Sim uArch:    5   6   7   8   9
GPGPU-Sim uArch:   10  11  12  13  14
GPGPU-Sim uArch:   15  16  17  18  19
GPGPU-Sim uArch:   20  21  22  23  24
GPGPU-Sim uArch:   25  26
2bc880a935f4074ba9e1a2d386c7af85  /sciclone/data10/hwang07/adwait/applications/benchmarks/CUDA/LPS/gpgpu_ptx_sim__LPS
GPGPU-Sim uArch: performance model initialization complete.
GPGPU-Sim PTX: __cudaRegisterFatBinary, fat_cubin_handle = 1, filename=laplace3d.cu
self exe links to: /sciclone/data10/hwang07/adwait/applications/benchmarks/CUDA/LPS/gpgpu_ptx_sim__LPS
Running md5sum using "md5sum /sciclone/data10/hwang07/adwait/applications/benchmarks/CUDA/LPS/gpgpu_ptx_sim__LPS "
Parsing file _cuobjdump_complete_output_WeuDBZ
######### cuobjdump parser ########
## Adding new section ELF
Adding arch: sm_20
Adding identifier: laplace3d.cu
## Adding new section PTX
Adding ptx filename: _cuobjdump_1.ptx
Adding arch: sm_20
Adding identifier: laplace3d.cu
Done parsing!!!
GPGPU-Sim PTX: __cudaRegisterFunction _Z13GPU_laplace3diiiiPfS_ : hostFun 0x0x405cf4, fat_cubin_handle = 1
GPGPU-Sim PTX: allocating shared region for "__cuda___cuda_local_var_32996_33_non_const_u132" from 0x0 to 0x990 (shared memory space)
GPGPU-Sim PTX: instruction assembly for function '_Z13GPU_laplace3diiiiPfS_'...   done.
GPGPU-Sim PTX: finding reconvergence points for '_Z13GPU_laplace3diiiiPfS_'...
GPGPU-Sim PTX: Finding dominators for '_Z13GPU_laplace3diiiiPfS_'...
GPGPU-Sim PTX: Finding immediate dominators for '_Z13GPU_laplace3diiiiPfS_'...
GPGPU-Sim PTX: Finding postdominators for '_Z13GPU_laplace3diiiiPfS_'...
GPGPU-Sim PTX: Finding immediate postdominators for '_Z13GPU_laplace3diiiiPfS_'...
GPGPU-Sim PTX: pre-decoding instructions for '_Z13GPU_laplace3diiiiPfS_'...
GPGPU-Sim PTX: reconvergence points for _Z13GPU_laplace3diiiiPfS_...
GPGPU-Sim PTX:  1 (potential) branch divergence @  PC=0x060 (_1.ptx:82) @!%p1 bra $Lt_0_14338;
GPGPU-Sim PTX:    immediate post dominator      @  PC=0x230 (_1.ptx:154) add.s32 %r57, %r37, %r12;
GPGPU-Sim PTX:  2 (potential) branch divergence @  PC=0x080 (_1.ptx:86) @%p2 bra $Lt_0_14850;
GPGPU-Sim PTX:    immediate post dominator      @  PC=0x120 (_1.ptx:113) add.s32 %r30, %r16, 1;
GPGPU-Sim PTX:  3 (potential) branch divergence @  PC=0x0a0 (_1.ptx:92) bra.uni $Lt_0_14594;
GPGPU-Sim PTX:    immediate post dominator      @  PC=0x120 (_1.ptx:113) add.s32 %r30, %r16, 1;
GPGPU-Sim PTX:  4 (potential) branch divergence @  PC=0x200 (_1.ptx:145) bra.uni $Lt_0_14082;
GPGPU-Sim PTX:    immediate post dominator      @  PC=0x230 (_1.ptx:154) add.s32 %r57, %r37, %r12;
GPGPU-Sim PTX:  5 (potential) branch divergence @  PC=0x290 (_1.ptx:166) @%p5 bra $Lt_0_15106;
GPGPU-Sim PTX:    immediate post dominator      @  PC=0x308 (_1.ptx:183) mov.u64 %rd1, __cuda___cuda_local_var_32996_33_non_const_u132;
GPGPU-Sim PTX:  6 (potential) branch divergence @  PC=0x320 (_1.ptx:186) @!%p6 bra $Lt_0_15618;
GPGPU-Sim PTX:    immediate post dominator      @  PC=0x380 (_1.ptx:200) ld.param.s32 %r73, [__cudaparm__Z13GPU_laplace3diiiiPfS__NZ];
GPGPU-Sim PTX:  7 (potential) branch divergence @  PC=0x398 (_1.ptx:203) @%p7 bra $Lt_0_16130;
GPGPU-Sim PTX:    immediate post dominator      @  PC=0x6d8 (_1.ptx:335) exit;
GPGPU-Sim PTX:  8 (potential) branch divergence @  PC=0x408 (_1.ptx:219) @%p8 bra $Lt_0_17410;
GPGPU-Sim PTX:    immediate post dominator      @  PC=0x4a0 (_1.ptx:245) @!%p6 bra $Lt_0_18434;
GPGPU-Sim PTX:  9 (potential) branch divergence @  PC=0x468 (_1.ptx:235) @%p9 bra $Lt_0_17410;
GPGPU-Sim PTX:    immediate post dominator      @  PC=0x4a0 (_1.ptx:245) @!%p6 bra $Lt_0_18434;
GPGPU-Sim PTX: 10 (potential) branch divergence @  PC=0x4a0 (_1.ptx:245) @!%p6 bra $Lt_0_18434;
GPGPU-Sim PTX:    immediate post dominator      @  PC=0x548 (_1.ptx:273) bar.sync 0;
GPGPU-Sim PTX: 11 (potential) branch divergence @  PC=0x510 (_1.ptx:262) @%p10 bra $Lt_0_18434;
GPGPU-Sim PTX:    immediate post dominator      @  PC=0x548 (_1.ptx:273) bar.sync 0;
GPGPU-Sim PTX: 12 (potential) branch divergence @  PC=0x560 (_1.ptx:276) @%p11 bra $Lt_0_18946;
GPGPU-Sim PTX:    immediate post dominator      @  PC=0x6b8 (_1.ptx:329) bar.sync 0;
GPGPU-Sim PTX: 13 (potential) branch divergence @  PC=0x578 (_1.ptx:280) @%p12 bra $Lt_0_20738;
GPGPU-Sim PTX:    immediate post dominator      @  PC=0x688 (_1.ptx:321) ld.param.u64 %rd35, [__cudaparm__Z13GPU_laplace3diiiiPfS__d_u2];
GPGPU-Sim PTX: 14 (potential) branch divergence @  PC=0x588 (_1.ptx:282) @%p13 bra $Lt_0_20738;
GPGPU-Sim PTX:    immediate post dominator      @  PC=0x688 (_1.ptx:321) ld.param.u64 %rd35, [__cudaparm__Z13GPU_laplace3diiiiPfS__d_u2];
GPGPU-Sim PTX: 15 (potential) branch divergence @  PC=0x5a0 (_1.ptx:285) @%p14 bra $Lt_0_20738;
GPGPU-Sim PTX:    immediate post dominator      @  PC=0x688 (_1.ptx:321) ld.param.u64 %rd35, [__cudaparm__Z13GPU_laplace3diiiiPfS__d_u2];
GPGPU-Sim PTX: 16 (potential) branch divergence @  PC=0x5b0 (_1.ptx:287) @%p15 bra $Lt_0_20738;
GPGPU-Sim PTX:    immediate post dominator      @  PC=0x688 (_1.ptx:321) ld.param.u64 %rd35, [__cudaparm__Z13GPU_laplace3diiiiPfS__d_u2];
GPGPU-Sim PTX: 17 (potential) branch divergence @  PC=0x5c8 (_1.ptx:290) @%p16 bra $Lt_0_20738;
GPGPU-Sim PTX:    immediate post dominator      @  PC=0x688 (_1.ptx:321) ld.param.u64 %rd35, [__cudaparm__Z13GPU_laplace3diiiiPfS__d_u2];
GPGPU-Sim PTX: 18 (potential) branch divergence @  PC=0x5d8 (_1.ptx:292) @%p17 bra $L_0_12546;
GPGPU-Sim PTX:    immediate post dominator      @  PC=0x688 (_1.ptx:321) ld.param.u64 %rd35, [__cudaparm__Z13GPU_laplace3diiiiPfS__d_u2];
GPGPU-Sim PTX: 19 (potential) branch divergence @  PC=0x600 (_1.ptx:300) bra.uni $L_0_12290;
GPGPU-Sim PTX:    immediate post dominator      @  PC=0x688 (_1.ptx:321) ld.param.u64 %rd35, [__cudaparm__Z13GPU_laplace3diiiiPfS__d_u2];
GPGPU-Sim PTX: 20 (potential) branch divergence @  PC=0x6d0 (_1.ptx:332) @%p18 bra $Lt_0_16642;
GPGPU-Sim PTX:    immediate post dominator      @  PC=0x6d8 (_1.ptx:335) exit;
GPGPU-Sim PTX: ... end of reconvergence points for _Z13GPU_laplace3diiiiPfS_
GPGPU-Sim PTX: ... done pre-decoding instructions for '_Z13GPU_laplace3diiiiPfS_'.
GPGPU-Sim PTX: finished parsing EMBEDDED .ptx file _1.ptx
Adding _cuobjdump_1.ptx with cubin handle 1
GPGPU-Sim PTX: extracting embedded .ptx to temporary file "_ptx_BoTPXS"
Running: cat _ptx_BoTPXS | sed 's/.version 1.5/.version 1.4/' | sed 's/, texmode_independent//' | sed 's/\(\.extern \.const\[1\] .b8 \w\+\)\[\]/\1\[1\]/' | sed 's/const\[.\]/const\[0\]/g' > _ptx2_oovsAM
GPGPU-Sim PTX: generating ptxinfo using "$CUDA_INSTALL_PATH/bin/ptxas --gpu-name=sm_20 -v _ptx2_oovsAM --output-file  /dev/null 2> _ptx_BoTPXSinfo"
GPGPU-Sim PTX: Kernel '_Z13GPU_laplace3diiiiPfS_' : regs=17, lmem=0, smem=2448, cmem=64
GPGPU-Sim PTX: removing ptxinfo using "rm -f _ptx_BoTPXS _ptx2_oovsAM _ptx_BoTPXSinfo"
GPGPU-Sim PTX: loading globals with explicit initializers... 
GPGPU-Sim PTX: finished loading globals (0 bytes total).
GPGPU-Sim PTX: loading constants with explicit initializers...  done.

Grid dimensions: 100 x 100 x 100
GPGPU-Sim PTX: cudaMallocPitch (width = 400)
GPGPU-Sim PTX: cudaMallocPitch (width = 400)
GPGPU-Sim: synchronize waiting for inactive GPU simulation
GPGPU-Sim API: Stream Manager State
GPGPU-Sim: detected inactive GPU simulation thread

Copy u1 to device: 91.723999 (ms) 

 dimGrid  = 4 25 1 
 dimBlock = 32 4 1 
GPGPU-Sim: synchronize waiting for inactive GPU simulation
GPGPU-Sim API: Stream Manager State
GPGPU-Sim: detected inactive GPU simulation thread

GPGPU-Sim PTX: cudaLaunch for 0x0x405cf4 (mode=performance simulation) on stream 0
GPGPU-Sim PTX: pushing kernel '_Z13GPU_laplace3diiiiPfS_' to stream 0, gridDim= (4,25,1) blockDim = (32,4,1) 
kernel '_Z13GPU_laplace3diiiiPfS_' transfer to GPU hardware scheduler
GPGPU-Sim uArch: Shader 1 bind to kernel 1 '_Z13GPU_laplace3diiiiPfS_'
GPGPU-Sim uArch: CTA/core = 8, limited by: cta_limit
GPGPU-Sim uArch: core:  1, cta: 0 initialized @(1,0)
GPGPU-Sim uArch: Shader 2 bind to kernel 1 '_Z13GPU_laplace3diiiiPfS_'
GPGPU-Sim uArch: core:  2, cta: 0 initialized @(1,0)
GPGPU-Sim uArch: Shader 3 bind to kernel 1 '_Z13GPU_laplace3diiiiPfS_'
GPGPU-Sim uArch: core:  3, cta: 0 initialized @(1,0)
GPGPU-Sim uArch: Shader 4 bind to kernel 1 '_Z13GPU_laplace3diiiiPfS_'
GPGPU-Sim uArch: core:  4, cta: 0 initialized @(1,0)
GPGPU-Sim uArch: Shader 5 bind to kernel 1 '_Z13GPU_laplace3diiiiPfS_'
GPGPU-Sim uArch: core:  5, cta: 0 initialized @(1,0)
GPGPU-Sim uArch: Shader 6 bind to kernel 1 '_Z13GPU_laplace3diiiiPfS_'
GPGPU-Sim uArch: core:  6, cta: 0 initialized @(1,0)
GPGPU-Sim uArch: Shader 7 bind to kernel 1 '_Z13GPU_laplace3diiiiPfS_'
GPGPU-Sim uArch: core:  7, cta: 0 initialized @(1,0)
GPGPU-Sim uArch: Shader 8 bind to kernel 1 '_Z13GPU_laplace3diiiiPfS_'
GPGPU-Sim uArch: core:  8, cta: 0 initialized @(1,0)
GPGPU-Sim uArch: Shader 9 bind to kernel 1 '_Z13GPU_laplace3diiiiPfS_'
GPGPU-Sim uArch: core:  9, cta: 0 initialized @(1,0)
GPGPU-Sim uArch: Shader 10 bind to kernel 1 '_Z13GPU_laplace3diiiiPfS_'
GPGPU-Sim uArch: core: 10, cta: 0 initialized @(1,0)
GPGPU-Sim uArch: Shader 11 bind to kernel 1 '_Z13GPU_laplace3diiiiPfS_'
GPGPU-Sim uArch: core: 11, cta: 0 initialized @(1,0)
GPGPU-Sim uArch: Shader 12 bind to kernel 1 '_Z13GPU_laplace3diiiiPfS_'
GPGPU-Sim uArch: core: 12, cta: 0 initialized @(1,0)
GPGPU-Sim uArch: Shader 13 bind to kernel 1 '_Z13GPU_laplace3diiiiPfS_'
GPGPU-Sim uArch: core: 13, cta: 0 initialized @(1,0)
GPGPU-Sim uArch: Shader 14 bind to kernel 1 '_Z13GPU_laplace3diiiiPfS_'
GPGPU-Sim uArch: core: 14, cta: 0 initialized @(1,0)
GPGPU-Sim uArch: Shader 0 bind to kernel 1 '_Z13GPU_laplace3diiiiPfS_'
GPGPU-Sim uArch: core:  0, cta: 0 initialized @(1,0)
GPGPU-Sim uArch: core:  1, cta: 1 initialized @(2,0)
GPGPU-Sim uArch: core:  2, cta: 1 initialized @(2,0)
GPGPU-Sim uArch: core:  3, cta: 1 initialized @(2,0)
GPGPU-Sim uArch: core:  4, cta: 1 initialized @(2,0)
GPGPU-Sim uArch: core:  5, cta: 1 initialized @(2,0)
GPGPU-Sim uArch: core:  6, cta: 1 initialized @(2,0)
GPGPU-Sim uArch: core:  7, cta: 1 initialized @(2,0)
GPGPU-Sim uArch: core:  8, cta: 1 initialized @(2,0)
GPGPU-Sim uArch: core:  9, cta: 1 initialized @(2,0)
GPGPU-Sim uArch: core: 10, cta: 1 initialized @(2,0)
GPGPU-Sim uArch: core: 11, cta: 1 initialized @(2,0)
GPGPU-Sim uArch: core: 12, cta: 1 initialized @(2,0)
GPGPU-Sim uArch: core: 13, cta: 1 initialized @(2,0)
GPGPU-Sim uArch: core: 14, cta: 1 initialized @(2,0)
GPGPU-Sim uArch: core:  0, cta: 1 initialized @(2,0)
GPGPU-Sim uArch: core:  1, cta: 2 initialized @(3,0)
GPGPU-Sim uArch: core:  2, cta: 2 initialized @(3,0)
GPGPU-Sim uArch: core:  3, cta: 2 initialized @(3,0)
GPGPU-Sim uArch: core:  4, cta: 2 initialized @(3,0)
GPGPU-Sim uArch: core:  5, cta: 2 initialized @(3,0)
GPGPU-Sim uArch: core:  6, cta: 2 initialized @(3,0)
GPGPU-Sim uArch: core:  7, cta: 2 initialized @(3,0)
GPGPU-Sim uArch: core:  8, cta: 2 initialized @(3,0)
GPGPU-Sim uArch: core:  9, cta: 2 initialized @(3,0)
GPGPU-Sim uArch: core: 10, cta: 2 initialized @(3,0)
GPGPU-Sim uArch: core: 11, cta: 2 initialized @(3,0)
GPGPU-Sim uArch: core: 12, cta: 2 initialized @(3,0)
GPGPU-Sim uArch: core: 13, cta: 2 initialized @(3,0)
GPGPU-Sim uArch: core: 14, cta: 2 initialized @(3,0)
GPGPU-Sim uArch: core:  0, cta: 2 initialized @(3,0)
GPGPU-Sim uArch: core:  1, cta: 3 initialized @(4,0)
GPGPU-Sim uArch: core:  2, cta: 3 initialized @(4,0)
GPGPU-Sim uArch: core:  3, cta: 3 initialized @(4,0)
GPGPU-Sim uArch: core:  4, cta: 3 initialized @(4,0)
GPGPU-Sim uArch: core:  5, cta: 3 initialized @(4,0)
GPGPU-Sim uArch: core:  6, cta: 3 initialized @(4,0)
GPGPU-Sim uArch: core:  7, cta: 3 initialized @(4,0)
GPGPU-Sim uArch: core:  8, cta: 3 initialized @(4,0)
GPGPU-Sim uArch: core:  9, cta: 3 initialized @(4,0)
GPGPU-Sim uArch: core: 10, cta: 3 initialized @(4,0)
GPGPU-Sim uArch: core: 11, cta: 3 initialized @(4,0)
GPGPU-Sim uArch: core: 12, cta: 3 initialized @(4,0)
GPGPU-Sim uArch: core: 13, cta: 3 initialized @(4,0)
GPGPU-Sim uArch: core: 14, cta: 3 initialized @(4,0)
GPGPU-Sim uArch: core:  0, cta: 3 initialized @(4,0)
GPGPU-Sim uArch: core:  1, cta: 4 initialized @(5,0)
GPGPU-Sim uArch: core:  2, cta: 4 initialized @(5,0)
GPGPU-Sim uArch: core:  3, cta: 4 initialized @(5,0)
GPGPU-Sim uArch: core:  4, cta: 4 initialized @(5,0)
GPGPU-Sim uArch: core:  5, cta: 4 initialized @(5,0)
GPGPU-Sim uArch: core:  6, cta: 4 initialized @(5,0)
GPGPU-Sim uArch: core:  7, cta: 4 initialized @(5,0)
GPGPU-Sim uArch: core:  8, cta: 4 initialized @(5,0)
GPGPU-Sim uArch: core:  9, cta: 4 initialized @(5,0)
GPGPU-Sim uArch: core: 10, cta: 4 initialized @(5,0)
GPGPU-Sim uArch: core: 11, cta: 4 initialized @(5,0)
GPGPU-Sim uArch: core: 12, cta: 4 initialized @(5,0)
GPGPU-Sim uArch: core: 13, cta: 4 initialized @(5,0)
GPGPU-Sim uArch: core: 14, cta: 4 initialized @(5,0)
GPGPU-Sim uArch: core:  0, cta: 4 initialized @(5,0)
GPGPU-Sim uArch: core:  1, cta: 5 initialized @(6,0)
GPGPU-Sim uArch: core:  2, cta: 5 initialized @(6,0)
GPGPU-Sim uArch: core:  3, cta: 5 initialized @(6,0)
GPGPU-Sim uArch: core:  4, cta: 5 initialized @(6,0)
GPGPU-Sim uArch: core:  5, cta: 5 initialized @(6,0)
GPGPU-Sim uArch: core:  6, cta: 5 initialized @(6,0)
GPGPU-Sim uArch: core:  7, cta: 5 initialized @(6,0)
GPGPU-Sim uArch: core:  8, cta: 5 initialized @(6,0)
GPGPU-Sim uArch: core:  9, cta: 5 initialized @(6,0)
GPGPU-Sim uArch: core: 10, cta: 5 initialized @(6,0)
GPGPU-Sim uArch: core: 11, cta: 5 initialized @(6,0)
GPGPU-Sim uArch: core: 12, cta: 5 initialized @(6,0)
GPGPU-Sim uArch: core: 13, cta: 5 initialized @(6,0)
GPGPU-Sim uArch: core: 14, cta: 5 initialized @(6,0)
GPGPU-Sim uArch: core:  0, cta: 5 initialized @(6,0)
GPGPU-Sim uArch: core:  1, cta: 6 initialized @(7,0)
GPGPU-Sim uArch: core:  2, cta: 6 initialized @(7,0)
GPGPU-Sim uArch: core:  3, cta: 6 initialized @(7,0)
GPGPU-Sim uArch: core:  4, cta: 6 initialized @(7,0)
GPGPU-Sim uArch: core:  5, cta: 6 initialized @(7,0)
GPGPU-Sim uArch: core:  6, cta: 6 initialized @(7,0)
GPGPU-Sim uArch: core:  7, cta: 6 initialized @(7,0)
GPGPU-Sim uArch: core:  8, cta: 6 initialized @(7,0)
GPGPU-Sim uArch: core:  9, cta: 6 initialized @(7,0)
GPGPU-Sim uArch: core: 10, cta: 6 initialized @(7,0)
GPGPU-Sim uArch: cycles simulated: 500  inst.: 62820 (ipc=125.6) sim_rate=31410 (inst/sec) elapsed = 0:0:00:02 / Tue Mar 22 13:08:01 2016
GPGPU-Sim PTX: 100000 instructions simulated : ctaid=(2,1,0) tid=(11,2,0)
GPGPU-Sim PTX: 200000 instructions simulated : ctaid=(3,4,0) tid=(27,1,0)
GPGPU-Sim PTX: 300000 instructions simulated : ctaid=(3,21,0) tid=(19,2,0)
GPGPU-Sim PTX: 400000 instructions simulated : ctaid=(3,20,0) tid=(23,3,0)
GPGPU-Sim PTX: 500000 instructions simulated : ctaid=(3,22,0) tid=(7,1,0)
GPGPU-Sim PTX: 600000 instructions simulated : ctaid=(2,23,0) tid=(31,2,0)
GPGPU-Sim uArch: cycles simulated: 2000  inst.: 603746 (ipc=301.9) sim_rate=201248 (inst/sec) elapsed = 0:0:00:03 / Tue Mar 22 13:08:02 2016
GPGPU-Sim PTX: 700000 instructions simulated : ctaid=(3,18,0) tid=(13,3,0)
GPGPU-Sim PTX: 800000 instructions simulated : ctaid=(3,0,0) tid=(17,3,0)
GPGPU-Sim uArch: cycles simulated: 2500  inst.: 856220 (ipc=342.5) sim_rate=214055 (inst/sec) elapsed = 0:0:00:04 / Tue Mar 22 13:08:03 2016
GPGPU-Sim PTX: 900000 instructions simulated : ctaid=(0,11,0) tid=(17,2,0)
GPGPU-Sim PTX: 1000000 instructions simulated : ctaid=(1,20,0) tid=(16,0,0)
GPGPU-Sim PTX: 1100000 instructions simulated : ctaid=(2,20,0) tid=(12,1,0)
GPGPU-Sim PTX: 1200000 instructions simulated : ctaid=(1,20,0) tid=(27,1,0)
GPGPU-Sim uArch: cycles simulated: 3500  inst.: 1212483 (ipc=346.4) sim_rate=242496 (inst/sec) elapsed = 0:0:00:05 / Tue Mar 22 13:08:04 2016
GPGPU-Sim PTX: 1300000 instructions simulated : ctaid=(2,13,0) tid=(7,1,0)
GPGPU-Sim PTX: 1400000 instructions simulated : ctaid=(2,1,0) tid=(0,0,0)
GPGPU-Sim PTX: 1500000 instructions simulated : ctaid=(0,13,0) tid=(23,3,0)
GPGPU-Sim uArch: cycles simulated: 4500  inst.: 1424068 (ipc=316.5) sim_rate=237344 (inst/sec) elapsed = 0:0:00:06 / Tue Mar 22 13:08:05 2016
GPGPU-Sim PTX: 1600000 instructions simulated : ctaid=(1,18,0) tid=(5,2,0)
GPGPU-Sim PTX: 1700000 instructions simulated : ctaid=(1,1,0) tid=(23,0,0)
GPGPU-Sim PTX: 1800000 instructions simulated : ctaid=(3,3,0) tid=(0,0,0)
GPGPU-Sim PTX: 1900000 instructions simulated : ctaid=(1,8,0) tid=(15,2,0)
GPGPU-Sim uArch: cycles simulated: 5500  inst.: 1807768 (ipc=328.7) sim_rate=258252 (inst/sec) elapsed = 0:0:00:07 / Tue Mar 22 13:08:06 2016
GPGPU-Sim PTX: 2000000 instructions simulated : ctaid=(1,17,0) tid=(28,0,0)
GPGPU-Sim PTX: 2100000 instructions simulated : ctaid=(1,16,0) tid=(0,2,0)
GPGPU-Sim PTX: 2200000 instructions simulated : ctaid=(1,11,0) tid=(14,2,0)
GPGPU-Sim PTX: 2300000 instructions simulated : ctaid=(1,21,0) tid=(16,3,0)
GPGPU-Sim uArch: cycles simulated: 6500  inst.: 2158524 (ipc=332.1) sim_rate=269815 (inst/sec) elapsed = 0:0:00:08 / Tue Mar 22 13:08:07 2016
GPGPU-Sim PTX: 2400000 instructions simulated : ctaid=(1,13,0) tid=(23,3,0)
GPGPU-Sim PTX: 2500000 instructions simulated : ctaid=(0,14,0) tid=(14,3,0)
GPGPU-Sim PTX: 2600000 instructions simulated : ctaid=(2,2,0) tid=(18,1,0)
GPGPU-Sim uArch: cycles simulated: 7000  inst.: 2404140 (ipc=343.4) sim_rate=267126 (inst/sec) elapsed = 0:0:00:09 / Tue Mar 22 13:08:08 2016
GPGPU-Sim PTX: 2700000 instructions simulated : ctaid=(2,15,0) tid=(16,0,0)
GPGPU-Sim PTX: 2800000 instructions simulated : ctaid=(1,23,0) tid=(23,1,0)
GPGPU-Sim uArch: cycles simulated: 7500  inst.: 2634835 (ipc=351.3) sim_rate=263483 (inst/sec) elapsed = 0:0:00:10 / Tue Mar 22 13:08:09 2016
GPGPU-Sim PTX: 2900000 instructions simulated : ctaid=(0,4,0) tid=(13,1,0)
GPGPU-Sim PTX: 3000000 instructions simulated : ctaid=(0,22,0) tid=(24,3,0)
GPGPU-Sim PTX: 3100000 instructions simulated : ctaid=(1,22,0) tid=(14,1,0)
GPGPU-Sim PTX: 3200000 instructions simulated : ctaid=(0,3,0) tid=(17,2,0)
GPGPU-Sim PTX: 3300000 instructions simulated : ctaid=(2,20,0) tid=(12,3,0)
GPGPU-Sim PTX: 3400000 instructions simulated : ctaid=(1,19,0) tid=(31,3,0)
GPGPU-Sim uArch: cycles simulated: 8500  inst.: 3104799 (ipc=365.3) sim_rate=282254 (inst/sec) elapsed = 0:0:00:11 / Tue Mar 22 13:08:10 2016
GPGPU-Sim PTX: 3500000 instructions simulated : ctaid=(2,4,0) tid=(29,3,0)
GPGPU-Sim PTX: 3600000 instructions simulated : ctaid=(3,18,0) tid=(18,3,0)
GPGPU-Sim uArch: cycles simulated: 9000  inst.: 3345407 (ipc=371.7) sim_rate=278783 (inst/sec) elapsed = 0:0:00:12 / Tue Mar 22 13:08:11 2016
GPGPU-Sim PTX: 3700000 instructions simulated : ctaid=(1,4,0) tid=(31,2,0)
GPGPU-Sim PTX: 3800000 instructions simulated : ctaid=(0,14,0) tid=(27,2,0)
GPGPU-Sim PTX: 3900000 instructions simulated : ctaid=(0,17,0) tid=(20,1,0)
GPGPU-Sim uArch: cycles simulated: 9500  inst.: 3587693 (ipc=377.7) sim_rate=275976 (inst/sec) elapsed = 0:0:00:13 / Tue Mar 22 13:08:12 2016
GPGPU-Sim PTX: 4000000 instructions simulated : ctaid=(0,20,0) tid=(17,3,0)
GPGPU-Sim PTX: 4100000 instructions simulated : ctaid=(1,17,0) tid=(28,2,0)
GPGPU-Sim PTX: 4200000 instructions simulated : ctaid=(1,15,0) tid=(2,0,0)
GPGPU-Sim PTX: 4300000 instructions simulated : ctaid=(1,10,0) tid=(30,3,0)
GPGPU-Sim PTX: 4400000 instructions simulated : ctaid=(1,24,0) tid=(30,3,0)
GPGPU-Sim PTX: 4500000 instructions simulated : ctaid=(0,4,0) tid=(27,2,0)
GPGPU-Sim uArch: cycles simulated: 10500  inst.: 4080707 (ipc=388.6) sim_rate=291479 (inst/sec) elapsed = 0:0:00:14 / Tue Mar 22 13:08:13 2016
GPGPU-Sim PTX: 4600000 instructions simulated : ctaid=(2,3,0) tid=(7,0,0)
GPGPU-Sim PTX: 4700000 instructions simulated : ctaid=(0,10,0) tid=(17,0,0)
GPGPU-Sim uArch: cycles simulated: 11000  inst.: 4320391 (ipc=392.8) sim_rate=288026 (inst/sec) elapsed = 0:0:00:15 / Tue Mar 22 13:08:14 2016
GPGPU-Sim PTX: 4800000 instructions simulated : ctaid=(1,6,0) tid=(9,3,0)
GPGPU-Sim PTX: 4900000 instructions simulated : ctaid=(1,24,0) tid=(17,0,0)
GPGPU-Sim PTX: 5000000 instructions simulated : ctaid=(0,16,0) tid=(16,0,0)
GPGPU-Sim uArch: cycles simulated: 11500  inst.: 4568086 (ipc=397.2) sim_rate=285505 (inst/sec) elapsed = 0:0:00:16 / Tue Mar 22 13:08:15 2016
GPGPU-Sim PTX: 5100000 instructions simulated : ctaid=(1,10,0) tid=(26,1,0)
GPGPU-Sim PTX: 5200000 instructions simulated : ctaid=(1,5,0) tid=(13,1,0)
GPGPU-Sim PTX: 5300000 instructions simulated : ctaid=(2,8,0) tid=(7,2,0)
GPGPU-Sim uArch: cycles simulated: 12000  inst.: 4809186 (ipc=400.8) sim_rate=282893 (inst/sec) elapsed = 0:0:00:17 / Tue Mar 22 13:08:16 2016
GPGPU-Sim PTX: 5400000 instructions simulated : ctaid=(2,7,0) tid=(11,3,0)
GPGPU-Sim PTX: 5500000 instructions simulated : ctaid=(1,16,0) tid=(21,1,0)
GPGPU-Sim PTX: 5600000 instructions simulated : ctaid=(3,14,0) tid=(18,2,0)
GPGPU-Sim PTX: 5700000 instructions simulated : ctaid=(3,13,0) tid=(8,2,0)
GPGPU-Sim PTX: 5800000 instructions simulated : ctaid=(0,13,0) tid=(12,2,0)
GPGPU-Sim uArch: cycles simulated: 13000  inst.: 5295796 (ipc=407.4) sim_rate=294210 (inst/sec) elapsed = 0:0:00:18 / Tue Mar 22 13:08:17 2016
GPGPU-Sim PTX: 5900000 instructions simulated : ctaid=(3,7,0) tid=(6,2,0)
GPGPU-Sim PTX: 6000000 instructions simulated : ctaid=(2,22,0) tid=(26,2,0)
GPGPU-Sim PTX: 6100000 instructions simulated : ctaid=(1,9,0) tid=(22,3,0)
GPGPU-Sim uArch: cycles simulated: 13500  inst.: 5529025 (ipc=409.6) sim_rate=291001 (inst/sec) elapsed = 0:0:00:19 / Tue Mar 22 13:08:18 2016
GPGPU-Sim PTX: 6200000 instructions simulated : ctaid=(2,22,0) tid=(1,3,0)
GPGPU-Sim PTX: 6300000 instructions simulated : ctaid=(2,7,0) tid=(24,0,0)
GPGPU-Sim PTX: 6400000 instructions simulated : ctaid=(0,9,0) tid=(10,0,0)
GPGPU-Sim uArch: cycles simulated: 14000  inst.: 5760460 (ipc=411.5) sim_rate=288023 (inst/sec) elapsed = 0:0:00:20 / Tue Mar 22 13:08:19 2016
GPGPU-Sim PTX: 6500000 instructions simulated : ctaid=(1,13,0) tid=(5,0,0)
GPGPU-Sim PTX: 6600000 instructions simulated : ctaid=(2,10,0) tid=(22,2,0)
GPGPU-Sim PTX: 6700000 instructions simulated : ctaid=(1,3,0) tid=(31,1,0)
GPGPU-Sim PTX: 6800000 instructions simulated : ctaid=(3,14,0) tid=(1,0,0)
GPGPU-Sim PTX: 6900000 instructions simulated : ctaid=(0,18,0) tid=(5,0,0)
GPGPU-Sim uArch: cycles simulated: 15000  inst.: 6243923 (ipc=416.3) sim_rate=297329 (inst/sec) elapsed = 0:0:00:21 / Tue Mar 22 13:08:20 2016
GPGPU-Sim PTX: 7000000 instructions simulated : ctaid=(0,8,0) tid=(9,2,0)
GPGPU-Sim PTX: 7100000 instructions simulated : ctaid=(1,3,0) tid=(8,0,0)
GPGPU-Sim PTX: 7200000 instructions simulated : ctaid=(1,14,0) tid=(10,0,0)
GPGPU-Sim uArch: cycles simulated: 15500  inst.: 6479593 (ipc=418.0) sim_rate=294526 (inst/sec) elapsed = 0:0:00:22 / Tue Mar 22 13:08:21 2016
GPGPU-Sim PTX: 7300000 instructions simulated : ctaid=(2,17,0) tid=(18,1,0)
GPGPU-Sim PTX: 7400000 instructions simulated : ctaid=(2,6,0) tid=(5,3,0)
GPGPU-Sim PTX: 7500000 instructions simulated : ctaid=(2,0,0) tid=(9,3,0)
GPGPU-Sim uArch: cycles simulated: 16000  inst.: 6734640 (ipc=420.9) sim_rate=292810 (inst/sec) elapsed = 0:0:00:23 / Tue Mar 22 13:08:22 2016
GPGPU-Sim PTX: 7600000 instructions simulated : ctaid=(0,20,0) tid=(20,3,0)
GPGPU-Sim PTX: 7700000 instructions simulated : ctaid=(2,9,0) tid=(9,1,0)
GPGPU-Sim uArch: cycles simulated: 16500  inst.: 6966625 (ipc=422.2) sim_rate=290276 (inst/sec) elapsed = 0:0:00:24 / Tue Mar 22 13:08:23 2016
GPGPU-Sim PTX: 7800000 instructions simulated : ctaid=(2,23,0) tid=(21,2,0)
GPGPU-Sim PTX: 7900000 instructions simulated : ctaid=(2,14,0) tid=(1,0,0)
GPGPU-Sim PTX: 8000000 instructions simulated : ctaid=(3,12,0) tid=(30,1,0)
GPGPU-Sim PTX: 8100000 instructions simulated : ctaid=(2,7,0) tid=(6,2,0)
GPGPU-Sim PTX: 8200000 instructions simulated : ctaid=(2,8,0) tid=(5,1,0)
GPGPU-Sim PTX: 8300000 instructions simulated : ctaid=(0,4,0) tid=(1,1,0)
GPGPU-Sim uArch: cycles simulated: 17500  inst.: 7464818 (ipc=426.6) sim_rate=298592 (inst/sec) elapsed = 0:0:00:25 / Tue Mar 22 13:08:24 2016
GPGPU-Sim PTX: 8400000 instructions simulated : ctaid=(1,22,0) tid=(26,3,0)
GPGPU-Sim PTX: 8500000 instructions simulated : ctaid=(3,9,0) tid=(1,0,0)
GPGPU-Sim uArch: cycles simulated: 18000  inst.: 7687672 (ipc=427.1) sim_rate=295679 (inst/sec) elapsed = 0:0:00:26 / Tue Mar 22 13:08:25 2016
GPGPU-Sim PTX: 8600000 instructions simulated : ctaid=(2,15,0) tid=(17,1,0)
GPGPU-Sim PTX: 8700000 instructions simulated : ctaid=(2,1,0) tid=(28,0,0)
GPGPU-Sim PTX: 8800000 instructions simulated : ctaid=(2,13,0) tid=(30,0,0)
GPGPU-Sim uArch: cycles simulated: 18500  inst.: 7930462 (ipc=428.7) sim_rate=293720 (inst/sec) elapsed = 0:0:00:27 / Tue Mar 22 13:08:26 2016
GPGPU-Sim PTX: 8900000 instructions simulated : ctaid=(0,6,0) tid=(1,3,0)
GPGPU-Sim PTX: 9000000 instructions simulated : ctaid=(0,1,0) tid=(14,1,0)
GPGPU-Sim PTX: 9100000 instructions simulated : ctaid=(1,5,0) tid=(13,1,0)
GPGPU-Sim uArch: cycles simulated: 19000  inst.: 8183221 (ipc=430.7) sim_rate=292257 (inst/sec) elapsed = 0:0:00:28 / Tue Mar 22 13:08:27 2016
GPGPU-Sim PTX: 9200000 instructions simulated : ctaid=(2,12,0) tid=(11,0,0)
GPGPU-Sim PTX: 9300000 instructions simulated : ctaid=(0,20,0) tid=(15,3,0)
GPGPU-Sim PTX: 9400000 instructions simulated : ctaid=(0,2,0) tid=(9,2,0)
GPGPU-Sim PTX: 9500000 instructions simulated : ctaid=(2,4,0) tid=(11,3,0)
GPGPU-Sim PTX: 9600000 instructions simulated : ctaid=(1,5,0) tid=(24,1,0)
GPGPU-Sim uArch: cycles simulated: 20000  inst.: 8650980 (ipc=432.5) sim_rate=298309 (inst/sec) elapsed = 0:0:00:29 / Tue Mar 22 13:08:28 2016
GPGPU-Sim PTX: 9700000 instructions simulated : ctaid=(2,0,0) tid=(15,1,0)
GPGPU-Sim PTX: 9800000 instructions simulated : ctaid=(0,6,0) tid=(0,1,0)
GPGPU-Sim PTX: 9900000 instructions simulated : ctaid=(2,17,0) tid=(22,1,0)
GPGPU-Sim uArch: cycles simulated: 20500  inst.: 8909866 (ipc=434.6) sim_rate=296995 (inst/sec) elapsed = 0:0:00:30 / Tue Mar 22 13:08:29 2016
GPGPU-Sim PTX: 10000000 instructions simulated : ctaid=(3,9,0) tid=(2,1,0)
GPGPU-Sim PTX: 10100000 instructions simulated : ctaid=(1,3,0) tid=(26,3,0)
GPGPU-Sim uArch: cycles simulated: 21000  inst.: 9130830 (ipc=434.8) sim_rate=294542 (inst/sec) elapsed = 0:0:00:31 / Tue Mar 22 13:08:30 2016
GPGPU-Sim PTX: 10200000 instructions simulated : ctaid=(1,1,0) tid=(12,1,0)
GPGPU-Sim PTX: 10300000 instructions simulated : ctaid=(2,4,0) tid=(11,0,0)
GPGPU-Sim PTX: 10400000 instructions simulated : ctaid=(1,15,0) tid=(23,0,0)
GPGPU-Sim PTX: 10500000 instructions simulated : ctaid=(1,8,0) tid=(11,2,0)
GPGPU-Sim PTX: 10600000 instructions simulated : ctaid=(0,24,0) tid=(19,0,0)
GPGPU-Sim PTX: 10700000 instructions simulated : ctaid=(0,6,0) tid=(7,2,0)
GPGPU-Sim uArch: cycles simulated: 22000  inst.: 9620573 (ipc=437.3) sim_rate=300642 (inst/sec) elapsed = 0:0:00:32 / Tue Mar 22 13:08:31 2016
GPGPU-Sim PTX: 10800000 instructions simulated : ctaid=(0,18,0) tid=(24,0,0)
GPGPU-Sim PTX: 10900000 instructions simulated : ctaid=(1,4,0) tid=(9,1,0)
GPGPU-Sim PTX: 11000000 instructions simulated : ctaid=(3,16,0) tid=(9,0,0)
GPGPU-Sim uArch: cycles simulated: 22500  inst.: 9855403 (ipc=438.0) sim_rate=298648 (inst/sec) elapsed = 0:0:00:33 / Tue Mar 22 13:08:32 2016
GPGPU-Sim PTX: 11100000 instructions simulated : ctaid=(1,4,0) tid=(28,2,0)
GPGPU-Sim PTX: 11200000 instructions simulated : ctaid=(2,24,0) tid=(31,1,0)
GPGPU-Sim uArch: cycles simulated: 23000  inst.: 10094921 (ipc=438.9) sim_rate=296909 (inst/sec) elapsed = 0:0:00:34 / Tue Mar 22 13:08:33 2016
GPGPU-Sim PTX: 11300000 instructions simulated : ctaid=(1,4,0) tid=(20,2,0)
GPGPU-Sim PTX: 11400000 instructions simulated : ctaid=(1,14,0) tid=(7,0,0)
GPGPU-Sim PTX: 11500000 instructions simulated : ctaid=(2,9,0) tid=(3,3,0)
GPGPU-Sim uArch: cycles simulated: 23500  inst.: 10343626 (ipc=440.2) sim_rate=295532 (inst/sec) elapsed = 0:0:00:35 / Tue Mar 22 13:08:34 2016
GPGPU-Sim PTX: 11600000 instructions simulated : ctaid=(0,23,0) tid=(28,3,0)
GPGPU-Sim PTX: 11700000 instructions simulated : ctaid=(1,23,0) tid=(27,2,0)
GPGPU-Sim PTX: 11800000 instructions simulated : ctaid=(2,12,0) tid=(14,1,0)
GPGPU-Sim PTX: 11900000 instructions simulated : ctaid=(1,18,0) tid=(13,1,0)
GPGPU-Sim PTX: 12000000 instructions simulated : ctaid=(2,20,0) tid=(23,1,0)
GPGPU-Sim uArch: cycles simulated: 24500  inst.: 10815671 (ipc=441.5) sim_rate=300435 (inst/sec) elapsed = 0:0:00:36 / Tue Mar 22 13:08:35 2016
GPGPU-Sim PTX: 12100000 instructions simulated : ctaid=(2,4,0) tid=(28,2,0)
GPGPU-Sim PTX: 12200000 instructions simulated : ctaid=(2,0,0) tid=(10,2,0)
GPGPU-Sim PTX: 12300000 instructions simulated : ctaid=(1,13,0) tid=(11,1,0)
GPGPU-Sim uArch: cycles simulated: 25000  inst.: 11063472 (ipc=442.5) sim_rate=299012 (inst/sec) elapsed = 0:0:00:37 / Tue Mar 22 13:08:36 2016
GPGPU-Sim PTX: 12400000 instructions simulated : ctaid=(0,4,0) tid=(28,3,0)
GPGPU-Sim PTX: 12500000 instructions simulated : ctaid=(1,22,0) tid=(27,1,0)
GPGPU-Sim PTX: 12600000 instructions simulated : ctaid=(2,15,0) tid=(19,0,0)
GPGPU-Sim uArch: cycles simulated: 25500  inst.: 11291629 (ipc=442.8) sim_rate=297148 (inst/sec) elapsed = 0:0:00:38 / Tue Mar 22 13:08:37 2016
GPGPU-Sim PTX: 12700000 instructions simulated : ctaid=(1,19,0) tid=(16,3,0)
GPGPU-Sim PTX: 12800000 instructions simulated : ctaid=(0,23,0) tid=(15,0,0)
GPGPU-Sim PTX: 12900000 instructions simulated : ctaid=(1,12,0) tid=(10,0,0)
GPGPU-Sim PTX: 13000000 instructions simulated : ctaid=(1,12,0) tid=(1,0,0)
GPGPU-Sim PTX: 13100000 instructions simulated : ctaid=(0,17,0) tid=(4,1,0)
GPGPU-Sim uArch: cycles simulated: 26500  inst.: 11788022 (ipc=444.8) sim_rate=302256 (inst/sec) elapsed = 0:0:00:39 / Tue Mar 22 13:08:38 2016
GPGPU-Sim PTX: 13200000 instructions simulated : ctaid=(1,0,0) tid=(19,1,0)
GPGPU-Sim PTX: 13300000 instructions simulated : ctaid=(2,13,0) tid=(12,2,0)
GPGPU-Sim PTX: 13400000 instructions simulated : ctaid=(2,11,0) tid=(9,0,0)
GPGPU-Sim uArch: cycles simulated: 27000  inst.: 12019209 (ipc=445.2) sim_rate=300480 (inst/sec) elapsed = 0:0:00:40 / Tue Mar 22 13:08:39 2016
GPGPU-Sim PTX: 13500000 instructions simulated : ctaid=(1,2,0) tid=(6,0,0)
GPGPU-Sim PTX: 13600000 instructions simulated : ctaid=(2,18,0) tid=(9,1,0)
GPGPU-Sim PTX: 13700000 instructions simulated : ctaid=(0,22,0) tid=(12,0,0)
GPGPU-Sim uArch: cycles simulated: 27500  inst.: 12263635 (ipc=446.0) sim_rate=299113 (inst/sec) elapsed = 0:0:00:41 / Tue Mar 22 13:08:40 2016
GPGPU-Sim PTX: 13800000 instructions simulated : ctaid=(0,21,0) tid=(12,1,0)
GPGPU-Sim PTX: 13900000 instructions simulated : ctaid=(2,0,0) tid=(11,3,0)
GPGPU-Sim uArch: cycles simulated: 28000  inst.: 12504442 (ipc=446.6) sim_rate=297724 (inst/sec) elapsed = 0:0:00:42 / Tue Mar 22 13:08:41 2016
GPGPU-Sim PTX: 14000000 instructions simulated : ctaid=(0,6,0) tid=(15,3,0)
GPGPU-Sim PTX: 14100000 instructions simulated : ctaid=(1,2,0) tid=(19,0,0)
GPGPU-Sim PTX: 14200000 instructions simulated : ctaid=(2,15,0) tid=(0,2,0)
GPGPU-Sim PTX: 14300000 instructions simulated : ctaid=(1,24,0) tid=(6,2,0)
GPGPU-Sim PTX: 14400000 instructions simulated : ctaid=(3,15,0) tid=(3,0,0)
GPGPU-Sim PTX: 14500000 instructions simulated : ctaid=(3,3,0) tid=(18,2,0)
GPGPU-Sim uArch: cycles simulated: 29000  inst.: 12988229 (ipc=447.9) sim_rate=302051 (inst/sec) elapsed = 0:0:00:43 / Tue Mar 22 13:08:42 2016
GPGPU-Sim PTX: 14600000 instructions simulated : ctaid=(1,2,0) tid=(3,2,0)
GPGPU-Sim PTX: 14700000 instructions simulated : ctaid=(3,14,0) tid=(21,2,0)
GPGPU-Sim uArch: cycles simulated: 29500  inst.: 13213208 (ipc=447.9) sim_rate=300300 (inst/sec) elapsed = 0:0:00:44 / Tue Mar 22 13:08:43 2016
GPGPU-Sim PTX: 14800000 instructions simulated : ctaid=(1,21,0) tid=(12,1,0)
GPGPU-Sim PTX: 14900000 instructions simulated : ctaid=(0,8,0) tid=(30,0,0)
GPGPU-Sim PTX: 15000000 instructions simulated : ctaid=(2,19,0) tid=(18,1,0)
GPGPU-Sim uArch: cycles simulated: 30000  inst.: 13448161 (ipc=448.3) sim_rate=298848 (inst/sec) elapsed = 0:0:00:45 / Tue Mar 22 13:08:44 2016
GPGPU-Sim PTX: 15100000 instructions simulated : ctaid=(0,18,0) tid=(8,3,0)
GPGPU-Sim PTX: 15200000 instructions simulated : ctaid=(0,12,0) tid=(14,3,0)
GPGPU-Sim PTX: 15300000 instructions simulated : ctaid=(1,20,0) tid=(30,1,0)
GPGPU-Sim PTX: 15400000 instructions simulated : ctaid=(1,23,0) tid=(19,2,0)
GPGPU-Sim PTX: 15500000 instructions simulated : ctaid=(2,22,0) tid=(3,0,0)
GPGPU-Sim uArch: cycles simulated: 31000  inst.: 13920789 (ipc=449.1) sim_rate=302625 (inst/sec) elapsed = 0:0:00:46 / Tue Mar 22 13:08:45 2016
GPGPU-Sim PTX: 15600000 instructions simulated : ctaid=(1,7,0) tid=(25,0,0)
GPGPU-Sim PTX: 15700000 instructions simulated : ctaid=(0,15,0) tid=(12,1,0)
GPGPU-Sim PTX: 15800000 instructions simulated : ctaid=(2,20,0) tid=(20,2,0)
GPGPU-Sim uArch: cycles simulated: 31500  inst.: 14160730 (ipc=449.5) sim_rate=301292 (inst/sec) elapsed = 0:0:00:47 / Tue Mar 22 13:08:46 2016
GPGPU-Sim PTX: 15900000 instructions simulated : ctaid=(2,20,0) tid=(31,3,0)
GPGPU-Sim PTX: 16000000 instructions simulated : ctaid=(3,20,0) tid=(3,3,0)
GPGPU-Sim PTX: 16100000 instructions simulated : ctaid=(1,11,0) tid=(1,0,0)
GPGPU-Sim uArch: cycles simulated: 32000  inst.: 14423589 (ipc=450.7) sim_rate=300491 (inst/sec) elapsed = 0:0:00:48 / Tue Mar 22 13:08:47 2016
GPGPU-Sim PTX: 16200000 instructions simulated : ctaid=(2,7,0) tid=(8,1,0)
GPGPU-Sim PTX: 16300000 instructions simulated : ctaid=(2,22,0) tid=(3,2,0)
GPGPU-Sim PTX: 16400000 instructions simulated : ctaid=(1,19,0) tid=(17,1,0)
GPGPU-Sim PTX: 16500000 instructions simulated : ctaid=(0,4,0) tid=(5,3,0)
GPGPU-Sim PTX: 16600000 instructions simulated : ctaid=(2,4,0) tid=(26,3,0)
GPGPU-Sim uArch: cycles simulated: 33000  inst.: 14882957 (ipc=451.0) sim_rate=303733 (inst/sec) elapsed = 0:0:00:49 / Tue Mar 22 13:08:48 2016
GPGPU-Sim PTX: 16700000 instructions simulated : ctaid=(2,19,0) tid=(21,2,0)
GPGPU-Sim PTX: 16800000 instructions simulated : ctaid=(2,2,0) tid=(25,0,0)
GPGPU-Sim PTX: 16900000 instructions simulated : ctaid=(2,20,0) tid=(30,2,0)
GPGPU-Sim uArch: cycles simulated: 33500  inst.: 15136291 (ipc=451.8) sim_rate=302725 (inst/sec) elapsed = 0:0:00:50 / Tue Mar 22 13:08:49 2016
GPGPU-Sim PTX: 17000000 instructions simulated : ctaid=(1,2,0) tid=(9,1,0)
GPGPU-Sim PTX: 17100000 instructions simulated : ctaid=(2,10,0) tid=(17,0,0)
GPGPU-Sim PTX: 17200000 instructions simulated : ctaid=(1,16,0) tid=(16,0,0)
GPGPU-Sim uArch: cycles simulated: 34000  inst.: 15376447 (ipc=452.2) sim_rate=301498 (inst/sec) elapsed = 0:0:00:51 / Tue Mar 22 13:08:50 2016
GPGPU-Sim PTX: 17300000 instructions simulated : ctaid=(2,1,0) tid=(20,0,0)
GPGPU-Sim PTX: 17400000 instructions simulated : ctaid=(0,22,0) tid=(29,1,0)
GPGPU-Sim uArch: cycles simulated: 34500  inst.: 15605976 (ipc=452.3) sim_rate=300114 (inst/sec) elapsed = 0:0:00:52 / Tue Mar 22 13:08:51 2016
GPGPU-Sim PTX: 17500000 instructions simulated : ctaid=(2,2,0) tid=(15,0,0)
GPGPU-Sim PTX: 17600000 instructions simulated : ctaid=(2,15,0) tid=(26,1,0)
GPGPU-Sim PTX: 17700000 instructions simulated : ctaid=(0,7,0) tid=(14,1,0)
GPGPU-Sim PTX: 17800000 instructions simulated : ctaid=(0,21,0) tid=(10,1,0)
GPGPU-Sim PTX: 17900000 instructions simulated : ctaid=(2,13,0) tid=(30,2,0)
GPGPU-Sim PTX: 18000000 instructions simulated : ctaid=(3,20,0) tid=(2,0,0)
GPGPU-Sim uArch: cycles simulated: 35500  inst.: 16096099 (ipc=453.4) sim_rate=303699 (inst/sec) elapsed = 0:0:00:53 / Tue Mar 22 13:08:52 2016
GPGPU-Sim PTX: 18100000 instructions simulated : ctaid=(1,23,0) tid=(29,1,0)
GPGPU-Sim PTX: 18200000 instructions simulated : ctaid=(1,14,0) tid=(30,1,0)
GPGPU-Sim uArch: cycles simulated: 36000  inst.: 16324148 (ipc=453.4) sim_rate=302299 (inst/sec) elapsed = 0:0:00:54 / Tue Mar 22 13:08:53 2016
GPGPU-Sim PTX: 18300000 instructions simulated : ctaid=(2,22,0) tid=(16,0,0)
GPGPU-Sim PTX: 18400000 instructions simulated : ctaid=(1,20,0) tid=(23,0,0)
GPGPU-Sim PTX: 18500000 instructions simulated : ctaid=(2,14,0) tid=(28,0,0)
GPGPU-Sim uArch: cycles simulated: 36500  inst.: 16580565 (ipc=454.3) sim_rate=301464 (inst/sec) elapsed = 0:0:00:55 / Tue Mar 22 13:08:54 2016
GPGPU-Sim PTX: 18600000 instructions simulated : ctaid=(0,7,0) tid=(25,3,0)
GPGPU-Sim PTX: 18700000 instructions simulated : ctaid=(1,19,0) tid=(14,0,0)
GPGPU-Sim PTX: 18800000 instructions simulated : ctaid=(1,13,0) tid=(25,2,0)
GPGPU-Sim uArch: cycles simulated: 37000  inst.: 16817975 (ipc=454.5) sim_rate=300320 (inst/sec) elapsed = 0:0:00:56 / Tue Mar 22 13:08:55 2016
GPGPU-Sim PTX: 18900000 instructions simulated : ctaid=(2,21,0) tid=(18,1,0)
GPGPU-Sim PTX: 19000000 instructions simulated : ctaid=(0,4,0) tid=(12,0,0)
GPGPU-Sim PTX: 19100000 instructions simulated : ctaid=(2,17,0) tid=(0,0,0)
GPGPU-Sim PTX: 19200000 instructions simulated : ctaid=(2,0,0) tid=(1,1,0)
GPGPU-Sim PTX: 19300000 instructions simulated : ctaid=(2,21,0) tid=(30,2,0)
GPGPU-Sim uArch: cycles simulated: 38000  inst.: 17305804 (ipc=455.4) sim_rate=303610 (inst/sec) elapsed = 0:0:00:57 / Tue Mar 22 13:08:56 2016
GPGPU-Sim PTX: 19400000 instructions simulated : ctaid=(2,6,0) tid=(24,2,0)
GPGPU-Sim PTX: 19500000 instructions simulated : ctaid=(0,9,0) tid=(19,0,0)
GPGPU-Sim PTX: 19600000 instructions simulated : ctaid=(0,1,0) tid=(26,3,0)
GPGPU-Sim uArch: cycles simulated: 38500  inst.: 17538342 (ipc=455.5) sim_rate=302385 (inst/sec) elapsed = 0:0:00:58 / Tue Mar 22 13:08:57 2016
GPGPU-Sim PTX: 19700000 instructions simulated : ctaid=(0,14,0) tid=(25,3,0)
GPGPU-Sim PTX: 19800000 instructions simulated : ctaid=(2,19,0) tid=(15,2,0)
GPGPU-Sim PTX: 19900000 instructions simulated : ctaid=(2,2,0) tid=(2,3,0)
GPGPU-Sim uArch: cycles simulated: 39000  inst.: 17759658 (ipc=455.4) sim_rate=301011 (inst/sec) elapsed = 0:0:00:59 / Tue Mar 22 13:08:58 2016
GPGPU-Sim PTX: 20000000 instructions simulated : ctaid=(1,15,0) tid=(18,2,0)
GPGPU-Sim PTX: 20100000 instructions simulated : ctaid=(1,5,0) tid=(25,2,0)
GPGPU-Sim PTX: 20200000 instructions simulated : ctaid=(0,10,0) tid=(10,2,0)
GPGPU-Sim PTX: 20300000 instructions simulated : ctaid=(0,5,0) tid=(18,3,0)
GPGPU-Sim PTX: 20400000 instructions simulated : ctaid=(0,6,0) tid=(26,0,0)
GPGPU-Sim uArch: cycles simulated: 40000  inst.: 18266386 (ipc=456.7) sim_rate=304439 (inst/sec) elapsed = 0:0:01:00 / Tue Mar 22 13:08:59 2016
GPGPU-Sim PTX: 20500000 instructions simulated : ctaid=(0,15,0) tid=(12,2,0)
GPGPU-Sim PTX: 20600000 instructions simulated : ctaid=(3,2,0) tid=(3,3,0)
GPGPU-Sim PTX: 20700000 instructions simulated : ctaid=(0,3,0) tid=(29,0,0)
GPGPU-Sim uArch: cycles simulated: 40500  inst.: 18483250 (ipc=456.4) sim_rate=303004 (inst/sec) elapsed = 0:0:01:01 / Tue Mar 22 13:09:00 2016
GPGPU-Sim PTX: 20800000 instructions simulated : ctaid=(1,4,0) tid=(9,0,0)
GPGPU-Sim PTX: 20900000 instructions simulated : ctaid=(0,13,0) tid=(21,1,0)
GPGPU-Sim PTX: 21000000 instructions simulated : ctaid=(1,12,0) tid=(8,3,0)
GPGPU-Sim uArch: cycles simulated: 41000  inst.: 18750061 (ipc=457.3) sim_rate=302420 (inst/sec) elapsed = 0:0:01:02 / Tue Mar 22 13:09:01 2016
GPGPU-Sim PTX: 21100000 instructions simulated : ctaid=(1,12,0) tid=(5,1,0)
GPGPU-Sim PTX: 21200000 instructions simulated : ctaid=(2,6,0) tid=(24,1,0)
GPGPU-Sim uArch: cycles simulated: 41500  inst.: 18990901 (ipc=457.6) sim_rate=301442 (inst/sec) elapsed = 0:0:01:03 / Tue Mar 22 13:09:02 2016
GPGPU-Sim PTX: 21300000 instructions simulated : ctaid=(1,14,0) tid=(10,0,0)
GPGPU-Sim PTX: 21400000 instructions simulated : ctaid=(2,11,0) tid=(2,3,0)
GPGPU-Sim PTX: 21500000 instructions simulated : ctaid=(0,22,0) tid=(7,1,0)
GPGPU-Sim PTX: 21600000 instructions simulated : ctaid=(1,15,0) tid=(5,1,0)
GPGPU-Sim PTX: 21700000 instructions simulated : ctaid=(2,11,0) tid=(5,1,0)
GPGPU-Sim PTX: 21800000 instructions simulated : ctaid=(1,10,0) tid=(28,1,0)
GPGPU-Sim uArch: cycles simulated: 42500  inst.: 19484851 (ipc=458.5) sim_rate=304450 (inst/sec) elapsed = 0:0:01:04 / Tue Mar 22 13:09:03 2016
GPGPU-Sim PTX: 21900000 instructions simulated : ctaid=(3,14,0) tid=(0,2,0)
GPGPU-Sim PTX: 22000000 instructions simulated : ctaid=(3,22,0) tid=(2,2,0)
GPGPU-Sim PTX: 22100000 instructions simulated : ctaid=(1,15,0) tid=(23,2,0)
GPGPU-Sim uArch: cycles simulated: 43000  inst.: 19724093 (ipc=458.7) sim_rate=303447 (inst/sec) elapsed = 0:0:01:05 / Tue Mar 22 13:09:04 2016
GPGPU-Sim PTX: 22200000 instructions simulated : ctaid=(0,19,0) tid=(15,2,0)
GPGPU-Sim PTX: 22300000 instructions simulated : ctaid=(0,6,0) tid=(26,2,0)
GPGPU-Sim uArch: cycles simulated: 43500  inst.: 19958445 (ipc=458.8) sim_rate=302400 (inst/sec) elapsed = 0:0:01:06 / Tue Mar 22 13:09:05 2016
GPGPU-Sim PTX: 22400000 instructions simulated : ctaid=(0,21,0) tid=(9,0,0)
GPGPU-Sim PTX: 22500000 instructions simulated : ctaid=(1,1,0) tid=(30,3,0)
GPGPU-Sim PTX: 22600000 instructions simulated : ctaid=(0,21,0) tid=(2,0,0)
GPGPU-Sim PTX: 22700000 instructions simulated : ctaid=(1,20,0) tid=(16,0,0)
GPGPU-Sim PTX: 22800000 instructions simulated : ctaid=(2,16,0) tid=(4,0,0)
GPGPU-Sim PTX: 22900000 instructions simulated : ctaid=(0,11,0) tid=(8,1,0)
GPGPU-Sim uArch: cycles simulated: 44500  inst.: 20442802 (ipc=459.4) sim_rate=305116 (inst/sec) elapsed = 0:0:01:07 / Tue Mar 22 13:09:06 2016
GPGPU-Sim PTX: 23000000 instructions simulated : ctaid=(0,22,0) tid=(25,0,0)
GPGPU-Sim PTX: 23100000 instructions simulated : ctaid=(2,3,0) tid=(20,0,0)
GPGPU-Sim PTX: 23200000 instructions simulated : ctaid=(0,10,0) tid=(23,0,0)
GPGPU-Sim uArch: cycles simulated: 45000  inst.: 20701410 (ipc=460.0) sim_rate=304432 (inst/sec) elapsed = 0:0:01:08 / Tue Mar 22 13:09:07 2016
GPGPU-Sim PTX: 23300000 instructions simulated : ctaid=(2,24,0) tid=(26,0,0)
GPGPU-Sim PTX: 23400000 instructions simulated : ctaid=(1,22,0) tid=(3,1,0)
GPGPU-Sim uArch: cycles simulated: 45500  inst.: 20931356 (ipc=460.0) sim_rate=303352 (inst/sec) elapsed = 0:0:01:09 / Tue Mar 22 13:09:08 2016
GPGPU-Sim PTX: 23500000 instructions simulated : ctaid=(1,3,0) tid=(12,1,0)
GPGPU-Sim PTX: 23600000 instructions simulated : ctaid=(3,1,0) tid=(2,0,0)
GPGPU-Sim PTX: 23700000 instructions simulated : ctaid=(2,14,0) tid=(3,0,0)
GPGPU-Sim uArch: cycles simulated: 46000  inst.: 21167831 (ipc=460.2) sim_rate=302397 (inst/sec) elapsed = 0:0:01:10 / Tue Mar 22 13:09:09 2016
GPGPU-Sim PTX: 23800000 instructions simulated : ctaid=(2,20,0) tid=(20,3,0)
GPGPU-Sim PTX: 23900000 instructions simulated : ctaid=(0,17,0) tid=(8,1,0)
GPGPU-Sim PTX: 24000000 instructions simulated : ctaid=(0,10,0) tid=(11,3,0)
GPGPU-Sim PTX: 24100000 instructions simulated : ctaid=(0,24,0) tid=(26,2,0)
GPGPU-Sim PTX: 24200000 instructions simulated : ctaid=(0,23,0) tid=(31,3,0)
GPGPU-Sim uArch: cycles simulated: 47000  inst.: 21664810 (ipc=461.0) sim_rate=305138 (inst/sec) elapsed = 0:0:01:11 / Tue Mar 22 13:09:10 2016
GPGPU-Sim PTX: 24300000 instructions simulated : ctaid=(2,8,0) tid=(30,0,0)
GPGPU-Sim PTX: 24400000 instructions simulated : ctaid=(0,16,0) tid=(16,0,0)
GPGPU-Sim PTX: 24500000 instructions simulated : ctaid=(2,24,0) tid=(16,1,0)
GPGPU-Sim uArch: cycles simulated: 47500  inst.: 21900403 (ipc=461.1) sim_rate=304172 (inst/sec) elapsed = 0:0:01:12 / Tue Mar 22 13:09:11 2016
GPGPU-Sim PTX: 24600000 instructions simulated : ctaid=(0,6,0) tid=(1,3,0)
GPGPU-Sim PTX: 24700000 instructions simulated : ctaid=(2,2,0) tid=(24,2,0)
GPGPU-Sim PTX: 24800000 instructions simulated : ctaid=(2,7,0) tid=(7,1,0)
GPGPU-Sim uArch: cycles simulated: 48000  inst.: 22151358 (ipc=461.5) sim_rate=303443 (inst/sec) elapsed = 0:0:01:13 / Tue Mar 22 13:09:12 2016
GPGPU-Sim PTX: 24900000 instructions simulated : ctaid=(2,17,0) tid=(11,1,0)
GPGPU-Sim PTX: 25000000 instructions simulated : ctaid=(0,13,0) tid=(1,0,0)
GPGPU-Sim PTX: 25100000 instructions simulated : ctaid=(1,13,0) tid=(1,0,0)
GPGPU-Sim uArch: cycles simulated: 48500  inst.: 22390623 (ipc=461.7) sim_rate=302575 (inst/sec) elapsed = 0:0:01:14 / Tue Mar 22 13:09:13 2016
GPGPU-Sim PTX: 25200000 instructions simulated : ctaid=(1,16,0) tid=(29,1,0)
GPGPU-Sim PTX: 25300000 instructions simulated : ctaid=(1,19,0) tid=(10,2,0)
GPGPU-Sim PTX: 25400000 instructions simulated : ctaid=(2,14,0) tid=(2,2,0)
GPGPU-Sim PTX: 25500000 instructions simulated : ctaid=(0,3,0) tid=(10,1,0)
GPGPU-Sim PTX: 25600000 instructions simulated : ctaid=(1,15,0) tid=(14,1,0)
GPGPU-Sim uArch: cycles simulated: 49500  inst.: 22874204 (ipc=462.1) sim_rate=304989 (inst/sec) elapsed = 0:0:01:15 / Tue Mar 22 13:09:14 2016
GPGPU-Sim PTX: 25700000 instructions simulated : ctaid=(3,7,0) tid=(7,1,0)
GPGPU-Sim PTX: 25800000 instructions simulated : ctaid=(0,21,0) tid=(20,1,0)
GPGPU-Sim PTX: 25900000 instructions simulated : ctaid=(0,7,0) tid=(13,3,0)
GPGPU-Sim uArch: cycles simulated: 50000  inst.: 23114975 (ipc=462.3) sim_rate=304144 (inst/sec) elapsed = 0:0:01:16 / Tue Mar 22 13:09:15 2016
GPGPU-Sim PTX: 26000000 instructions simulated : ctaid=(2,20,0) tid=(23,0,0)
GPGPU-Sim PTX: 26100000 instructions simulated : ctaid=(1,18,0) tid=(16,0,0)
GPGPU-Sim uArch: cycles simulated: 50500  inst.: 23352660 (ipc=462.4) sim_rate=303281 (inst/sec) elapsed = 0:0:01:17 / Tue Mar 22 13:09:16 2016
GPGPU-Sim PTX: 26200000 instructions simulated : ctaid=(2,11,0) tid=(30,0,0)
GPGPU-Sim PTX: 26300000 instructions simulated : ctaid=(2,24,0) tid=(13,3,0)
GPGPU-Sim PTX: 26400000 instructions simulated : ctaid=(2,21,0) tid=(23,0,0)
GPGPU-Sim PTX: 26500000 instructions simulated : ctaid=(2,24,0) tid=(17,2,0)
GPGPU-Sim PTX: 26600000 instructions simulated : ctaid=(1,8,0) tid=(21,2,0)
GPGPU-Sim PTX: 26700000 instructions simulated : ctaid=(0,17,0) tid=(11,2,0)
GPGPU-Sim uArch: cycles simulated: 51500  inst.: 23836707 (ipc=462.8) sim_rate=305598 (inst/sec) elapsed = 0:0:01:18 / Tue Mar 22 13:09:17 2016
GPGPU-Sim PTX: 26800000 instructions simulated : ctaid=(0,5,0) tid=(6,2,0)
GPGPU-Sim PTX: 26900000 instructions simulated : ctaid=(1,7,0) tid=(27,1,0)
GPGPU-Sim PTX: 27000000 instructions simulated : ctaid=(0,4,0) tid=(31,2,0)
GPGPU-Sim uArch: cycles simulated: 52000  inst.: 24086208 (ipc=463.2) sim_rate=304888 (inst/sec) elapsed = 0:0:01:19 / Tue Mar 22 13:09:18 2016
GPGPU-Sim PTX: 27100000 instructions simulated : ctaid=(2,24,0) tid=(6,3,0)
GPGPU-Sim PTX: 27200000 instructions simulated : ctaid=(0,12,0) tid=(4,2,0)
GPGPU-Sim uArch: cycles simulated: 52500  inst.: 24335330 (ipc=463.5) sim_rate=304191 (inst/sec) elapsed = 0:0:01:20 / Tue Mar 22 13:09:19 2016
GPGPU-Sim PTX: 27300000 instructions simulated : ctaid=(3,16,0) tid=(12,1,0)
GPGPU-Sim PTX: 27400000 instructions simulated : ctaid=(0,0,0) tid=(7,0,0)
GPGPU-Sim PTX: 27500000 instructions simulated : ctaid=(2,13,0) tid=(3,1,0)
GPGPU-Sim uArch: cycles simulated: 53000  inst.: 24574086 (ipc=463.7) sim_rate=303383 (inst/sec) elapsed = 0:0:01:21 / Tue Mar 22 13:09:20 2016
GPGPU-Sim PTX: 27600000 instructions simulated : ctaid=(0,18,0) tid=(2,1,0)
GPGPU-Sim PTX: 27700000 instructions simulated : ctaid=(0,6,0) tid=(5,0,0)
GPGPU-Sim PTX: 27800000 instructions simulated : ctaid=(0,3,0) tid=(0,3,0)
GPGPU-Sim PTX: 27900000 instructions simulated : ctaid=(0,3,0) tid=(25,0,0)
GPGPU-Sim PTX: 28000000 instructions simulated : ctaid=(0,3,0) tid=(0,2,0)
GPGPU-Sim PTX: 28100000 instructions simulated : ctaid=(2,10,0) tid=(31,1,0)
GPGPU-Sim uArch: cycles simulated: 54000  inst.: 25068512 (ipc=464.2) sim_rate=305713 (inst/sec) elapsed = 0:0:01:22 / Tue Mar 22 13:09:21 2016
GPGPU-Sim PTX: 28200000 instructions simulated : ctaid=(0,7,0) tid=(9,3,0)
GPGPU-Sim PTX: 28300000 instructions simulated : ctaid=(0,0,0) tid=(17,0,0)
GPGPU-Sim uArch: cycles simulated: 54500  inst.: 25290214 (ipc=464.0) sim_rate=304701 (inst/sec) elapsed = 0:0:01:23 / Tue Mar 22 13:09:22 2016
GPGPU-Sim PTX: 28400000 instructions simulated : ctaid=(1,21,0) tid=(5,2,0)
GPGPU-Sim PTX: 28500000 instructions simulated : ctaid=(1,14,0) tid=(31,0,0)
GPGPU-Sim PTX: 28600000 instructions simulated : ctaid=(1,3,0) tid=(4,1,0)
GPGPU-Sim uArch: cycles simulated: 55000  inst.: 25556450 (ipc=464.7) sim_rate=304243 (inst/sec) elapsed = 0:0:01:24 / Tue Mar 22 13:09:23 2016
GPGPU-Sim PTX: 28700000 instructions simulated : ctaid=(1,24,0) tid=(10,1,0)
GPGPU-Sim PTX: 28800000 instructions simulated : ctaid=(0,19,0) tid=(9,0,0)
GPGPU-Sim PTX: 28900000 instructions simulated : ctaid=(2,12,0) tid=(30,0,0)
GPGPU-Sim uArch: cycles simulated: 55500  inst.: 25791733 (ipc=464.7) sim_rate=303432 (inst/sec) elapsed = 0:0:01:25 / Tue Mar 22 13:09:24 2016
GPGPU-Sim PTX: 29000000 instructions simulated : ctaid=(2,20,0) tid=(28,0,0)
GPGPU-Sim PTX: 29100000 instructions simulated : ctaid=(2,21,0) tid=(0,0,0)
GPGPU-Sim PTX: 29200000 instructions simulated : ctaid=(0,4,0) tid=(9,0,0)
GPGPU-Sim PTX: 29300000 instructions simulated : ctaid=(2,9,0) tid=(22,0,0)
GPGPU-Sim PTX: 29400000 instructions simulated : ctaid=(1,17,0) tid=(7,1,0)
GPGPU-Sim uArch: cycles simulated: 56500  inst.: 26281177 (ipc=465.2) sim_rate=305595 (inst/sec) elapsed = 0:0:01:26 / Tue Mar 22 13:09:25 2016
GPGPU-Sim PTX: 29500000 instructions simulated : ctaid=(0,4,0) tid=(16,2,0)
GPGPU-Sim PTX: 29600000 instructions simulated : ctaid=(3,1,0) tid=(1,0,0)
GPGPU-Sim PTX: 29700000 instructions simulated : ctaid=(0,24,0) tid=(27,1,0)
GPGPU-Sim uArch: cycles simulated: 57000  inst.: 26512511 (ipc=465.1) sim_rate=304741 (inst/sec) elapsed = 0:0:01:27 / Tue Mar 22 13:09:26 2016
GPGPU-Sim PTX: 29800000 instructions simulated : ctaid=(1,6,0) tid=(19,1,0)
GPGPU-Sim PTX: 29900000 instructions simulated : ctaid=(2,8,0) tid=(20,1,0)
GPGPU-Sim PTX: 30000000 instructions simulated : ctaid=(1,18,0) tid=(15,0,0)
GPGPU-Sim uArch: cycles simulated: 57500  inst.: 26759009 (ipc=465.4) sim_rate=304079 (inst/sec) elapsed = 0:0:01:28 / Tue Mar 22 13:09:27 2016
GPGPU-Sim PTX: 30100000 instructions simulated : ctaid=(1,13,0) tid=(14,1,0)
GPGPU-Sim PTX: 30200000 instructions simulated : ctaid=(0,6,0) tid=(16,3,0)
GPGPU-Sim PTX: 30300000 instructions simulated : ctaid=(0,10,0) tid=(5,2,0)
GPGPU-Sim PTX: 30400000 instructions simulated : ctaid=(3,12,0) tid=(0,2,0)
GPGPU-Sim PTX: 30500000 instructions simulated : ctaid=(0,13,0) tid=(28,1,0)
GPGPU-Sim uArch: cycles simulated: 58500  inst.: 27244120 (ipc=465.7) sim_rate=306113 (inst/sec) elapsed = 0:0:01:29 / Tue Mar 22 13:09:28 2016
GPGPU-Sim PTX: 30600000 instructions simulated : ctaid=(2,21,0) tid=(0,3,0)
GPGPU-Sim PTX: 30700000 instructions simulated : ctaid=(0,13,0) tid=(4,2,0)
GPGPU-Sim PTX: 30800000 instructions simulated : ctaid=(3,20,0) tid=(25,1,0)
GPGPU-Sim uArch: cycles simulated: 59000  inst.: 27492368 (ipc=466.0) sim_rate=305470 (inst/sec) elapsed = 0:0:01:30 / Tue Mar 22 13:09:29 2016
GPGPU-Sim PTX: 30900000 instructions simulated : ctaid=(0,14,0) tid=(23,0,0)
GPGPU-Sim PTX: 31000000 instructions simulated : ctaid=(0,17,0) tid=(16,2,0)
GPGPU-Sim PTX: 31100000 instructions simulated : ctaid=(1,13,0) tid=(7,0,0)
GPGPU-Sim uArch: cycles simulated: 59500  inst.: 27717932 (ipc=465.8) sim_rate=304592 (inst/sec) elapsed = 0:0:01:31 / Tue Mar 22 13:09:30 2016
GPGPU-Sim PTX: 31200000 instructions simulated : ctaid=(0,24,0) tid=(11,1,0)
GPGPU-Sim PTX: 31300000 instructions simulated : ctaid=(1,9,0) tid=(9,3,0)
GPGPU-Sim uArch: cycles simulated: 60000  inst.: 27958720 (ipc=466.0) sim_rate=303899 (inst/sec) elapsed = 0:0:01:32 / Tue Mar 22 13:09:31 2016
GPGPU-Sim PTX: 31400000 instructions simulated : ctaid=(1,0,0) tid=(14,1,0)
GPGPU-Sim PTX: 31500000 instructions simulated : ctaid=(0,7,0) tid=(10,1,0)
GPGPU-Sim PTX: 31600000 instructions simulated : ctaid=(3,3,0) tid=(2,3,0)
GPGPU-Sim PTX: 31700000 instructions simulated : ctaid=(0,15,0) tid=(28,0,0)
GPGPU-Sim PTX: 31800000 instructions simulated : ctaid=(0,3,0) tid=(20,2,0)
GPGPU-Sim PTX: 31900000 instructions simulated : ctaid=(2,8,0) tid=(8,1,0)
GPGPU-Sim uArch: cycles simulated: 61000  inst.: 28441484 (ipc=466.3) sim_rate=305822 (inst/sec) elapsed = 0:0:01:33 / Tue Mar 22 13:09:32 2016
GPGPU-Sim PTX: 32000000 instructions simulated : ctaid=(2,5,0) tid=(31,0,0)
GPGPU-Sim PTX: 32100000 instructions simulated : ctaid=(0,0,0) tid=(2,1,0)
GPGPU-Sim uArch: cycles simulated: 61500  inst.: 28679959 (ipc=466.3) sim_rate=305105 (inst/sec) elapsed = 0:0:01:34 / Tue Mar 22 13:09:33 2016
GPGPU-Sim PTX: 32200000 instructions simulated : ctaid=(1,4,0) tid=(14,2,0)
GPGPU-Sim PTX: 32300000 instructions simulated : ctaid=(0,11,0) tid=(18,0,0)
GPGPU-Sim PTX: 32400000 instructions simulated : ctaid=(2,19,0) tid=(9,2,0)
GPGPU-Sim uArch: cycles simulated: 62000  inst.: 28929353 (ipc=466.6) sim_rate=304519 (inst/sec) elapsed = 0:0:01:35 / Tue Mar 22 13:09:34 2016
GPGPU-Sim PTX: 32500000 instructions simulated : ctaid=(2,8,0) tid=(6,0,0)
GPGPU-Sim PTX: 32600000 instructions simulated : ctaid=(2,16,0) tid=(19,0,0)
GPGPU-Sim PTX: 32700000 instructions simulated : ctaid=(0,5,0) tid=(29,2,0)
GPGPU-Sim PTX: 32800000 instructions simulated : ctaid=(0,19,0) tid=(5,3,0)
GPGPU-Sim PTX: 32900000 instructions simulated : ctaid=(1,8,0) tid=(27,1,0)
GPGPU-Sim PTX: 33000000 instructions simulated : ctaid=(0,4,0) tid=(14,0,0)
GPGPU-Sim uArch: cycles simulated: 63000  inst.: 29421043 (ipc=467.0) sim_rate=306469 (inst/sec) elapsed = 0:0:01:36 / Tue Mar 22 13:09:35 2016
GPGPU-Sim PTX: 33100000 instructions simulated : ctaid=(0,11,0) tid=(2,2,0)
GPGPU-Sim PTX: 33200000 instructions simulated : ctaid=(1,10,0) tid=(14,1,0)
GPGPU-Sim PTX: 33300000 instructions simulated : ctaid=(0,22,0) tid=(20,3,0)
GPGPU-Sim uArch: cycles simulated: 63500  inst.: 29670150 (ipc=467.2) sim_rate=305877 (inst/sec) elapsed = 0:0:01:37 / Tue Mar 22 13:09:36 2016
GPGPU-Sim PTX: 33400000 instructions simulated : ctaid=(2,7,0) tid=(11,3,0)
GPGPU-Sim PTX: 33500000 instructions simulated : ctaid=(1,11,0) tid=(4,1,0)
GPGPU-Sim uArch: cycles simulated: 64000  inst.: 29919303 (ipc=467.5) sim_rate=305299 (inst/sec) elapsed = 0:0:01:38 / Tue Mar 22 13:09:37 2016
GPGPU-Sim PTX: 33600000 instructions simulated : ctaid=(2,1,0) tid=(12,2,0)
GPGPU-Sim PTX: 33700000 instructions simulated : ctaid=(1,19,0) tid=(29,3,0)
GPGPU-Sim PTX: 33800000 instructions simulated : ctaid=(2,17,0) tid=(3,3,0)
GPGPU-Sim PTX: 33900000 instructions simulated : ctaid=(1,21,0) tid=(27,1,0)
GPGPU-Sim PTX: 34000000 instructions simulated : ctaid=(2,21,0) tid=(2,0,0)
GPGPU-Sim PTX: 34100000 instructions simulated : ctaid=(1,5,0) tid=(6,0,0)
GPGPU-Sim uArch: cycles simulated: 65000  inst.: 30399118 (ipc=467.7) sim_rate=307061 (inst/sec) elapsed = 0:0:01:39 / Tue Mar 22 13:09:38 2016
GPGPU-Sim PTX: 34200000 instructions simulated : ctaid=(2,21,0) tid=(27,3,0)
GPGPU-Sim PTX: 34300000 instructions simulated : ctaid=(3,15,0) tid=(0,1,0)
GPGPU-Sim uArch: cycles simulated: 65500  inst.: 30626701 (ipc=467.6) sim_rate=306267 (inst/sec) elapsed = 0:0:01:40 / Tue Mar 22 13:09:39 2016
GPGPU-Sim PTX: 34400000 instructions simulated : ctaid=(1,9,0) tid=(8,0,0)
GPGPU-Sim PTX: 34500000 instructions simulated : ctaid=(1,7,0) tid=(3,3,0)
GPGPU-Sim PTX: 34600000 instructions simulated : ctaid=(1,10,0) tid=(6,1,0)
GPGPU-Sim PTX: 34700000 instructions simulated : ctaid=(0,5,0) tid=(19,2,0)
GPGPU-Sim PTX: 34800000 instructions simulated : ctaid=(0,22,0) tid=(12,0,0)
GPGPU-Sim PTX: 34900000 instructions simulated : ctaid=(1,4,0) tid=(21,3,0)
GPGPU-Sim uArch: cycles simulated: 66500  inst.: 31114499 (ipc=467.9) sim_rate=308064 (inst/sec) elapsed = 0:0:01:41 / Tue Mar 22 13:09:40 2016
GPGPU-Sim PTX: 35000000 instructions simulated : ctaid=(2,6,0) tid=(11,0,0)
GPGPU-Sim PTX: 35100000 instructions simulated : ctaid=(2,4,0) tid=(2,3,0)
GPGPU-Sim uArch: cycles simulated: 67000  inst.: 31343964 (ipc=467.8) sim_rate=307293 (inst/sec) elapsed = 0:0:01:42 / Tue Mar 22 13:09:41 2016
GPGPU-Sim PTX: 35200000 instructions simulated : ctaid=(0,20,0) tid=(28,2,0)
GPGPU-Sim PTX: 35300000 instructions simulated : ctaid=(0,5,0) tid=(0,3,0)
GPGPU-Sim PTX: 35400000 instructions simulated : ctaid=(2,14,0) tid=(12,0,0)
GPGPU-Sim PTX: 35500000 instructions simulated : ctaid=(3,12,0) tid=(0,1,0)
GPGPU-Sim PTX: 35600000 instructions simulated : ctaid=(2,20,0) tid=(13,2,0)
GPGPU-Sim PTX: 35700000 instructions simulated : ctaid=(1,8,0) tid=(4,2,0)
GPGPU-Sim uArch: cycles simulated: 68000  inst.: 31835809 (ipc=468.2) sim_rate=309085 (inst/sec) elapsed = 0:0:01:43 / Tue Mar 22 13:09:42 2016
GPGPU-Sim PTX: 35800000 instructions simulated : ctaid=(0,16,0) tid=(12,0,0)
GPGPU-Sim PTX: 35900000 instructions simulated : ctaid=(2,10,0) tid=(9,2,0)
GPGPU-Sim PTX: 36000000 instructions simulated : ctaid=(2,3,0) tid=(25,3,0)
GPGPU-Sim uArch: cycles simulated: 68500  inst.: 32078080 (ipc=468.3) sim_rate=308443 (inst/sec) elapsed = 0:0:01:44 / Tue Mar 22 13:09:43 2016
GPGPU-Sim PTX: 36100000 instructions simulated : ctaid=(0,13,0) tid=(6,1,0)
GPGPU-Sim PTX: 36200000 instructions simulated : ctaid=(1,9,0) tid=(8,1,0)
GPGPU-Sim PTX: 36300000 instructions simulated : ctaid=(0,11,0) tid=(26,1,0)
GPGPU-Sim PTX: 36400000 instructions simulated : ctaid=(1,8,0) tid=(1,2,0)
GPGPU-Sim PTX: 36500000 instructions simulated : ctaid=(3,21,0) tid=(13,0,0)
GPGPU-Sim uArch: cycles simulated: 69500  inst.: 32556806 (ipc=468.4) sim_rate=310064 (inst/sec) elapsed = 0:0:01:45 / Tue Mar 22 13:09:44 2016
GPGPU-Sim PTX: 36600000 instructions simulated : ctaid=(2,17,0) tid=(1,2,0)
GPGPU-Sim PTX: 36700000 instructions simulated : ctaid=(0,5,0) tid=(0,1,0)
GPGPU-Sim PTX: 36800000 instructions simulated : ctaid=(2,23,0) tid=(15,0,0)
GPGPU-Sim uArch: cycles simulated: 70000  inst.: 32808866 (ipc=468.7) sim_rate=309517 (inst/sec) elapsed = 0:0:01:46 / Tue Mar 22 13:09:45 2016
GPGPU-Sim PTX: 36900000 instructions simulated : ctaid=(2,12,0) tid=(18,0,0)
GPGPU-Sim PTX: 37000000 instructions simulated : ctaid=(2,19,0) tid=(3,1,0)
GPGPU-Sim PTX: 37100000 instructions simulated : ctaid=(1,20,0) tid=(25,0,0)
GPGPU-Sim PTX: 37200000 instructions simulated : ctaid=(2,10,0) tid=(0,1,0)
GPGPU-Sim PTX: 37300000 instructions simulated : ctaid=(3,6,0) tid=(4,2,0)
GPGPU-Sim uArch: cycles simulated: 71000  inst.: 33281751 (ipc=468.8) sim_rate=311044 (inst/sec) elapsed = 0:0:01:47 / Tue Mar 22 13:09:46 2016
GPGPU-Sim PTX: 37400000 instructions simulated : ctaid=(1,3,0) tid=(15,1,0)
GPGPU-Sim PTX: 37500000 instructions simulated : ctaid=(0,18,0) tid=(0,0,0)
GPGPU-Sim PTX: 37600000 instructions simulated : ctaid=(1,4,0) tid=(21,3,0)
GPGPU-Sim uArch: cycles simulated: 71500  inst.: 33540873 (ipc=469.1) sim_rate=310563 (inst/sec) elapsed = 0:0:01:48 / Tue Mar 22 13:09:47 2016
GPGPU-Sim PTX: 37700000 instructions simulated : ctaid=(3,4,0) tid=(23,3,0)
GPGPU-Sim PTX: 37800000 instructions simulated : ctaid=(2,0,0) tid=(30,1,0)
GPGPU-Sim PTX: 37900000 instructions simulated : ctaid=(2,11,0) tid=(9,3,0)
GPGPU-Sim uArch: cycles simulated: 72000  inst.: 33793779 (ipc=469.4) sim_rate=310034 (inst/sec) elapsed = 0:0:01:49 / Tue Mar 22 13:09:48 2016
GPGPU-Sim PTX: 38000000 instructions simulated : ctaid=(1,10,0) tid=(17,3,0)
GPGPU-Sim PTX: 38100000 instructions simulated : ctaid=(3,10,0) tid=(12,2,0)
GPGPU-Sim uArch: cycles simulated: 72500  inst.: 34013731 (ipc=469.2) sim_rate=309215 (inst/sec) elapsed = 0:0:01:50 / Tue Mar 22 13:09:49 2016
GPGPU-Sim PTX: 38200000 instructions simulated : ctaid=(1,18,0) tid=(0,2,0)
GPGPU-Sim PTX: 38300000 instructions simulated : ctaid=(2,12,0) tid=(22,2,0)
GPGPU-Sim PTX: 38400000 instructions simulated : ctaid=(0,22,0) tid=(12,3,0)
GPGPU-Sim PTX: 38500000 instructions simulated : ctaid=(2,24,0) tid=(15,3,0)
GPGPU-Sim PTX: 38600000 instructions simulated : ctaid=(0,23,0) tid=(26,1,0)
GPGPU-Sim PTX: 38700000 instructions simulated : ctaid=(2,1,0) tid=(29,1,0)
GPGPU-Sim uArch: cycles simulated: 73500  inst.: 34523535 (ipc=469.7) sim_rate=311022 (inst/sec) elapsed = 0:0:01:51 / Tue Mar 22 13:09:50 2016
GPGPU-Sim PTX: 38800000 instructions simulated : ctaid=(1,4,0) tid=(3,0,0)
GPGPU-Sim PTX: 38900000 instructions simulated : ctaid=(2,8,0) tid=(10,3,0)
GPGPU-Sim PTX: 39000000 instructions simulated : ctaid=(0,16,0) tid=(20,0,0)
GPGPU-Sim uArch: cycles simulated: 74000  inst.: 34739509 (ipc=469.5) sim_rate=310174 (inst/sec) elapsed = 0:0:01:52 / Tue Mar 22 13:09:51 2016
GPGPU-Sim PTX: 39100000 instructions simulated : ctaid=(1,9,0) tid=(5,2,0)
GPGPU-Sim PTX: 39200000 instructions simulated : ctaid=(3,24,0) tid=(15,1,0)
GPGPU-Sim uArch: cycles simulated: 74500  inst.: 34999908 (ipc=469.8) sim_rate=309733 (inst/sec) elapsed = 0:0:01:53 / Tue Mar 22 13:09:52 2016
GPGPU-Sim PTX: 39300000 instructions simulated : ctaid=(1,9,0) tid=(6,1,0)
GPGPU-Sim PTX: 39400000 instructions simulated : ctaid=(0,20,0) tid=(15,2,0)
GPGPU-Sim PTX: 39500000 instructions simulated : ctaid=(2,11,0) tid=(5,2,0)
GPGPU-Sim PTX: 39600000 instructions simulated : ctaid=(2,7,0) tid=(25,3,0)
GPGPU-Sim PTX: 39700000 instructions simulated : ctaid=(3,15,0) tid=(2,2,0)
GPGPU-Sim PTX: 39800000 instructions simulated : ctaid=(0,4,0) tid=(30,2,0)
GPGPU-Sim uArch: cycles simulated: 75500  inst.: 35465244 (ipc=469.7) sim_rate=311098 (inst/sec) elapsed = 0:0:01:54 / Tue Mar 22 13:09:53 2016
GPGPU-Sim PTX: 39900000 instructions simulated : ctaid=(2,2,0) tid=(6,0,0)
GPGPU-Sim PTX: 40000000 instructions simulated : ctaid=(0,3,0) tid=(5,2,0)
GPGPU-Sim PTX: 40100000 instructions simulated : ctaid=(0,23,0) tid=(23,3,0)
GPGPU-Sim uArch: cycles simulated: 76000  inst.: 35729645 (ipc=470.1) sim_rate=310692 (inst/sec) elapsed = 0:0:01:55 / Tue Mar 22 13:09:54 2016
GPGPU-Sim PTX: 40200000 instructions simulated : ctaid=(1,1,0) tid=(0,0,0)
GPGPU-Sim PTX: 40300000 instructions simulated : ctaid=(1,19,0) tid=(23,1,0)
GPGPU-Sim uArch: cycles simulated: 76500  inst.: 35957452 (ipc=470.0) sim_rate=309978 (inst/sec) elapsed = 0:0:01:56 / Tue Mar 22 13:09:55 2016
GPGPU-Sim PTX: 40400000 instructions simulated : ctaid=(2,12,0) tid=(20,3,0)
GPGPU-Sim PTX: 40500000 instructions simulated : ctaid=(0,16,0) tid=(10,3,0)
GPGPU-Sim PTX: 40600000 instructions simulated : ctaid=(1,5,0) tid=(0,1,0)
GPGPU-Sim uArch: cycles simulated: 77000  inst.: 36196002 (ipc=470.1) sim_rate=309367 (inst/sec) elapsed = 0:0:01:57 / Tue Mar 22 13:09:56 2016
GPGPU-Sim PTX: 40700000 instructions simulated : ctaid=(0,2,0) tid=(18,2,0)
GPGPU-Sim PTX: 40800000 instructions simulated : ctaid=(0,0,0) tid=(2,3,0)
GPGPU-Sim PTX: 40900000 instructions simulated : ctaid=(1,12,0) tid=(4,0,0)
GPGPU-Sim PTX: 41000000 instructions simulated : ctaid=(2,15,0) tid=(18,0,0)
GPGPU-Sim PTX: 41100000 instructions simulated : ctaid=(0,13,0) tid=(7,2,0)
GPGPU-Sim uArch: cycles simulated: 78000  inst.: 36679417 (ipc=470.2) sim_rate=310842 (inst/sec) elapsed = 0:0:01:58 / Tue Mar 22 13:09:57 2016
GPGPU-Sim PTX: 41200000 instructions simulated : ctaid=(2,13,0) tid=(4,0,0)
GPGPU-Sim PTX: 41300000 instructions simulated : ctaid=(1,1,0) tid=(0,2,0)
GPGPU-Sim PTX: 41400000 instructions simulated : ctaid=(3,0,0) tid=(2,3,0)
GPGPU-Sim uArch: cycles simulated: 78500  inst.: 36916582 (ipc=470.3) sim_rate=310223 (inst/sec) elapsed = 0:0:01:59 / Tue Mar 22 13:09:58 2016
GPGPU-Sim PTX: 41500000 instructions simulated : ctaid=(1,13,0) tid=(5,2,0)
GPGPU-Sim PTX: 41600000 instructions simulated : ctaid=(1,8,0) tid=(14,1,0)
GPGPU-Sim PTX: 41700000 instructions simulated : ctaid=(0,11,0) tid=(9,3,0)
GPGPU-Sim uArch: cycles simulated: 79000  inst.: 37166856 (ipc=470.5) sim_rate=309723 (inst/sec) elapsed = 0:0:02:00 / Tue Mar 22 13:09:59 2016
GPGPU-Sim PTX: 41800000 instructions simulated : ctaid=(0,22,0) tid=(18,1,0)
GPGPU-Sim PTX: 41900000 instructions simulated : ctaid=(1,9,0) tid=(13,3,0)
GPGPU-Sim PTX: 42000000 instructions simulated : ctaid=(0,12,0) tid=(4,1,0)
GPGPU-Sim PTX: 42100000 instructions simulated : ctaid=(2,11,0) tid=(1,0,0)
GPGPU-Sim PTX: 42200000 instructions simulated : ctaid=(1,20,0) tid=(10,3,0)
GPGPU-Sim uArch: cycles simulated: 80000  inst.: 37640460 (ipc=470.5) sim_rate=311078 (inst/sec) elapsed = 0:0:02:01 / Tue Mar 22 13:10:00 2016
GPGPU-Sim PTX: 42300000 instructions simulated : ctaid=(1,2,0) tid=(14,1,0)
GPGPU-Sim PTX: 42400000 instructions simulated : ctaid=(2,16,0) tid=(20,3,0)
GPGPU-Sim PTX: 42500000 instructions simulated : ctaid=(2,9,0) tid=(15,1,0)
GPGPU-Sim uArch: cycles simulated: 80500  inst.: 37889056 (ipc=470.7) sim_rate=310566 (inst/sec) elapsed = 0:0:02:02 / Tue Mar 22 13:10:01 2016
GPGPU-Sim PTX: 42600000 instructions simulated : ctaid=(2,24,0) tid=(3,1,0)
[...]
traffic_breakdown_memtocore[CONST_ACC_R] = 1080 {72:15,}
traffic_breakdown_memtocore[GLOBAL_ACC_R] = 15153528 {136:111423,}
traffic_breakdown_memtocore[GLOBAL_ACC_W] = 530000 {8:66250,}
traffic_breakdown_memtocore[INST_ACC_R] = 28560 {136:210,}
maxmrqlatency = 526 
maxdqlatency = 0 
maxmflatency = 1034 
averagemflatency = 230 
max_icnt2mem_latency = 187 
max_icnt2sh_latency = 163980 
mrq_lat_table:55618 	3503 	3636 	9281 	23239 	19091 	8291 	1544 	90 	1 	0 	0 	0 	0 	0 	0 	0 	0 	0 	0 	0 	0 	0 	0 	0 	0 	0 	0 	0 	0 	0 	0 	
dq_lat_table:0 	0 	0 	0 	0 	0 	0 	0 	0 	0 	0 	0 	0 	0 	0 	0 	0 	0 	0 	0 	0 	0 	0 	0 	0 	0 	0 	0 	0 	0 	0 	0 	
mf_lat_table:0 	0 	0 	0 	0 	0 	0 	98521 	78298 	868 	1 	0 	0 	0 	0 	0 	0 	0 	0 	0 	0 	0 	0 	0 	0 	0 	0 	0 	0 	0 	0 	0 	
icnt2mem_lat_table:0 	0 	0 	124450 	46268 	6787 	359 	34 	0 	0 	0 	0 	0 	0 	0 	0 	0 	0 	0 	0 	0 	0 	0 	0 	
icnt2sh_lat_table:0 	0 	0 	31166 	59975 	19873 	424 	0 	0 	0 	0 	0 	1481 	3690 	7197 	14655 	29122 	10105 	0 	0 	0 	0 	0 	0 	
mf_lat_pw_table:0 	0 	0 	0 	0 	0 	0 	314 	12 	0 	0 	0 	0 	0 	0 	0 	0 	0 	0 	0 	0 	0 	0 	0 	0 	0 	0 	0 	0 	0 	0 	0 	
maximum concurrent accesses to same row:
dram[0]:        17        12        15        16        16        16        32        32        30        57        30        24        27        17        18        18 
dram[1]:        18        12        21        14        14        18        32        32        32        46        15        23        16        12        16        18 
dram[2]:        16        15        16        19        16        17        32        32        29        61        23        27        12        16        18        15 
dram[3]:        21        20        15        16        14        17        32        32        37        53        26        35        14        18        16        23 
dram[4]:        13        21        16        16        13        14        32        32        42        39        23        21        20        19        18        15 
dram[5]:        16        14        12        17        17        17        32        32        38        40        19        29        15        24        28        12 
maximum service time to same row:
dram[0]:      9766      9049     11932     11972     12499     12291     14547     14279     11348     10575      9659      9706     10182      9857      9784     10457 
dram[1]:      9450     10572     11934     12084     12451     12296     14102     13989     10184     11444      9560      9928      9796      9912     10291     10144 
dram[2]:     10004     10560     12490     12082     12607     12440     14110     13977     10787     10547      9562      9792     10348      9882      9757     10398 
dram[3]:      9881     10458     11922     11985     12506     12694     14405     14694     11287     10634      9808      9592     10075      9750     10408     10028 
dram[4]:      8997     10453     11981     11929     12387     12544     14532     14863     10239     11310      9617      9527     10193      9224     10040     10059 
dram[5]:      9126     10682     11978     12479     12319     12379     14459     14564     10585     10828      9808      9481     10035      9571     10441     10253 
average row accesses per activate:
dram[0]:  2.437859  2.494164  2.470817  2.465385  2.471624  2.580838  2.358047  2.645161  2.600000  2.642994  2.651731  2.448598  2.589431  2.411765  2.758099  2.429111 
dram[1]:  2.627049  2.350459  2.565392  2.564000  2.415879  2.494186  2.525292  2.600798  2.679208  2.647399  2.397436  2.543520  2.540161  2.579158  2.541082  2.429379 
dram[2]:  2.437859  2.425047  2.499010  2.454198  2.489320  2.661157  2.462547  2.471591  2.649806  2.751503  2.598425  2.480226  2.476378  2.588353  2.466019  2.492248 
dram[3]:  2.531746  2.484436  2.450000  2.559118  2.436190  2.519763  2.431520  2.698152  2.670588  2.841996  2.390909  2.616000  2.381132  2.579681  2.543086  2.513834 
dram[4]:  2.591463  2.417624  2.483366  2.587398  2.527559  2.522863  2.520468  2.659137  2.633397  2.843096  2.507605  2.494253  2.494141  2.531621  2.554217  2.451923 
dram[5]:  2.595092  2.333333  2.349442  2.553106  2.503891  2.614108  2.491396  2.489443  2.694444  2.816667  2.459963  2.487666  2.556225  2.466281  2.511628  2.490157 
average row locality = 124294/49110 = 2.530931
number of total memory accesses made:
dram[0]:         0         0         0         0         0         0         0         0         0         0         0         0         0         0         0         0 
dram[1]:         0         0         0         0         0         0         0         0         0         0         0         0         0         0         0         0 
dram[2]:         0         0         0         0         0         0         0         0         0         0         0         0         0         0         0         0 
dram[3]:         0         0         0         0         0         0         0         0         0         0         0         0         0         0         0         0 
dram[4]:         0         0         0         0         0         0         0         0         0         0         0         0         0         0         0         0 
dram[5]:         0         0         0         0         0         0         0         0         0         0         0         0         0         0         0         0 
total accesses: 0
min_bank_accesses = 0!
min_chip_accesses = 0!
number of total read accesses:
dram[0]:       656       667       653       665       661       674       682       700       679       695       661       669       648       660       656       660 
dram[1]:       657       663       650       664       664       673       679       698       681       699       662       675       653       665       651       663 
dram[2]:       652       662       653       663       667       674       691       697       686       695       665       675       651       661       655       662 
dram[3]:       656       656       657       654       665       669       688       696       686       690       669       672       657       661       661       656 
dram[4]:       658       652       657       654       670       667       695       688       695       683       672       665       661       653       661       655 
dram[5]:       664       649       662       649       667       660       695       686       692       685       673       667       662       650       670       649 
total reads: 64151
bank skew: 700/648 = 1.08
chip skew: 10709/10680 = 1.00
number of total write accesses:
dram[0]:       619       615       617       617       602       619       622       612       660       682       641       641       626       611       621       625 
dram[1]:       625       618       625       618       614       614       619       605       672       675       647       640       612       622       617       627 
dram[2]:       623       616       609       623       615       614       624       608       676       678       655       642       607       628       615       624 
dram[3]:       620       621       617       623       614       606       608       618       676       677       646       636       605       634       608       616 
dram[4]:       617       610       612       619       614       602       598       607       677       676       647       637       616       628       611       620 
dram[5]:       605       611       602       625       620       600       608       611       666       667       648       644       611       630       626       616 
total reads: 60143
bank skew: 682/598 = 1.14
chip skew: 10057/9990 = 1.01
average mf latency per bank:
dram[0]:        324       326       326       320       334       326       342       342       338       347       329       323       327       326       327       325
dram[1]:        324       324       329       326       330       331       343       342       336       346       327       322       326       325       327       325
dram[2]:        328       322       332       320       329       332       342       339       339       346       325       318       321       321       325       322
dram[3]:        330       321       324       330       332       334       341       334       342       344       323       328       325       319       325       322
dram[4]:        324       323       328       327       336       331       339       337       341       338       327       321       326       319       325       321
dram[5]:        328       327       323       326       329       335       340       341       340       337       324       323       325       327       322       327
maximum mf latency per bank:
dram[0]:        455       590       473       471       544       486       479       477       846       886       592       570       601       521       535       517
dram[1]:        491       475       520       615       498       636       513       608       694       854       505       587       613       556       506       502
dram[2]:        499       504       485       472       494       535       541       579       737       946       525       555       433       487       508       449
dram[3]:        521       495       507       594       467       577       473       485      1034       915       597       663       521       492       557       540
dram[4]:        511       452       594       562       523       494       572       480       888       759       544       602       474       477       631       485
dram[5]:        485       569       556       569       493       550       486       468       963       731       621       549       438       490       526       457

Number of Memory Banks Accessed per Memory Operation per Warp (from 0):
0	0	0	0	0	0	0	0	0	0	0	0	0	0	0	0	0	0	0	0	0	0	0	0	0	0	0	0	0	0	0	0	0	0	0	0	0	0	0	0	0	0	0	0	0	0	0	0	0	0	0	0	0	0	0	0	0	0	0	0	0	0	0	0	0	0	0	0	0	0	0	0	0	0	0	0	0	0	0	0	0	0	0	0	0	0	0	0	0	0	0	0	0	0	0	0	
Average # of Memory Banks Accessed per Memory Operation per Warp=-nan

position of mrq chosen
0	0	0	0	0	0	0	0	0	0	0	0	0	0	0	0	

average position of mrq chosen = -nan
Memory Partition 0: 
Cache L2_bank_000:
MSHR contents

Cache L2_bank_001:
MSHR contents

In Dram Latency Queue (total = 0): 
DRAM[0]: 16 bks, busW=4 BL=8 CL=12, tRRD=2 tCCD=6, tRCD=12 tRAS=28 tRP=12 tRC=40
n_cmd=216454 n_nop=162761 n_act=8205 n_pre=8189 n_req=20716 n_rd=21372 n_write=15927 bw_util=0.3446
n_activity=195856 dram_eff=0.3809
bk0: 1312a 183968i bk1: 1334a 183604i bk2: 1306a 183287i bk3: 1330a 182874i bk4: 1322a 183285i bk5: 1348a 183190i bk6: 1364a 182544i bk7: 1400a 183353i bk8: 1358a 182890i bk9: 1390a 181833i bk10: 1322a 183607i bk11: 1338a 181909i bk12: 1296a 184117i bk13: 1320a 182409i bk14: 1312a 184036i bk15: 1320a 182190i 
dram_util_bins: 0 0 0 0 0 0 0 0 0 0
dram_eff_bins: 0 0 0 0 0 0 0 0 0 0
mrqq: max=16 avg=2.46734
Memory Partition 1: 
Cache L2_bank_002:
MSHR contents

Cache L2_bank_003:
MSHR contents

In Dram Latency Queue (total = 0): 
DRAM[1]: 16 bks, busW=4 BL=8 CL=12, tRRD=2 tCCD=6, tRCD=12 tRAS=28 tRP=12 tRC=40
n_cmd=216454 n_nop=162706 n_act=8204 n_pre=8188 n_req=20747 n_rd=21394 n_write=15962 bw_util=0.3452
n_activity=195760 dram_eff=0.3817
bk0: 1314a 184234i bk1: 1326a 182832i bk2: 1300a 183765i bk3: 1328a 182706i bk4: 1328a 182590i bk5: 1346a 182833i bk6: 1358a 183496i bk7: 1396a 182391i bk8: 1362a 183646i bk9: 1398a 182354i bk10: 1324a 181367i bk11: 1350a 182027i bk12: 1306a 183376i bk13: 1330a 183328i bk14: 1302a 183684i bk15: 1326a 182772i 
dram_util_bins: 0 0 0 0 0 0 0 0 0 0
dram_eff_bins: 0 0 0 0 0 0 0 0 0 0
mrqq: max=16 avg=2.5954
Memory Partition 2: 
Cache L2_bank_004:
MSHR contents

Cache L2_bank_005:
MSHR contents

In Dram Latency Queue (total = 0): 
DRAM[2]: 16 bks, busW=4 BL=8 CL=12, tRRD=2 tCCD=6, tRCD=12 tRAS=28 tRP=12 tRC=40
n_cmd=216454 n_nop=162617 n_act=8229 n_pre=8213 n_req=20766 n_rd=21418 n_write=15977 bw_util=0.3455
n_activity=195909 dram_eff=0.3818
bk0: 1304a 183156i bk1: 1324a 183008i bk2: 1306a 183525i bk3: 1326a 182762i bk4: 1334a 183088i bk5: 1348a 182776i bk6: 1382a 180975i bk7: 1394a 182427i bk8: 1372a 181650i bk9: 1390a 182244i bk10: 1330a 183135i bk11: 1350a 181554i bk12: 1302a 184348i bk13: 1322a 183205i bk14: 1310a 182928i bk15: 1324a 181935i 
dram_util_bins: 0 0 0 0 0 0 0 0 0 0
dram_eff_bins: 0 0 0 0 0 0 0 0 0 0
mrqq: max=16 avg=2.49334
Memory Partition 3: 
Cache L2_bank_006:
MSHR contents

Cache L2_bank_007:
MSHR contents

In Dram Latency Queue (total = 0): 
DRAM[3]: 16 bks, busW=4 BL=8 CL=12, tRRD=2 tCCD=6, tRCD=12 tRAS=28 tRP=12 tRC=40
n_cmd=216454 n_nop=162827 n_act=8166 n_pre=8150 n_req=20718 n_rd=21386 n_write=15925 bw_util=0.3447
n_activity=197103 dram_eff=0.3786
bk0: 1312a 184612i bk1: 1312a 183998i bk2: 1314a 183189i bk3: 1308a 184228i bk4: 1330a 183479i bk5: 1338a 182501i bk6: 1376a 182939i bk7: 1392a 182838i bk8: 1372a 182948i bk9: 1380a 182857i bk10: 1338a 182518i bk11: 1344a 182949i bk12: 1314a 182717i bk13: 1322a 183330i bk14: 1322a 182994i bk15: 1312a 183670i 
dram_util_bins: 0 0 0 0 0 0 0 0 0 0
dram_eff_bins: 0 0 0 0 0 0 0 0 0 0
mrqq: max=16 avg=2.46227
Memory Partition 4: 
Cache L2_bank_008:
MSHR contents

Cache L2_bank_009:
MSHR contents

In Dram Latency Queue (total = 0): 
DRAM[4]: 16 bks, busW=4 BL=8 CL=12, tRRD=2 tCCD=6, tRCD=12 tRAS=28 tRP=12 tRC=40
n_cmd=216454 n_nop=162979 n_act=8111 n_pre=8095 n_req=20677 n_rd=21372 n_write=15897 bw_util=0.3444
n_activity=196521 dram_eff=0.3793
bk0: 1316a 184251i bk1: 1304a 183775i bk2: 1314a 182824i bk3: 1308a 184033i bk4: 1340a 183393i bk5: 1334a 183462i bk6: 1390a 183730i bk7: 1376a 183084i bk8: 1390a 182770i bk9: 1366a 182873i bk10: 1344a 181846i bk11: 1330a 182000i bk12: 1322a 183068i bk13: 1306a 183143i bk14: 1322a 183567i bk15: 1310a 182182i 
dram_util_bins: 0 0 0 0 0 0 0 0 0 0
dram_eff_bins: 0 0 0 0 0 0 0 0 0 0
mrqq: max=16 avg=2.54703
Memory Partition 5: 
Cache L2_bank_010:
MSHR contents

Cache L2_bank_011:
MSHR contents

In Dram Latency Queue (total = 0): 
DRAM[5]: 16 bks, busW=4 BL=8 CL=12, tRRD=2 tCCD=6, tRCD=12 tRAS=28 tRP=12 tRC=40
n_cmd=216454 n_nop=162850 n_act=8195 n_pre=8179 n_req=20670 n_rd=21360 n_write=15870 bw_util=0.344
n_activity=196591 dram_eff=0.3788
bk0: 1328a 184347i bk1: 1298a 182854i bk2: 1324a 182867i bk3: 1298a 184003i bk4: 1334a 182726i bk5: 1320a 184321i bk6: 1390a 182827i bk7: 1372a 182421i bk8: 1384a 183399i bk9: 1370a 183444i bk10: 1346a 181907i bk11: 1334a 182435i bk12: 1324a 183767i bk13: 1300a 183294i bk14: 1340a 181975i bk15: 1298a 182738i 
dram_util_bins: 0 0 0 0 0 0 0 0 0 0
dram_eff_bins: 0 0 0 0 0 0 0 0 0 0
mrqq: max=16 avg=2.40421

========= L2 cache stats =========
L2_cache_bank[0]: Access = 14859, Miss = 5296, Miss_rate = 0.356, Pending_hits = 1925, Reservation_fails = 466
L2_cache_bank[1]: Access = 14837, Miss = 5390, Miss_rate = 0.363, Pending_hits = 1855, Reservation_fails = 189
L2_cache_bank[2]: Access = 14851, Miss = 5297, Miss_rate = 0.357, Pending_hits = 1919, Reservation_fails = 196
L2_cache_bank[3]: Access = 14805, Miss = 5400, Miss_rate = 0.365, Pending_hits = 1893, Reservation_fails = 6
L2_cache_bank[4]: Access = 14860, Miss = 5320, Miss_rate = 0.358, Pending_hits = 1871, Reservation_fails = 276
L2_cache_bank[5]: Access = 14794, Miss = 5389, Miss_rate = 0.364, Pending_hits = 1824, Reservation_fails = 6
L2_cache_bank[6]: Access = 14845, Miss = 5339, Miss_rate = 0.360, Pending_hits = 1899, Reservation_fails = 131
L2_cache_bank[7]: Access = 14788, Miss = 5354, Miss_rate = 0.362, Pending_hits = 1855, Reservation_fails = 125
L2_cache_bank[8]: Access = 14840, Miss = 5369, Miss_rate = 0.362, Pending_hits = 1886, Reservation_fails = 194
L2_cache_bank[9]: Access = 14785, Miss = 5317, Miss_rate = 0.360, Pending_hits = 1816, Reservation_fails = 1
L2_cache_bank[10]: Access = 14831, Miss = 5385, Miss_rate = 0.363, Pending_hits = 1851, Reservation_fails = 174
L2_cache_bank[11]: Access = 14803, Miss = 5295, Miss_rate = 0.358, Pending_hits = 1880, Reservation_fails = 2
L2_total_cache_accesses = 177898
L2_total_cache_misses = 64151
L2_total_cache_miss_rate = 0.3606
L2_total_cache_pending_hits = 22474
L2_total_cache_reservation_fails = 1766
L2_total_cache_breakdown:
	L2_cache_stats_breakdown[GLOBAL_ACC_R][HIT] = 66545
	L2_cache_stats_breakdown[GLOBAL_ACC_R][HIT_RESERVED] = 12437
	L2_cache_stats_breakdown[GLOBAL_ACC_R][MISS] = 32441
	L2_cache_stats_breakdown[GLOBAL_ACC_R][RESERVATION_FAIL] = 411
	L2_cache_stats_breakdown[CONST_ACC_R][HIT] = 11
	L2_cache_stats_breakdown[CONST_ACC_R][HIT_RESERVED] = 3
	L2_cache_stats_breakdown[CONST_ACC_R][MISS] = 1
	L2_cache_stats_breakdown[CONST_ACC_R][RESERVATION_FAIL] = 109
	L2_cache_stats_breakdown[GLOBAL_ACC_W][HIT] = 24563
	L2_cache_stats_breakdown[GLOBAL_ACC_W][HIT_RESERVED] = 9992
	L2_cache_stats_breakdown[GLOBAL_ACC_W][MISS] = 31695
	L2_cache_stats_breakdown[GLOBAL_ACC_W][RESERVATION_FAIL] = 51
	L2_cache_stats_breakdown[INST_ACC_R][HIT] = 154
	L2_cache_stats_breakdown[INST_ACC_R][HIT_RESERVED] = 42
	L2_cache_stats_breakdown[INST_ACC_R][MISS] = 14
	L2_cache_stats_breakdown[INST_ACC_R][RESERVATION_FAIL] = 1195
L2_cache_data_port_util = 0.183
L2_cache_fill_port_util = 0.130

icnt_total_pkts_mem_to_simt=624460
icnt_total_pkts_simt_to_mem=337898
LD_mem_lat_dist  0 0 0 0 0 0 0 0 0 0 0 0 0 0 0 0 0 0 0 0 0 0 0 0 0 0 0
ST_mem_lat_dist  0 0 0 0 0 0 0 0 0 0 0 0 0 0 0 0 0 0 0 0 0 0 0 0 0 0 0
----------------------------Interconnect-DETAILS--------------------------------
Class 0:
Packet latency average = 15.2754
	minimum = 6
	maximum = 106
Network latency average = 12.7434
	minimum = 6
	maximum = 97
Slowest packet = 62566
Flit latency average = 11.42
	minimum = 6
	maximum = 93
Slowest flit = 170115
Fragmentation average = 0.000626764
	minimum = 0
	maximum = 66
Injected packet rate average = 0.0803607
	minimum = 0.0623121 (at node 13)
	maximum = 0.0906203 (at node 19)
Accepted packet rate average = 0.0803607
	minimum = 0.0623121 (at node 13)
	maximum = 0.0906203 (at node 19)
Injected flit rate average = 0.21736
	minimum = 0.115977 (at node 13)
	maximum = 0.318427 (at node 19)
Accepted flit rate average= 0.21736
	minimum = 0.171447 (at node 24)
	maximum = 0.280844 (at node 7)
Injected packet length average = 2.7048
Accepted packet length average = 2.7048
Total in-flight flits = 0 (0 measured)
====== Overall Traffic Statistics ======
====== Traffic class 0 ======
Packet latency average = 15.2754 (1 samples)
	minimum = 6 (1 samples)
	maximum = 106 (1 samples)
Network latency average = 12.7434 (1 samples)
	minimum = 6 (1 samples)
	maximum = 97 (1 samples)
Flit latency average = 11.42 (1 samples)
	minimum = 6 (1 samples)
	maximum = 93 (1 samples)
Fragmentation average = 0.000626764 (1 samples)
	minimum = 0 (1 samples)
	maximum = 66 (1 samples)
Injected packet rate average = 0.0803607 (1 samples)
	minimum = 0.0623121 (1 samples)
	maximum = 0.0906203 (1 samples)
Accepted packet rate average = 0.0803607 (1 samples)
	minimum = 0.0623121 (1 samples)
	maximum = 0.0906203 (1 samples)
Injected flit rate average = 0.21736 (1 samples)
	minimum = 0.115977 (1 samples)
	maximum = 0.318427 (1 samples)
Accepted flit rate average = 0.21736 (1 samples)
	minimum = 0.171447 (1 samples)
	maximum = 0.280844 (1 samples)
Injected packet size average = 2.7048 (1 samples)
Accepted packet size average = 2.7048 (1 samples)
Hops average = 1 (1 samples)
----------------------------END-of-Interconnect-DETAILS-------------------------
GPGPU-Sim API: Stream Manager State


gpgpu_simulation_time = 0 days, 0 hrs, 3 min, 54 sec (234 sec)
gpgpu_simulation_rate = 310733 (inst/sec)
gpgpu_simulation_rate = 700 (cycle/sec)
GPGPU-Sim: detected inactive GPU simulation thread

1x GPU_laplace3d: 232845.828125 (ms) 

Copy u2 to host: 130.531006 (ms) 

1x Gold_laplace3d: 34.412998 (ms) 
 

 rms error = 0.000000 
CUDA_SAFE_CALL( cudaFree(d_u1) );
CUDA_SAFE_CALL( cudaFree(d_u2) );
free(h_u1);
free(h_u2);
free(h_u3);

Press ENTER to exit...
