

        *** GPGPU-Sim Simulator Version 3.2.2  [build 0] ***


GPGPU-Sim PTX: simulation mode 0 (can change with PTX_SIM_MODE_FUNC environment variable:
               1=functional simulation only, 0=detailed performance simulator)
GPGPU-Sim: Configuration options:

-network_mode                           1 # Interconnection network mode
-inter_config_file   config_fermi_islip.icnt # Interconnection network config file
-gpgpu_ptx_use_cuobjdump                    1 # Use cuobjdump to extract ptx and sass from binaries
-gpgpu_experimental_lib_support                    0 # Try to extract code from cuda libraries [Broken because of unknown cudaGetExportTable]
-gpgpu_ptx_convert_to_ptxplus                    0 # Convert SASS (native ISA) to ptxplus and run ptxplus
-gpgpu_ptx_force_max_capability                   20 # Force maximum compute capability
-gpgpu_ptx_inst_debug_to_file                    0 # Dump executed instructions' debug information to file
-gpgpu_ptx_inst_debug_file       inst_debug.txt # Executed instructions' debug output file
-gpgpu_ptx_inst_debug_thread_uid                    1 # Thread UID for executed instructions' debug output
-gpgpu_simd_model                       1 # 1 = post-dominator
-gpgpu_shader_core_pipeline              1536:32 # shader core pipeline config, i.e., {<nthread>:<warpsize>}
-gpgpu_tex_cache:l1  4:128:24,L:R:m:N:L,F:128:4,128:2 # per-shader L1 texture cache  (READ-ONLY) config  {<nsets>:<bsize>:<assoc>,<rep>:<wr>:<alloc>:<wr_alloc>,<mshr>:<N>:<merge>,<mq>:<rf>}
-gpgpu_const_cache:l1 64:64:2,L:R:f:N:L,A:2:32,4 # per-shader L1 constant memory cache  (READ-ONLY) config  {<nsets>:<bsize>:<assoc>,<rep>:<wr>:<alloc>:<wr_alloc>,<mshr>:<N>:<merge>,<mq>} 
-gpgpu_cache:il1     4:128:4,L:R:f:N:L,A:2:32,4 # shader L1 instruction cache config  {<nsets>:<bsize>:<assoc>,<rep>:<wr>:<alloc>:<wr_alloc>,<mshr>:<N>:<merge>,<mq>} 
-gpgpu_cache:dl1     32:128:4,L:L:m:N:H,A:32:8,8:2,0,1:0:1:1:0:1,1:4:8:16:32:64,/sciclone/data10/hwang07/GPU_RESEARCH/swl/swl_outputs/RESULTS/swl8/ # per-shader L1 data cache config  {<nsets>:<bsize>:<assoc>,<rep>:<wr>:<alloc>:<wr_alloc>,<mshr>:<N>:<merge>,<mq> | none}
-gpgpu_cache:dl1PrefL1                 none # per-shader L1 data cache config  {<nsets>:<bsize>:<assoc>,<rep>:<wr>:<alloc>:<wr_alloc>,<mshr>:<N>:<merge>,<mq> | none}
-gpgpu_cache:dl1PreShared                 none # per-shader L1 data cache config  {<nsets>:<bsize>:<assoc>,<rep>:<wr>:<alloc>:<wr_alloc>,<mshr>:<N>:<merge>,<mq> | none}
-gmem_skip_L1D                          0 # global memory access skip L1D cache (implements -Xptxas -dlcm=cg, default=no skip)
-gpgpu_perfect_mem                      0 # enable perfect memory mode (no cache miss)
-n_regfile_gating_group                    4 # group of lanes that should be read/written together)
-gpgpu_clock_gated_reg_file                    0 # enable clock gated reg file for power calculations
-gpgpu_clock_gated_lanes                    0 # enable clock gated lanes for power calculations
-gpgpu_shader_registers                32768 # Number of registers per shader core. Limits number of concurrent CTAs. (default 8192)
-gpgpu_shader_cta                       8 # Maximum number of concurrent CTAs in shader (default 8)
-gpgpu_num_cta_barriers                   16 # Maximum number of named barriers per CTA (default 16)
-gpgpu_n_clusters                      15 # number of processing clusters
-gpgpu_n_cores_per_cluster                    1 # number of simd cores per cluster
-gpgpu_n_cluster_ejection_buffer_size                    8 # number of packets in ejection buffer
-gpgpu_n_ldst_response_buffer_size                    2 # number of response packets in ld/st unit ejection buffer
-gpgpu_shmem_size                   16384 # Size of shared memory per shader core (default 16kB)
-gpgpu_shmem_size                   49152 # Size of shared memory per shader core (default 16kB)
-gpgpu_shmem_size_PrefL1                16384 # Size of shared memory per shader core (default 16kB)
-gpgpu_shmem_size_PrefShared                16384 # Size of shared memory per shader core (default 16kB)
-gpgpu_shmem_num_banks                   32 # Number of banks in the shared memory in each shader core (default 16)
-gpgpu_shmem_limited_broadcast                    0 # Limit shared memory to do one broadcast per cycle (default on)
-gpgpu_shmem_warp_parts                    1 # Number of portions a warp is divided into for shared memory bank conflict check 
-gpgpu_warpdistro_shader                   -1 # Specify which shader core to collect the warp size distribution from
-gpgpu_warp_issue_shader                    0 # Specify which shader core to collect the warp issue distribution from
-gpgpu_local_mem_map                    1 # Mapping from local memory space address to simulated GPU physical address space (default = enabled)
-gpgpu_num_reg_banks                   16 # Number of register banks (default = 8)
-gpgpu_reg_bank_use_warp_id                    0 # Use warp ID in mapping registers to banks (default = off)
-gpgpu_operand_collector_num_units_sp                    6 # number of collector units (default = 4)
-gpgpu_operand_collector_num_units_sfu                    8 # number of collector units (default = 4)
-gpgpu_operand_collector_num_units_mem                    2 # number of collector units (default = 2)
-gpgpu_operand_collector_num_units_gen                    0 # number of collector units (default = 0)
-gpgpu_operand_collector_num_in_ports_sp                    2 # number of collector unit in ports (default = 1)
-gpgpu_operand_collector_num_in_ports_sfu                    1 # number of collector unit in ports (default = 1)
-gpgpu_operand_collector_num_in_ports_mem                    1 # number of collector unit in ports (default = 1)
-gpgpu_operand_collector_num_in_ports_gen                    0 # number of collector unit in ports (default = 0)
-gpgpu_operand_collector_num_out_ports_sp                    2 # number of collector unit in ports (default = 1)
-gpgpu_operand_collector_num_out_ports_sfu                    1 # number of collector unit in ports (default = 1)
-gpgpu_operand_collector_num_out_ports_mem                    1 # number of collector unit in ports (default = 1)
-gpgpu_operand_collector_num_out_ports_gen                    0 # number of collector unit in ports (default = 0)
-gpgpu_coalesce_arch                   13 # Coalescing arch (default = 13, anything else is off for now)
-gpgpu_num_sched_per_core                    2 # Number of warp schedulers per core
-gpgpu_max_insn_issue_per_warp                    1 # Max number of instructions that can be issued per warp in one cycle by scheduler
-gpgpu_simt_core_sim_order                    1 # Select the simulation order of cores in a cluster (0=Fix, 1=Round-Robin)
-gpgpu_pipeline_widths        2,1,1,2,1,1,2 # Pipeline widths ID_OC_SP,ID_OC_SFU,ID_OC_MEM,OC_EX_SP,OC_EX_SFU,OC_EX_MEM,EX_WB
-gpgpu_num_sp_units                     2 # Number of SP units (default=1)
-gpgpu_num_sfu_units                    1 # Number of SF units (default=1)
-gpgpu_num_mem_units                    1 # Number if ldst units (default=1) WARNING: not hooked up to anything
-gpgpu_scheduler        warp_limiting:2:8 # Scheduler configuration: < lrr | gto | two_level_active > If two_level_active:<num_active_warps>:<inner_prioritization>:<outer_prioritization>For complete list of prioritization values see shader.h enum scheduler_prioritization_typeDefault: gto
-gpgpu_dram_scheduler                    1 # 0 = fifo, 1 = FR-FCFS (defaul)
-gpgpu_dram_partition_queues              8:8:8:8 # i2$:$2d:d2$:$2i
-l2_ideal                               0 # Use a ideal L2 cache that always hit
-gpgpu_cache:dl2     64:128:8,L:B:m:W:L,A:32:4,4:0,32 # unified banked L2 data cache config  {<nsets>:<bsize>:<assoc>,<rep>:<wr>:<alloc>:<wr_alloc>,<mshr>:<N>:<merge>,<mq>}
-gpgpu_cache:dl2_texture_only                    0 # L2 cache used for texture only
-gpgpu_n_mem                            6 # number of memory modules (e.g. memory controllers) in gpu
-gpgpu_n_sub_partition_per_mchannel                    2 # number of memory subpartition in each memory module
-gpgpu_n_mem_per_ctrlr                    2 # number of memory chips per memory controller
-gpgpu_memlatency_stat                   14 # track and display latency statistics 0x2 enables MC, 0x4 enables queue logs
-gpgpu_frfcfs_dram_sched_queue_size                   16 # 0 = unlimited (default); # entries per chip
-gpgpu_dram_return_queue_size                  116 # 0 = unlimited (default); # entries per chip
-gpgpu_dram_buswidth                    4 # default = 4 bytes (8 bytes per cycle at DDR)
-gpgpu_dram_burst_length                    8 # Burst length of each DRAM request (default = 4 data bus cycle)
-dram_data_command_freq_ratio                    4 # Frequency ratio between DRAM data bus and command bus (default = 2 times, i.e. DDR)
-gpgpu_dram_timing_opt nbk=16:CCD=2:RRD=6:RCD=12:RAS=28:RP=12:RC=40: CL=12:WL=4:CDLR=5:WR=12:nbkgrp=4:CCDL=3:RTPL=2 # DRAM timing parameters = {nbk:tCCD:tRRD:tRCD:tRAS:tRP:tRC:CL:WL:tCDLR:tWR:nbkgrp:tCCDL:tRTPL}
-rop_latency                          120 # ROP queue latency (default 85)
-dram_latency                         100 # DRAM latency (default 30)
-gpgpu_mem_addr_mapping dramid@8;00000000.00000000.00000000.00000000.0000RRRR.RRRRRRRR.BBBCCCCB.CCSSSSSS # mapping memory address to dram model {dramid@<start bit>;<memory address map>}
-gpgpu_mem_addr_test                    0 # run sweep test to check address mapping for aliased address
-gpgpu_mem_address_mask                    1 # 0 = old addressing mask, 1 = new addressing mask, 2 = new add. mask + flipped bank sel and chip sel bits
-gpuwattch_xml_file  gpuwattch_gtx480.xml # GPUWattch XML file
-power_simulation_enabled                    0 # Turn on power simulator (1=On, 0=Off)
-power_per_cycle_dump                    0 # Dump detailed power output each cycle
-power_trace_enabled                    0 # produce a file for the power trace (1=On, 0=Off)
-power_trace_zlevel                     6 # Compression level of the power trace output log (0=no comp, 9=highest)
-steady_power_levels_enabled                    0 # produce a file for the steady power levels (1=On, 0=Off)
-steady_state_definition                  8:4 # allowed deviation:number of samples
-gpgpu_max_cycle                        0 # terminates gpu simulation early (0 = no limit)
-gpgpu_max_insn                         0 # terminates gpu simulation early (0 = no limit)
-gpgpu_max_cta                          0 # terminates gpu simulation early (0 = no limit)
-gpgpu_runtime_stat                   500 # display runtime statistics such as dram utilization {<freq>:<flag>}
-liveness_message_freq                    1 # Minimum number of seconds between simulation liveness messages (0 = always print)
-gpgpu_flush_l1_cache                    0 # Flush L1 cache at the end of each kernel call
-gpgpu_flush_l2_cache                    0 # Flush L2 cache at the end of each kernel call
-gpgpu_deadlock_detect                    1 # Stop the simulation at deadlock (1=on (default), 0=off)
-gpgpu_ptx_instruction_classification                    0 # if enabled will classify ptx instruction types per kernel (Max 255 kernels now)
-gpgpu_ptx_sim_mode                     0 # Select between Performance (default) or Functional simulation (1)
-gpgpu_clock_domains 700.0:700.0:700.0:924.0 # Clock Domain Frequencies in MhZ {<Core Clock>:<ICNT Clock>:<L2 Clock>:<DRAM Clock>}
-gpgpu_max_concurrent_kernel                    8 # maximum kernels that can run concurrently on GPU
-gpgpu_cflog_interval                    0 # Interval between each snapshot in control flow logger
-visualizer_enabled                     0 # Turn on visualizer output (1=On, 0=Off)
-visualizer_outputfile                 NULL # Specifies the output log file for visualizer
-visualizer_zlevel                      6 # Compression level of the visualizer output log (0=no comp, 9=highest)
-trace_enabled                          0 # Turn on traces
-trace_components                    none # comma seperated list of traces to enable. Complete list found in trace_streams.tup. Default none
-trace_sampling_core                    0 # The core which is printed using CORE_DPRINTF. Default 0
-trace_sampling_memory_partition                   -1 # The memory partition which is printed using MEMPART_DPRINTF. Default -1 (i.e. all)
-enable_ptx_file_line_stats                    1 # Turn on PTX source line statistic profiling. (1 = On)
-ptx_line_stats_filename gpgpu_inst_stats.txt # Output file for PTX source line statistics.
-save_embedded_ptx                      0 # saves ptx files embedded in binary as <n>.ptx
-keep                                   0 # keep intermediate files created by GPGPU-Sim when interfacing with external programs
-gpgpu_ptx_save_converted_ptxplus                    0 # Saved converted ptxplus to a file
-ptx_opcode_latency_int         4,13,4,5,145 # Opcode latencies for integers <ADD,MAX,MUL,MAD,DIV>Default 1,1,19,25,145
-ptx_opcode_latency_fp          4,13,4,5,39 # Opcode latencies for single precision floating points <ADD,MAX,MUL,MAD,DIV>Default 1,1,1,1,30
-ptx_opcode_latency_dp         8,19,8,8,330 # Opcode latencies for double precision floating points <ADD,MAX,MUL,MAD,DIV>Default 8,8,8,8,335
-ptx_opcode_initiation_int            1,2,2,1,8 # Opcode initiation intervals for integers <ADD,MAX,MUL,MAD,DIV>Default 1,1,4,4,32
-ptx_opcode_initiation_fp            1,2,1,1,4 # Opcode initiation intervals for single precision floating points <ADD,MAX,MUL,MAD,DIV>Default 1,1,1,1,5
-ptx_opcode_initiation_dp         8,16,8,8,130 # Opcode initiation intervals for double precision floating points <ADD,MAX,MUL,MAD,DIV>Default 8,8,8,8,130
DRAM Timing Options:
nbk                                    16 # number of banks
CCD                                     2 # column to column delay
RRD                                     6 # minimal delay between activation of rows in different banks
RCD                                    12 # row to column delay
RAS                                    28 # time needed to activate row
RP                                     12 # time needed to precharge (deactivate) row
RC                                     40 # row cycle time
CDLR                                    5 # switching from write to read (changes tWTR)
WR                                     12 # last data-in to row precharge
CL                                     12 # CAS latency
WL                                      4 # Write latency
nbkgrp                                  4 # number of bank groups
CCDL                                    3 # column to column delay between accesses to different bank groups
RTPL                                    2 # read to precharge delay between accesses to different bank groups
Total number of memory sub partition = 12
addr_dec_mask[CHIP]  = 0000000000000000 	high:64 low:0
addr_dec_mask[BK]    = 000000000000e100 	high:16 low:8
addr_dec_mask[ROW]   = 000000000fff0000 	high:28 low:16
addr_dec_mask[COL]   = 0000000000001eff 	high:13 low:0
addr_dec_mask[BURST] = 000000000000003f 	high:6 low:0
sub_partition_id_mask = 0000000000000100
GPGPU-Sim uArch: clock freqs: 700000000.000000:700000000.000000:700000000.000000:924000000.000000
GPGPU-Sim uArch: clock periods: 0.00000000142857142857:0.00000000142857142857:0.00000000142857142857:0.00000000108225108225
*** Initializing Memory Statistics ***
GPGPU-Sim uArch: interconnect node map (shaderID+MemID to icntID)
GPGPU-Sim uArch: Memory nodes ID start from index: 15
GPGPU-Sim uArch:    0   1   2   3   4
GPGPU-Sim uArch:    5   6   7   8   9
GPGPU-Sim uArch:   10  11  12  13  14
GPGPU-Sim uArch:   15  16  17  18  19
GPGPU-Sim uArch:   20  21  22  23  24
GPGPU-Sim uArch:   25  26
GPGPU-Sim uArch: interconnect node reverse map (icntID to shaderID+MemID)
GPGPU-Sim uArch: Memory nodes start from ID: 15
GPGPU-Sim uArch:    0   1   2   3   4
GPGPU-Sim uArch:    5   6   7   8   9
GPGPU-Sim uArch:   10  11  12  13  14
GPGPU-Sim uArch:   15  16  17  18  19
GPGPU-Sim uArch:   20  21  22  23  24
GPGPU-Sim uArch:   25  26
2da471e6a07416e5693a12f48faeb39d  /sciclone/data10/hwang07/adwait/applications/benchmarks/rodinia/cuda/backprop/gpgpu_ptx_sim__backprop
GPGPU-Sim uArch: performance model initialization complete.
GPGPU-Sim PTX: __cudaRegisterFatBinary, fat_cubin_handle = 1, filename=backprop_cuda.cu
self exe links to: /sciclone/data10/hwang07/adwait/applications/benchmarks/rodinia/cuda/backprop/gpgpu_ptx_sim__backprop
Running md5sum using "md5sum /sciclone/data10/hwang07/adwait/applications/benchmarks/rodinia/cuda/backprop/gpgpu_ptx_sim__backprop "
Parsing file _cuobjdump_complete_output_YmyBn8
######### cuobjdump parser ########
## Adding new section ELF
Adding arch: sm_20
Adding identifier: backprop_cuda.cu
## Adding new section PTX
Adding ptx filename: _cuobjdump_1.ptx
Adding arch: sm_20
Adding identifier: backprop_cuda.cu
Done parsing!!!
GPGPU-Sim PTX: __cudaRegisterFunction _Z24bpnn_adjust_weights_cudaPfiS_iS_S_ : hostFun 0x0x402f24, fat_cubin_handle = 1
GPGPU-Sim PTX: allocating shared region for "__cuda___cuda_local_var_39781_34_non_const_input_node40" from 0x0 to 0x40 (shared memory space)
GPGPU-Sim PTX: allocating shared region for "__cuda___cuda_local_var_39782_34_non_const_weight_matrix104" from 0x80 to 0x480 (shared memory space)
GPGPU-Sim PTX: instruction assembly for function '_Z22bpnn_layerforward_CUDAPfS_S_S_ii'...   done.
GPGPU-Sim PTX: finding reconvergence points for '_Z22bpnn_layerforward_CUDAPfS_S_S_ii'...
GPGPU-Sim PTX: Finding dominators for '_Z22bpnn_layerforward_CUDAPfS_S_S_ii'...
GPGPU-Sim PTX: Finding immediate dominators for '_Z22bpnn_layerforward_CUDAPfS_S_S_ii'...
GPGPU-Sim PTX: Finding postdominators for '_Z22bpnn_layerforward_CUDAPfS_S_S_ii'...
GPGPU-Sim PTX: Finding immediate postdominators for '_Z22bpnn_layerforward_CUDAPfS_S_S_ii'...
GPGPU-Sim PTX: pre-decoding instructions for '_Z22bpnn_layerforward_CUDAPfS_S_S_ii'...
GPGPU-Sim PTX: reconvergence points for _Z22bpnn_layerforward_CUDAPfS_S_S_ii...
GPGPU-Sim PTX:  1 (potential) branch divergence @  PC=0x048 (_1.ptx:76) @!%p1 bra $Lt_0_3586;
GPGPU-Sim PTX:    immediate post dominator      @  PC=0x090 (_1.ptx:88) bar.sync 0;
GPGPU-Sim PTX:  2 (potential) branch divergence @  PC=0x190 (_1.ptx:125) @!%p2 bra $Lt_0_4098;
GPGPU-Sim PTX:    immediate post dominator      @  PC=0x290 (_1.ptx:166) ld.shared.f32 %f17, [%rd14+0];
GPGPU-Sim PTX:  3 (potential) branch divergence @  PC=0x1e8 (_1.ptx:139) @%p3 bra $Lt_0_4866;
GPGPU-Sim PTX:    immediate post dominator      @  PC=0x268 (_1.ptx:158) bar.sync 0;
GPGPU-Sim PTX:  4 (potential) branch divergence @  PC=0x288 (_1.ptx:163) @%p4 bra $Lt_0_4610;
GPGPU-Sim PTX:    immediate post dominator      @  PC=0x290 (_1.ptx:166) ld.shared.f32 %f17, [%rd14+0];
GPGPU-Sim PTX:  5 (potential) branch divergence @  PC=0x2a8 (_1.ptx:170) @!%p1 bra $Lt_0_5634;
GPGPU-Sim PTX:    immediate post dominator      @  PC=0x310 (_1.ptx:186) exit;
GPGPU-Sim PTX: ... end of reconvergence points for _Z22bpnn_layerforward_CUDAPfS_S_S_ii
GPGPU-Sim PTX: ... done pre-decoding instructions for '_Z22bpnn_layerforward_CUDAPfS_S_S_ii'.
GPGPU-Sim PTX: instruction assembly for function '_Z24bpnn_adjust_weights_cudaPfiS_iS_S_'...   done.
GPGPU-Sim PTX: finding reconvergence points for '_Z24bpnn_adjust_weights_cudaPfiS_iS_S_'...
GPGPU-Sim PTX: Finding dominators for '_Z24bpnn_adjust_weights_cudaPfiS_iS_S_'...
GPGPU-Sim PTX: Finding immediate dominators for '_Z24bpnn_adjust_weights_cudaPfiS_iS_S_'...
GPGPU-Sim PTX: Finding postdominators for '_Z24bpnn_adjust_weights_cudaPfiS_iS_S_'...
GPGPU-Sim PTX: Finding immediate postdominators for '_Z24bpnn_adjust_weights_cudaPfiS_iS_S_'...
GPGPU-Sim PTX: pre-decoding instructions for '_Z24bpnn_adjust_weights_cudaPfiS_iS_S_'...
GPGPU-Sim PTX: reconvergence points for _Z24bpnn_adjust_weights_cudaPfiS_iS_S_...
GPGPU-Sim PTX:  1 (potential) branch divergence @  PC=0x530 (_1.ptx:275) @%p1 bra $Lt_1_1282;
GPGPU-Sim PTX:    immediate post dominator      @  PC=0x600 (_1.ptx:305) exit;
GPGPU-Sim PTX: ... end of reconvergence points for _Z24bpnn_adjust_weights_cudaPfiS_iS_S_
GPGPU-Sim PTX: ... done pre-decoding instructions for '_Z24bpnn_adjust_weights_cudaPfiS_iS_S_'.
GPGPU-Sim PTX: finished parsing EMBEDDED .ptx file _1.ptx
Adding _cuobjdump_1.ptx with cubin handle 1
GPGPU-Sim PTX: extracting embedded .ptx to temporary file "_ptx_QpJVYF"
Running: cat _ptx_QpJVYF | sed 's/.version 1.5/.version 1.4/' | sed 's/, texmode_independent//' | sed 's/\(\.extern \.const\[1\] .b8 \w\+\)\[\]/\1\[1\]/' | sed 's/const\[.\]/const\[0\]/g' > _ptx2_4Xhoye
GPGPU-Sim PTX: generating ptxinfo using "$CUDA_INSTALL_PATH/bin/ptxas --gpu-name=sm_20 -v _ptx2_4Xhoye --output-file  /dev/null 2> _ptx_QpJVYFinfo"
GPGPU-Sim PTX: Kernel '_Z24bpnn_adjust_weights_cudaPfiS_iS_S_' : regs=22, lmem=0, smem=0, cmem=80
GPGPU-Sim PTX: Kernel '_Z22bpnn_layerforward_CUDAPfS_S_S_ii' : regs=13, lmem=0, smem=1088, cmem=72
GPGPU-Sim PTX: removing ptxinfo using "rm -f _ptx_QpJVYF _ptx2_4Xhoye _ptx_QpJVYFinfo"
GPGPU-Sim PTX: loading globals with explicit initializers... 
GPGPU-Sim PTX: finished loading globals (0 bytes total).
GPGPU-Sim PTX: loading constants with explicit initializers...  done.
GPGPU-Sim PTX: __cudaRegisterFunction _Z22bpnn_layerforward_CUDAPfS_S_S_ii : hostFun 0x0x402dc8, fat_cubin_handle = 1
Random number generator seed: 7
Input layer size : 65536
Starting training kernel
Performing GPU computation

GPGPU-Sim PTX: cudaLaunch for 0x0x402dc8 (mode=performance simulation) on stream 0
GPGPU-Sim PTX: pushing kernel '_Z22bpnn_layerforward_CUDAPfS_S_S_ii' to stream 0, gridDim= (1,4096,1) blockDim = (16,16,1) 
kernel '_Z22bpnn_layerforward_CUDAPfS_S_S_ii' transfer to GPU hardware scheduler
GPGPU-Sim uArch: Shader 1 bind to kernel 1 '_Z22bpnn_layerforward_CUDAPfS_S_S_ii'
GPGPU-Sim uArch: CTA/core = 6, limited by: threads
GPGPU-Sim uArch: core:  1, cta: 0 initialized @(1,0)
GPGPU-Sim uArch: Shader 2 bind to kernel 1 '_Z22bpnn_layerforward_CUDAPfS_S_S_ii'
GPGPU-Sim uArch: core:  2, cta: 0 initialized @(1,0)
GPGPU-Sim uArch: Shader 3 bind to kernel 1 '_Z22bpnn_layerforward_CUDAPfS_S_S_ii'
GPGPU-Sim uArch: core:  3, cta: 0 initialized @(1,0)
GPGPU-Sim uArch: Shader 4 bind to kernel 1 '_Z22bpnn_layerforward_CUDAPfS_S_S_ii'
GPGPU-Sim uArch: core:  4, cta: 0 initialized @(1,0)
GPGPU-Sim uArch: Shader 5 bind to kernel 1 '_Z22bpnn_layerforward_CUDAPfS_S_S_ii'
GPGPU-Sim uArch: core:  5, cta: 0 initialized @(1,0)
GPGPU-Sim uArch: Shader 6 bind to kernel 1 '_Z22bpnn_layerforward_CUDAPfS_S_S_ii'
GPGPU-Sim uArch: core:  6, cta: 0 initialized @(1,0)
GPGPU-Sim uArch: Shader 7 bind to kernel 1 '_Z22bpnn_layerforward_CUDAPfS_S_S_ii'
GPGPU-Sim uArch: core:  7, cta: 0 initialized @(1,0)
GPGPU-Sim uArch: Shader 8 bind to kernel 1 '_Z22bpnn_layerforward_CUDAPfS_S_S_ii'
GPGPU-Sim uArch: core:  8, cta: 0 initialized @(1,0)
GPGPU-Sim uArch: Shader 9 bind to kernel 1 '_Z22bpnn_layerforward_CUDAPfS_S_S_ii'
GPGPU-Sim uArch: core:  9, cta: 0 initialized @(1,0)
GPGPU-Sim uArch: Shader 10 bind to kernel 1 '_Z22bpnn_layerforward_CUDAPfS_S_S_ii'
GPGPU-Sim uArch: core: 10, cta: 0 initialized @(1,0)
GPGPU-Sim uArch: Shader 11 bind to kernel 1 '_Z22bpnn_layerforward_CUDAPfS_S_S_ii'
GPGPU-Sim uArch: core: 11, cta: 0 initialized @(1,0)
GPGPU-Sim uArch: Shader 12 bind to kernel 1 '_Z22bpnn_layerforward_CUDAPfS_S_S_ii'
GPGPU-Sim uArch: core: 12, cta: 0 initialized @(1,0)
GPGPU-Sim uArch: Shader 13 bind to kernel 1 '_Z22bpnn_layerforward_CUDAPfS_S_S_ii'
GPGPU-Sim uArch: core: 13, cta: 0 initialized @(1,0)
GPGPU-Sim uArch: Shader 14 bind to kernel 1 '_Z22bpnn_layerforward_CUDAPfS_S_S_ii'
GPGPU-Sim uArch: core: 14, cta: 0 initialized @(1,0)
GPGPU-Sim uArch: Shader 0 bind to kernel 1 '_Z22bpnn_layerforward_CUDAPfS_S_S_ii'
GPGPU-Sim uArch: core:  0, cta: 0 initialized @(1,0)
GPGPU-Sim uArch: core:  1, cta: 1 initialized @(2,0)
GPGPU-Sim uArch: core:  2, cta: 1 initialized @(2,0)
GPGPU-Sim uArch: core:  3, cta: 1 initialized @(2,0)
GPGPU-Sim uArch: core:  4, cta: 1 initialized @(2,0)
GPGPU-Sim uArch: core:  5, cta: 1 initialized @(2,0)
GPGPU-Sim uArch: core:  6, cta: 1 initialized @(2,0)
GPGPU-Sim uArch: core:  7, cta: 1 initialized @(2,0)
GPGPU-Sim uArch: core:  8, cta: 1 initialized @(2,0)
GPGPU-Sim uArch: core:  9, cta: 1 initialized @(2,0)
GPGPU-Sim uArch: core: 10, cta: 1 initialized @(2,0)
GPGPU-Sim uArch: core: 11, cta: 1 initialized @(2,0)
GPGPU-Sim uArch: core: 12, cta: 1 initialized @(2,0)
GPGPU-Sim uArch: core: 13, cta: 1 initialized @(2,0)
GPGPU-Sim uArch: core: 14, cta: 1 initialized @(2,0)
GPGPU-Sim uArch: core:  0, cta: 1 initialized @(2,0)
GPGPU-Sim uArch: core:  1, cta: 2 initialized @(3,0)
GPGPU-Sim uArch: core:  2, cta: 2 initialized @(3,0)
GPGPU-Sim uArch: core:  3, cta: 2 initialized @(3,0)
GPGPU-Sim uArch: core:  4, cta: 2 initialized @(3,0)
GPGPU-Sim uArch: core:  5, cta: 2 initialized @(3,0)
GPGPU-Sim uArch: core:  6, cta: 2 initialized @(3,0)
GPGPU-Sim uArch: core:  7, cta: 2 initialized @(3,0)
GPGPU-Sim uArch: core:  8, cta: 2 initialized @(3,0)
GPGPU-Sim uArch: core:  9, cta: 2 initialized @(3,0)
GPGPU-Sim uArch: core: 10, cta: 2 initialized @(3,0)
GPGPU-Sim uArch: core: 11, cta: 2 initialized @(3,0)
GPGPU-Sim uArch: core: 12, cta: 2 initialized @(3,0)
GPGPU-Sim uArch: core: 13, cta: 2 initialized @(3,0)
GPGPU-Sim uArch: core: 14, cta: 2 initialized @(3,0)
GPGPU-Sim uArch: core:  0, cta: 2 initialized @(3,0)
GPGPU-Sim uArch: core:  1, cta: 3 initialized @(4,0)
GPGPU-Sim uArch: core:  2, cta: 3 initialized @(4,0)
GPGPU-Sim uArch: core:  3, cta: 3 initialized @(4,0)
GPGPU-Sim uArch: core:  4, cta: 3 initialized @(4,0)
GPGPU-Sim uArch: core:  5, cta: 3 initialized @(4,0)
GPGPU-Sim uArch: core:  6, cta: 3 initialized @(4,0)
GPGPU-Sim uArch: core:  7, cta: 3 initialized @(4,0)
GPGPU-Sim uArch: core:  8, cta: 3 initialized @(4,0)
GPGPU-Sim uArch: core:  9, cta: 3 initialized @(4,0)
GPGPU-Sim uArch: core: 10, cta: 3 initialized @(4,0)
GPGPU-Sim uArch: core: 11, cta: 3 initialized @(4,0)
GPGPU-Sim uArch: core: 12, cta: 3 initialized @(4,0)
GPGPU-Sim uArch: core: 13, cta: 3 initialized @(4,0)
GPGPU-Sim uArch: core: 14, cta: 3 initialized @(4,0)
GPGPU-Sim uArch: core:  0, cta: 3 initialized @(4,0)
GPGPU-Sim uArch: core:  1, cta: 4 initialized @(5,0)
GPGPU-Sim uArch: core:  2, cta: 4 initialized @(5,0)
GPGPU-Sim uArch: core:  3, cta: 4 initialized @(5,0)
GPGPU-Sim uArch: core:  4, cta: 4 initialized @(5,0)
GPGPU-Sim uArch: core:  5, cta: 4 initialized @(5,0)
GPGPU-Sim uArch: core:  6, cta: 4 initialized @(5,0)
GPGPU-Sim uArch: core:  7, cta: 4 initialized @(5,0)
GPGPU-Sim uArch: core:  8, cta: 4 initialized @(5,0)
GPGPU-Sim uArch: core:  9, cta: 4 initialized @(5,0)
GPGPU-Sim uArch: core: 10, cta: 4 initialized @(5,0)
GPGPU-Sim uArch: core: 11, cta: 4 initialized @(5,0)
GPGPU-Sim uArch: core: 12, cta: 4 initialized @(5,0)
GPGPU-Sim uArch: core: 13, cta: 4 initialized @(5,0)
GPGPU-Sim uArch: core: 14, cta: 4 initialized @(5,0)
GPGPU-Sim uArch: core:  0, cta: 4 initialized @(5,0)
GPGPU-Sim uArch: core:  1, cta: 5 initialized @(6,0)
GPGPU-Sim uArch: core:  2, cta: 5 initialized @(6,0)
GPGPU-Sim uArch: core:  3, cta: 5 initialized @(6,0)
GPGPU-Sim uArch: core:  4, cta: 5 initialized @(6,0)
GPGPU-Sim uArch: core:  5, cta: 5 initialized @(6,0)
GPGPU-Sim uArch: core:  6, cta: 5 initialized @(6,0)
GPGPU-Sim uArch: core:  7, cta: 5 initialized @(6,0)
GPGPU-Sim uArch: core:  8, cta: 5 initialized @(6,0)
GPGPU-Sim uArch: core:  9, cta: 5 initialized @(6,0)
GPGPU-Sim uArch: core: 10, cta: 5 initialized @(6,0)
GPGPU-Sim uArch: core: 11, cta: 5 initialized @(6,0)
GPGPU-Sim uArch: core: 12, cta: 5 initialized @(6,0)
GPGPU-Sim uArch: core: 13, cta: 5 initialized @(6,0)
GPGPU-Sim uArch: core: 14, cta: 5 initialized @(6,0)
GPGPU-Sim uArch: core:  0, cta: 5 initialized @(6,0)
GPGPU-Sim uArch: cycles simulated: 500  inst.: 77502 (ipc=155.0) sim_rate=15500 (inst/sec) elapsed = 0:0:00:05 / Tue Mar 22 12:52:09 2016
GPGPU-Sim uArch: cycles simulated: 1000  inst.: 79200 (ipc=79.2) sim_rate=7920 (inst/sec) elapsed = 0:0:00:10 / Tue Mar 22 12:52:14 2016
GPGPU-Sim PTX: 100000 instructions simulated : ctaid=(0,5,0) tid=(13,7,0)
GPGPU-Sim PTX: 200000 instructions simulated : ctaid=(0,3,0) tid=(15,1,0)
GPGPU-Sim PTX: 300000 instructions simulated : ctaid=(0,4,0) tid=(9,12,0)
GPGPU-Sim PTX: 400000 instructions simulated : ctaid=(0,11,0) tid=(9,4,0)
GPGPU-Sim uArch: cycles simulated: 2500  inst.: 398912 (ipc=159.6) sim_rate=36264 (inst/sec) elapsed = 0:0:00:11 / Tue Mar 22 12:52:15 2016
GPGPU-Sim PTX: 500000 instructions simulated : ctaid=(0,24,0) tid=(9,10,0)
GPGPU-Sim PTX: 600000 instructions simulated : ctaid=(0,26,0) tid=(9,15,0)
GPGPU-Sim PTX: 700000 instructions simulated : ctaid=(0,18,0) tid=(9,8,0)
GPGPU-Sim PTX: 800000 instructions simulated : ctaid=(0,21,0) tid=(11,0,0)
GPGPU-Sim PTX: 900000 instructions simulated : ctaid=(0,34,0) tid=(9,13,0)
GPGPU-Sim uArch: cycles simulated: 4000  inst.: 965060 (ipc=241.3) sim_rate=80421 (inst/sec) elapsed = 0:0:00:12 / Tue Mar 22 12:52:16 2016
GPGPU-Sim PTX: 1000000 instructions simulated : ctaid=(0,85,0) tid=(7,6,0)
GPGPU-Sim PTX: 1100000 instructions simulated : ctaid=(0,39,0) tid=(5,6,0)
GPGPU-Sim uArch: Shader 5 finished CTA #0 (4710,0), 5 CTAs running
GPGPU-Sim uArch: core:  5, cta: 0 initialized @(4711,0)
GPGPU-Sim PTX: 1200000 instructions simulated : ctaid=(0,49,0) tid=(9,7,0)
GPGPU-Sim uArch: Shader 2 finished CTA #0 (4732,0), 5 CTAs running
GPGPU-Sim uArch: core:  2, cta: 0 initialized @(4733,0)
GPGPU-Sim uArch: Shader 10 finished CTA #0 (4740,0), 5 CTAs running
GPGPU-Sim uArch: core: 10, cta: 0 initialized @(4741,0)
GPGPU-Sim uArch: Shader 1 finished CTA #0 (4755,0), 5 CTAs running
GPGPU-Sim uArch: core:  1, cta: 0 initialized @(4756,0)
GPGPU-Sim uArch: Shader 10 finished CTA #1 (4759,0), 5 CTAs running
GPGPU-Sim uArch: core: 10, cta: 1 initialized @(4760,0)
GPGPU-Sim uArch: Shader 14 finished CTA #0 (4778,0), 5 CTAs running
GPGPU-Sim uArch: core: 14, cta: 0 initialized @(4779,0)
GPGPU-Sim uArch: Shader 5 finished CTA #1 (4796,0), 5 CTAs running
GPGPU-Sim uArch: core:  5, cta: 1 initialized @(4797,0)
GPGPU-Sim uArch: Shader 4 finished CTA #0 (4797,0), 5 CTAs running
GPGPU-Sim uArch: core:  4, cta: 0 initialized @(4798,0)
GPGPU-Sim uArch: Shader 14 finished CTA #1 (4798,0), 5 CTAs running
GPGPU-Sim uArch: core: 14, cta: 1 initialized @(4799,0)
GPGPU-Sim uArch: Shader 0 finished CTA #1 (4801,0), 5 CTAs running
GPGPU-Sim uArch: core:  0, cta: 1 initialized @(4802,0)
GPGPU-Sim uArch: Shader 3 finished CTA #0 (4802,0), 5 CTAs running
GPGPU-Sim uArch: core:  3, cta: 0 initialized @(4803,0)
GPGPU-Sim uArch: Shader 13 finished CTA #0 (4805,0), 5 CTAs running
GPGPU-Sim uArch: core: 13, cta: 0 initialized @(4806,0)
GPGPU-Sim uArch: Shader 1 finished CTA #1 (4809,0), 5 CTAs running
GPGPU-Sim uArch: core:  1, cta: 1 initialized @(4810,0)
GPGPU-Sim uArch: Shader 6 finished CTA #1 (4810,0), 5 CTAs running
GPGPU-Sim uArch: core:  6, cta: 1 initialized @(4811,0)
GPGPU-Sim uArch: Shader 7 finished CTA #1 (4812,0), 5 CTAs running
GPGPU-Sim uArch: core:  7, cta: 1 initialized @(4813,0)
GPGPU-Sim uArch: Shader 2 finished CTA #1 (4813,0), 5 CTAs running
GPGPU-Sim uArch: core:  2, cta: 1 initialized @(4814,0)
GPGPU-Sim uArch: Shader 3 finished CTA #1 (4820,0), 5 CTAs running
GPGPU-Sim uArch: core:  3, cta: 1 initialized @(4821,0)
GPGPU-Sim uArch: Shader 4 finished CTA #1 (4829,0), 5 CTAs running
GPGPU-Sim uArch: core:  4, cta: 1 initialized @(4830,0)
GPGPU-Sim uArch: Shader 0 finished CTA #0 (4843,0), 5 CTAs running
GPGPU-Sim uArch: core:  0, cta: 0 initialized @(4844,0)
GPGPU-Sim uArch: Shader 7 finished CTA #0 (4846,0), 5 CTAs running
GPGPU-Sim uArch: core:  7, cta: 0 initialized @(4847,0)
GPGPU-Sim uArch: Shader 6 finished CTA #0 (4848,0), 5 CTAs running
GPGPU-Sim uArch: core:  6, cta: 0 initialized @(4849,0)
GPGPU-Sim uArch: Shader 8 finished CTA #0 (4854,0), 5 CTAs running
GPGPU-Sim uArch: core:  8, cta: 0 initialized @(4855,0)
GPGPU-Sim uArch: Shader 12 finished CTA #0 (4887,0), 5 CTAs running
GPGPU-Sim uArch: core: 12, cta: 0 initialized @(4888,0)
GPGPU-Sim uArch: Shader 12 finished CTA #1 (4909,0), 5 CTAs running
GPGPU-Sim uArch: core: 12, cta: 1 initialized @(4910,0)
GPGPU-Sim uArch: Shader 11 finished CTA #0 (4915,0), 5 CTAs running
GPGPU-Sim uArch: core: 11, cta: 0 initialized @(4916,0)
GPGPU-Sim uArch: Shader 13 finished CTA #1 (4916,0), 5 CTAs running
GPGPU-Sim uArch: core: 13, cta: 1 initialized @(4917,0)
GPGPU-Sim uArch: Shader 9 finished CTA #0 (4920,0), 5 CTAs running
GPGPU-Sim uArch: core:  9, cta: 0 initialized @(4921,0)
GPGPU-Sim uArch: Shader 11 finished CTA #1 (4926,0), 5 CTAs running
GPGPU-Sim uArch: core: 11, cta: 1 initialized @(4927,0)
GPGPU-Sim uArch: Shader 8 finished CTA #1 (4931,0), 5 CTAs running
GPGPU-Sim uArch: core:  8, cta: 1 initialized @(4932,0)
GPGPU-Sim PTX: 1300000 instructions simulated : ctaid=(0,72,0) tid=(15,12,0)
GPGPU-Sim uArch: Shader 9 finished CTA #1 (4939,0), 5 CTAs running
GPGPU-Sim uArch: core:  9, cta: 1 initialized @(4940,0)
GPGPU-Sim uArch: cycles simulated: 5000  inst.: 1288576 (ipc=257.7) sim_rate=99121 (inst/sec) elapsed = 0:0:00:13 / Tue Mar 22 12:52:17 2016
GPGPU-Sim PTX: 1400000 instructions simulated : ctaid=(0,34,0) tid=(11,11,0)
GPGPU-Sim PTX: 1500000 instructions simulated : ctaid=(0,48,0) tid=(3,0,0)
GPGPU-Sim PTX: 1600000 instructions simulated : ctaid=(0,47,0) tid=(11,6,0)
GPGPU-Sim PTX: 1700000 instructions simulated : ctaid=(0,36,0) tid=(7,5,0)
GPGPU-Sim PTX: 1800000 instructions simulated : ctaid=(0,104,0) tid=(3,6,0)
GPGPU-Sim uArch: cycles simulated: 6000  inst.: 1767032 (ipc=294.5) sim_rate=126216 (inst/sec) elapsed = 0:0:00:14 / Tue Mar 22 12:52:18 2016
GPGPU-Sim PTX: 1900000 instructions simulated : ctaid=(0,79,0) tid=(3,9,0)
GPGPU-Sim uArch: Shader 1 finished CTA #2 (6193,0), 5 CTAs running
GPGPU-Sim uArch: core:  1, cta: 2 initialized @(6194,0)
GPGPU-Sim uArch: Shader 5 finished CTA #2 (6200,0), 5 CTAs running
GPGPU-Sim uArch: core:  5, cta: 2 initialized @(6201,0)
GPGPU-Sim uArch: Shader 2 finished CTA #2 (6212,0), 5 CTAs running
GPGPU-Sim uArch: core:  2, cta: 2 initialized @(6213,0)
GPGPU-Sim uArch: Shader 0 finished CTA #2 (6242,0), 5 CTAs running
GPGPU-Sim uArch: core:  0, cta: 2 initialized @(6243,0)
GPGPU-Sim uArch: Shader 12 finished CTA #2 (6247,0), 5 CTAs running
GPGPU-Sim uArch: core: 12, cta: 2 initialized @(6248,0)
GPGPU-Sim uArch: Shader 10 finished CTA #2 (6262,0), 5 CTAs running
GPGPU-Sim uArch: core: 10, cta: 2 initialized @(6263,0)
GPGPU-Sim uArch: Shader 7 finished CTA #2 (6268,0), 5 CTAs running
GPGPU-Sim uArch: core:  7, cta: 2 initialized @(6269,0)
GPGPU-Sim uArch: Shader 9 finished CTA #2 (6301,0), 5 CTAs running
GPGPU-Sim uArch: core:  9, cta: 2 initialized @(6302,0)
GPGPU-Sim uArch: Shader 8 finished CTA #2 (6311,0), 5 CTAs running
GPGPU-Sim uArch: core:  8, cta: 2 initialized @(6312,0)
GPGPU-Sim PTX: 2000000 instructions simulated : ctaid=(0,51,0) tid=(7,0,0)
GPGPU-Sim uArch: Shader 4 finished CTA #2 (6393,0), 5 CTAs running
GPGPU-Sim uArch: core:  4, cta: 2 initialized @(6394,0)
GPGPU-Sim uArch: Shader 6 finished CTA #2 (6403,0), 5 CTAs running
GPGPU-Sim uArch: core:  6, cta: 2 initialized @(6404,0)
GPGPU-Sim uArch: Shader 13 finished CTA #2 (6430,0), 5 CTAs running
GPGPU-Sim uArch: core: 13, cta: 2 initialized @(6431,0)
GPGPU-Sim uArch: Shader 14 finished CTA #2 (6432,0), 5 CTAs running
GPGPU-Sim uArch: core: 14, cta: 2 initialized @(6433,0)
GPGPU-Sim uArch: Shader 11 finished CTA #2 (6463,0), 5 CTAs running
GPGPU-Sim uArch: core: 11, cta: 2 initialized @(6464,0)
GPGPU-Sim uArch: Shader 3 finished CTA #2 (6519,0), 5 CTAs running
GPGPU-Sim uArch: core:  3, cta: 2 initialized @(6520,0)
GPGPU-Sim PTX: 2100000 instructions simulated : ctaid=(0,72,0) tid=(15,15,0)
GPGPU-Sim PTX: 2200000 instructions simulated : ctaid=(0,67,0) tid=(9,8,0)
GPGPU-Sim uArch: Shader 1 finished CTA #3 (6877,0), 5 CTAs running
GPGPU-Sim uArch: core:  1, cta: 3 initialized @(6878,0)
GPGPU-Sim PTX: 2300000 instructions simulated : ctaid=(0,98,0) tid=(7,4,0)
GPGPU-Sim uArch: Shader 5 finished CTA #3 (6986,0), 5 CTAs running
GPGPU-Sim uArch: core:  5, cta: 3 initialized @(6987,0)
GPGPU-Sim uArch: cycles simulated: 7000  inst.: 2256684 (ipc=322.4) sim_rate=150445 (inst/sec) elapsed = 0:0:00:15 / Tue Mar 22 12:52:19 2016
GPGPU-Sim uArch: Shader 4 finished CTA #3 (7015,0), 5 CTAs running
GPGPU-Sim uArch: core:  4, cta: 3 initialized @(7016,0)
GPGPU-Sim uArch: Shader 3 finished CTA #3 (7035,0), 5 CTAs running
GPGPU-Sim uArch: core:  3, cta: 3 initialized @(7036,0)
GPGPU-Sim uArch: Shader 2 finished CTA #3 (7040,0), 5 CTAs running
GPGPU-Sim uArch: core:  2, cta: 3 initialized @(7041,0)
GPGPU-Sim uArch: Shader 0 finished CTA #3 (7073,0), 5 CTAs running
GPGPU-Sim uArch: core:  0, cta: 3 initialized @(7074,0)
GPGPU-Sim uArch: Shader 8 finished CTA #3 (7087,0), 5 CTAs running
GPGPU-Sim uArch: core:  8, cta: 3 initialized @(7088,0)
GPGPU-Sim uArch: Shader 14 finished CTA #3 (7089,0), 5 CTAs running
GPGPU-Sim uArch: core: 14, cta: 3 initialized @(7090,0)
GPGPU-Sim uArch: Shader 13 finished CTA #3 (7106,0), 5 CTAs running
GPGPU-Sim uArch: core: 13, cta: 3 initialized @(7107,0)
GPGPU-Sim uArch: Shader 12 finished CTA #3 (7135,0), 5 CTAs running
GPGPU-Sim uArch: core: 12, cta: 3 initialized @(7136,0)
GPGPU-Sim uArch: Shader 7 finished CTA #3 (7151,0), 5 CTAs running
GPGPU-Sim uArch: core:  7, cta: 3 initialized @(7152,0)
GPGPU-Sim uArch: Shader 6 finished CTA #3 (7154,0), 5 CTAs running
GPGPU-Sim uArch: core:  6, cta: 3 initialized @(7155,0)
GPGPU-Sim PTX: 2400000 instructions simulated : ctaid=(0,66,0) tid=(7,0,0)
GPGPU-Sim uArch: Shader 9 finished CTA #3 (7234,0), 5 CTAs running
GPGPU-Sim uArch: core:  9, cta: 3 initialized @(7235,0)
GPGPU-Sim uArch: Shader 10 finished CTA #3 (7238,0), 5 CTAs running
GPGPU-Sim uArch: core: 10, cta: 3 initialized @(7239,0)
GPGPU-Sim uArch: Shader 11 finished CTA #3 (7256,0), 5 CTAs running
GPGPU-Sim uArch: core: 11, cta: 3 initialized @(7257,0)
GPGPU-Sim PTX: 2500000 instructions simulated : ctaid=(0,101,0) tid=(1,15,0)
GPGPU-Sim PTX: 2600000 instructions simulated : ctaid=(0,73,0) tid=(15,14,0)
GPGPU-Sim PTX: 2700000 instructions simulated : ctaid=(0,64,0) tid=(13,2,0)
GPGPU-Sim uArch: Shader 3 finished CTA #4 (7893,0), 5 CTAs running
GPGPU-Sim uArch: core:  3, cta: 4 initialized @(7894,0)
GPGPU-Sim uArch: Shader 10 finished CTA #4 (7902,0), 5 CTAs running
GPGPU-Sim uArch: core: 10, cta: 4 initialized @(7903,0)
GPGPU-Sim PTX: 2800000 instructions simulated : ctaid=(0,101,0) tid=(1,8,0)
GPGPU-Sim uArch: Shader 14 finished CTA #4 (7977,0), 5 CTAs running
GPGPU-Sim uArch: core: 14, cta: 4 initialized @(7978,0)
GPGPU-Sim uArch: cycles simulated: 8000  inst.: 2744852 (ipc=343.1) sim_rate=171553 (inst/sec) elapsed = 0:0:00:16 / Tue Mar 22 12:52:20 2016
GPGPU-Sim uArch: Shader 2 finished CTA #4 (8017,0), 5 CTAs running
GPGPU-Sim uArch: core:  2, cta: 4 initialized @(8018,0)
GPGPU-Sim uArch: Shader 4 finished CTA #4 (8043,0), 5 CTAs running
GPGPU-Sim uArch: core:  4, cta: 4 initialized @(8044,0)
GPGPU-Sim uArch: Shader 8 finished CTA #4 (8068,0), 5 CTAs running
GPGPU-Sim uArch: core:  8, cta: 4 initialized @(8069,0)
GPGPU-Sim uArch: Shader 7 finished CTA #4 (8084,0), 5 CTAs running
GPGPU-Sim uArch: core:  7, cta: 4 initialized @(8085,0)
GPGPU-Sim uArch: Shader 12 finished CTA #4 (8086,0), 5 CTAs running
GPGPU-Sim uArch: core: 12, cta: 4 initialized @(8087,0)
GPGPU-Sim PTX: 2900000 instructions simulated : ctaid=(0,86,0) tid=(15,4,0)
GPGPU-Sim uArch: Shader 1 finished CTA #4 (8160,0), 5 CTAs running
GPGPU-Sim uArch: core:  1, cta: 4 initialized @(8161,0)
GPGPU-Sim uArch: Shader 13 finished CTA #4 (8162,0), 5 CTAs running
GPGPU-Sim uArch: core: 13, cta: 4 initialized @(8163,0)
GPGPU-Sim uArch: Shader 0 finished CTA #4 (8204,0), 5 CTAs running
GPGPU-Sim uArch: core:  0, cta: 4 initialized @(8205,0)
GPGPU-Sim uArch: Shader 9 finished CTA #4 (8223,0), 5 CTAs running
GPGPU-Sim uArch: core:  9, cta: 4 initialized @(8224,0)
GPGPU-Sim uArch: Shader 6 finished CTA #4 (8245,0), 5 CTAs running
GPGPU-Sim uArch: core:  6, cta: 4 initialized @(8246,0)
GPGPU-Sim uArch: Shader 11 finished CTA #4 (8250,0), 5 CTAs running
GPGPU-Sim uArch: core: 11, cta: 4 initialized @(8251,0)
GPGPU-Sim uArch: Shader 5 finished CTA #4 (8262,0), 5 CTAs running
GPGPU-Sim uArch: core:  5, cta: 4 initialized @(8263,0)
GPGPU-Sim PTX: 3000000 instructions simulated : ctaid=(0,88,0) tid=(1,12,0)
GPGPU-Sim uArch: Shader 1 finished CTA #5 (8545,0), 5 CTAs running
GPGPU-Sim uArch: core:  1, cta: 5 initialized @(8546,0)
GPGPU-Sim PTX: 3100000 instructions simulated : ctaid=(0,84,0) tid=(7,14,0)
GPGPU-Sim uArch: Shader 5 finished CTA #5 (8591,0), 5 CTAs running
GPGPU-Sim uArch: core:  5, cta: 5 initialized @(8592,0)
GPGPU-Sim uArch: Shader 9 finished CTA #5 (8615,0), 5 CTAs running
GPGPU-Sim uArch: core:  9, cta: 5 initialized @(8616,0)
GPGPU-Sim uArch: Shader 11 finished CTA #5 (8687,0), 5 CTAs running
GPGPU-Sim uArch: core: 11, cta: 5 initialized @(8688,0)
GPGPU-Sim uArch: Shader 3 finished CTA #5 (8744,0), 5 CTAs running
GPGPU-Sim uArch: core:  3, cta: 5 initialized @(8745,0)
GPGPU-Sim PTX: 3200000 instructions simulated : ctaid=(0,100,0) tid=(15,10,0)
GPGPU-Sim uArch: Shader 7 finished CTA #5 (8763,0), 5 CTAs running
GPGPU-Sim uArch: core:  7, cta: 5 initialized @(8764,0)
GPGPU-Sim uArch: Shader 0 finished CTA #5 (8776,0), 5 CTAs running
GPGPU-Sim uArch: core:  0, cta: 5 initialized @(8777,0)
GPGPU-Sim uArch: Shader 13 finished CTA #5 (8863,0), 5 CTAs running
GPGPU-Sim uArch: core: 13, cta: 5 initialized @(8864,0)
GPGPU-Sim uArch: Shader 6 finished CTA #5 (8868,0), 5 CTAs running
GPGPU-Sim uArch: core:  6, cta: 5 initialized @(8869,0)
GPGPU-Sim uArch: Shader 14 finished CTA #5 (8897,0), 5 CTAs running
GPGPU-Sim uArch: core: 14, cta: 5 initialized @(8898,0)
GPGPU-Sim uArch: Shader 10 finished CTA #5 (8903,0), 5 CTAs running
GPGPU-Sim uArch: core: 10, cta: 5 initialized @(8904,0)
GPGPU-Sim uArch: Shader 2 finished CTA #5 (8918,0), 5 CTAs running
GPGPU-Sim uArch: core:  2, cta: 5 initialized @(8919,0)
GPGPU-Sim uArch: Shader 4 finished CTA #5 (8950,0), 5 CTAs running
GPGPU-Sim uArch: core:  4, cta: 5 initialized @(8951,0)
GPGPU-Sim uArch: Shader 8 finished CTA #5 (8956,0), 5 CTAs running
GPGPU-Sim uArch: core:  8, cta: 5 initialized @(8957,0)
GPGPU-Sim PTX: 3300000 instructions simulated : ctaid=(0,140,0) tid=(5,12,0)
GPGPU-Sim uArch: cycles simulated: 9000  inst.: 3234386 (ipc=359.4) sim_rate=190258 (inst/sec) elapsed = 0:0:00:17 / Tue Mar 22 12:52:21 2016
GPGPU-Sim uArch: Shader 12 finished CTA #5 (9114,0), 5 CTAs running
GPGPU-Sim uArch: core: 12, cta: 5 initialized @(9115,0)
GPGPU-Sim PTX: 3400000 instructions simulated : ctaid=(0,163,0) tid=(3,10,0)
GPGPU-Sim PTX: 3500000 instructions simulated : ctaid=(0,101,0) tid=(1,12,0)
GPGPU-Sim uArch: Shader 10 finished CTA #0 (9434,0), 5 CTAs running
GPGPU-Sim uArch: core: 10, cta: 0 initialized @(9435,0)
GPGPU-Sim uArch: Shader 6 finished CTA #1 (9485,0), 5 CTAs running
GPGPU-Sim uArch: core:  6, cta: 1 initialized @(9486,0)
GPGPU-Sim uArch: Shader 2 finished CTA #0 (9536,0), 5 CTAs running
GPGPU-Sim uArch: core:  2, cta: 0 initialized @(9537,0)
GPGPU-Sim PTX: 3600000 instructions simulated : ctaid=(0,109,0) tid=(15,11,0)
GPGPU-Sim uArch: Shader 4 finished CTA #0 (9570,0), 5 CTAs running
GPGPU-Sim uArch: core:  4, cta: 0 initialized @(9571,0)
GPGPU-Sim uArch: Shader 14 finished CTA #0 (9612,0), 5 CTAs running
GPGPU-Sim uArch: core: 14, cta: 0 initialized @(9613,0)
GPGPU-Sim uArch: Shader 1 finished CTA #0 (9635,0), 5 CTAs running
GPGPU-Sim uArch: core:  1, cta: 0 initialized @(9636,0)
GPGPU-Sim uArch: Shader 3 finished CTA #0 (9768,0), 5 CTAs running
GPGPU-Sim uArch: core:  3, cta: 0 initialized @(9769,0)
GPGPU-Sim uArch: Shader 0 finished CTA #1 (9786,0), 5 CTAs running
GPGPU-Sim uArch: core:  0, cta: 1 initialized @(9787,0)
GPGPU-Sim PTX: 3700000 instructions simulated : ctaid=(0,122,0) tid=(7,5,0)
GPGPU-Sim uArch: Shader 13 finished CTA #0 (9797,0), 5 CTAs running
GPGPU-Sim uArch: core: 13, cta: 0 initialized @(9798,0)
GPGPU-Sim uArch: Shader 8 finished CTA #0 (9911,0), 5 CTAs running
GPGPU-Sim uArch: core:  8, cta: 0 initialized @(9912,0)
GPGPU-Sim PTX: 3800000 instructions simulated : ctaid=(0,161,0) tid=(9,0,0)
GPGPU-Sim uArch: cycles simulated: 10000  inst.: 3707542 (ipc=370.8) sim_rate=205974 (inst/sec) elapsed = 0:0:00:18 / Tue Mar 22 12:52:22 2016
GPGPU-Sim uArch: Shader 12 finished CTA #0 (10002,0), 5 CTAs running
GPGPU-Sim uArch: core: 12, cta: 0 initialized @(10003,0)
GPGPU-Sim uArch: Shader 7 finished CTA #1 (10009,0), 5 CTAs running
GPGPU-Sim uArch: core:  7, cta: 1 initialized @(10010,0)
GPGPU-Sim uArch: Shader 9 finished CTA #0 (10029,0), 5 CTAs running
GPGPU-Sim uArch: core:  9, cta: 0 initialized @(10030,0)
GPGPU-Sim uArch: Shader 5 finished CTA #0 (10152,0), 5 CTAs running
GPGPU-Sim uArch: core:  5, cta: 0 initialized @(10153,0)
GPGPU-Sim uArch: Shader 11 finished CTA #0 (10154,0), 5 CTAs running
GPGPU-Sim uArch: core: 11, cta: 0 initialized @(10155,0)
GPGPU-Sim PTX: 3900000 instructions simulated : ctaid=(0,124,0) tid=(11,8,0)
GPGPU-Sim uArch: Shader 5 finished CTA #1 (10316,0), 5 CTAs running
GPGPU-Sim uArch: core:  5, cta: 1 initialized @(10317,0)
GPGPU-Sim PTX: 4000000 instructions simulated : ctaid=(0,133,0) tid=(11,10,0)
GPGPU-Sim uArch: Shader 11 finished CTA #1 (10441,0), 5 CTAs running
GPGPU-Sim uArch: core: 11, cta: 1 initialized @(10442,0)
GPGPU-Sim uArch: Shader 12 finished CTA #1 (10502,0), 5 CTAs running
GPGPU-Sim uArch: core: 12, cta: 1 initialized @(10503,0)
GPGPU-Sim uArch: Shader 7 finished CTA #0 (10606,0), 5 CTAs running
GPGPU-Sim uArch: core:  7, cta: 0 initialized @(10607,0)
GPGPU-Sim uArch: Shader 9 finished CTA #1 (10609,0), 5 CTAs running
GPGPU-Sim uArch: core:  9, cta: 1 initialized @(10610,0)
GPGPU-Sim PTX: 4100000 instructions simulated : ctaid=(0,131,0) tid=(11,4,0)
GPGPU-Sim uArch: Shader 3 finished CTA #1 (10637,0), 5 CTAs running
GPGPU-Sim uArch: core:  3, cta: 1 initialized @(10638,0)
GPGPU-Sim uArch: Shader 4 finished CTA #1 (10642,0), 5 CTAs running
GPGPU-Sim uArch: core:  4, cta: 1 initialized @(10643,0)
GPGPU-Sim uArch: Shader 10 finished CTA #1 (10643,0), 5 CTAs running
GPGPU-Sim uArch: core: 10, cta: 1 initialized @(10644,0)
GPGPU-Sim uArch: Shader 1 finished CTA #1 (10647,0), 5 CTAs running
GPGPU-Sim uArch: core:  1, cta: 1 initialized @(10648,0)
GPGPU-Sim uArch: Shader 2 finished CTA #1 (10655,0), 5 CTAs running
GPGPU-Sim uArch: core:  2, cta: 1 initialized @(10656,0)
GPGPU-Sim uArch: Shader 14 finished CTA #1 (10665,0), 5 CTAs running
GPGPU-Sim uArch: core: 14, cta: 1 initialized @(10666,0)
GPGPU-Sim uArch: Shader 13 finished CTA #1 (10739,0), 5 CTAs running
GPGPU-Sim uArch: core: 13, cta: 1 initialized @(10740,0)
GPGPU-Sim uArch: Shader 6 finished CTA #0 (10746,0), 5 CTAs running
GPGPU-Sim uArch: core:  6, cta: 0 initialized @(10747,0)
GPGPU-Sim uArch: Shader 8 finished CTA #1 (10776,0), 5 CTAs running
GPGPU-Sim uArch: core:  8, cta: 1 initialized @(10777,0)
GPGPU-Sim uArch: Shader 0 finished CTA #0 (10781,0), 5 CTAs running
GPGPU-Sim uArch: core:  0, cta: 0 initialized @(10782,0)
GPGPU-Sim PTX: 4200000 instructions simulated : ctaid=(0,142,0) tid=(1,15,0)
GPGPU-Sim uArch: cycles simulated: 11000  inst.: 4182922 (ipc=380.3) sim_rate=220153 (inst/sec) elapsed = 0:0:00:19 / Tue Mar 22 12:52:23 2016
GPGPU-Sim PTX: 4300000 instructions simulated : ctaid=(0,164,0) tid=(5,5,0)
GPGPU-Sim PTX: 4400000 instructions simulated : ctaid=(0,147,0) tid=(15,10,0)
GPGPU-Sim uArch: Shader 1 finished CTA #2 (11336,0), 5 CTAs running
GPGPU-Sim uArch: core:  1, cta: 2 initialized @(11337,0)
GPGPU-Sim PTX: 4500000 instructions simulated : ctaid=(0,163,0) tid=(3,13,0)
GPGPU-Sim uArch: Shader 7 finished CTA #2 (11444,0), 5 CTAs running
GPGPU-Sim uArch: core:  7, cta: 2 initialized @(11445,0)
GPGPU-Sim uArch: Shader 10 finished CTA #2 (11449,0), 5 CTAs running
GPGPU-Sim uArch: core: 10, cta: 2 initialized @(11450,0)
GPGPU-Sim uArch: Shader 6 finished CTA #2 (11491,0), 5 CTAs running
GPGPU-Sim uArch: core:  6, cta: 2 initialized @(11492,0)
GPGPU-Sim uArch: Shader 12 finished CTA #2 (11592,0), 5 CTAs running
GPGPU-Sim uArch: core: 12, cta: 2 initialized @(11593,0)
GPGPU-Sim uArch: Shader 2 finished CTA #2 (11616,0), 5 CTAs running
GPGPU-Sim uArch: core:  2, cta: 2 initialized @(11617,0)
GPGPU-Sim uArch: Shader 9 finished CTA #2 (11618,0), 5 CTAs running
GPGPU-Sim uArch: core:  9, cta: 2 initialized @(11619,0)
GPGPU-Sim uArch: Shader 11 finished CTA #2 (11620,0), 5 CTAs running
GPGPU-Sim uArch: core: 11, cta: 2 initialized @(11621,0)
GPGPU-Sim uArch: Shader 14 finished CTA #2 (11621,0), 5 CTAs running
GPGPU-Sim uArch: core: 14, cta: 2 initialized @(11622,0)
GPGPU-Sim PTX: 4600000 instructions simulated : ctaid=(0,172,0) tid=(13,15,0)
GPGPU-Sim uArch: Shader 0 finished CTA #2 (11647,0), 5 CTAs running
GPGPU-Sim uArch: core:  0, cta: 2 initialized @(11648,0)
GPGPU-Sim uArch: Shader 8 finished CTA #2 (11680,0), 5 CTAs running
GPGPU-Sim uArch: core:  8, cta: 2 initialized @(11681,0)
GPGPU-Sim uArch: Shader 13 finished CTA #2 (11694,0), 5 CTAs running
GPGPU-Sim uArch: core: 13, cta: 2 initialized @(11695,0)
GPGPU-Sim uArch: Shader 3 finished CTA #2 (11735,0), 5 CTAs running
GPGPU-Sim uArch: core:  3, cta: 2 initialized @(11736,0)
GPGPU-Sim uArch: Shader 4 finished CTA #2 (11741,0), 5 CTAs running
GPGPU-Sim uArch: core:  4, cta: 2 initialized @(11742,0)
GPGPU-Sim uArch: Shader 5 finished CTA #2 (11746,0), 5 CTAs running
GPGPU-Sim uArch: core:  5, cta: 2 initialized @(11747,0)
GPGPU-Sim PTX: 4700000 instructions simulated : ctaid=(0,144,0) tid=(15,2,0)
GPGPU-Sim uArch: cycles simulated: 12000  inst.: 4658722 (ipc=388.2) sim_rate=232936 (inst/sec) elapsed = 0:0:00:20 / Tue Mar 22 12:52:24 2016
GPGPU-Sim PTX: 4800000 instructions simulated : ctaid=(0,207,0) tid=(11,0,0)
GPGPU-Sim uArch: Shader 3 finished CTA #3 (12119,0), 5 CTAs running
GPGPU-Sim uArch: core:  3, cta: 3 initialized @(12120,0)
GPGPU-Sim PTX: 4900000 instructions simulated : ctaid=(0,152,0) tid=(5,13,0)
GPGPU-Sim uArch: Shader 1 finished CTA #3 (12258,0), 5 CTAs running
GPGPU-Sim uArch: core:  1, cta: 3 initialized @(12259,0)
GPGPU-Sim uArch: Shader 5 finished CTA #3 (12405,0), 5 CTAs running
GPGPU-Sim uArch: core:  5, cta: 3 initialized @(12406,0)
GPGPU-Sim uArch: Shader 4 finished CTA #3 (12410,0), 5 CTAs running
GPGPU-Sim uArch: core:  4, cta: 3 initialized @(12411,0)
GPGPU-Sim PTX: 5000000 instructions simulated : ctaid=(0,188,0) tid=(5,15,0)
GPGPU-Sim uArch: Shader 12 finished CTA #3 (12448,0), 5 CTAs running
GPGPU-Sim uArch: core: 12, cta: 3 initialized @(12449,0)
GPGPU-Sim uArch: Shader 7 finished CTA #3 (12449,0), 5 CTAs running
GPGPU-Sim uArch: core:  7, cta: 3 initialized @(12450,0)
GPGPU-Sim uArch: Shader 8 finished CTA #3 (12483,0), 5 CTAs running
GPGPU-Sim uArch: core:  8, cta: 3 initialized @(12484,0)
GPGPU-Sim uArch: Shader 10 finished CTA #3 (12490,0), 5 CTAs running
GPGPU-Sim uArch: core: 10, cta: 3 initialized @(12491,0)
GPGPU-Sim uArch: Shader 2 finished CTA #3 (12508,0), 5 CTAs running
GPGPU-Sim uArch: core:  2, cta: 3 initialized @(12509,0)
GPGPU-Sim uArch: Shader 11 finished CTA #3 (12511,0), 5 CTAs running
GPGPU-Sim uArch: core: 11, cta: 3 initialized @(12512,0)
GPGPU-Sim uArch: Shader 6 finished CTA #3 (12579,0), 5 CTAs running
GPGPU-Sim uArch: core:  6, cta: 3 initialized @(12580,0)
GPGPU-Sim uArch: Shader 9 finished CTA #3 (12581,0), 5 CTAs running
GPGPU-Sim uArch: core:  9, cta: 3 initialized @(12582,0)
GPGPU-Sim uArch: Shader 13 finished CTA #3 (12615,0), 5 CTAs running
GPGPU-Sim uArch: core: 13, cta: 3 initialized @(12616,0)
GPGPU-Sim uArch: Shader 14 finished CTA #3 (12623,0), 5 CTAs running
GPGPU-Sim uArch: core: 14, cta: 3 initialized @(12624,0)
GPGPU-Sim PTX: 5100000 instructions simulated : ctaid=(0,163,0) tid=(11,7,0)
GPGPU-Sim uArch: Shader 0 finished CTA #3 (12738,0), 5 CTAs running
GPGPU-Sim uArch: core:  0, cta: 3 initialized @(12739,0)
GPGPU-Sim PTX: 5200000 instructions simulated : ctaid=(0,227,0) tid=(13,6,0)
GPGPU-Sim uArch: cycles simulated: 13000  inst.: 5140780 (ipc=395.4) sim_rate=244799 (inst/sec) elapsed = 0:0:00:21 / Tue Mar 22 12:52:25 2016
GPGPU-Sim PTX: 5300000 instructions simulated : ctaid=(0,167,0) tid=(15,0,0)
GPGPU-Sim PTX: 5400000 instructions simulated : ctaid=(0,174,0) tid=(7,8,0)
GPGPU-Sim uArch: Shader 10 finished CTA #4 (13273,0), 5 CTAs running
GPGPU-Sim uArch: core: 10, cta: 4 initialized @(13274,0)
GPGPU-Sim uArch: Shader 12 finished CTA #4 (13274,0), 5 CTAs running
GPGPU-Sim uArch: core: 12, cta: 4 initialized @(13275,0)
GPGPU-Sim uArch: Shader 2 finished CTA #4 (13292,0), 5 CTAs running
GPGPU-Sim uArch: core:  2, cta: 4 initialized @(13293,0)
GPGPU-Sim uArch: Shader 6 finished CTA #4 (13317,0), 5 CTAs running
GPGPU-Sim uArch: core:  6, cta: 4 initialized @(13318,0)
GPGPU-Sim uArch: Shader 14 finished CTA #4 (13401,0), 5 CTAs running
GPGPU-Sim uArch: core: 14, cta: 4 initialized @(13402,0)
GPGPU-Sim uArch: Shader 7 finished CTA #4 (13410,0), 5 CTAs running
GPGPU-Sim uArch: core:  7, cta: 4 initialized @(13411,0)
GPGPU-Sim uArch: Shader 1 finished CTA #4 (13425,0), 5 CTAs running
GPGPU-Sim uArch: core:  1, cta: 4 initialized @(13426,0)
GPGPU-Sim PTX: 5500000 instructions simulated : ctaid=(0,169,0) tid=(15,6,0)
GPGPU-Sim uArch: Shader 0 finished CTA #4 (13449,0), 5 CTAs running
GPGPU-Sim uArch: core:  0, cta: 4 initialized @(13450,0)
GPGPU-Sim uArch: Shader 3 finished CTA #4 (13494,0), 5 CTAs running
GPGPU-Sim uArch: core:  3, cta: 4 initialized @(13495,0)
GPGPU-Sim uArch: Shader 13 finished CTA #4 (13496,0), 5 CTAs running
GPGPU-Sim uArch: core: 13, cta: 4 initialized @(13497,0)
GPGPU-Sim uArch: Shader 5 finished CTA #4 (13539,0), 5 CTAs running
GPGPU-Sim uArch: core:  5, cta: 4 initialized @(13540,0)
GPGPU-Sim uArch: Shader 8 finished CTA #4 (13561,0), 5 CTAs running
GPGPU-Sim uArch: core:  8, cta: 4 initialized @(13562,0)
GPGPU-Sim uArch: Shader 4 finished CTA #4 (13569,0), 5 CTAs running
GPGPU-Sim uArch: core:  4, cta: 4 initialized @(13570,0)
GPGPU-Sim uArch: Shader 11 finished CTA #4 (13593,0), 5 CTAs running
GPGPU-Sim uArch: core: 11, cta: 4 initialized @(13594,0)
GPGPU-Sim uArch: Shader 9 finished CTA #4 (13612,0), 5 CTAs running
GPGPU-Sim uArch: core:  9, cta: 4 initialized @(13613,0)
GPGPU-Sim PTX: 5600000 instructions simulated : ctaid=(0,182,0) tid=(5,12,0)
GPGPU-Sim uArch: Shader 1 finished CTA #5 (13820,0), 5 CTAs running
GPGPU-Sim uArch: core:  1, cta: 5 initialized @(13821,0)
GPGPU-Sim PTX: 5700000 instructions simulated : ctaid=(0,175,0) tid=(3,12,0)
GPGPU-Sim uArch: cycles simulated: 14000  inst.: 5622566 (ipc=401.6) sim_rate=255571 (inst/sec) elapsed = 0:0:00:22 / Tue Mar 22 12:52:26 2016
GPGPU-Sim PTX: 5800000 instructions simulated : ctaid=(0,186,0) tid=(7,8,0)
GPGPU-Sim uArch: Shader 9 finished CTA #5 (14066,0), 5 CTAs running
GPGPU-Sim uArch: core:  9, cta: 5 initialized @(14067,0)
GPGPU-Sim uArch: Shader 3 finished CTA #5 (14161,0), 5 CTAs running
GPGPU-Sim uArch: core:  3, cta: 5 initialized @(14162,0)
GPGPU-Sim uArch: Shader 6 finished CTA #5 (14195,0), 5 CTAs running
GPGPU-Sim uArch: core:  6, cta: 5 initialized @(14196,0)
GPGPU-Sim uArch: Shader 4 finished CTA #5 (14199,0), 5 CTAs running
GPGPU-Sim uArch: core:  4, cta: 5 initialized @(14200,0)
GPGPU-Sim uArch: Shader 5 finished CTA #5 (14228,0), 5 CTAs running
GPGPU-Sim uArch: core:  5, cta: 5 initialized @(14229,0)
GPGPU-Sim PTX: 5900000 instructions simulated : ctaid=(0,204,0) tid=(13,4,0)
GPGPU-Sim uArch: Shader 2 finished CTA #5 (14329,0), 5 CTAs running
GPGPU-Sim uArch: core:  2, cta: 5 initialized @(14330,0)
GPGPU-Sim uArch: Shader 7 finished CTA #5 (14356,0), 5 CTAs running
GPGPU-Sim uArch: core:  7, cta: 5 initialized @(14357,0)
GPGPU-Sim uArch: Shader 10 finished CTA #5 (14362,0), 5 CTAs running
GPGPU-Sim uArch: core: 10, cta: 5 initialized @(14363,0)
GPGPU-Sim uArch: Shader 0 finished CTA #5 (14374,0), 5 CTAs running
GPGPU-Sim uArch: core:  0, cta: 5 initialized @(14375,0)
GPGPU-Sim uArch: Shader 14 finished CTA #5 (14384,0), 5 CTAs running
GPGPU-Sim uArch: core: 14, cta: 5 initialized @(14385,0)
GPGPU-Sim uArch: Shader 8 finished CTA #5 (14392,0), 5 CTAs running
GPGPU-Sim uArch: core:  8, cta: 5 initialized @(14393,0)
GPGPU-Sim uArch: Shader 13 finished CTA #5 (14400,0), 5 CTAs running
GPGPU-Sim uArch: core: 13, cta: 5 initialized @(14401,0)
GPGPU-Sim uArch: Shader 12 finished CTA #5 (14423,0), 5 CTAs running
GPGPU-Sim uArch: core: 12, cta: 5 initialized @(14424,0)
GPGPU-Sim PTX: 6000000 instructions simulated : ctaid=(0,198,0) tid=(5,1,0)
GPGPU-Sim uArch: Shader 11 finished CTA #5 (14469,0), 5 CTAs running
GPGPU-Sim uArch: core: 11, cta: 5 initialized @(14470,0)
GPGPU-Sim PTX: 6100000 instructions simulated : ctaid=(0,208,0) tid=(7,1,0)
GPGPU-Sim PTX: 6200000 instructions simulated : ctaid=(0,184,0) tid=(1,9,0)
GPGPU-Sim uArch: cycles simulated: 15000  inst.: 6099634 (ipc=406.6) sim_rate=265201 (inst/sec) elapsed = 0:0:00:23 / Tue Mar 22 12:52:27 2016
GPGPU-Sim uArch: Shader 3 finished CTA #0 (15026,0), 5 CTAs running
GPGPU-Sim uArch: core:  3, cta: 0 initialized @(15027,0)
GPGPU-Sim uArch: Shader 6 finished CTA #1 (15031,0), 5 CTAs running
GPGPU-Sim uArch: core:  6, cta: 1 initialized @(15032,0)
GPGPU-Sim PTX: 6300000 instructions simulated : ctaid=(0,201,0) tid=(5,8,0)
GPGPU-Sim uArch: Shader 7 finished CTA #1 (15105,0), 5 CTAs running
GPGPU-Sim uArch: core:  7, cta: 1 initialized @(15106,0)
GPGPU-Sim uArch: Shader 5 finished CTA #0 (15151,0), 5 CTAs running
GPGPU-Sim uArch: core:  5, cta: 0 initialized @(15152,0)
GPGPU-Sim uArch: Shader 12 finished CTA #0 (15162,0), 5 CTAs running
GPGPU-Sim uArch: core: 12, cta: 0 initialized @(15163,0)
GPGPU-Sim uArch: Shader 1 finished CTA #0 (15180,0), 5 CTAs running
GPGPU-Sim uArch: core:  1, cta: 0 initialized @(15181,0)
GPGPU-Sim uArch: Shader 4 finished CTA #0 (15196,0), 5 CTAs running
GPGPU-Sim uArch: core:  4, cta: 0 initialized @(15197,0)
GPGPU-Sim uArch: Shader 2 finished CTA #0 (15202,0), 5 CTAs running
GPGPU-Sim uArch: core:  2, cta: 0 initialized @(15203,0)
GPGPU-Sim PTX: 6400000 instructions simulated : ctaid=(0,207,0) tid=(3,5,0)
GPGPU-Sim uArch: Shader 8 finished CTA #0 (15265,0), 5 CTAs running
GPGPU-Sim uArch: core:  8, cta: 0 initialized @(15266,0)
GPGPU-Sim uArch: Shader 13 finished CTA #0 (15278,0), 5 CTAs running
GPGPU-Sim uArch: core: 13, cta: 0 initialized @(15279,0)
GPGPU-Sim uArch: Shader 14 finished CTA #0 (15298,0), 5 CTAs running
GPGPU-Sim uArch: core: 14, cta: 0 initialized @(15299,0)
GPGPU-Sim uArch: Shader 0 finished CTA #1 (15316,0), 5 CTAs running
GPGPU-Sim uArch: core:  0, cta: 1 initialized @(15317,0)
GPGPU-Sim uArch: Shader 10 finished CTA #0 (15328,0), 5 CTAs running
GPGPU-Sim uArch: core: 10, cta: 0 initialized @(15329,0)
GPGPU-Sim PTX: 6500000 instructions simulated : ctaid=(0,233,0) tid=(3,4,0)
GPGPU-Sim uArch: Shader 11 finished CTA #0 (15497,0), 5 CTAs running
GPGPU-Sim uArch: core: 11, cta: 0 initialized @(15498,0)
GPGPU-Sim uArch: Shader 9 finished CTA #0 (15519,0), 5 CTAs running
GPGPU-Sim uArch: core:  9, cta: 0 initialized @(15520,0)
GPGPU-Sim uArch: Shader 10 finished CTA #1 (15617,0), 5 CTAs running
GPGPU-Sim uArch: core: 10, cta: 1 initialized @(15618,0)
GPGPU-Sim PTX: 6600000 instructions simulated : ctaid=(0,231,0) tid=(5,12,0)
GPGPU-Sim uArch: Shader 14 finished CTA #1 (15712,0), 5 CTAs running
GPGPU-Sim uArch: core: 14, cta: 1 initialized @(15713,0)
GPGPU-Sim uArch: Shader 1 finished CTA #1 (15858,0), 5 CTAs running
GPGPU-Sim uArch: core:  1, cta: 1 initialized @(15859,0)
GPGPU-Sim PTX: 6700000 instructions simulated : ctaid=(0,223,0) tid=(15,8,0)
GPGPU-Sim uArch: Shader 12 finished CTA #1 (15906,0), 5 CTAs running
GPGPU-Sim uArch: core: 12, cta: 1 initialized @(15907,0)
GPGPU-Sim uArch: Shader 11 finished CTA #1 (15921,0), 5 CTAs running
GPGPU-Sim uArch: core: 11, cta: 1 initialized @(15922,0)
GPGPU-Sim uArch: Shader 6 finished CTA #0 (15923,0), 5 CTAs running
GPGPU-Sim uArch: core:  6, cta: 0 initialized @(15924,0)
GPGPU-Sim uArch: Shader 2 finished CTA #1 (15950,0), 5 CTAs running
GPGPU-Sim uArch: core:  2, cta: 1 initialized @(15951,0)
GPGPU-Sim uArch: cycles simulated: 16000  inst.: 6592286 (ipc=412.0) sim_rate=274678 (inst/sec) elapsed = 0:0:00:24 / Tue Mar 22 12:52:28 2016
GPGPU-Sim PTX: 6800000 instructions simulated : ctaid=(0,242,0) tid=(9,8,0)
GPGPU-Sim uArch: Shader 3 finished CTA #1 (16100,0), 5 CTAs running
GPGPU-Sim uArch: core:  3, cta: 1 initialized @(16101,0)
GPGPU-Sim uArch: Shader 5 finished CTA #1 (16104,0), 5 CTAs running
GPGPU-Sim uArch: core:  5, cta: 1 initialized @(16105,0)
GPGPU-Sim uArch: Shader 4 finished CTA #1 (16118,0), 5 CTAs running
GPGPU-Sim uArch: core:  4, cta: 1 initialized @(16119,0)
GPGPU-Sim uArch: Shader 9 finished CTA #1 (16154,0), 5 CTAs running
GPGPU-Sim uArch: core:  9, cta: 1 initialized @(16155,0)
GPGPU-Sim uArch: Shader 7 finished CTA #0 (16171,0), 5 CTAs running
GPGPU-Sim uArch: core:  7, cta: 0 initialized @(16172,0)
GPGPU-Sim uArch: Shader 13 finished CTA #1 (16216,0), 5 CTAs running
GPGPU-Sim uArch: core: 13, cta: 1 initialized @(16217,0)
GPGPU-Sim PTX: 6900000 instructions simulated : ctaid=(0,226,0) tid=(15,12,0)
GPGPU-Sim uArch: Shader 0 finished CTA #0 (16377,0), 5 CTAs running
GPGPU-Sim uArch: core:  0, cta: 0 initialized @(16378,0)
GPGPU-Sim uArch: Shader 8 finished CTA #1 (16390,0), 5 CTAs running
GPGPU-Sim uArch: core:  8, cta: 1 initialized @(16391,0)
GPGPU-Sim PTX: 7000000 instructions simulated : ctaid=(0,218,0) tid=(5,3,0)
GPGPU-Sim uArch: cycles simulated: 16500  inst.: 6831750 (ipc=414.0) sim_rate=273270 (inst/sec) elapsed = 0:0:00:25 / Tue Mar 22 12:52:29 2016
GPGPU-Sim PTX: 7100000 instructions simulated : ctaid=(0,228,0) tid=(13,1,0)
GPGPU-Sim uArch: Shader 6 finished CTA #2 (16806,0), 5 CTAs running
GPGPU-Sim uArch: core:  6, cta: 2 initialized @(16807,0)
GPGPU-Sim PTX: 7200000 instructions simulated : ctaid=(0,230,0) tid=(9,3,0)
GPGPU-Sim uArch: Shader 2 finished CTA #2 (16933,0), 5 CTAs running
GPGPU-Sim uArch: core:  2, cta: 2 initialized @(16934,0)
GPGPU-Sim uArch: Shader 3 finished CTA #2 (16940,0), 5 CTAs running
GPGPU-Sim uArch: core:  3, cta: 2 initialized @(16941,0)
GPGPU-Sim uArch: Shader 13 finished CTA #2 (16946,0), 5 CTAs running
GPGPU-Sim uArch: core: 13, cta: 2 initialized @(16947,0)
GPGPU-Sim uArch: Shader 11 finished CTA #2 (16972,0), 5 CTAs running
GPGPU-Sim uArch: core: 11, cta: 2 initialized @(16973,0)
GPGPU-Sim uArch: Shader 1 finished CTA #2 (17000,0), 5 CTAs running
GPGPU-Sim uArch: core:  1, cta: 2 initialized @(17001,0)
GPGPU-Sim uArch: Shader 7 finished CTA #2 (17007,0), 5 CTAs running
GPGPU-Sim uArch: core:  7, cta: 2 initialized @(17008,0)
GPGPU-Sim PTX: 7300000 instructions simulated : ctaid=(0,232,0) tid=(15,12,0)
GPGPU-Sim uArch: Shader 10 finished CTA #2 (17102,0), 5 CTAs running
GPGPU-Sim uArch: core: 10, cta: 2 initialized @(17103,0)
GPGPU-Sim uArch: Shader 12 finished CTA #2 (17112,0), 5 CTAs running
GPGPU-Sim uArch: core: 12, cta: 2 initialized @(17113,0)
GPGPU-Sim uArch: Shader 8 finished CTA #2 (17138,0), 5 CTAs running
GPGPU-Sim uArch: core:  8, cta: 2 initialized @(17139,0)
GPGPU-Sim uArch: Shader 4 finished CTA #2 (17144,0), 5 CTAs running
GPGPU-Sim uArch: core:  4, cta: 2 initialized @(17145,0)
GPGPU-Sim uArch: Shader 5 finished CTA #2 (17203,0), 5 CTAs running
GPGPU-Sim uArch: core:  5, cta: 2 initialized @(17204,0)
GPGPU-Sim uArch: Shader 0 finished CTA #2 (17258,0), 5 CTAs running
GPGPU-Sim uArch: core:  0, cta: 2 initialized @(17259,0)
GPGPU-Sim uArch: Shader 14 finished CTA #2 (17260,0), 5 CTAs running
GPGPU-Sim uArch: core: 14, cta: 2 initialized @(17261,0)
GPGPU-Sim uArch: Shader 9 finished CTA #2 (17272,0), 5 CTAs running
GPGPU-Sim uArch: core:  9, cta: 2 initialized @(17273,0)
GPGPU-Sim PTX: 7400000 instructions simulated : ctaid=(0,233,0) tid=(13,0,0)
GPGPU-Sim PTX: 7500000 instructions simulated : ctaid=(0,259,0) tid=(15,3,0)
GPGPU-Sim uArch: cycles simulated: 17500  inst.: 7302858 (ipc=417.3) sim_rate=280879 (inst/sec) elapsed = 0:0:00:26 / Tue Mar 22 12:52:30 2016
GPGPU-Sim uArch: Shader 5 finished CTA #3 (17527,0), 5 CTAs running
GPGPU-Sim uArch: core:  5, cta: 3 initialized @(17528,0)
GPGPU-Sim uArch: Shader 3 finished CTA #3 (17546,0), 5 CTAs running
GPGPU-Sim uArch: core:  3, cta: 3 initialized @(17547,0)
GPGPU-Sim uArch: Shader 6 finished CTA #3 (17625,0), 5 CTAs running
GPGPU-Sim uArch: core:  6, cta: 3 initialized @(17626,0)
GPGPU-Sim uArch: Shader 1 finished CTA #3 (17674,0), 5 CTAs running
GPGPU-Sim uArch: core:  1, cta: 3 initialized @(17675,0)
GPGPU-Sim PTX: 7600000 instructions simulated : ctaid=(0,273,0) tid=(9,13,0)
GPGPU-Sim uArch: Shader 10 finished CTA #3 (17757,0), 5 CTAs running
GPGPU-Sim uArch: core: 10, cta: 3 initialized @(17758,0)
GPGPU-Sim uArch: Shader 12 finished CTA #3 (17759,0), 5 CTAs running
GPGPU-Sim uArch: core: 12, cta: 3 initialized @(17760,0)
GPGPU-Sim uArch: Shader 2 finished CTA #3 (17776,0), 5 CTAs running
GPGPU-Sim uArch: core:  2, cta: 3 initialized @(17777,0)
GPGPU-Sim uArch: Shader 14 finished CTA #3 (17781,0), 5 CTAs running
GPGPU-Sim uArch: core: 14, cta: 3 initialized @(17782,0)
GPGPU-Sim uArch: Shader 7 finished CTA #3 (17907,0), 5 CTAs running
GPGPU-Sim uArch: core:  7, cta: 3 initialized @(17908,0)
GPGPU-Sim PTX: 7700000 instructions simulated : ctaid=(0,287,0) tid=(3,4,0)
GPGPU-Sim uArch: Shader 8 finished CTA #3 (17913,0), 5 CTAs running
GPGPU-Sim uArch: core:  8, cta: 3 initialized @(17914,0)
GPGPU-Sim uArch: Shader 13 finished CTA #3 (17917,0), 5 CTAs running
GPGPU-Sim uArch: core: 13, cta: 3 initialized @(17918,0)
GPGPU-Sim uArch: Shader 11 finished CTA #3 (17921,0), 5 CTAs running
GPGPU-Sim uArch: core: 11, cta: 3 initialized @(17922,0)
GPGPU-Sim uArch: cycles simulated: 18000  inst.: 7542338 (ipc=419.0) sim_rate=279345 (inst/sec) elapsed = 0:0:00:27 / Tue Mar 22 12:52:31 2016
GPGPU-Sim uArch: Shader 0 finished CTA #3 (18046,0), 5 CTAs running
GPGPU-Sim uArch: core:  0, cta: 3 initialized @(18047,0)
GPGPU-Sim uArch: Shader 4 finished CTA #3 (18063,0), 5 CTAs running
GPGPU-Sim uArch: core:  4, cta: 3 initialized @(18064,0)
GPGPU-Sim uArch: Shader 9 finished CTA #3 (18080,0), 5 CTAs running
GPGPU-Sim uArch: core:  9, cta: 3 initialized @(18081,0)
GPGPU-Sim PTX: 7800000 instructions simulated : ctaid=(0,248,0) tid=(9,1,0)
GPGPU-Sim PTX: 7900000 instructions simulated : ctaid=(0,257,0) tid=(11,8,0)
GPGPU-Sim PTX: 8000000 instructions simulated : ctaid=(0,291,0) tid=(13,4,0)
GPGPU-Sim uArch: Shader 12 finished CTA #4 (18570,0), 5 CTAs running
GPGPU-Sim uArch: core: 12, cta: 4 initialized @(18571,0)
GPGPU-Sim PTX: 8100000 instructions simulated : ctaid=(0,327,0) tid=(0,3,0)
GPGPU-Sim uArch: Shader 6 finished CTA #4 (18705,0), 5 CTAs running
GPGPU-Sim uArch: core:  6, cta: 4 initialized @(18706,0)
GPGPU-Sim uArch: Shader 8 finished CTA #4 (18710,0), 5 CTAs running
GPGPU-Sim uArch: core:  8, cta: 4 initialized @(18711,0)
GPGPU-Sim uArch: Shader 7 finished CTA #4 (18720,0), 5 CTAs running
GPGPU-Sim uArch: core:  7, cta: 4 initialized @(18721,0)
GPGPU-Sim uArch: Shader 14 finished CTA #4 (18819,0), 5 CTAs running
GPGPU-Sim uArch: core: 14, cta: 4 initialized @(18820,0)
GPGPU-Sim uArch: Shader 2 finished CTA #4 (18820,0), 5 CTAs running
GPGPU-Sim uArch: core:  2, cta: 4 initialized @(18821,0)
GPGPU-Sim uArch: Shader 3 finished CTA #4 (18901,0), 5 CTAs running
GPGPU-Sim uArch: core:  3, cta: 4 initialized @(18902,0)
GPGPU-Sim PTX: 8200000 instructions simulated : ctaid=(0,299,0) tid=(7,12,0)
GPGPU-Sim uArch: Shader 1 finished CTA #4 (18915,0), 5 CTAs running
GPGPU-Sim uArch: core:  1, cta: 4 initialized @(18916,0)
GPGPU-Sim uArch: Shader 13 finished CTA #4 (18930,0), 5 CTAs running
GPGPU-Sim uArch: core: 13, cta: 4 initialized @(18931,0)
GPGPU-Sim uArch: Shader 0 finished CTA #4 (18935,0), 5 CTAs running
GPGPU-Sim uArch: core:  0, cta: 4 initialized @(18936,0)
GPGPU-Sim uArch: Shader 10 finished CTA #4 (18957,0), 5 CTAs running
GPGPU-Sim uArch: core: 10, cta: 4 initialized @(18958,0)
GPGPU-Sim uArch: Shader 9 finished CTA #4 (18961,0), 5 CTAs running
GPGPU-Sim uArch: core:  9, cta: 4 initialized @(18962,0)
GPGPU-Sim uArch: cycles simulated: 19000  inst.: 8024420 (ipc=422.3) sim_rate=286586 (inst/sec) elapsed = 0:0:00:28 / Tue Mar 22 12:52:32 2016
GPGPU-Sim uArch: Shader 5 finished CTA #4 (19019,0), 5 CTAs running
GPGPU-Sim uArch: core:  5, cta: 4 initialized @(19020,0)
GPGPU-Sim PTX: 8300000 instructions simulated : ctaid=(0,311,0) tid=(1,0,0)
GPGPU-Sim uArch: Shader 4 finished CTA #4 (19124,0), 5 CTAs running
GPGPU-Sim uArch: core:  4, cta: 4 initialized @(19125,0)
GPGPU-Sim uArch: Shader 11 finished CTA #4 (19127,0), 5 CTAs running
GPGPU-Sim uArch: core: 11, cta: 4 initialized @(19128,0)
GPGPU-Sim uArch: Shader 3 finished CTA #5 (19146,0), 5 CTAs running
GPGPU-Sim uArch: core:  3, cta: 5 initialized @(19147,0)
GPGPU-Sim PTX: 8400000 instructions simulated : ctaid=(0,302,0) tid=(1,12,0)
GPGPU-Sim uArch: Shader 1 finished CTA #5 (19353,0), 5 CTAs running
GPGPU-Sim uArch: core:  1, cta: 5 initialized @(19354,0)
GPGPU-Sim uArch: Shader 10 finished CTA #5 (19387,0), 5 CTAs running
GPGPU-Sim uArch: core: 10, cta: 5 initialized @(19388,0)
GPGPU-Sim uArch: Shader 4 finished CTA #5 (19446,0), 5 CTAs running
GPGPU-Sim uArch: core:  4, cta: 5 initialized @(19447,0)
GPGPU-Sim uArch: Shader 6 finished CTA #5 (19454,0), 5 CTAs running
GPGPU-Sim uArch: core:  6, cta: 5 initialized @(19455,0)
GPGPU-Sim PTX: 8500000 instructions simulated : ctaid=(0,317,0) tid=(13,9,0)
GPGPU-Sim uArch: Shader 2 finished CTA #5 (19543,0), 5 CTAs running
GPGPU-Sim uArch: core:  2, cta: 5 initialized @(19544,0)
GPGPU-Sim uArch: Shader 12 finished CTA #5 (19545,0), 5 CTAs running
GPGPU-Sim uArch: core: 12, cta: 5 initialized @(19546,0)
GPGPU-Sim uArch: Shader 14 finished CTA #5 (19648,0), 5 CTAs running
GPGPU-Sim uArch: core: 14, cta: 5 initialized @(19649,0)
GPGPU-Sim uArch: Shader 5 finished CTA #5 (19670,0), 5 CTAs running
GPGPU-Sim uArch: core:  5, cta: 5 initialized @(19671,0)
GPGPU-Sim uArch: Shader 9 finished CTA #5 (19682,0), 5 CTAs running
GPGPU-Sim uArch: core:  9, cta: 5 initialized @(19683,0)
GPGPU-Sim uArch: Shader 7 finished CTA #5 (19684,0), 5 CTAs running
GPGPU-Sim uArch: core:  7, cta: 5 initialized @(19685,0)
GPGPU-Sim PTX: 8600000 instructions simulated : ctaid=(0,291,0) tid=(13,7,0)
GPGPU-Sim uArch: Shader 11 finished CTA #5 (19874,0), 5 CTAs running
GPGPU-Sim uArch: core: 11, cta: 5 initialized @(19875,0)
GPGPU-Sim uArch: Shader 13 finished CTA #5 (19882,0), 5 CTAs running
GPGPU-Sim uArch: core: 13, cta: 5 initialized @(19883,0)
GPGPU-Sim uArch: Shader 8 finished CTA #5 (19896,0), 5 CTAs running
GPGPU-Sim uArch: core:  8, cta: 5 initialized @(19897,0)
GPGPU-Sim PTX: 8700000 instructions simulated : ctaid=(0,287,0) tid=(15,14,0)
GPGPU-Sim uArch: Shader 0 finished CTA #5 (19973,0), 5 CTAs running
GPGPU-Sim uArch: core:  0, cta: 5 initialized @(19974,0)
GPGPU-Sim uArch: cycles simulated: 20000  inst.: 8500096 (ipc=425.0) sim_rate=293106 (inst/sec) elapsed = 0:0:00:29 / Tue Mar 22 12:52:33 2016
GPGPU-Sim PTX: 8800000 instructions simulated : ctaid=(0,278,0) tid=(15,10,0)
GPGPU-Sim uArch: Shader 6 finished CTA #1 (20210,0), 5 CTAs running
GPGPU-Sim uArch: core:  6, cta: 1 initialized @(20211,0)
GPGPU-Sim PTX: 8900000 instructions simulated : ctaid=(0,328,0) tid=(13,9,0)
GPGPU-Sim uArch: Shader 12 finished CTA #0 (20374,0), 5 CTAs running
GPGPU-Sim uArch: core: 12, cta: 0 initialized @(20375,0)
GPGPU-Sim uArch: Shader 1 finished CTA #0 (20388,0), 5 CTAs running
GPGPU-Sim uArch: core:  1, cta: 0 initialized @(20389,0)
GPGPU-Sim uArch: Shader 3 finished CTA #0 (20467,0), 5 CTAs running
GPGPU-Sim uArch: core:  3, cta: 0 initialized @(20468,0)
GPGPU-Sim uArch: cycles simulated: 20500  inst.: 8741194 (ipc=426.4) sim_rate=291373 (inst/sec) elapsed = 0:0:00:30 / Tue Mar 22 12:52:34 2016
GPGPU-Sim uArch: Shader 2 finished CTA #0 (20502,0), 5 CTAs running
GPGPU-Sim uArch: core:  2, cta: 0 initialized @(20503,0)
GPGPU-Sim uArch: Shader 5 finished CTA #0 (20525,0), 5 CTAs running
GPGPU-Sim uArch: core:  5, cta: 0 initialized @(20526,0)
GPGPU-Sim PTX: 9000000 instructions simulated : ctaid=(0,316,0) tid=(11,13,0)
GPGPU-Sim uArch: Shader 7 finished CTA #1 (20553,0), 5 CTAs running
GPGPU-Sim uArch: core:  7, cta: 1 initialized @(20554,0)
GPGPU-Sim uArch: Shader 10 finished CTA #0 (20614,0), 5 CTAs running
GPGPU-Sim uArch: core: 10, cta: 0 initialized @(20615,0)
GPGPU-Sim uArch: Shader 11 finished CTA #0 (20627,0), 5 CTAs running
GPGPU-Sim uArch: core: 11, cta: 0 initialized @(20628,0)
GPGPU-Sim PTX: 9100000 instructions simulated : ctaid=(0,309,0) tid=(3,6,0)
GPGPU-Sim uArch: Shader 14 finished CTA #0 (20771,0), 5 CTAs running
GPGPU-Sim uArch: core: 14, cta: 0 initialized @(20772,0)
GPGPU-Sim uArch: Shader 8 finished CTA #0 (20802,0), 5 CTAs running
GPGPU-Sim uArch: core:  8, cta: 0 initialized @(20803,0)
GPGPU-Sim uArch: Shader 13 finished CTA #0 (20808,0), 5 CTAs running
GPGPU-Sim uArch: core: 13, cta: 0 initialized @(20809,0)
GPGPU-Sim uArch: Shader 9 finished CTA #0 (20838,0), 5 CTAs running
GPGPU-Sim uArch: core:  9, cta: 0 initialized @(20839,0)
GPGPU-Sim uArch: Shader 0 finished CTA #1 (20889,0), 5 CTAs running
GPGPU-Sim uArch: core:  0, cta: 1 initialized @(20890,0)
GPGPU-Sim PTX: 9200000 instructions simulated : ctaid=(0,287,0) tid=(5,0,0)
GPGPU-Sim uArch: Shader 4 finished CTA #0 (20948,0), 5 CTAs running
GPGPU-Sim uArch: core:  4, cta: 0 initialized @(20949,0)
GPGPU-Sim PTX: 9300000 instructions simulated : ctaid=(0,305,0) tid=(11,6,0)
GPGPU-Sim uArch: Shader 3 finished CTA #1 (21190,0), 5 CTAs running
GPGPU-Sim uArch: core:  3, cta: 1 initialized @(21191,0)
GPGPU-Sim uArch: Shader 9 finished CTA #1 (21350,0), 5 CTAs running
GPGPU-Sim uArch: core:  9, cta: 1 initialized @(21351,0)
GPGPU-Sim PTX: 9400000 instructions simulated : ctaid=(0,304,0) tid=(1,3,0)
GPGPU-Sim uArch: Shader 7 finished CTA #0 (21359,0), 5 CTAs running
GPGPU-Sim uArch: core:  7, cta: 0 initialized @(21360,0)
GPGPU-Sim uArch: Shader 2 finished CTA #1 (21390,0), 5 CTAs running
GPGPU-Sim uArch: core:  2, cta: 1 initialized @(21391,0)
GPGPU-Sim uArch: Shader 6 finished CTA #0 (21405,0), 5 CTAs running
GPGPU-Sim uArch: core:  6, cta: 0 initialized @(21406,0)
GPGPU-Sim uArch: Shader 8 finished CTA #1 (21418,0), 5 CTAs running
GPGPU-Sim uArch: core:  8, cta: 1 initialized @(21419,0)
GPGPU-Sim uArch: Shader 12 finished CTA #1 (21435,0), 5 CTAs running
GPGPU-Sim uArch: core: 12, cta: 1 initialized @(21436,0)
GPGPU-Sim uArch: cycles simulated: 21500  inst.: 9217592 (ipc=428.7) sim_rate=297341 (inst/sec) elapsed = 0:0:00:31 / Tue Mar 22 12:52:35 2016
GPGPU-Sim uArch: Shader 11 finished CTA #1 (21507,0), 5 CTAs running
GPGPU-Sim uArch: core: 11, cta: 1 initialized @(21508,0)
GPGPU-Sim uArch: Shader 4 finished CTA #1 (21508,0), 5 CTAs running
GPGPU-Sim uArch: core:  4, cta: 1 initialized @(21509,0)
GPGPU-Sim uArch: Shader 5 finished CTA #1 (21541,0), 5 CTAs running
GPGPU-Sim uArch: core:  5, cta: 1 initialized @(21542,0)
GPGPU-Sim uArch: Shader 14 finished CTA #1 (21562,0), 5 CTAs running
GPGPU-Sim uArch: core: 14, cta: 1 initialized @(21563,0)
GPGPU-Sim uArch: Shader 1 finished CTA #1 (21565,0), 5 CTAs running
GPGPU-Sim uArch: core:  1, cta: 1 initialized @(21566,0)
GPGPU-Sim PTX: 9500000 instructions simulated : ctaid=(0,331,0) tid=(15,9,0)
GPGPU-Sim uArch: Shader 10 finished CTA #1 (21581,0), 5 CTAs running
GPGPU-Sim uArch: core: 10, cta: 1 initialized @(21582,0)
GPGPU-Sim uArch: Shader 13 finished CTA #1 (21669,0), 5 CTAs running
GPGPU-Sim uArch: core: 13, cta: 1 initialized @(21670,0)
GPGPU-Sim uArch: Shader 0 finished CTA #0 (21712,0), 5 CTAs running
GPGPU-Sim uArch: core:  0, cta: 0 initialized @(21713,0)
GPGPU-Sim PTX: 9600000 instructions simulated : ctaid=(0,328,0) tid=(5,10,0)
GPGPU-Sim PTX: 9700000 instructions simulated : ctaid=(0,312,0) tid=(7,13,0)
GPGPU-Sim uArch: Shader 2 finished CTA #2 (22151,0), 5 CTAs running
GPGPU-Sim uArch: core:  2, cta: 2 initialized @(22152,0)
GPGPU-Sim uArch: Shader 6 finished CTA #2 (22160,0), 5 CTAs running
GPGPU-Sim uArch: core:  6, cta: 2 initialized @(22161,0)
GPGPU-Sim PTX: 9800000 instructions simulated : ctaid=(0,362,0) tid=(7,4,0)
GPGPU-Sim uArch: Shader 12 finished CTA #2 (22223,0), 5 CTAs running
GPGPU-Sim uArch: core: 12, cta: 2 initialized @(22224,0)
GPGPU-Sim uArch: Shader 10 finished CTA #2 (22271,0), 5 CTAs running
GPGPU-Sim uArch: core: 10, cta: 2 initialized @(22272,0)
GPGPU-Sim uArch: Shader 14 finished CTA #2 (22367,0), 5 CTAs running
GPGPU-Sim uArch: core: 14, cta: 2 initialized @(22368,0)
GPGPU-Sim uArch: Shader 5 finished CTA #2 (22375,0), 5 CTAs running
GPGPU-Sim uArch: core:  5, cta: 2 initialized @(22376,0)
GPGPU-Sim PTX: 9900000 instructions simulated : ctaid=(0,330,0) tid=(11,10,0)
GPGPU-Sim uArch: Shader 8 finished CTA #2 (22400,0), 5 CTAs running
GPGPU-Sim uArch: core:  8, cta: 2 initialized @(22401,0)
GPGPU-Sim uArch: Shader 3 finished CTA #2 (22419,0), 5 CTAs running
GPGPU-Sim uArch: core:  3, cta: 2 initialized @(22420,0)
GPGPU-Sim uArch: Shader 7 finished CTA #2 (22426,0), 5 CTAs running
GPGPU-Sim uArch: core:  7, cta: 2 initialized @(22427,0)
GPGPU-Sim uArch: Shader 1 finished CTA #2 (22432,0), 5 CTAs running
GPGPU-Sim uArch: core:  1, cta: 2 initialized @(22433,0)
GPGPU-Sim uArch: Shader 13 finished CTA #2 (22442,0), 5 CTAs running
GPGPU-Sim uArch: core: 13, cta: 2 initialized @(22443,0)
GPGPU-Sim uArch: Shader 0 finished CTA #2 (22468,0), 5 CTAs running
GPGPU-Sim uArch: core:  0, cta: 2 initialized @(22469,0)
GPGPU-Sim uArch: cycles simulated: 22500  inst.: 9701050 (ipc=431.2) sim_rate=303157 (inst/sec) elapsed = 0:0:00:32 / Tue Mar 22 12:52:36 2016
GPGPU-Sim uArch: Shader 4 finished CTA #2 (22518,0), 5 CTAs running
GPGPU-Sim uArch: core:  4, cta: 2 initialized @(22519,0)
GPGPU-Sim uArch: Shader 11 finished CTA #2 (22545,0), 5 CTAs running
GPGPU-Sim uArch: core: 11, cta: 2 initialized @(22546,0)
GPGPU-Sim PTX: 10000000 instructions simulated : ctaid=(0,349,0) tid=(11,5,0)
GPGPU-Sim uArch: Shader 9 finished CTA #2 (22613,0), 5 CTAs running
GPGPU-Sim uArch: core:  9, cta: 2 initialized @(22614,0)
GPGPU-Sim PTX: 10100000 instructions simulated : ctaid=(0,348,0) tid=(15,6,0)
GPGPU-Sim uArch: Shader 7 finished CTA #3 (22934,0), 5 CTAs running
GPGPU-Sim uArch: core:  7, cta: 3 initialized @(22935,0)
GPGPU-Sim PTX: 10200000 instructions simulated : ctaid=(0,337,0) tid=(13,1,0)
GPGPU-Sim uArch: cycles simulated: 23000  inst.: 9944998 (ipc=432.4) sim_rate=301363 (inst/sec) elapsed = 0:0:00:33 / Tue Mar 22 12:52:37 2016
GPGPU-Sim uArch: Shader 3 finished CTA #3 (23010,0), 5 CTAs running
GPGPU-Sim uArch: core:  3, cta: 3 initialized @(23011,0)
GPGPU-Sim uArch: Shader 6 finished CTA #3 (23017,0), 5 CTAs running
GPGPU-Sim uArch: core:  6, cta: 3 initialized @(23018,0)
GPGPU-Sim uArch: Shader 12 finished CTA #3 (23075,0), 5 CTAs running
GPGPU-Sim uArch: core: 12, cta: 3 initialized @(23076,0)
GPGPU-Sim uArch: Shader 2 finished CTA #3 (23082,0), 5 CTAs running
GPGPU-Sim uArch: core:  2, cta: 3 initialized @(23083,0)
GPGPU-Sim uArch: Shader 5 finished CTA #3 (23150,0), 5 CTAs running
GPGPU-Sim uArch: core:  5, cta: 3 initialized @(23151,0)
GPGPU-Sim PTX: 10300000 instructions simulated : ctaid=(0,331,0) tid=(11,0,0)
GPGPU-Sim uArch: Shader 9 finished CTA #3 (23258,0), 5 CTAs running
GPGPU-Sim uArch: core:  9, cta: 3 initialized @(23259,0)
GPGPU-Sim uArch: Shader 10 finished CTA #3 (23285,0), 5 CTAs running
GPGPU-Sim uArch: core: 10, cta: 3 initialized @(23286,0)
GPGPU-Sim uArch: Shader 14 finished CTA #3 (23302,0), 5 CTAs running
GPGPU-Sim uArch: core: 14, cta: 3 initialized @(23303,0)
GPGPU-Sim uArch: Shader 4 finished CTA #3 (23339,0), 5 CTAs running
GPGPU-Sim uArch: core:  4, cta: 3 initialized @(23340,0)
GPGPU-Sim PTX: 10400000 instructions simulated : ctaid=(0,336,0) tid=(7,4,0)
[...]
traffic_breakdown_coretomem[CONST_ACC_R] = 120 {8:15,}
traffic_breakdown_coretomem[GLOBAL_ACC_R] = 1041960 {8:130245,}
traffic_breakdown_coretomem[GLOBAL_ACC_W] = 20185360 {40:81920,72:49152,136:98306,}
traffic_breakdown_coretomem[INST_ACC_R] = 1448 {8:181,}
traffic_breakdown_memtocore[CONST_ACC_R] = 1080 {72:15,}
traffic_breakdown_memtocore[GLOBAL_ACC_R] = 17713320 {136:130245,}
traffic_breakdown_memtocore[GLOBAL_ACC_W] = 1835024 {8:229378,}
traffic_breakdown_memtocore[INST_ACC_R] = 24616 {136:181,}
maxmrqlatency = 275 
maxdqlatency = 0 
maxmflatency = 718 
averagemflatency = 230 
max_icnt2mem_latency = 406 
max_icnt2sh_latency = 438889 
mrq_lat_table:62564 	5970 	5936 	15675 	42269 	44802 	35492 	6599 	6 	0 	0 	0 	0 	0 	0 	0 	0 	0 	0 	0 	0 	0 	0 	0 	0 	0 	0 	0 	0 	0 	0 	0 	
dq_lat_table:0 	0 	0 	0 	0 	0 	0 	0 	0 	0 	0 	0 	0 	0 	0 	0 	0 	0 	0 	0 	0 	0 	0 	0 	0 	0 	0 	0 	0 	0 	0 	0 	
mf_lat_table:0 	0 	0 	0 	0 	0 	0 	221273 	137933 	432 	0 	0 	0 	0 	0 	0 	0 	0 	0 	0 	0 	0 	0 	0 	0 	0 	0 	0 	0 	0 	0 	0 	
icnt2mem_lat_table:0 	0 	0 	136658 	76106 	103055 	39545 	4047 	408 	0 	0 	0 	0 	0 	0 	0 	0 	0 	0 	0 	0 	0 	0 	0 	
icnt2sh_lat_table:0 	0 	0 	66033 	57461 	6734 	32 	0 	0 	0 	0 	0 	1760 	3280 	6558 	13095 	26162 	53765 	124758 	0 	0 	0 	0 	0 	
mf_lat_pw_table:0 	0 	0 	0 	0 	0 	0 	811 	63 	0 	0 	0 	0 	0 	0 	0 	0 	0 	0 	0 	0 	0 	0 	0 	0 	0 	0 	0 	0 	0 	0 	0 	
maximum concurrent accesses to same row:
dram[0]:        32        32        32        32        32        32        32        32        32        32        32        32        32        32        32        32 
dram[1]:        32        32        32        32        32        32        32        32        32        32        32        32        32        32        32        32 
dram[2]:        32        32        32        32        32        32        32        32        32        32        32        32        32        32        32        32 
dram[3]:        32        32        32        32        32        32        32        32        32        32        32        32        32        32        32        32 
dram[4]:        32        32        32        32        32        32        32        32        32        32        32        32        32        32        32        32 
dram[5]:        32        32        32        32        32        32        32        32        32        32        32        32        32        32        32        32 
maximum service time to same row:
dram[0]:     21496     21774     21979     21275     19236     19397     14609     14565     21724     21168     21747     21322     21334     21694     21271     21871 
dram[1]:     19994     21772     21917     21641     19577     20151     14522     15613     21773     21550     21534     21449     21296     21619     21603     21762 
dram[2]:     20096     21918     21038     21100     19504     20031     14459     15885     21812     21567     21459     21527     21650     21691     21684     21549 
dram[3]:     20497     21807     20935     20982     19753     19609     14422     15500     21376     21486     21645     21563     21803     21766     21679     21434 
dram[4]:     21723     21828     20963     21009     19690     20316     14712     15484     21388     21581     21744     21705     21801     21712     21478     21539 
dram[5]:     21763     21853     21162     21013     20200     20039     14459     16154     21296     21514     21455     21644     21702     21553     21851     21490 
average row accesses per activate:
dram[0]:  3.013423  3.125523  2.943496  3.172805  2.782288  3.005319  2.980695  3.074270  2.763789  3.063830  2.957638  3.011765  2.950064  3.156164  3.003911  3.014398 
dram[1]:  2.997326  3.146067  2.970822  3.186344  2.857143  2.961992  2.935361  3.086551  2.830467  3.059761  2.980595  3.047619  2.938776  3.063830  3.023622  3.147541 
dram[2]:  2.933507  3.154930  3.002681  3.200000  2.821473  3.010638  3.047369  3.045992  2.887218  2.992208  2.953846  2.898113  2.876405  3.031579  2.961440  3.117727 
dram[3]:  2.961640  3.204578  3.027027  3.150492  2.882653  3.088677  3.003891  3.115591  2.869240  2.953846  2.923858  3.047619  2.837438  3.105121  3.055703  3.117727 
dram[4]:  2.985353  3.047619  3.051771  3.218391  2.817955  2.985469  3.092123  3.054018  2.792727  3.040951  2.880000  3.088472  2.855019  3.134694  2.890841  3.063830 
dram[5]:  2.870679  3.106796  3.043478  3.085399  2.935065  2.949285  2.902256  3.062087  2.880000  2.898113  2.950064  3.067909  2.876405  2.980595  2.920152  3.121951 
average row locality = 219313/73152 = 2.998045
number of total memory accesses made:
dram[0]:         0         0         0         0         0         0         0         0         0         0         0         0         0         0         0         0 
dram[1]:         0         0         0         0         0         0         0         0         0         0         0         0         0         0         0         0 
dram[2]:         0         0         0         0         0         0         0         0         0         0         0         0         0         0         0         0 
dram[3]:         0         0         0         0         0         0         0         0         0         0         0         0         0         0         0         0 
dram[4]:         0         0         0         0         0         0         0         0         0         0         0         0         0         0         0         0 
dram[5]:         0         0         0         0         0         0         0         0         0         0         0         0         0         0         0         0 
total accesses: 0
min_bank_accesses = 0!
min_chip_accesses = 0!
number of total read accesses:
dram[0]:      1153      1153      1152      1152      1153      1152      1152      1152      1152      1152      1152      1152      1152      1152      1152      1152 
dram[1]:      1150      1152      1152      1152      1152      1152      1152      1152      1152      1152      1152      1152      1152      1152      1152      1152 
dram[2]:      1154      1152      1152      1152      1152      1156      1152      1152      1152      1152      1152      1152      1152      1152      1152      1152 
dram[3]:      1153      1152      1152      1152      1152      1156      1152      1152      1152      1152      1152      1152      1152      1152      1152      1152 
dram[4]:      1154      1152      1152      1152      1152      1154      1152      1152      1152      1152      1152      1152      1152      1152      1152      1152 
dram[5]:      1154      1152      1152      1152      1152      1154      1152      1152      1152      1152      1152      1152      1152      1152      1152      1152 
total reads: 110612
bank skew: 1156/1150 = 1.01
chip skew: 18438/18430 = 1.00
number of total write accesses:
dram[0]:      1092      1088      1088      1088      1109      1108      1164      1166      1153      1152      1152      1152      1152      1152      1152      1151 
dram[1]:      1092      1088      1088      1088      1108      1108      1164      1166      1152      1152      1152      1152      1152      1152      1152      1152 
dram[2]:      1096      1088      1088      1088      1108      1108      1164      1166      1152      1152      1152      1152      1152      1152      1152      1152 
dram[3]:      1086      1088      1088      1088      1108      1108      1164      1166      1152      1152      1152      1152      1152      1152      1152      1152 
dram[4]:      1088      1088      1088      1088      1108      1106      1164      1166      1152      1150      1152      1152      1152      1152      1152      1152 
dram[5]:      1088      1088      1088      1088      1108      1114      1164      1166      1152      1152      1152      1152      1152      1152      1152      1152 
total reads: 108701
bank skew: 1166/1086 = 1.07
chip skew: 18122/18110 = 1.00
average mf latency per bank:
dram[0]:        356       362       351       355       361       369       382       383       386       391       385       389       390       387       389       391
dram[1]:        354       359       351       356       363       366       381       383       390       396       386       386       386       392       384       388
dram[2]:        356       361       350       358       359       367       385       385       382       387       387       384       395       387       391       388
dram[3]:        358       361       350       354       364       366       383       383       387       384       387       385       390       389       384       387
dram[4]:        357       359       353       354       366       367       389       385       387       384       390       393       386       395       388       387
dram[5]:        357       360       349       354       367       363       381       381       393       393       384       391       384       394       387       396
maximum mf latency per bank:
dram[0]:        589       602       510       525       531       570       492       536       519       513       527       572       540       519       579       485
dram[1]:        552       601       533       571       505       519       567       502       530       529       507       523       546       499       478       525
dram[2]:        582       613       542       562       505       539       500       520       718       598       582       499       672       504       575       539
dram[3]:        574       639       579       563       551       573       489       493       531       534       508       501       527       549       487       604
dram[4]:        619       647       557       569       517       547       512       536       493       534       558       562       522       580       522       508
dram[5]:        627       607       498       502       548       523       515       527       532       545       523       530       491       563       524       670

Number of Memory Banks Accessed per Memory Operation per Warp (from 0):
0	0	0	0	0	0	0	0	0	0	0	0	0	0	0	0	0	0	0	0	0	0	0	0	0	0	0	0	0	0	0	0	0	0	0	0	0	0	0	0	0	0	0	0	0	0	0	0	0	0	0	0	0	0	0	0	0	0	0	0	0	0	0	0	0	0	0	0	0	0	0	0	0	0	0	0	0	0	0	0	0	0	0	0	0	0	0	0	0	0	0	0	0	0	0	0	
Average # of Memory Banks Accessed per Memory Operation per Warp=-nan

position of mrq chosen
0	0	0	0	0	0	0	0	0	0	0	0	0	0	0	0	

average position of mrq chosen = -nan
Memory Partition 0: 
Cache L2_bank_000:
MSHR contents

Cache L2_bank_001:
MSHR contents

In Dram Latency Queue (total = 0): 
DRAM[0]: 16 bks, busW=4 BL=8 CL=12, tRRD=2 tCCD=6, tRCD=12 tRAS=28 tRP=12 tRC=40
n_cmd=579333 n_nop=483214 n_act=12197 n_pre=12181 n_req=36554 n_rd=36870 n_write=34871 bw_util=0.2477
n_activity=418469 dram_eff=0.3429
bk0: 2306a 537276i bk1: 2306a 536957i bk2: 2304a 535301i bk3: 2304a 535888i bk4: 2306a 535054i bk5: 2304a 536013i bk6: 2304a 536706i bk7: 2304a 535801i bk8: 2304a 535292i bk9: 2304a 535926i bk10: 2304a 536114i bk11: 2304a 535141i bk12: 2304a 535933i bk13: 2304a 535924i bk14: 2304a 536075i bk15: 2304a 533796i 
dram_util_bins: 0 0 0 0 0 0 0 0 0 0
dram_eff_bins: 0 0 0 0 0 0 0 0 0 0
mrqq: max=16 avg=2.77851
Memory Partition 1: 
Cache L2_bank_002:
MSHR contents

Cache L2_bank_003:
MSHR contents

In Dram Latency Queue (total = 0): 
DRAM[1]: 16 bks, busW=4 BL=8 CL=12, tRRD=2 tCCD=6, tRCD=12 tRAS=28 tRP=12 tRC=40
n_cmd=579333 n_nop=483347 n_act=12137 n_pre=12121 n_req=36548 n_rd=36860 n_write=34868 bw_util=0.2476
n_activity=418563 dram_eff=0.3427
bk0: 2300a 538252i bk1: 2304a 536530i bk2: 2304a 536388i bk3: 2304a 537055i bk4: 2304a 536675i bk5: 2304a 536218i bk6: 2304a 536405i bk7: 2304a 536083i bk8: 2304a 535256i bk9: 2304a 536018i bk10: 2304a 536884i bk11: 2304a 535304i bk12: 2304a 534907i bk13: 2304a 535454i bk14: 2304a 536510i bk15: 2304a 535586i 
dram_util_bins: 0 0 0 0 0 0 0 0 0 0
dram_eff_bins: 0 0 0 0 0 0 0 0 0 0
mrqq: max=16 avg=2.75698
Memory Partition 2: 
Cache L2_bank_004:
MSHR contents

Cache L2_bank_005:
MSHR contents

In Dram Latency Queue (total = 0): 
DRAM[2]: 16 bks, busW=4 BL=8 CL=12, tRRD=2 tCCD=6, tRCD=12 tRAS=28 tRP=12 tRC=40
n_cmd=579333 n_nop=483161 n_act=12218 n_pre=12202 n_req=36560 n_rd=36876 n_write=34876 bw_util=0.2477
n_activity=421785 dram_eff=0.3402
bk0: 2308a 537097i bk1: 2304a 536998i bk2: 2304a 537139i bk3: 2304a 536192i bk4: 2304a 535945i bk5: 2312a 536263i bk6: 2304a 536991i bk7: 2304a 535070i bk8: 2304a 536462i bk9: 2304a 536073i bk10: 2304a 535938i bk11: 2304a 534017i bk12: 2304a 535448i bk13: 2304a 535234i bk14: 2304a 535618i bk15: 2304a 535189i 
dram_util_bins: 0 0 0 0 0 0 0 0 0 0
dram_eff_bins: 0 0 0 0 0 0 0 0 0 0
mrqq: max=16 avg=2.76302
Memory Partition 3: 
Cache L2_bank_006:
MSHR contents

Cache L2_bank_007:
MSHR contents

In Dram Latency Queue (total = 0): 
DRAM[3]: 16 bks, busW=4 BL=8 CL=12, tRRD=2 tCCD=6, tRCD=12 tRAS=28 tRP=12 tRC=40
n_cmd=579333 n_nop=483387 n_act=12112 n_pre=12096 n_req=36549 n_rd=36874 n_write=34864 bw_util=0.2477
n_activity=419181 dram_eff=0.3423
bk0: 2306a 536852i bk1: 2304a 536261i bk2: 2304a 537171i bk3: 2304a 537383i bk4: 2304a 536153i bk5: 2312a 536165i bk6: 2304a 536828i bk7: 2304a 535976i bk8: 2304a 535975i bk9: 2304a 536259i bk10: 2304a 535983i bk11: 2304a 535330i bk12: 2304a 535588i bk13: 2304a 535524i bk14: 2304a 535760i bk15: 2304a 535708i 
dram_util_bins: 0 0 0 0 0 0 0 0 0 0
dram_eff_bins: 0 0 0 0 0 0 0 0 0 0
mrqq: max=16 avg=2.78761
Memory Partition 4: 
Cache L2_bank_008:
MSHR contents

Cache L2_bank_009:
MSHR contents

In Dram Latency Queue (total = 0): 
DRAM[4]: 16 bks, busW=4 BL=8 CL=12, tRRD=2 tCCD=6, tRCD=12 tRAS=28 tRP=12 tRC=40
n_cmd=579333 n_nop=483211 n_act=12202 n_pre=12186 n_req=36546 n_rd=36872 n_write=34862 bw_util=0.2476
n_activity=420922 dram_eff=0.3408
bk0: 2308a 537320i bk1: 2304a 536152i bk2: 2304a 537490i bk3: 2304a 536521i bk4: 2304a 535297i bk5: 2308a 535622i bk6: 2304a 536778i bk7: 2304a 535503i bk8: 2304a 535768i bk9: 2304a 535891i bk10: 2304a 535137i bk11: 2304a 535113i bk12: 2304a 534804i bk13: 2304a 536114i bk14: 2304a 535291i bk15: 2304a 534802i 
dram_util_bins: 0 0 0 0 0 0 0 0 0 0
dram_eff_bins: 0 0 0 0 0 0 0 0 0 0
mrqq: max=16 avg=2.77764
Memory Partition 5: 
Cache L2_bank_010:
MSHR contents

Cache L2_bank_011:
MSHR contents

In Dram Latency Queue (total = 0): 
DRAM[5]: 16 bks, busW=4 BL=8 CL=12, tRRD=2 tCCD=6, tRCD=12 tRAS=28 tRP=12 tRC=40
n_cmd=579333 n_nop=483033 n_act=12286 n_pre=12270 n_req=36556 n_rd=36872 n_write=34872 bw_util=0.2477
n_activity=420401 dram_eff=0.3413
bk0: 2308a 535902i bk1: 2304a 535823i bk2: 2304a 536636i bk3: 2304a 535933i bk4: 2304a 536640i bk5: 2308a 535407i bk6: 2304a 535916i bk7: 2304a 535779i bk8: 2304a 535642i bk9: 2304a 534681i bk10: 2304a 536309i bk11: 2304a 535196i bk12: 2304a 534695i bk13: 2304a 534665i bk14: 2304a 534695i bk15: 2304a 535438i 
dram_util_bins: 0 0 0 0 0 0 0 0 0 0
dram_eff_bins: 0 0 0 0 0 0 0 0 0 0
mrqq: max=16 avg=2.77756

========= L2 cache stats =========
L2_cache_bank[0]: Access = 30005, Miss = 9218, Miss_rate = 0.307, Pending_hits = 1144, Reservation_fails = 20517
L2_cache_bank[1]: Access = 29978, Miss = 9217, Miss_rate = 0.307, Pending_hits = 1127, Reservation_fails = 20903
L2_cache_bank[2]: Access = 30006, Miss = 9214, Miss_rate = 0.307, Pending_hits = 1108, Reservation_fails = 20989
L2_cache_bank[3]: Access = 29983, Miss = 9216, Miss_rate = 0.307, Pending_hits = 1077, Reservation_fails = 20060
L2_cache_bank[4]: Access = 30009, Miss = 9218, Miss_rate = 0.307, Pending_hits = 1086, Reservation_fails = 20728
L2_cache_bank[5]: Access = 29958, Miss = 9220, Miss_rate = 0.308, Pending_hits = 1125, Reservation_fails = 20713
L2_cache_bank[6]: Access = 29991, Miss = 9217, Miss_rate = 0.307, Pending_hits = 1072, Reservation_fails = 20647
L2_cache_bank[7]: Access = 29981, Miss = 9220, Miss_rate = 0.308, Pending_hits = 1094, Reservation_fails = 20385
L2_cache_bank[8]: Access = 29986, Miss = 9218, Miss_rate = 0.307, Pending_hits = 1101, Reservation_fails = 20788
L2_cache_bank[9]: Access = 29964, Miss = 9218, Miss_rate = 0.308, Pending_hits = 1095, Reservation_fails = 19827
L2_cache_bank[10]: Access = 29968, Miss = 9218, Miss_rate = 0.308, Pending_hits = 1077, Reservation_fails = 20295
L2_cache_bank[11]: Access = 29990, Miss = 9218, Miss_rate = 0.307, Pending_hits = 1069, Reservation_fails = 20154
L2_total_cache_accesses = 359819
L2_total_cache_misses = 110612
L2_total_cache_miss_rate = 0.3074
L2_total_cache_pending_hits = 13175
L2_total_cache_reservation_fails = 246006
L2_total_cache_breakdown:
	L2_cache_stats_breakdown[GLOBAL_ACC_R][HIT] = 14700
	L2_cache_stats_breakdown[GLOBAL_ACC_R][HIT_RESERVED] = 6995
	L2_cache_stats_breakdown[GLOBAL_ACC_R][MISS] = 108550
	L2_cache_stats_breakdown[GLOBAL_ACC_R][RESERVATION_FAIL] = 77
	L2_cache_stats_breakdown[CONST_ACC_R][HIT] = 11
	L2_cache_stats_breakdown[CONST_ACC_R][HIT_RESERVED] = 3
	L2_cache_stats_breakdown[CONST_ACC_R][MISS] = 1
	L2_cache_stats_breakdown[CONST_ACC_R][RESERVATION_FAIL] = 109
	L2_cache_stats_breakdown[GLOBAL_ACC_W][HIT] = 221189
	L2_cache_stats_breakdown[GLOBAL_ACC_W][HIT_RESERVED] = 6141
	L2_cache_stats_breakdown[GLOBAL_ACC_W][MISS] = 2048
	L2_cache_stats_breakdown[GLOBAL_ACC_W][RESERVATION_FAIL] = 244535
	L2_cache_stats_breakdown[INST_ACC_R][HIT] = 132
	L2_cache_stats_breakdown[INST_ACC_R][HIT_RESERVED] = 36
	L2_cache_stats_breakdown[INST_ACC_R][MISS] = 13
	L2_cache_stats_breakdown[INST_ACC_R][RESERVATION_FAIL] = 1285
L2_cache_data_port_util = 0.194
L2_cache_fill_port_util = 0.084

icnt_total_pkts_mem_to_simt=881553
icnt_total_pkts_simt_to_mem=933267
LD_mem_lat_dist  0 0 0 0 0 0 0 0 0 0 0 0 0 0 0 0 0 0 0 0 0 0 0 0 0 0 0
ST_mem_lat_dist  0 0 0 0 0 0 0 0 0 0 0 0 0 0 0 0 0 0 0 0 0 0 0 0 0 0 0
----------------------------Interconnect-DETAILS--------------------------------
Class 0:
Packet latency average = 16.6034
	minimum = 6
	maximum = 183
Network latency average = 12.9414
	minimum = 6
	maximum = 162
Slowest packet = 288666
Flit latency average = 11.6292
	minimum = 6
	maximum = 160
Slowest flit = 686045
Fragmentation average = 0.00060552
	minimum = 0
	maximum = 138
Injected packet rate average = 0.0848237
	minimum = 0.0757651 (at node 4)
	maximum = 0.0955401 (at node 23)
Accepted packet rate average = 0.0848237
	minimum = 0.0757651 (at node 4)
	maximum = 0.0955401 (at node 23)
Injected flit rate average = 0.222352
	minimum = 0.202153 (at node 4)
	maximum = 0.246393 (at node 23)
Accepted flit rate average= 0.222352
	minimum = 0.195219 (at node 4)
	maximum = 0.254571 (at node 23)
Injected packet length average = 2.62134
Accepted packet length average = 2.62134
Total in-flight flits = 0 (0 measured)
====== Overall Traffic Statistics ======
====== Traffic class 0 ======
Packet latency average = 15.5971 (2 samples)
	minimum = 6 (2 samples)
	maximum = 277 (2 samples)
Network latency average = 12.5504 (2 samples)
	minimum = 6 (2 samples)
	maximum = 266.5 (2 samples)
Flit latency average = 11.2157 (2 samples)
	minimum = 6 (2 samples)
	maximum = 265 (2 samples)
Fragmentation average = 0.0404314 (2 samples)
	minimum = 0 (2 samples)
	maximum = 240 (2 samples)
Injected packet rate average = 0.0636706 (2 samples)
	minimum = 0.0569393 (2 samples)
	maximum = 0.0717855 (2 samples)
Accepted packet rate average = 0.0636706 (2 samples)
	minimum = 0.0569393 (2 samples)
	maximum = 0.0717855 (2 samples)
Injected flit rate average = 0.161598 (2 samples)
	minimum = 0.148391 (2 samples)
	maximum = 0.177524 (2 samples)
Accepted flit rate average = 0.161598 (2 samples)
	minimum = 0.140658 (2 samples)
	maximum = 0.186834 (2 samples)
Injected packet size average = 2.53803 (2 samples)
Accepted packet size average = 2.53803 (2 samples)
Hops average = 1 (2 samples)
