

        *** GPGPU-Sim Simulator Version 3.2.2  [build 0] ***


GPGPU-Sim PTX: simulation mode 0 (can change with PTX_SIM_MODE_FUNC environment variable:
               1=functional simulation only, 0=detailed performance simulator)
GPGPU-Sim: Configuration options:

-network_mode                           1 # Interconnection network mode
-inter_config_file   config_fermi_islip.icnt # Interconnection network config file
-gpgpu_ptx_use_cuobjdump                    1 # Use cuobjdump to extract ptx and sass from binaries
-gpgpu_experimental_lib_support                    0 # Try to extract code from cuda libraries [Broken because of unknown cudaGetExportTable]
-gpgpu_ptx_convert_to_ptxplus                    0 # Convert SASS (native ISA) to ptxplus and run ptxplus
-gpgpu_ptx_force_max_capability                   20 # Force maximum compute capability
-gpgpu_ptx_inst_debug_to_file                    0 # Dump executed instructions' debug information to file
-gpgpu_ptx_inst_debug_file       inst_debug.txt # Executed instructions' debug output file
-gpgpu_ptx_inst_debug_thread_uid                    1 # Thread UID for executed instructions' debug output
-gpgpu_simd_model                       1 # 1 = post-dominator
-gpgpu_shader_core_pipeline              1536:32 # shader core pipeline config, i.e., {<nthread>:<warpsize>}
-gpgpu_tex_cache:l1  4:128:24,L:R:m:N:L,F:128:4,128:2 # per-shader L1 texture cache  (READ-ONLY) config  {<nsets>:<bsize>:<assoc>,<rep>:<wr>:<alloc>:<wr_alloc>,<mshr>:<N>:<merge>,<mq>:<rf>}
-gpgpu_const_cache:l1 64:64:2,L:R:f:N:L,A:2:32,4 # per-shader L1 constant memory cache  (READ-ONLY) config  {<nsets>:<bsize>:<assoc>,<rep>:<wr>:<alloc>:<wr_alloc>,<mshr>:<N>:<merge>,<mq>} 
-gpgpu_cache:il1     4:128:4,L:R:f:N:L,A:2:32,4 # shader L1 instruction cache config  {<nsets>:<bsize>:<assoc>,<rep>:<wr>:<alloc>:<wr_alloc>,<mshr>:<N>:<merge>,<mq>} 
-gpgpu_cache:dl1     32:128:4,L:L:m:N:H,A:32:8,8:2,0,1:0:1:1:0:1,1:4:8:16:32:64,/sciclone/data10/hwang07/GPU_RESEARCH/swl/swl_outputs/RESULTS/twolevel601/ # per-shader L1 data cache config  {<nsets>:<bsize>:<assoc>,<rep>:<wr>:<alloc>:<wr_alloc>,<mshr>:<N>:<merge>,<mq> | none}
-gpgpu_cache:dl1PrefL1                 none # per-shader L1 data cache config  {<nsets>:<bsize>:<assoc>,<rep>:<wr>:<alloc>:<wr_alloc>,<mshr>:<N>:<merge>,<mq> | none}
-gpgpu_cache:dl1PreShared                 none # per-shader L1 data cache config  {<nsets>:<bsize>:<assoc>,<rep>:<wr>:<alloc>:<wr_alloc>,<mshr>:<N>:<merge>,<mq> | none}
-gmem_skip_L1D                          0 # global memory access skip L1D cache (implements -Xptxas -dlcm=cg, default=no skip)
-gpgpu_perfect_mem                      0 # enable perfect memory mode (no cache miss)
-n_regfile_gating_group                    4 # group of lanes that should be read/written together)
-gpgpu_clock_gated_reg_file                    0 # enable clock gated reg file for power calculations
-gpgpu_clock_gated_lanes                    0 # enable clock gated lanes for power calculations
-gpgpu_shader_registers                32768 # Number of registers per shader core. Limits number of concurrent CTAs. (default 8192)
-gpgpu_shader_cta                       8 # Maximum number of concurrent CTAs in shader (default 8)
-gpgpu_num_cta_barriers                   16 # Maximum number of named barriers per CTA (default 16)
-gpgpu_n_clusters                      15 # number of processing clusters
-gpgpu_n_cores_per_cluster                    1 # number of simd cores per cluster
-gpgpu_n_cluster_ejection_buffer_size                    8 # number of packets in ejection buffer
-gpgpu_n_ldst_response_buffer_size                    2 # number of response packets in ld/st unit ejection buffer
-gpgpu_shmem_size                   16384 # Size of shared memory per shader core (default 16kB)
-gpgpu_shmem_size                   49152 # Size of shared memory per shader core (default 16kB)
-gpgpu_shmem_size_PrefL1                16384 # Size of shared memory per shader core (default 16kB)
-gpgpu_shmem_size_PrefShared                16384 # Size of shared memory per shader core (default 16kB)
-gpgpu_shmem_num_banks                   32 # Number of banks in the shared memory in each shader core (default 16)
-gpgpu_shmem_limited_broadcast                    0 # Limit shared memory to do one broadcast per cycle (default on)
-gpgpu_shmem_warp_parts                    1 # Number of portions a warp is divided into for shared memory bank conflict check 
-gpgpu_warpdistro_shader                   -1 # Specify which shader core to collect the warp size distribution from
-gpgpu_warp_issue_shader                    0 # Specify which shader core to collect the warp issue distribution from
-gpgpu_local_mem_map                    1 # Mapping from local memory space address to simulated GPU physical address space (default = enabled)
-gpgpu_num_reg_banks                   16 # Number of register banks (default = 8)
-gpgpu_reg_bank_use_warp_id                    0 # Use warp ID in mapping registers to banks (default = off)
-gpgpu_operand_collector_num_units_sp                    6 # number of collector units (default = 4)
-gpgpu_operand_collector_num_units_sfu                    8 # number of collector units (default = 4)
-gpgpu_operand_collector_num_units_mem                    2 # number of collector units (default = 2)
-gpgpu_operand_collector_num_units_gen                    0 # number of collector units (default = 0)
-gpgpu_operand_collector_num_in_ports_sp                    2 # number of collector unit in ports (default = 1)
-gpgpu_operand_collector_num_in_ports_sfu                    1 # number of collector unit in ports (default = 1)
-gpgpu_operand_collector_num_in_ports_mem                    1 # number of collector unit in ports (default = 1)
-gpgpu_operand_collector_num_in_ports_gen                    0 # number of collector unit in ports (default = 0)
-gpgpu_operand_collector_num_out_ports_sp                    2 # number of collector unit in ports (default = 1)
-gpgpu_operand_collector_num_out_ports_sfu                    1 # number of collector unit in ports (default = 1)
-gpgpu_operand_collector_num_out_ports_mem                    1 # number of collector unit in ports (default = 1)
-gpgpu_operand_collector_num_out_ports_gen                    0 # number of collector unit in ports (default = 0)
-gpgpu_coalesce_arch                   13 # Coalescing arch (default = 13, anything else is off for now)
-gpgpu_num_sched_per_core                    2 # Number of warp schedulers per core
-gpgpu_max_insn_issue_per_warp                    1 # Max number of instructions that can be issued per warp in one cycle by scheduler
-gpgpu_simt_core_sim_order                    1 # Select the simulation order of cores in a cluster (0=Fix, 1=Round-Robin)
-gpgpu_pipeline_widths        2,1,1,2,1,1,2 # Pipeline widths ID_OC_SP,ID_OC_SFU,ID_OC_MEM,OC_EX_SP,OC_EX_SFU,OC_EX_MEM,EX_WB
-gpgpu_num_sp_units                     2 # Number of SP units (default=1)
-gpgpu_num_sfu_units                    1 # Number of SF units (default=1)
-gpgpu_num_mem_units                    1 # Number if ldst units (default=1) WARNING: not hooked up to anything
-gpgpu_scheduler     two_level_active:6:0:1 # Scheduler configuration: < lrr | gto | two_level_active > If two_level_active:<num_active_warps>:<inner_prioritization>:<outer_prioritization>For complete list of prioritization values see shader.h enum scheduler_prioritization_typeDefault: gto
-gpgpu_dram_scheduler                    1 # 0 = fifo, 1 = FR-FCFS (defaul)
-gpgpu_dram_partition_queues              8:8:8:8 # i2$:$2d:d2$:$2i
-l2_ideal                               0 # Use a ideal L2 cache that always hit
-gpgpu_cache:dl2     64:128:8,L:B:m:W:L,A:32:4,4:0,32 # unified banked L2 data cache config  {<nsets>:<bsize>:<assoc>,<rep>:<wr>:<alloc>:<wr_alloc>,<mshr>:<N>:<merge>,<mq>}
-gpgpu_cache:dl2_texture_only                    0 # L2 cache used for texture only
-gpgpu_n_mem                            6 # number of memory modules (e.g. memory controllers) in gpu
-gpgpu_n_sub_partition_per_mchannel                    2 # number of memory subpartition in each memory module
-gpgpu_n_mem_per_ctrlr                    2 # number of memory chips per memory controller
-gpgpu_memlatency_stat                   14 # track and display latency statistics 0x2 enables MC, 0x4 enables queue logs
-gpgpu_frfcfs_dram_sched_queue_size                   16 # 0 = unlimited (default); # entries per chip
-gpgpu_dram_return_queue_size                  116 # 0 = unlimited (default); # entries per chip
-gpgpu_dram_buswidth                    4 # default = 4 bytes (8 bytes per cycle at DDR)
-gpgpu_dram_burst_length                    8 # Burst length of each DRAM request (default = 4 data bus cycle)
-dram_data_command_freq_ratio                    4 # Frequency ratio between DRAM data bus and command bus (default = 2 times, i.e. DDR)
-gpgpu_dram_timing_opt nbk=16:CCD=2:RRD=6:RCD=12:RAS=28:RP=12:RC=40: CL=12:WL=4:CDLR=5:WR=12:nbkgrp=4:CCDL=3:RTPL=2 # DRAM timing parameters = {nbk:tCCD:tRRD:tRCD:tRAS:tRP:tRC:CL:WL:tCDLR:tWR:nbkgrp:tCCDL:tRTPL}
-rop_latency                          120 # ROP queue latency (default 85)
-dram_latency                         100 # DRAM latency (default 30)
-gpgpu_mem_addr_mapping dramid@8;00000000.00000000.00000000.00000000.0000RRRR.RRRRRRRR.BBBCCCCB.CCSSSSSS # mapping memory address to dram model {dramid@<start bit>;<memory address map>}
-gpgpu_mem_addr_test                    0 # run sweep test to check address mapping for aliased address
-gpgpu_mem_address_mask                    1 # 0 = old addressing mask, 1 = new addressing mask, 2 = new add. mask + flipped bank sel and chip sel bits
-gpuwattch_xml_file  gpuwattch_gtx480.xml # GPUWattch XML file
-power_simulation_enabled                    0 # Turn on power simulator (1=On, 0=Off)
-power_per_cycle_dump                    0 # Dump detailed power output each cycle
-power_trace_enabled                    0 # produce a file for the power trace (1=On, 0=Off)
-power_trace_zlevel                     6 # Compression level of the power trace output log (0=no comp, 9=highest)
-steady_power_levels_enabled                    0 # produce a file for the steady power levels (1=On, 0=Off)
-steady_state_definition                  8:4 # allowed deviation:number of samples
-gpgpu_max_cycle                        0 # terminates gpu simulation early (0 = no limit)
-gpgpu_max_insn                         0 # terminates gpu simulation early (0 = no limit)
-gpgpu_max_cta                          0 # terminates gpu simulation early (0 = no limit)
-gpgpu_runtime_stat                   500 # display runtime statistics such as dram utilization {<freq>:<flag>}
-liveness_message_freq                    1 # Minimum number of seconds between simulation liveness messages (0 = always print)
-gpgpu_flush_l1_cache                    0 # Flush L1 cache at the end of each kernel call
-gpgpu_flush_l2_cache                    0 # Flush L2 cache at the end of each kernel call
-gpgpu_deadlock_detect                    1 # Stop the simulation at deadlock (1=on (default), 0=off)
-gpgpu_ptx_instruction_classification                    0 # if enabled will classify ptx instruction types per kernel (Max 255 kernels now)
-gpgpu_ptx_sim_mode                     0 # Select between Performance (default) or Functional simulation (1)
-gpgpu_clock_domains 700.0:700.0:700.0:924.0 # Clock Domain Frequencies in MhZ {<Core Clock>:<ICNT Clock>:<L2 Clock>:<DRAM Clock>}
-gpgpu_max_concurrent_kernel                    8 # maximum kernels that can run concurrently on GPU
-gpgpu_cflog_interval                    0 # Interval between each snapshot in control flow logger
-visualizer_enabled                     0 # Turn on visualizer output (1=On, 0=Off)
-visualizer_outputfile                 NULL # Specifies the output log file for visualizer
-visualizer_zlevel                      6 # Compression level of the visualizer output log (0=no comp, 9=highest)
-trace_enabled                          0 # Turn on traces
-trace_components                    none # comma seperated list of traces to enable. Complete list found in trace_streams.tup. Default none
-trace_sampling_core                    0 # The core which is printed using CORE_DPRINTF. Default 0
-trace_sampling_memory_partition                   -1 # The memory partition which is printed using MEMPART_DPRINTF. Default -1 (i.e. all)
-enable_ptx_file_line_stats                    1 # Turn on PTX source line statistic profiling. (1 = On)
-ptx_line_stats_filename gpgpu_inst_stats.txt # Output file for PTX source line statistics.
-save_embedded_ptx                      0 # saves ptx files embedded in binary as <n>.ptx
-keep                                   0 # keep intermediate files created by GPGPU-Sim when interfacing with external programs
-gpgpu_ptx_save_converted_ptxplus                    0 # Saved converted ptxplus to a file
-ptx_opcode_latency_int         4,13,4,5,145 # Opcode latencies for integers <ADD,MAX,MUL,MAD,DIV>Default 1,1,19,25,145
-ptx_opcode_latency_fp          4,13,4,5,39 # Opcode latencies for single precision floating points <ADD,MAX,MUL,MAD,DIV>Default 1,1,1,1,30
-ptx_opcode_latency_dp         8,19,8,8,330 # Opcode latencies for double precision floating points <ADD,MAX,MUL,MAD,DIV>Default 8,8,8,8,335
-ptx_opcode_initiation_int            1,2,2,1,8 # Opcode initiation intervals for integers <ADD,MAX,MUL,MAD,DIV>Default 1,1,4,4,32
-ptx_opcode_initiation_fp            1,2,1,1,4 # Opcode initiation intervals for single precision floating points <ADD,MAX,MUL,MAD,DIV>Default 1,1,1,1,5
-ptx_opcode_initiation_dp         8,16,8,8,130 # Opcode initiation intervals for double precision floating points <ADD,MAX,MUL,MAD,DIV>Default 8,8,8,8,130
DRAM Timing Options:
nbk                                    16 # number of banks
CCD                                     2 # column to column delay
RRD                                     6 # minimal delay between activation of rows in different banks
RCD                                    12 # row to column delay
RAS                                    28 # time needed to activate row
RP                                     12 # time needed to precharge (deactivate) row
RC                                     40 # row cycle time
CDLR                                    5 # switching from write to read (changes tWTR)
WR                                     12 # last data-in to row precharge
CL                                     12 # CAS latency
WL                                      4 # Write latency
nbkgrp                                  4 # number of bank groups
CCDL                                    3 # column to column delay between accesses to different bank groups
RTPL                                    2 # read to precharge delay between accesses to different bank groups
Total number of memory sub partition = 12
addr_dec_mask[CHIP]  = 0000000000000000 	high:64 low:0
addr_dec_mask[BK]    = 000000000000e100 	high:16 low:8
addr_dec_mask[ROW]   = 000000000fff0000 	high:28 low:16
addr_dec_mask[COL]   = 0000000000001eff 	high:13 low:0
addr_dec_mask[BURST] = 000000000000003f 	high:6 low:0
sub_partition_id_mask = 0000000000000100
GPGPU-Sim uArch: clock freqs: 700000000.000000:700000000.000000:700000000.000000:924000000.000000
GPGPU-Sim uArch: clock periods: 0.00000000142857142857:0.00000000142857142857:0.00000000142857142857:0.00000000108225108225
*** Initializing Memory Statistics ***
GPGPU-Sim uArch: interconnect node map (shaderID+MemID to icntID)
GPGPU-Sim uArch: Memory nodes ID start from index: 15
GPGPU-Sim uArch:    0   1   2   3   4
GPGPU-Sim uArch:    5   6   7   8   9
GPGPU-Sim uArch:   10  11  12  13  14
GPGPU-Sim uArch:   15  16  17  18  19
GPGPU-Sim uArch:   20  21  22  23  24
GPGPU-Sim uArch:   25  26
GPGPU-Sim uArch: interconnect node reverse map (icntID to shaderID+MemID)
GPGPU-Sim uArch: Memory nodes start from ID: 15
GPGPU-Sim uArch:    0   1   2   3   4
GPGPU-Sim uArch:    5   6   7   8   9
GPGPU-Sim uArch:   10  11  12  13  14
GPGPU-Sim uArch:   15  16  17  18  19
GPGPU-Sim uArch:   20  21  22  23  24
GPGPU-Sim uArch:   25  26
99cf5c6897d1531804fa7c6f5cec5d21  /sciclone/data10/hwang07/adwait/applications/benchmarks/Mars/sample_apps/MatrixMul/gpgpu_ptx_sim__MatrixMul
GPGPU-Sim uArch: performance model initialization complete.
GPGPU-Sim PTX: __cudaRegisterFatBinary, fat_cubin_handle = 1, filename=MarsSort.cu
self exe links to: /sciclone/data10/hwang07/adwait/applications/benchmarks/Mars/sample_apps/MatrixMul/gpgpu_ptx_sim__MatrixMul
Running md5sum using "md5sum /sciclone/data10/hwang07/adwait/applications/benchmarks/Mars/sample_apps/MatrixMul/gpgpu_ptx_sim__MatrixMul "
Parsing file _cuobjdump_complete_output_I7A2U7
######### cuobjdump parser ########
## Adding new section ELF
Adding arch: sm_20
Adding identifier: main.cu
## Adding new section PTX
Adding ptx filename: _cuobjdump_1.ptx
Adding arch: sm_20
Adding identifier: main.cu
## Adding new section ELF
Adding arch: sm_20
Adding identifier: MarsLib.cu
## Adding new section PTX
Adding ptx filename: _cuobjdump_2.ptx
Adding arch: sm_20
Adding identifier: MarsLib.cu
## Adding new section ELF
Adding arch: sm_20
Adding identifier: MarsScan.cu
## Adding new section PTX
Adding ptx filename: _cuobjdump_3.ptx
Adding arch: sm_20
Adding identifier: MarsScan.cu
## Adding new section ELF
Adding arch: sm_20
Adding identifier: MarsSort.cu
## Adding new section PTX
Adding ptx filename: _cuobjdump_4.ptx
Adding arch: sm_20
Adding identifier: MarsSort.cu
Done parsing!!!
GPGPU-Sim PTX: __cudaRegisterFunction _Z20writeBoundary_kerneliiPiS_S_ : hostFun 0x0x409003, fat_cubin_handle = 1
GPGPU-Sim PTX: allocating stack frame region for .param "__cudaretf__Z7comparePKviS0_i" from 0x0 to 0x4
GPGPU-Sim PTX: allocating stack frame region for .param "__cudaparmf1__Z7comparePKviS0_i" from 0x4 to 0xc
GPGPU-Sim PTX: allocating stack frame region for .param "__cudaparmf2__Z7comparePKviS0_i" from 0xc to 0x10
GPGPU-Sim PTX: allocating stack frame region for .param "__cudaparmf3__Z7comparePKviS0_i" from 0x10 to 0x18
GPGPU-Sim PTX: allocating stack frame region for .param "__cudaparmf4__Z7comparePKviS0_i" from 0x18 to 0x1c
GPGPU-Sim PTX: allocating stack frame region for .param "__cudaretf__Z15getCompareValuePv4int4S0_" from 0x0 to 0x4
GPGPU-Sim PTX: allocating stack frame region for .param "__cudaparmf1__Z15getCompareValuePv4int4S0_" from 0x4 to 0xc
GPGPU-Sim PTX: allocating stack frame region for .param "__cudaparmf2__Z15getCompareValuePv4int4S0_" from 0xc to 0x1c
GPGPU-Sim PTX: allocating stack frame region for .param "__cudaparmf3__Z15getCompareValuePv4int4S0_" from 0x1c to 0x2c
GPGPU-Sim PTX: instruction assembly for function '_Z7comparePKviS0_i'...   done.
GPGPU-Sim PTX: finding reconvergence points for '_Z7comparePKviS0_i'...
GPGPU-Sim PTX: Finding dominators for '_Z7comparePKviS0_i'...
GPGPU-Sim PTX: Finding immediate dominators for '_Z7comparePKviS0_i'...
GPGPU-Sim PTX: Finding postdominators for '_Z7comparePKviS0_i'...
GPGPU-Sim PTX: Finding immediate postdominators for '_Z7comparePKviS0_i'...
GPGPU-Sim PTX: pre-decoding instructions for '_Z7comparePKviS0_i'...
GPGPU-Sim PTX: reconvergence points for _Z7comparePKviS0_i...
GPGPU-Sim PTX: ... end of reconvergence points for _Z7comparePKviS0_i
GPGPU-Sim PTX: ... done pre-decoding instructions for '_Z7comparePKviS0_i'.
GPGPU-Sim PTX: instruction assembly for function '_Z15getCompareValuePv4int4S0_'...   done.
GPGPU-Sim PTX: finding reconvergence points for '_Z15getCompareValuePv4int4S0_'...
GPGPU-Sim PTX: Finding dominators for '_Z15getCompareValuePv4int4S0_'...
GPGPU-Sim PTX: Finding immediate dominators for '_Z15getCompareValuePv4int4S0_'...
GPGPU-Sim PTX: Finding postdominators for '_Z15getCompareValuePv4int4S0_'...
GPGPU-Sim PTX: Finding immediate postdominators for '_Z15getCompareValuePv4int4S0_'...
GPGPU-Sim PTX: pre-decoding instructions for '_Z15getCompareValuePv4int4S0_'...
GPGPU-Sim PTX: reconvergence points for _Z15getCompareValuePv4int4S0_...
GPGPU-Sim PTX:  1 (potential) branch divergence @  PC=0x080 (_1.ptx:88) @%p2 bra $Lt_1_3074;
GPGPU-Sim PTX:    immediate post dominator      @  PC=0x0d0 (_1.ptx:104) mov.s32 %r15, %r12;
GPGPU-Sim PTX:  2 (potential) branch divergence @  PC=0x090 (_1.ptx:90) @%p3 bra $Lt_1_3586;
GPGPU-Sim PTX:    immediate post dominator      @  PC=0x0d0 (_1.ptx:104) mov.s32 %r15, %r12;
GPGPU-Sim PTX:  3 (potential) branch divergence @  PC=0x0a0 (_1.ptx:92) bra.uni $Lt_1_2818;
GPGPU-Sim PTX:    immediate post dominator      @  PC=0x0d0 (_1.ptx:104) mov.s32 %r15, %r12;
GPGPU-Sim PTX:  4 (potential) branch divergence @  PC=0x0c0 (_1.ptx:98) bra.uni $Lt_1_2818;
GPGPU-Sim PTX:    immediate post dominator      @  PC=0x0d0 (_1.ptx:104) mov.s32 %r15, %r12;
GPGPU-Sim PTX: ... end of reconvergence points for _Z15getCompareValuePv4int4S0_
GPGPU-Sim PTX: ... done pre-decoding instructions for '_Z15getCompareValuePv4int4S0_'.
GPGPU-Sim PTX: allocating shared region for "__cuda___cuda_local_var_45749_37_non_const_shared48" from 0x0 to 0x1000 (shared memory space)
GPGPU-Sim PTX: instruction assembly for function '_Z21partBitonicSortKernelPviP4int4jii'...   done.
GPGPU-Sim PTX: finding reconvergence points for '_Z21partBitonicSortKernelPviP4int4jii'...
GPGPU-Sim PTX: Finding dominators for '_Z21partBitonicSortKernelPviP4int4jii'...
GPGPU-Sim PTX: Finding immediate dominators for '_Z21partBitonicSortKernelPviP4int4jii'...
GPGPU-Sim PTX: Finding postdominators for '_Z21partBitonicSortKernelPviP4int4jii'...
GPGPU-Sim PTX: Finding immediate postdominators for '_Z21partBitonicSortKernelPviP4int4jii'...
GPGPU-Sim PTX: pre-decoding instructions for '_Z21partBitonicSortKernelPviP4int4jii'...
GPGPU-Sim PTX: reconvergence points for _Z21partBitonicSortKernelPviP4int4jii...
GPGPU-Sim PTX:  1 (potential) branch divergence @  PC=0x1b8 (_1.ptx:152) @%p1 bra $Lt_2_19202;
GPGPU-Sim PTX:    immediate post dominator      @  PC=0x4c8 (_1.ptx:286) ld.shared.v4.s32 {%r68,%r69,%r70,%r71}, [%rd4+0];
GPGPU-Sim PTX:  2 (potential) branch divergence @  PC=0x200 (_1.ptx:164) @%p2 bra $Lt_2_18178;
GPGPU-Sim PTX:    immediate post dominator      @  PC=0x318 (_1.ptx:212) bar.sync 0;
GPGPU-Sim PTX:  3 (potential) branch divergence @  PC=0x250 (_1.ptx:175) @%p4 bra $Lt_2_16386;
GPGPU-Sim PTX:    immediate post dominator      @  PC=0x2a0 (_1.ptx:191) and.b32 %r39, %r6, 256;
GPGPU-Sim PTX:  4 (potential) branch divergence @  PC=0x260 (_1.ptx:177) @%p5 bra $Lt_2_16898;
GPGPU-Sim PTX:    immediate post dominator      @  PC=0x2a0 (_1.ptx:191) and.b32 %r39, %r6, 256;
GPGPU-Sim PTX:  5 (potential) branch divergence @  PC=0x270 (_1.ptx:179) bra.uni $Lt_2_16130;
GPGPU-Sim PTX:    immediate post dominator      @  PC=0x2a0 (_1.ptx:191) and.b32 %r39, %r6, 256;
GPGPU-Sim PTX:  6 (potential) branch divergence @  PC=0x290 (_1.ptx:185) bra.uni $Lt_2_16130;
GPGPU-Sim PTX:    immediate post dominator      @  PC=0x2a0 (_1.ptx:191) and.b32 %r39, %r6, 256;
GPGPU-Sim PTX:  7 (potential) branch divergence @  PC=0x2b8 (_1.ptx:194) @%p6 bra $Lt_2_17410;
GPGPU-Sim PTX:    immediate post dominator      @  PC=0x318 (_1.ptx:212) bar.sync 0;
GPGPU-Sim PTX:  8 (potential) branch divergence @  PC=0x2d0 (_1.ptx:197) @%p7 bra $Lt_2_18178;
GPGPU-Sim PTX:    immediate post dominator      @  PC=0x318 (_1.ptx:212) bar.sync 0;
GPGPU-Sim PTX:  9 (potential) branch divergence @  PC=0x2e8 (_1.ptx:200) bra.uni $Lt_2_18178;
GPGPU-Sim PTX:    immediate post dominator      @  PC=0x318 (_1.ptx:212) bar.sync 0;
GPGPU-Sim PTX: 10 (potential) branch divergence @  PC=0x300 (_1.ptx:205) @%p8 bra $Lt_2_18178;
GPGPU-Sim PTX:    immediate post dominator      @  PC=0x318 (_1.ptx:212) bar.sync 0;
GPGPU-Sim PTX: 11 (potential) branch divergence @  PC=0x338 (_1.ptx:217) @%p9 bra $Lt_2_15362;
GPGPU-Sim PTX:    immediate post dominator      @  PC=0x340 (_1.ptx:218) bra.uni $Lt_2_14338;
GPGPU-Sim PTX: 12 (potential) branch divergence @  PC=0x340 (_1.ptx:218) bra.uni $Lt_2_14338;
GPGPU-Sim PTX:    immediate post dominator      @  PC=0x4c8 (_1.ptx:286) ld.shared.v4.s32 {%r68,%r69,%r70,%r71}, [%rd4+0];
GPGPU-Sim PTX: 13 (potential) branch divergence @  PC=0x388 (_1.ptx:231) @%p10 bra $Lt_2_22274;
GPGPU-Sim PTX:    immediate post dominator      @  PC=0x4a0 (_1.ptx:279) bar.sync 0;
GPGPU-Sim PTX: 14 (potential) branch divergence @  PC=0x3d8 (_1.ptx:242) @%p12 bra $Lt_2_20482;
GPGPU-Sim PTX:    immediate post dominator      @  PC=0x428 (_1.ptx:258) and.b32 %r63, %r6, 256;
GPGPU-Sim PTX: 15 (potential) branch divergence @  PC=0x3e8 (_1.ptx:244) @%p13 bra $Lt_2_20994;
GPGPU-Sim PTX:    immediate post dominator      @  PC=0x428 (_1.ptx:258) and.b32 %r63, %r6, 256;
GPGPU-Sim PTX: 16 (potential) branch divergence @  PC=0x3f8 (_1.ptx:246) bra.uni $Lt_2_20226;
GPGPU-Sim PTX:    immediate post dominator      @  PC=0x428 (_1.ptx:258) and.b32 %r63, %r6, 256;
GPGPU-Sim PTX: 17 (potential) branch divergence @  PC=0x418 (_1.ptx:252) bra.uni $Lt_2_20226;
GPGPU-Sim PTX:    immediate post dominator      @  PC=0x428 (_1.ptx:258) and.b32 %r63, %r6, 256;
GPGPU-Sim PTX: 18 (potential) branch divergence @  PC=0x440 (_1.ptx:261) @%p14 bra $Lt_2_21506;
GPGPU-Sim PTX:    immediate post dominator      @  PC=0x4a0 (_1.ptx:279) bar.sync 0;
GPGPU-Sim PTX: 19 (potential) branch divergence @  PC=0x458 (_1.ptx:264) @%p15 bra $Lt_2_22274;
GPGPU-Sim PTX:    immediate post dominator      @  PC=0x4a0 (_1.ptx:279) bar.sync 0;
GPGPU-Sim PTX: 20 (potential) branch divergence @  PC=0x470 (_1.ptx:267) bra.uni $Lt_2_22274;
GPGPU-Sim PTX:    immediate post dominator      @  PC=0x4a0 (_1.ptx:279) bar.sync 0;
GPGPU-Sim PTX: 21 (potential) branch divergence @  PC=0x488 (_1.ptx:272) @%p16 bra $Lt_2_22274;
GPGPU-Sim PTX:    immediate post dominator      @  PC=0x4a0 (_1.ptx:279) bar.sync 0;
GPGPU-Sim PTX: 22 (potential) branch divergence @  PC=0x4c0 (_1.ptx:284) @%p17 bra $Lt_2_19458;
GPGPU-Sim PTX:    immediate post dominator      @  PC=0x4c8 (_1.ptx:286) ld.shared.v4.s32 {%r68,%r69,%r70,%r71}, [%rd4+0];
GPGPU-Sim PTX: ... end of reconvergence points for _Z21partBitonicSortKernelPviP4int4jii
GPGPU-Sim PTX: ... done pre-decoding instructions for '_Z21partBitonicSortKernelPviP4int4jii'.
GPGPU-Sim PTX: allocating shared region for "__cuda___cuda_local_var_45832_37_non_const_shared4176" from 0x0 to 0x1000 (shared memory space)
GPGPU-Sim PTX: instruction assembly for function '_Z21unitBitonicSortKernelPviP4int4ji'...   done.
GPGPU-Sim PTX: finding reconvergence points for '_Z21unitBitonicSortKernelPviP4int4ji'...
GPGPU-Sim PTX: Finding dominators for '_Z21unitBitonicSortKernelPviP4int4ji'...
GPGPU-Sim PTX: Finding immediate dominators for '_Z21unitBitonicSortKernelPviP4int4ji'...
GPGPU-Sim PTX: Finding postdominators for '_Z21unitBitonicSortKernelPviP4int4ji'...
GPGPU-Sim PTX: Finding immediate postdominators for '_Z21unitBitonicSortKernelPviP4int4ji'...
GPGPU-Sim PTX: pre-decoding instructions for '_Z21unitBitonicSortKernelPviP4int4ji'...
GPGPU-Sim PTX: reconvergence points for _Z21unitBitonicSortKernelPviP4int4ji...
GPGPU-Sim PTX:  1 (potential) branch divergence @  PC=0x5a0 (_1.ptx:332) @%p1 bra $Lt_3_22274;
GPGPU-Sim PTX:    immediate post dominator      @  PC=0x940 (_1.ptx:492) ld.shared.v4.s32 {%r74,%r75,%r76,%r77}, [%rd4+0];
GPGPU-Sim PTX:  2 (potential) branch divergence @  PC=0x5d0 (_1.ptx:341) @%p2 bra $Lt_3_17666;
GPGPU-Sim PTX:    immediate post dominator      @  PC=0x750 (_1.ptx:407) shl.b32 %r17, %r17, 1;
GPGPU-Sim PTX:  3 (potential) branch divergence @  PC=0x610 (_1.ptx:351) @%p3 bra $Lt_3_20994;
GPGPU-Sim PTX:    immediate post dominator      @  PC=0x728 (_1.ptx:399) bar.sync 0;
GPGPU-Sim PTX:  4 (potential) branch divergence @  PC=0x660 (_1.ptx:362) @%p5 bra $Lt_3_19202;
GPGPU-Sim PTX:    immediate post dominator      @  PC=0x6b0 (_1.ptx:378) and.b32 %r40, %r17, %r6;
GPGPU-Sim PTX:  5 (potential) branch divergence @  PC=0x670 (_1.ptx:364) @%p6 bra $Lt_3_19714;
GPGPU-Sim PTX:    immediate post dominator      @  PC=0x6b0 (_1.ptx:378) and.b32 %r40, %r17, %r6;
GPGPU-Sim PTX:  6 (potential) branch divergence @  PC=0x680 (_1.ptx:366) bra.uni $Lt_3_18946;
GPGPU-Sim PTX:    immediate post dominator      @  PC=0x6b0 (_1.ptx:378) and.b32 %r40, %r17, %r6;
GPGPU-Sim PTX:  7 (potential) branch divergence @  PC=0x6a0 (_1.ptx:372) bra.uni $Lt_3_18946;
GPGPU-Sim PTX:    immediate post dominator      @  PC=0x6b0 (_1.ptx:378) and.b32 %r40, %r17, %r6;
GPGPU-Sim PTX:  8 (potential) branch divergence @  PC=0x6c8 (_1.ptx:381) @%p7 bra $Lt_3_20226;
GPGPU-Sim PTX:    immediate post dominator      @  PC=0x728 (_1.ptx:399) bar.sync 0;
GPGPU-Sim PTX:  9 (potential) branch divergence @  PC=0x6e0 (_1.ptx:384) @%p8 bra $Lt_3_20994;
GPGPU-Sim PTX:    immediate post dominator      @  PC=0x728 (_1.ptx:399) bar.sync 0;
GPGPU-Sim PTX: 10 (potential) branch divergence @  PC=0x6f8 (_1.ptx:387) bra.uni $Lt_3_20994;
GPGPU-Sim PTX:    immediate post dominator      @  PC=0x728 (_1.ptx:399) bar.sync 0;
GPGPU-Sim PTX: 11 (potential) branch divergence @  PC=0x710 (_1.ptx:392) @%p9 bra $Lt_3_20994;
GPGPU-Sim PTX:    immediate post dominator      @  PC=0x728 (_1.ptx:399) bar.sync 0;
GPGPU-Sim PTX: 12 (potential) branch divergence @  PC=0x748 (_1.ptx:404) @%p10 bra $Lt_3_18178;
GPGPU-Sim PTX:    immediate post dominator      @  PC=0x750 (_1.ptx:407) shl.b32 %r17, %r17, 1;
GPGPU-Sim PTX: 13 (potential) branch divergence @  PC=0x768 (_1.ptx:410) @%p11 bra $Lt_3_17410;
GPGPU-Sim PTX:    immediate post dominator      @  PC=0x770 (_1.ptx:411) bra.uni $Lt_3_16386;
GPGPU-Sim PTX: 14 (potential) branch divergence @  PC=0x770 (_1.ptx:411) bra.uni $Lt_3_16386;
GPGPU-Sim PTX:    immediate post dominator      @  PC=0x940 (_1.ptx:492) ld.shared.v4.s32 {%r74,%r75,%r76,%r77}, [%rd4+0];
GPGPU-Sim PTX: 15 (potential) branch divergence @  PC=0x7a0 (_1.ptx:421) @%p12 bra $Lt_3_22786;
GPGPU-Sim PTX:    immediate post dominator      @  PC=0x920 (_1.ptx:487) shl.b32 %r46, %r46, 1;
GPGPU-Sim PTX: 16 (potential) branch divergence @  PC=0x7e0 (_1.ptx:431) @%p13 bra $Lt_3_26114;
GPGPU-Sim PTX:    immediate post dominator      @  PC=0x8f8 (_1.ptx:479) bar.sync 0;
GPGPU-Sim PTX: 17 (potential) branch divergence @  PC=0x830 (_1.ptx:442) @%p15 bra $Lt_3_24322;
GPGPU-Sim PTX:    immediate post dominator      @  PC=0x880 (_1.ptx:458) and.b32 %r68, %r46, %r6;
GPGPU-Sim PTX: 18 (potential) branch divergence @  PC=0x840 (_1.ptx:444) @%p16 bra $Lt_3_24834;
GPGPU-Sim PTX:    immediate post dominator      @  PC=0x880 (_1.ptx:458) and.b32 %r68, %r46, %r6;
GPGPU-Sim PTX: 19 (potential) branch divergence @  PC=0x850 (_1.ptx:446) bra.uni $Lt_3_24066;
GPGPU-Sim PTX:    immediate post dominator      @  PC=0x880 (_1.ptx:458) and.b32 %r68, %r46, %r6;
GPGPU-Sim PTX: 20 (potential) branch divergence @  PC=0x870 (_1.ptx:452) bra.uni $Lt_3_24066;
GPGPU-Sim PTX:    immediate post dominator      @  PC=0x880 (_1.ptx:458) and.b32 %r68, %r46, %r6;
GPGPU-Sim PTX: 21 (potential) branch divergence @  PC=0x898 (_1.ptx:461) @%p17 bra $Lt_3_25346;
GPGPU-Sim PTX:    immediate post dominator      @  PC=0x8f8 (_1.ptx:479) bar.sync 0;
GPGPU-Sim PTX: 22 (potential) branch divergence @  PC=0x8b0 (_1.ptx:464) @%p18 bra $Lt_3_26114;
GPGPU-Sim PTX:    immediate post dominator      @  PC=0x8f8 (_1.ptx:479) bar.sync 0;
GPGPU-Sim PTX: 23 (potential) branch divergence @  PC=0x8c8 (_1.ptx:467) bra.uni $Lt_3_26114;
GPGPU-Sim PTX:    immediate post dominator      @  PC=0x8f8 (_1.ptx:479) bar.sync 0;
GPGPU-Sim PTX: 24 (potential) branch divergence @  PC=0x8e0 (_1.ptx:472) @%p19 bra $Lt_3_26114;
GPGPU-Sim PTX:    immediate post dominator      @  PC=0x8f8 (_1.ptx:479) bar.sync 0;
GPGPU-Sim PTX: 25 (potential) branch divergence @  PC=0x918 (_1.ptx:484) @%p20 bra $Lt_3_23298;
GPGPU-Sim PTX:    immediate post dominator      @  PC=0x920 (_1.ptx:487) shl.b32 %r46, %r46, 1;
GPGPU-Sim PTX: 26 (potential) branch divergence @  PC=0x938 (_1.ptx:490) @%p21 bra $Lt_3_22530;
GPGPU-Sim PTX:    immediate post dominator      @  PC=0x940 (_1.ptx:492) ld.shared.v4.s32 {%r74,%r75,%r76,%r77}, [%rd4+0];
GPGPU-Sim PTX: ... end of reconvergence points for _Z21unitBitonicSortKernelPviP4int4ji
GPGPU-Sim PTX: ... done pre-decoding instructions for '_Z21unitBitonicSortKernelPviP4int4ji'.
GPGPU-Sim PTX: instruction assembly for function '_Z13bitonicKernelPviP4int4jii'...   done.
GPGPU-Sim PTX: finding reconvergence points for '_Z13bitonicKernelPviP4int4jii'...
GPGPU-Sim PTX: Finding dominators for '_Z13bitonicKernelPviP4int4jii'...
GPGPU-Sim PTX: Finding immediate dominators for '_Z13bitonicKernelPviP4int4jii'...
GPGPU-Sim PTX: Finding postdominators for '_Z13bitonicKernelPviP4int4jii'...
GPGPU-Sim PTX: Finding immediate postdominators for '_Z13bitonicKernelPviP4int4jii'...
GPGPU-Sim PTX: pre-decoding instructions for '_Z13bitonicKernelPviP4int4jii'...
GPGPU-Sim PTX: reconvergence points for _Z13bitonicKernelPviP4int4jii...
GPGPU-Sim PTX:  1 (potential) branch divergence @  PC=0x9b8 (_1.ptx:524) @%p1 bra $Lt_4_12034;
GPGPU-Sim PTX:    immediate post dominator      @  PC=0xb80 (_1.ptx:602) exit;
GPGPU-Sim PTX:  2 (potential) branch divergence @  PC=0xa60 (_1.ptx:547) @%p4 bra $Lt_4_9218;
GPGPU-Sim PTX:    immediate post dominator      @  PC=0xb80 (_1.ptx:602) exit;
GPGPU-Sim PTX:  3 (potential) branch divergence @  PC=0xa78 (_1.ptx:551) @%p5 bra $Lt_4_9730;
GPGPU-Sim PTX:    immediate post dominator      @  PC=0xac8 (_1.ptx:567) mov.u32 %r32, 1;
GPGPU-Sim PTX:  4 (potential) branch divergence @  PC=0xa88 (_1.ptx:553) @%p6 bra $Lt_4_10242;
GPGPU-Sim PTX:    immediate post dominator      @  PC=0xac8 (_1.ptx:567) mov.u32 %r32, 1;
GPGPU-Sim PTX:  5 (potential) branch divergence @  PC=0xa98 (_1.ptx:555) bra.uni $Lt_4_9474;
GPGPU-Sim PTX:    immediate post dominator      @  PC=0xac8 (_1.ptx:567) mov.u32 %r32, 1;
GPGPU-Sim PTX:  6 (potential) branch divergence @  PC=0xab8 (_1.ptx:561) bra.uni $Lt_4_9474;
GPGPU-Sim PTX:    immediate post dominator      @  PC=0xac8 (_1.ptx:567) mov.u32 %r32, 1;
GPGPU-Sim PTX:  7 (potential) branch divergence @  PC=0xad8 (_1.ptx:569) @%p7 bra $Lt_4_12034;
GPGPU-Sim PTX:    immediate post dominator      @  PC=0xb80 (_1.ptx:602) exit;
GPGPU-Sim PTX:  8 (potential) branch divergence @  PC=0xaf0 (_1.ptx:572) bra.uni $Lt_4_12034;
GPGPU-Sim PTX:    immediate post dominator      @  PC=0xb80 (_1.ptx:602) exit;
GPGPU-Sim PTX:  9 (potential) branch divergence @  PC=0xb08 (_1.ptx:577) @%p8 bra $Lt_4_11266;
GPGPU-Sim PTX:    immediate post dominator      @  PC=0xb58 (_1.ptx:593) mov.u32 %r36, -1;
GPGPU-Sim PTX: 10 (potential) branch divergence @  PC=0xb18 (_1.ptx:579) @%p9 bra $Lt_4_11778;
GPGPU-Sim PTX:    immediate post dominator      @  PC=0xb58 (_1.ptx:593) mov.u32 %r36, -1;
GPGPU-Sim PTX: 11 (potential) branch divergence @  PC=0xb28 (_1.ptx:581) bra.uni $Lt_4_11010;
GPGPU-Sim PTX:    immediate post dominator      @  PC=0xb58 (_1.ptx:593) mov.u32 %r36, -1;
GPGPU-Sim PTX: 12 (potential) branch divergence @  PC=0xb48 (_1.ptx:587) bra.uni $Lt_4_11010;
GPGPU-Sim PTX:    immediate post dominator      @  PC=0xb58 (_1.ptx:593) mov.u32 %r36, -1;
GPGPU-Sim PTX: 13 (potential) branch divergence @  PC=0xb68 (_1.ptx:595) @%p10 bra $Lt_4_12034;
GPGPU-Sim PTX:    immediate post dominator      @  PC=0xb80 (_1.ptx:602) exit;
GPGPU-Sim PTX: ... end of reconvergence points for _Z13bitonicKernelPviP4int4jii
GPGPU-Sim PTX: ... done pre-decoding instructions for '_Z13bitonicKernelPviP4int4jii'.
GPGPU-Sim PTX: allocating shared region for "__cuda___cuda_local_var_45969_37_non_const_bs_cmpbuf8352" from 0x0 to 0x1000 (shared memory space)
GPGPU-Sim PTX: instruction assembly for function '_Z29bitonicSortSingleBlock_kernelPviP4int4iS1_'...   done.
GPGPU-Sim PTX: finding reconvergence points for '_Z29bitonicSortSingleBlock_kernelPviP4int4iS1_'...
GPGPU-Sim PTX: Finding dominators for '_Z29bitonicSortSingleBlock_kernelPviP4int4iS1_'...
GPGPU-Sim PTX: Finding immediate dominators for '_Z29bitonicSortSingleBlock_kernelPviP4int4iS1_'...
GPGPU-Sim PTX: Finding postdominators for '_Z29bitonicSortSingleBlock_kernelPviP4int4iS1_'...
GPGPU-Sim PTX: Finding immediate postdominators for '_Z29bitonicSortSingleBlock_kernelPviP4int4iS1_'...
GPGPU-Sim PTX: pre-decoding instructions for '_Z29bitonicSortSingleBlock_kernelPviP4int4iS1_'...
GPGPU-Sim PTX: reconvergence points for _Z29bitonicSortSingleBlock_kernelPviP4int4iS1_...
GPGPU-Sim PTX:  1 (potential) branch divergence @  PC=0xbe0 (_1.ptx:630) @%p1 bra $Lt_5_12290;
GPGPU-Sim PTX:    immediate post dominator      @  PC=0xc20 (_1.ptx:643) bar.sync 0;
GPGPU-Sim PTX:  2 (potential) branch divergence @  PC=0xc08 (_1.ptx:636) bra.uni $Lt_5_12034;
GPGPU-Sim PTX:    immediate post dominator      @  PC=0xc20 (_1.ptx:643) bar.sync 0;
GPGPU-Sim PTX:  3 (potential) branch divergence @  PC=0xc70 (_1.ptx:656) @%p2 bra $Lt_5_13314;
GPGPU-Sim PTX:    immediate post dominator      @  PC=0xec8 (_1.ptx:754) mul.lo.s32 %r12, %r12, 2;
GPGPU-Sim PTX:  4 (potential) branch divergence @  PC=0xc88 (_1.ptx:660) @%p3 bra $Lt_5_17666;
GPGPU-Sim PTX:    immediate post dominator      @  PC=0xe80 (_1.ptx:742) bar.sync 0;
GPGPU-Sim PTX:  5 (potential) branch divergence @  PC=0xcd0 (_1.ptx:669) @%p4 bra $Lt_5_14850;
GPGPU-Sim PTX:    immediate post dominator      @  PC=0xe80 (_1.ptx:742) bar.sync 0;
GPGPU-Sim PTX:  6 (potential) branch divergence @  PC=0xd20 (_1.ptx:680) @%p6 bra $Lt_5_15362;
GPGPU-Sim PTX:    immediate post dominator      @  PC=0xd70 (_1.ptx:696) mov.u32 %r35, 0;
GPGPU-Sim PTX:  7 (potential) branch divergence @  PC=0xd30 (_1.ptx:682) @%p7 bra $Lt_5_15874;
GPGPU-Sim PTX:    immediate post dominator      @  PC=0xd70 (_1.ptx:696) mov.u32 %r35, 0;
GPGPU-Sim PTX:  8 (potential) branch divergence @  PC=0xd40 (_1.ptx:684) bra.uni $Lt_5_15106;
GPGPU-Sim PTX:    immediate post dominator      @  PC=0xd70 (_1.ptx:696) mov.u32 %r35, 0;
GPGPU-Sim PTX:  9 (potential) branch divergence @  PC=0xd60 (_1.ptx:690) bra.uni $Lt_5_15106;
GPGPU-Sim PTX:    immediate post dominator      @  PC=0xd70 (_1.ptx:696) mov.u32 %r35, 0;
GPGPU-Sim PTX: 10 (potential) branch divergence @  PC=0xd80 (_1.ptx:698) @%p8 bra $Lt_5_17666;
GPGPU-Sim PTX:    immediate post dominator      @  PC=0xe80 (_1.ptx:742) bar.sync 0;
GPGPU-Sim PTX: 11 (potential) branch divergence @  PC=0xda8 (_1.ptx:703) bra.uni $Lt_5_17666;
GPGPU-Sim PTX:    immediate post dominator      @  PC=0xe80 (_1.ptx:742) bar.sync 0;
GPGPU-Sim PTX: 12 (potential) branch divergence @  PC=0xdf8 (_1.ptx:715) @%p9 bra $Lt_5_16898;
GPGPU-Sim PTX:    immediate post dominator      @  PC=0xe48 (_1.ptx:731) mov.u32 %r51, 0;
GPGPU-Sim PTX: 13 (potential) branch divergence @  PC=0xe08 (_1.ptx:717) @%p10 bra $Lt_5_17410;
GPGPU-Sim PTX:    immediate post dominator      @  PC=0xe48 (_1.ptx:731) mov.u32 %r51, 0;
GPGPU-Sim PTX: 14 (potential) branch divergence @  PC=0xe18 (_1.ptx:719) bra.uni $Lt_5_16642;
GPGPU-Sim PTX:    immediate post dominator      @  PC=0xe48 (_1.ptx:731) mov.u32 %r51, 0;
GPGPU-Sim PTX: 15 (potential) branch divergence @  PC=0xe38 (_1.ptx:725) bra.uni $Lt_5_16642;
GPGPU-Sim PTX:    immediate post dominator      @  PC=0xe48 (_1.ptx:731) mov.u32 %r51, 0;
GPGPU-Sim PTX: 16 (potential) branch divergence @  PC=0xe58 (_1.ptx:733) @%p11 bra $Lt_5_17666;
GPGPU-Sim PTX:    immediate post dominator      @  PC=0xe80 (_1.ptx:742) bar.sync 0;
GPGPU-Sim PTX: 17 (potential) branch divergence @  PC=0xec0 (_1.ptx:751) @%p12 bra $Lt_5_13826;
GPGPU-Sim PTX:    immediate post dominator      @  PC=0xec8 (_1.ptx:754) mul.lo.s32 %r12, %r12, 2;
GPGPU-Sim PTX: 18 (potential) branch divergence @  PC=0xee0 (_1.ptx:757) @%p13 bra $Lt_5_13058;
GPGPU-Sim PTX:    immediate post dominator      @  PC=0xee8 (_1.ptx:758) mov.s32 %r64, 256;
GPGPU-Sim PTX: 19 (potential) branch divergence @  PC=0xf00 (_1.ptx:761) @%p14 bra $Lt_5_18690;
GPGPU-Sim PTX:    immediate post dominator      @  PC=0xf40 (_1.ptx:772) exit;
GPGPU-Sim PTX: ... end of reconvergence points for _Z29bitonicSortSingleBlock_kernelPviP4int4iS1_
GPGPU-Sim PTX: ... done pre-decoding instructions for '_Z29bitonicSortSingleBlock_kernelPviP4int4iS1_'.
GPGPU-Sim PTX: allocating shared region for "__cuda___cuda_local_var_46044_40_non_const_bs_shared12496" from 0x0 to 0x1000 (shared memory space)
GPGPU-Sim PTX: allocating shared region for "__cuda_local_var_46041_30_non_const_bs_pStart" from 0x1000 to 0x1004 (shared memory space)
GPGPU-Sim PTX: allocating shared region for "__cuda_local_var_46042_30_non_const_bs_pEnd" from 0x1004 to 0x1008 (shared memory space)
GPGPU-Sim PTX: allocating shared region for "__cuda_local_var_46043_30_non_const_bs_numElement" from 0x1008 to 0x100c (shared memory space)
GPGPU-Sim PTX: instruction assembly for function '_Z32bitonicSortMultipleBlocks_kernelPviP4int4PiiiS1_'...   done.
GPGPU-Sim PTX: finding reconvergence points for '_Z32bitonicSortMultipleBlocks_kernelPviP4int4PiiiS1_'...
GPGPU-Sim PTX: Finding dominators for '_Z32bitonicSortMultipleBlocks_kernelPviP4int4PiiiS1_'...
GPGPU-Sim PTX: Finding immediate dominators for '_Z32bitonicSortMultipleBlocks_kernelPviP4int4PiiiS1_'...
GPGPU-Sim PTX: Finding postdominators for '_Z32bitonicSortMultipleBlocks_kernelPviP4int4PiiiS1_'...
GPGPU-Sim PTX: Finding immediate postdominators for '_Z32bitonicSortMultipleBlocks_kernelPviP4int4PiiiS1_'...
GPGPU-Sim PTX: pre-decoding instructions for '_Z32bitonicSortMultipleBlocks_kernelPviP4int4PiiiS1_'...
GPGPU-Sim PTX: reconvergence points for _Z32bitonicSortMultipleBlocks_kernelPviP4int4PiiiS1_...
GPGPU-Sim PTX:  1 (potential) branch divergence @  PC=0xf80 (_1.ptx:801) @%p1 bra $Lt_6_13570;
GPGPU-Sim PTX:    immediate post dominator      @  PC=0x13e8 (_1.ptx:983) exit;
GPGPU-Sim PTX:  2 (potential) branch divergence @  PC=0xf88 (_1.ptx:802) bra.uni $LBB34__Z32bitonicSortMultipleBlocks_kernelPviP4int4PiiiS1_;
GPGPU-Sim PTX:    immediate post dominator      @  PC=0x13e8 (_1.ptx:983) exit;
GPGPU-Sim PTX:  3 (potential) branch divergence @  PC=0xfc8 (_1.ptx:812) @%p2 bra $Lt_6_14082;
GPGPU-Sim PTX:    immediate post dominator      @  PC=0x1038 (_1.ptx:831) bar.sync 0;
GPGPU-Sim PTX:  4 (potential) branch divergence @  PC=0x1070 (_1.ptx:838) @%p3 bra $Lt_6_14850;
GPGPU-Sim PTX:    immediate post dominator      @  PC=0x10d0 (_1.ptx:855) bar.sync 0;
GPGPU-Sim PTX:  5 (potential) branch divergence @  PC=0x10b8 (_1.ptx:848) bra.uni $Lt_6_14594;
GPGPU-Sim PTX:    immediate post dominator      @  PC=0x10d0 (_1.ptx:855) bar.sync 0;
GPGPU-Sim PTX:  6 (potential) branch divergence @  PC=0x1120 (_1.ptx:868) @%p4 bra $Lt_6_15874;
GPGPU-Sim PTX:    immediate post dominator      @  PC=0x1378 (_1.ptx:966) mul.lo.s32 %r27, %r27, 2;
GPGPU-Sim PTX:  7 (potential) branch divergence @  PC=0x1138 (_1.ptx:872) @%p5 bra $Lt_6_20226;
GPGPU-Sim PTX:    immediate post dominator      @  PC=0x1330 (_1.ptx:954) bar.sync 0;
GPGPU-Sim PTX:  8 (potential) branch divergence @  PC=0x1180 (_1.ptx:881) @%p6 bra $Lt_6_17410;
GPGPU-Sim PTX:    immediate post dominator      @  PC=0x1330 (_1.ptx:954) bar.sync 0;
GPGPU-Sim PTX:  9 (potential) branch divergence @  PC=0x11d0 (_1.ptx:892) @%p8 bra $Lt_6_17922;
GPGPU-Sim PTX:    immediate post dominator      @  PC=0x1220 (_1.ptx:908) mov.u32 %r50, 0;
GPGPU-Sim PTX: 10 (potential) branch divergence @  PC=0x11e0 (_1.ptx:894) @%p9 bra $Lt_6_18434;
GPGPU-Sim PTX:    immediate post dominator      @  PC=0x1220 (_1.ptx:908) mov.u32 %r50, 0;
GPGPU-Sim PTX: 11 (potential) branch divergence @  PC=0x11f0 (_1.ptx:896) bra.uni $Lt_6_17666;
GPGPU-Sim PTX:    immediate post dominator      @  PC=0x1220 (_1.ptx:908) mov.u32 %r50, 0;
GPGPU-Sim PTX: 12 (potential) branch divergence @  PC=0x1210 (_1.ptx:902) bra.uni $Lt_6_17666;
GPGPU-Sim PTX:    immediate post dominator      @  PC=0x1220 (_1.ptx:908) mov.u32 %r50, 0;
GPGPU-Sim PTX: 13 (potential) branch divergence @  PC=0x1230 (_1.ptx:910) @%p10 bra $Lt_6_20226;
GPGPU-Sim PTX:    immediate post dominator      @  PC=0x1330 (_1.ptx:954) bar.sync 0;
GPGPU-Sim PTX: 14 (potential) branch divergence @  PC=0x1258 (_1.ptx:915) bra.uni $Lt_6_20226;
GPGPU-Sim PTX:    immediate post dominator      @  PC=0x1330 (_1.ptx:954) bar.sync 0;
GPGPU-Sim PTX: 15 (potential) branch divergence @  PC=0x12a8 (_1.ptx:927) @%p11 bra $Lt_6_19458;
GPGPU-Sim PTX:    immediate post dominator      @  PC=0x12f8 (_1.ptx:943) mov.u32 %r66, 0;
GPGPU-Sim PTX: 16 (potential) branch divergence @  PC=0x12b8 (_1.ptx:929) @%p12 bra $Lt_6_19970;
GPGPU-Sim PTX:    immediate post dominator      @  PC=0x12f8 (_1.ptx:943) mov.u32 %r66, 0;
GPGPU-Sim PTX: 17 (potential) branch divergence @  PC=0x12c8 (_1.ptx:931) bra.uni $Lt_6_19202;
GPGPU-Sim PTX:    immediate post dominator      @  PC=0x12f8 (_1.ptx:943) mov.u32 %r66, 0;
GPGPU-Sim PTX: 18 (potential) branch divergence @  PC=0x12e8 (_1.ptx:937) bra.uni $Lt_6_19202;
GPGPU-Sim PTX:    immediate post dominator      @  PC=0x12f8 (_1.ptx:943) mov.u32 %r66, 0;
GPGPU-Sim PTX: 19 (potential) branch divergence @  PC=0x1308 (_1.ptx:945) @%p13 bra $Lt_6_20226;
GPGPU-Sim PTX:    immediate post dominator      @  PC=0x1330 (_1.ptx:954) bar.sync 0;
GPGPU-Sim PTX: 20 (potential) branch divergence @  PC=0x1370 (_1.ptx:963) @%p14 bra $Lt_6_16386;
GPGPU-Sim PTX:    immediate post dominator      @  PC=0x1378 (_1.ptx:966) mul.lo.s32 %r27, %r27, 2;
GPGPU-Sim PTX: 21 (potential) branch divergence @  PC=0x1390 (_1.ptx:969) @%p15 bra $Lt_6_15618;
GPGPU-Sim PTX:    immediate post dominator      @  PC=0x1398 (_1.ptx:970) ld.shared.s32 %r79, [__cuda_local_var_46043_30_non_const_bs_numElement];
GPGPU-Sim PTX: 22 (potential) branch divergence @  PC=0x13a8 (_1.ptx:972) @%p16 bra $LBB34__Z32bitonicSortMultipleBlocks_kernelPviP4int4PiiiS1_;
GPGPU-Sim PTX:    immediate post dominator      @  PC=0x13e8 (_1.ptx:983) exit;
GPGPU-Sim PTX: ... end of reconvergence points for _Z32bitonicSortMultipleBlocks_kernelPviP4int4PiiiS1_
GPGPU-Sim PTX: ... done pre-decoding instructions for '_Z32bitonicSortMultipleBlocks_kernelPviP4int4PiiiS1_'.
GPGPU-Sim PTX: instruction assembly for function '_Z17initialize_kernelP4int4iiS_'...   done.
GPGPU-Sim PTX: finding reconvergence points for '_Z17initialize_kernelP4int4iiS_'...
GPGPU-Sim PTX: Finding dominators for '_Z17initialize_kernelP4int4iiS_'...
GPGPU-Sim PTX: Finding immediate dominators for '_Z17initialize_kernelP4int4iiS_'...
GPGPU-Sim PTX: Finding postdominators for '_Z17initialize_kernelP4int4iiS_'...
GPGPU-Sim PTX: Finding immediate postdominators for '_Z17initialize_kernelP4int4iiS_'...
GPGPU-Sim PTX: pre-decoding instructions for '_Z17initialize_kernelP4int4iiS_'...
GPGPU-Sim PTX: reconvergence points for _Z17initialize_kernelP4int4iiS_...
GPGPU-Sim PTX:  1 (potential) branch divergence @  PC=0x1478 (_1.ptx:1015) @%p1 bra $Lt_7_1026;
GPGPU-Sim PTX:    immediate post dominator      @  PC=0x14c8 (_1.ptx:1028) exit;
GPGPU-Sim PTX: ... end of reconvergence points for _Z17initialize_kernelP4int4iiS_
GPGPU-Sim PTX: ... done pre-decoding instructions for '_Z17initialize_kernelP4int4iiS_'.
GPGPU-Sim PTX: instruction assembly for function '_Z19getIntYArray_kernelP4int2iiPi'...   done.
GPGPU-Sim PTX: finding reconvergence points for '_Z19getIntYArray_kernelP4int2iiPi'...
GPGPU-Sim PTX: Finding dominators for '_Z19getIntYArray_kernelP4int2iiPi'...
GPGPU-Sim PTX: Finding immediate dominators for '_Z19getIntYArray_kernelP4int2iiPi'...
GPGPU-Sim PTX: Finding postdominators for '_Z19getIntYArray_kernelP4int2iiPi'...
GPGPU-Sim PTX: Finding immediate postdominators for '_Z19getIntYArray_kernelP4int2iiPi'...
GPGPU-Sim PTX: pre-decoding instructions for '_Z19getIntYArray_kernelP4int2iiPi'...
GPGPU-Sim PTX: reconvergence points for _Z19getIntYArray_kernelP4int2iiPi...
GPGPU-Sim PTX:  1 (potential) branch divergence @  PC=0x1558 (_1.ptx:1060) @%p1 bra $Lt_8_1026;
GPGPU-Sim PTX:    immediate post dominator      @  PC=0x15a8 (_1.ptx:1073) exit;
GPGPU-Sim PTX: ... end of reconvergence points for _Z19getIntYArray_kernelP4int2iiPi
GPGPU-Sim PTX: ... done pre-decoding instructions for '_Z19getIntYArray_kernelP4int2iiPi'.
GPGPU-Sim PTX: instruction assembly for function '_Z17getXYArray_kernelP4int4iiP4int2'...   done.
GPGPU-Sim PTX: finding reconvergence points for '_Z17getXYArray_kernelP4int4iiP4int2'...
GPGPU-Sim PTX: Finding dominators for '_Z17getXYArray_kernelP4int4iiP4int2'...
GPGPU-Sim PTX: Finding immediate dominators for '_Z17getXYArray_kernelP4int4iiP4int2'...
GPGPU-Sim PTX: Finding postdominators for '_Z17getXYArray_kernelP4int4iiP4int2'...
GPGPU-Sim PTX: Finding immediate postdominators for '_Z17getXYArray_kernelP4int4iiP4int2'...
GPGPU-Sim PTX: pre-decoding instructions for '_Z17getXYArray_kernelP4int4iiP4int2'...
GPGPU-Sim PTX: reconvergence points for _Z17getXYArray_kernelP4int4iiP4int2...
GPGPU-Sim PTX:  1 (potential) branch divergence @  PC=0x1638 (_1.ptx:1105) @%p1 bra $Lt_9_1026;
GPGPU-Sim PTX:    immediate post dominator      @  PC=0x1688 (_1.ptx:1119) exit;
GPGPU-Sim PTX: ... end of reconvergence points for _Z17getXYArray_kernelP4int4iiP4int2
GPGPU-Sim PTX: ... done pre-decoding instructions for '_Z17getXYArray_kernelP4int4iiP4int2'.
GPGPU-Sim PTX: instruction assembly for function '_Z17getZWArray_kernelP4int4iiP4int2'...   done.
GPGPU-Sim PTX: finding reconvergence points for '_Z17getZWArray_kernelP4int4iiP4int2'...
GPGPU-Sim PTX: Finding dominators for '_Z17getZWArray_kernelP4int4iiP4int2'...
GPGPU-Sim PTX: Finding immediate dominators for '_Z17getZWArray_kernelP4int4iiP4int2'...
GPGPU-Sim PTX: Finding postdominators for '_Z17getZWArray_kernelP4int4iiP4int2'...
GPGPU-Sim PTX: Finding immediate postdominators for '_Z17getZWArray_kernelP4int4iiP4int2'...
GPGPU-Sim PTX: pre-decoding instructions for '_Z17getZWArray_kernelP4int4iiP4int2'...
GPGPU-Sim PTX: reconvergence points for _Z17getZWArray_kernelP4int4iiP4int2...
GPGPU-Sim PTX:  1 (potential) branch divergence @  PC=0x1718 (_1.ptx:1151) @%p1 bra $Lt_10_1026;
GPGPU-Sim PTX:    immediate post dominator      @  PC=0x1768 (_1.ptx:1165) exit;
GPGPU-Sim PTX: ... end of reconvergence points for _Z17getZWArray_kernelP4int4iiP4int2
GPGPU-Sim PTX: ... done pre-decoding instructions for '_Z17getZWArray_kernelP4int4iiP4int2'.
GPGPU-Sim PTX: instruction assembly for function '_Z17setXYArray_kernelP4int4iiP4int2'...   done.
GPGPU-Sim PTX: finding reconvergence points for '_Z17setXYArray_kernelP4int4iiP4int2'...
GPGPU-Sim PTX: Finding dominators for '_Z17setXYArray_kernelP4int4iiP4int2'...
GPGPU-Sim PTX: Finding immediate dominators for '_Z17setXYArray_kernelP4int4iiP4int2'...
GPGPU-Sim PTX: Finding postdominators for '_Z17setXYArray_kernelP4int4iiP4int2'...
GPGPU-Sim PTX: Finding immediate postdominators for '_Z17setXYArray_kernelP4int4iiP4int2'...
GPGPU-Sim PTX: pre-decoding instructions for '_Z17setXYArray_kernelP4int4iiP4int2'...
GPGPU-Sim PTX: reconvergence points for _Z17setXYArray_kernelP4int4iiP4int2...
GPGPU-Sim PTX:  1 (potential) branch divergence @  PC=0x17f8 (_1.ptx:1197) @%p1 bra $Lt_11_1026;
GPGPU-Sim PTX:    immediate post dominator      @  PC=0x1850 (_1.ptx:1212) exit;
GPGPU-Sim PTX: ... end of reconvergence points for _Z17setXYArray_kernelP4int4iiP4int2
GPGPU-Sim PTX: ... done pre-decoding instructions for '_Z17setXYArray_kernelP4int4iiP4int2'.
GPGPU-Sim PTX: instruction assembly for function '_Z17setZWArray_kernelP4int4iiP4int2'...   done.
GPGPU-Sim PTX: finding reconvergence points for '_Z17setZWArray_kernelP4int4iiP4int2'...
GPGPU-Sim PTX: Finding dominators for '_Z17setZWArray_kernelP4int4iiP4int2'...
GPGPU-Sim PTX: Finding immediate dominators for '_Z17setZWArray_kernelP4int4iiP4int2'...
GPGPU-Sim PTX: Finding postdominators for '_Z17setZWArray_kernelP4int4iiP4int2'...
GPGPU-Sim PTX: Finding immediate postdominators for '_Z17setZWArray_kernelP4int4iiP4int2'...
GPGPU-Sim PTX: pre-decoding instructions for '_Z17setZWArray_kernelP4int4iiP4int2'...
GPGPU-Sim PTX: reconvergence points for _Z17setZWArray_kernelP4int4iiP4int2...
GPGPU-Sim PTX:  1 (potential) branch divergence @  PC=0x18e0 (_1.ptx:1244) @%p1 bra $Lt_12_1026;
GPGPU-Sim PTX:    immediate post dominator      @  PC=0x1940 (_1.ptx:1261) exit;
GPGPU-Sim PTX: ... end of reconvergence points for _Z17setZWArray_kernelP4int4iiP4int2
GPGPU-Sim PTX: ... done pre-decoding instructions for '_Z17setZWArray_kernelP4int4iiP4int2'.
GPGPU-Sim PTX: instruction assembly for function '_Z17copyChunks_kernelPviP4int2iPiS_'...   done.
GPGPU-Sim PTX: finding reconvergence points for '_Z17copyChunks_kernelPviP4int2iPiS_'...
GPGPU-Sim PTX: Finding dominators for '_Z17copyChunks_kernelPviP4int2iPiS_'...
GPGPU-Sim PTX: Finding immediate dominators for '_Z17copyChunks_kernelPviP4int2iPiS_'...
GPGPU-Sim PTX: Finding postdominators for '_Z17copyChunks_kernelPviP4int2iPiS_'...
GPGPU-Sim PTX: Finding immediate postdominators for '_Z17copyChunks_kernelPviP4int2iPiS_'...
GPGPU-Sim PTX: pre-decoding instructions for '_Z17copyChunks_kernelPviP4int2iPiS_'...
GPGPU-Sim PTX: reconvergence points for _Z17copyChunks_kernelPviP4int2iPiS_...
GPGPU-Sim PTX:  1 (potential) branch divergence @  PC=0x19d0 (_1.ptx:1295) @%p1 bra $Lt_13_2050;
GPGPU-Sim PTX:    immediate post dominator      @  PC=0x1ac8 (_1.ptx:1334) exit;
GPGPU-Sim PTX:  2 (potential) branch divergence @  PC=0x1a30 (_1.ptx:1309) @%p2 bra $Lt_13_2562;
GPGPU-Sim PTX:    immediate post dominator      @  PC=0x1ac0 (_1.ptx:1331) st.global.v2.s32 [%rd4+0], {%r19,%r18};
GPGPU-Sim PTX:  3 (potential) branch divergence @  PC=0x1ab8 (_1.ptx:1329) @%p3 bra $Lt_13_3074;
GPGPU-Sim PTX:    immediate post dominator      @  PC=0x1ac0 (_1.ptx:1331) st.global.v2.s32 [%rd4+0], {%r19,%r18};
GPGPU-Sim PTX: ... end of reconvergence points for _Z17copyChunks_kernelPviP4int2iPiS_
GPGPU-Sim PTX: ... done pre-decoding instructions for '_Z17copyChunks_kernelPviP4int2iPiS_'.
GPGPU-Sim PTX: instruction assembly for function '_Z23getChunkBoundary_kernelPviP4int4iPi'...   done.
GPGPU-Sim PTX: finding reconvergence points for '_Z23getChunkBoundary_kernelPviP4int4iPi'...
GPGPU-Sim PTX: Finding dominators for '_Z23getChunkBoundary_kernelPviP4int4iPi'...
GPGPU-Sim PTX: Finding immediate dominators for '_Z23getChunkBoundary_kernelPviP4int4iPi'...
GPGPU-Sim PTX: Finding postdominators for '_Z23getChunkBoundary_kernelPviP4int4iPi'...
GPGPU-Sim PTX: Finding immediate postdominators for '_Z23getChunkBoundary_kernelPviP4int4iPi'...
GPGPU-Sim PTX: pre-decoding instructions for '_Z23getChunkBoundary_kernelPviP4int4iPi'...
GPGPU-Sim PTX: reconvergence points for _Z23getChunkBoundary_kernelPviP4int4iPi...
GPGPU-Sim PTX:  1 (potential) branch divergence @  PC=0x1b58 (_1.ptx:1367) @%p1 bra $Lt_14_5122;
GPGPU-Sim PTX:    immediate post dominator      @  PC=0x1c88 (_1.ptx:1419) exit;
GPGPU-Sim PTX:  2 (potential) branch divergence @  PC=0x1b78 (_1.ptx:1371) @%p2 bra $Lt_14_5890;
GPGPU-Sim PTX:    immediate post dominator      @  PC=0x1c68 (_1.ptx:1413) ld.param.u64 %rd5, [__cudaparm__Z23getChunkBoundary_kernelPviP4int4iPi_d_startArray];
GPGPU-Sim PTX:  3 (potential) branch divergence @  PC=0x1b88 (_1.ptx:1373) bra.uni $Lt_14_5634;
GPGPU-Sim PTX:    immediate post dominator      @  PC=0x1c68 (_1.ptx:1413) ld.param.u64 %rd5, [__cudaparm__Z23getChunkBoundary_kernelPviP4int4iPi_d_startArray];
GPGPU-Sim PTX:  4 (potential) branch divergence @  PC=0x1c00 (_1.ptx:1392) @%p4 bra $Lt_14_6402;
GPGPU-Sim PTX:    immediate post dominator      @  PC=0x1c50 (_1.ptx:1408) mov.s32 %r31, 0;
GPGPU-Sim PTX:  5 (potential) branch divergence @  PC=0x1c10 (_1.ptx:1394) @%p5 bra $Lt_14_6914;
GPGPU-Sim PTX:    immediate post dominator      @  PC=0x1c50 (_1.ptx:1408) mov.s32 %r31, 0;
GPGPU-Sim PTX:  6 (potential) branch divergence @  PC=0x1c20 (_1.ptx:1396) bra.uni $Lt_14_6146;
GPGPU-Sim PTX:    immediate post dominator      @  PC=0x1c50 (_1.ptx:1408) mov.s32 %r31, 0;
GPGPU-Sim PTX:  7 (potential) branch divergence @  PC=0x1c40 (_1.ptx:1402) bra.uni $Lt_14_6146;
GPGPU-Sim PTX:    immediate post dominator      @  PC=0x1c50 (_1.ptx:1408) mov.s32 %r31, 0;
GPGPU-Sim PTX: ... end of reconvergence points for _Z23getChunkBoundary_kernelPviP4int4iPi
GPGPU-Sim PTX: ... done pre-decoding instructions for '_Z23getChunkBoundary_kernelPviP4int4iPi'.
GPGPU-Sim PTX: instruction assembly for function '_Z22setBoundaryInt2_kernelPiiiiP4int2'...   done.
GPGPU-Sim PTX: finding reconvergence points for '_Z22setBoundaryInt2_kernelPiiiiP4int2'...
GPGPU-Sim PTX: Finding dominators for '_Z22setBoundaryInt2_kernelPiiiiP4int2'...
GPGPU-Sim PTX: Finding immediate dominators for '_Z22setBoundaryInt2_kernelPiiiiP4int2'...
GPGPU-Sim PTX: Finding postdominators for '_Z22setBoundaryInt2_kernelPiiiiP4int2'...
GPGPU-Sim PTX: Finding immediate postdominators for '_Z22setBoundaryInt2_kernelPiiiiP4int2'...
GPGPU-Sim PTX: pre-decoding instructions for '_Z22setBoundaryInt2_kernelPiiiiP4int2'...
GPGPU-Sim PTX: reconvergence points for _Z22setBoundaryInt2_kernelPiiiiP4int2...
GPGPU-Sim PTX:  1 (potential) branch divergence @  PC=0x1d18 (_1.ptx:1452) @%p1 bra $Lt_15_1794;
GPGPU-Sim PTX:    immediate post dominator      @  PC=0x1d98 (_1.ptx:1475) exit;
GPGPU-Sim PTX:  2 (potential) branch divergence @  PC=0x1d50 (_1.ptx:1459) @%p2 bra $Lt_15_2562;
GPGPU-Sim PTX:    immediate post dominator      @  PC=0x1d70 (_1.ptx:1468) ld.param.u64 %rd5, [__cudaparm__Z22setBoundaryInt2_kernelPiiiiP4int2_d_boundaryRange];
GPGPU-Sim PTX:  3 (potential) branch divergence @  PC=0x1d60 (_1.ptx:1462) bra.uni $Lt_15_2306;
GPGPU-Sim PTX:    immediate post dominator      @  PC=0x1d70 (_1.ptx:1468) ld.param.u64 %rd5, [__cudaparm__Z22setBoundaryInt2_kernelPiiiiP4int2_d_boundaryRange];
GPGPU-Sim PTX: ... end of reconvergence points for _Z22setBoundaryInt2_kernelPiiiiP4int2
GPGPU-Sim PTX: ... done pre-decoding instructions for '_Z22setBoundaryInt2_kernelPiiiiP4int2'.
GPGPU-Sim PTX: instruction assembly for function '_Z20writeBoundary_kerneliiPiS_S_'...   done.
GPGPU-Sim PTX: finding reconvergence points for '_Z20writeBoundary_kerneliiPiS_S_'...
GPGPU-Sim PTX: Finding dominators for '_Z20writeBoundary_kerneliiPiS_S_'...
GPGPU-Sim PTX: Finding immediate dominators for '_Z20writeBoundary_kerneliiPiS_S_'...
GPGPU-Sim PTX: Finding postdominators for '_Z20writeBoundary_kerneliiPiS_S_'...
GPGPU-Sim PTX: Finding immediate postdominators for '_Z20writeBoundary_kerneliiPiS_S_'...
GPGPU-Sim PTX: pre-decoding instructions for '_Z20writeBoundary_kerneliiPiS_S_'...
GPGPU-Sim PTX: reconvergence points for _Z20writeBoundary_kerneliiPiS_S_...
GPGPU-Sim PTX:  1 (potential) branch divergence @  PC=0x1e28 (_1.ptx:1508) @%p1 bra $Lt_16_1794;
GPGPU-Sim PTX:    immediate post dominator      @  PC=0x1eb0 (_1.ptx:1529) exit;
GPGPU-Sim PTX:  2 (potential) branch divergence @  PC=0x1e68 (_1.ptx:1516) @%p2 bra $Lt_16_2306;
GPGPU-Sim PTX:    immediate post dominator      @  PC=0x1eb0 (_1.ptx:1529) exit;
GPGPU-Sim PTX: ... end of reconvergence points for _Z20writeBoundary_kerneliiPiS_S_
GPGPU-Sim PTX: ... done pre-decoding instructions for '_Z20writeBoundary_kerneliiPiS_S_'.
GPGPU-Sim PTX: finished parsing EMBEDDED .ptx file _1.ptx
Adding _cuobjdump_4.ptx with cubin handle 1
GPGPU-Sim PTX: extracting embedded .ptx to temporary file "_ptx_q8887A"
Running: cat _ptx_q8887A | sed 's/.version 1.5/.version 1.4/' | sed 's/, texmode_independent//' | sed 's/\(\.extern \.const\[1\] .b8 \w\+\)\[\]/\1\[1\]/' | sed 's/const\[.\]/const\[0\]/g' > _ptx2_7nHdH4
GPGPU-Sim PTX: generating ptxinfo using "$CUDA_INSTALL_PATH/bin/ptxas --gpu-name=sm_20 -v _ptx2_7nHdH4 --output-file  /dev/null 2> _ptx_q8887Ainfo"
GPGPU-Sim PTX: Kernel '_Z20writeBoundary_kerneliiPiS_S_' : regs=8, lmem=0, smem=0, cmem=64
GPGPU-Sim PTX: Kernel '_Z22setBoundaryInt2_kernelPiiiiP4int2' : regs=9, lmem=0, smem=0, cmem=64
GPGPU-Sim PTX: Kernel '_Z23getChunkBoundary_kernelPviP4int4iPi' : regs=8, lmem=0, smem=0, cmem=72
GPGPU-Sim PTX: Kernel '_Z17copyChunks_kernelPviP4int2iPiS_' : regs=12, lmem=0, smem=0, cmem=80
GPGPU-Sim PTX: Kernel '_Z17setZWArray_kernelP4int4iiP4int2' : regs=8, lmem=0, smem=0, cmem=56
GPGPU-Sim PTX: Kernel '_Z17setXYArray_kernelP4int4iiP4int2' : regs=10, lmem=0, smem=0, cmem=56
GPGPU-Sim PTX: Kernel '_Z17getZWArray_kernelP4int4iiP4int2' : regs=10, lmem=0, smem=0, cmem=56
GPGPU-Sim PTX: Kernel '_Z17getXYArray_kernelP4int4iiP4int2' : regs=10, lmem=0, smem=0, cmem=56
GPGPU-Sim PTX: Kernel '_Z19getIntYArray_kernelP4int2iiPi' : regs=8, lmem=0, smem=0, cmem=56
GPGPU-Sim PTX: Kernel '_Z17initialize_kernelP4int4iiS_' : regs=10, lmem=0, smem=0, cmem=64
GPGPU-Sim PTX: Kernel '_Z32bitonicSortMultipleBlocks_kernelPviP4int4PiiiS1_' : regs=23, lmem=0, smem=4108, cmem=80
GPGPU-Sim PTX: Kernel '_Z29bitonicSortSingleBlock_kernelPviP4int4iS1_' : regs=23, lmem=0, smem=4096, cmem=72
GPGPU-Sim PTX: Kernel '_Z13bitonicKernelPviP4int4jii' : regs=16, lmem=0, smem=0, cmem=68
GPGPU-Sim PTX: Kernel '_Z21unitBitonicSortKernelPviP4int4ji' : regs=18, lmem=0, smem=4096, cmem=64
GPGPU-Sim PTX: Kernel '_Z21partBitonicSortKernelPviP4int4jii' : regs=17, lmem=0, smem=4096, cmem=68
GPGPU-Sim PTX: removing ptxinfo using "rm -f _ptx_q8887A _ptx2_7nHdH4 _ptx_q8887Ainfo"
GPGPU-Sim PTX: loading globals with explicit initializers... 
GPGPU-Sim PTX: finished loading globals (0 bytes total).
GPGPU-Sim PTX: loading constants with explicit initializers...  done.
GPGPU-Sim PTX: __cudaRegisterFunction _Z22setBoundaryInt2_kernelPiiiiP4int2 : hostFun 0x0x408ee1, fat_cubin_handle = 1
GPGPU-Sim PTX: __cudaRegisterFunction _Z23getChunkBoundary_kernelPviP4int4iPi : hostFun 0x0x408dbe, fat_cubin_handle = 1
GPGPU-Sim PTX: __cudaRegisterFunction _Z17copyChunks_kernelPviP4int2iPiS_ : hostFun 0x0x408c8f, fat_cubin_handle = 1
GPGPU-Sim PTX: __cudaRegisterFunction _Z17setZWArray_kernelP4int4iiP4int2 : hostFun 0x0x408b4c, fat_cubin_handle = 1
GPGPU-Sim PTX: __cudaRegisterFunction _Z17setXYArray_kernelP4int4iiP4int2 : hostFun 0x0x408a5d, fat_cubin_handle = 1
GPGPU-Sim PTX: __cudaRegisterFunction _Z17getZWArray_kernelP4int4iiP4int2 : hostFun 0x0x40896e, fat_cubin_handle = 1
GPGPU-Sim PTX: __cudaRegisterFunction _Z17getXYArray_kernelP4int4iiP4int2 : hostFun 0x0x40887f, fat_cubin_handle = 1
GPGPU-Sim PTX: __cudaRegisterFunction _Z19getIntYArray_kernelP4int2iiPi : hostFun 0x0x408790, fat_cubin_handle = 1
GPGPU-Sim PTX: __cudaRegisterFunction _Z17initialize_kernelP4int4iiS_ : hostFun 0x0x408697, fat_cubin_handle = 1
GPGPU-Sim PTX: __cudaRegisterFunction _Z32bitonicSortMultipleBlocks_kernelPviP4int4PiiiS1_ : hostFun 0x0x40857d, fat_cubin_handle = 1
GPGPU-Sim PTX: __cudaRegisterFunction _Z29bitonicSortSingleBlock_kernelPviP4int4iS1_ : hostFun 0x0x40840b, fat_cubin_handle = 1
GPGPU-Sim PTX: __cudaRegisterFunction _Z13bitonicKernelPviP4int4jii : hostFun 0x0x4082de, fat_cubin_handle = 1
GPGPU-Sim PTX: __cudaRegisterFunction _Z21unitBitonicSortKernelPviP4int4ji : hostFun 0x0x408191, fat_cubin_handle = 1
GPGPU-Sim PTX: __cudaRegisterFunction _Z21partBitonicSortKernelPviP4int4jii : hostFun 0x0x408064, fat_cubin_handle = 1
GPGPU-Sim PTX: __cudaRegisterFatBinary, fat_cubin_handle = 2, filename=MarsScan.cu
GPGPU-Sim PTX: __cudaRegisterFunction _Z7prescanILb0ELb1EEvPiPKiS0_iii : hostFun 0x0x4062c3, fat_cubin_handle = 2
GPGPU-Sim PTX: allocating stack frame region for .param "__cudaretf__Z8buildSumPi" from 0x0 to 0x4
GPGPU-Sim PTX: allocating stack frame region for .param "__cudaparmf1__Z8buildSumPi" from 0x4 to 0xc
GPGPU-Sim PTX: allocating stack frame region for .param "__cudaparmf1__Z16scanRootToLeavesPij" from 0x0 to 0x8
GPGPU-Sim PTX: allocating stack frame region for .param "__cudaparmf2__Z16scanRootToLeavesPij" from 0x8 to 0xc
GPGPU-Sim PTX: allocating stack frame region for .param "__cudaparmf1__Z22loadSharedChunkFromMemILb0EEvPiPKiiiRiS3_S3_S3_S3_S3_" from 0x0 to 0x8
GPGPU-Sim PTX: allocating stack frame region for .param "__cudaparmf2__Z22loadSharedChunkFromMemILb0EEvPiPKiiiRiS3_S3_S3_S3_S3_" from 0x8 to 0x10
GPGPU-Sim PTX: allocating stack frame region for .param "__cudaparmf3__Z22loadSharedChunkFromMemILb0EEvPiPKiiiRiS3_S3_S3_S3_S3_" from 0x10 to 0x14
GPGPU-Sim PTX: allocating stack frame region for .param "__cudaparmf4__Z22loadSharedChunkFromMemILb0EEvPiPKiiiRiS3_S3_S3_S3_S3_" from 0x14 to 0x18
GPGPU-Sim PTX: allocating stack frame region for .param "__cudaparmf5__Z22loadSharedChunkFromMemILb0EEvPiPKiiiRiS3_S3_S3_S3_S3_" from 0x18 to 0x20
GPGPU-Sim PTX: allocating stack frame region for .param "__cudaparmf6__Z22loadSharedChunkFromMemILb0EEvPiPKiiiRiS3_S3_S3_S3_S3_" from 0x20 to 0x28
GPGPU-Sim PTX: allocating stack frame region for .param "__cudaparmf7__Z22loadSharedChunkFromMemILb0EEvPiPKiiiRiS3_S3_S3_S3_S3_" from 0x28 to 0x30
GPGPU-Sim PTX: allocating stack frame region for .param "__cudaparmf8__Z22loadSharedChunkFromMemILb0EEvPiPKiiiRiS3_S3_S3_S3_S3_" from 0x30 to 0x38
GPGPU-Sim PTX: allocating stack frame region for .param "__cudaparmf9__Z22loadSharedChunkFromMemILb0EEvPiPKiiiRiS3_S3_S3_S3_S3_" from 0x38 to 0x40
GPGPU-Sim PTX: allocating stack frame region for .param "__cudaparmf10__Z22loadSharedChunkFromMemILb0EEvPiPKiiiRiS3_S3_S3_S3_S3_" from 0x40 to 0x48
GPGPU-Sim PTX: allocating stack frame region for .param "__cudaparmf1__Z12prescanBlockILb1EEvPiiS0_" from 0x0 to 0x8
GPGPU-Sim PTX: allocating stack frame region for .param "__cudaparmf2__Z12prescanBlockILb1EEvPiiS0_" from 0x8 to 0xc
GPGPU-Sim PTX: allocating stack frame region for .param "__cudaparmf3__Z12prescanBlockILb1EEvPiiS0_" from 0xc to 0x14
GPGPU-Sim PTX: allocating stack frame region for .param "__cudaparmf1__Z16clearLastElementILb1EEvPiS0_i" from 0x0 to 0x8
GPGPU-Sim PTX: allocating stack frame region for .param "__cudaparmf2__Z16clearLastElementILb1EEvPiS0_i" from 0x8 to 0x10
GPGPU-Sim PTX: allocating stack frame region for .param "__cudaparmf3__Z16clearLastElementILb1EEvPiS0_i" from 0x10 to 0x14
GPGPU-Sim PTX: allocating stack frame region for .param "__cudaparmf1__Z21storeSharedChunkToMemILb0EEvPiPKiiiiiiii" from 0x0 to 0x8
GPGPU-Sim PTX: allocating stack frame region for .param "__cudaparmf2__Z21storeSharedChunkToMemILb0EEvPiPKiiiiiiii" from 0x8 to 0x10
GPGPU-Sim PTX: allocating stack frame region for .param "__cudaparmf3__Z21storeSharedChunkToMemILb0EEvPiPKiiiiiiii" from 0x10 to 0x14
GPGPU-Sim PTX: allocating stack frame region for .param "__cudaparmf4__Z21storeSharedChunkToMemILb0EEvPiPKiiiiiiii" from 0x14 to 0x18
GPGPU-Sim PTX: allocating stack frame region for .param "__cudaparmf5__Z21storeSharedChunkToMemILb0EEvPiPKiiiiiiii" from 0x18 to 0x1c
GPGPU-Sim PTX: allocating stack frame region for .param "__cudaparmf6__Z21storeSharedChunkToMemILb0EEvPiPKiiiiiiii" from 0x1c to 0x20
GPGPU-Sim PTX: allocating stack frame region for .param "__cudaparmf7__Z21storeSharedChunkToMemILb0EEvPiPKiiiiiiii" from 0x20 to 0x24
GPGPU-Sim PTX: allocating stack frame region for .param "__cudaparmf8__Z21storeSharedChunkToMemILb0EEvPiPKiiiiiiii" from 0x24 to 0x28
GPGPU-Sim PTX: allocating stack frame region for .param "__cudaparmf9__Z21storeSharedChunkToMemILb0EEvPiPKiiiiiiii" from 0x28 to 0x2c
GPGPU-Sim PTX: allocating stack frame region for .param "__cudaparmf1__Z22loadSharedChunkFromMemILb1EEvPiPKiiiRiS3_S3_S3_S3_S3_" from 0x0 to 0x8
GPGPU-Sim PTX: allocating stack frame region for .param "__cudaparmf2__Z22loadSharedChunkFromMemILb1EEvPiPKiiiRiS3_S3_S3_S3_S3_" from 0x8 to 0x10
GPGPU-Sim PTX: allocating stack frame region for .param "__cudaparmf3__Z22loadSharedChunkFromMemILb1EEvPiPKiiiRiS3_S3_S3_S3_S3_" from 0x10 to 0x14
GPGPU-Sim PTX: allocating stack frame region for .param "__cudaparmf4__Z22loadSharedChunkFromMemILb1EEvPiPKiiiRiS3_S3_S3_S3_S3_" from 0x14 to 0x18
GPGPU-Sim PTX: allocating stack frame region for .param "__cudaparmf5__Z22loadSharedChunkFromMemILb1EEvPiPKiiiRiS3_S3_S3_S3_S3_" from 0x18 to 0x20
GPGPU-Sim PTX: allocating stack frame region for .param "__cudaparmf6__Z22loadSharedChunkFromMemILb1EEvPiPKiiiRiS3_S3_S3_S3_S3_" from 0x20 to 0x28
GPGPU-Sim PTX: allocating stack frame region for .param "__cudaparmf7__Z22loadSharedChunkFromMemILb1EEvPiPKiiiRiS3_S3_S3_S3_S3_" from 0x28 to 0x30
GPGPU-Sim PTX: allocating stack frame region for .param "__cudaparmf8__Z22loadSharedChunkFromMemILb1EEvPiPKiiiRiS3_S3_S3_S3_S3_" from 0x30 to 0x38
GPGPU-Sim PTX: allocating stack frame region for .param "__cudaparmf9__Z22loadSharedChunkFromMemILb1EEvPiPKiiiRiS3_S3_S3_S3_S3_" from 0x38 to 0x40
GPGPU-Sim PTX: allocating stack frame region for .param "__cudaparmf10__Z22loadSharedChunkFromMemILb1EEvPiPKiiiRiS3_S3_S3_S3_S3_" from 0x40 to 0x48
GPGPU-Sim PTX: allocating stack frame region for .param "__cudaparmf1__Z21storeSharedChunkToMemILb1EEvPiPKiiiiiiii" from 0x0 to 0x8
GPGPU-Sim PTX: allocating stack frame region for .param "__cudaparmf2__Z21storeSharedChunkToMemILb1EEvPiPKiiiiiiii" from 0x8 to 0x10
GPGPU-Sim PTX: allocating stack frame region for .param "__cudaparmf3__Z21storeSharedChunkToMemILb1EEvPiPKiiiiiiii" from 0x10 to 0x14
GPGPU-Sim PTX: allocating stack frame region for .param "__cudaparmf4__Z21storeSharedChunkToMemILb1EEvPiPKiiiiiiii" from 0x14 to 0x18
GPGPU-Sim PTX: allocating stack frame region for .param "__cudaparmf5__Z21storeSharedChunkToMemILb1EEvPiPKiiiiiiii" from 0x18 to 0x1c
GPGPU-Sim PTX: allocating stack frame region for .param "__cudaparmf6__Z21storeSharedChunkToMemILb1EEvPiPKiiiiiiii" from 0x1c to 0x20
GPGPU-Sim PTX: allocating stack frame region for .param "__cudaparmf7__Z21storeSharedChunkToMemILb1EEvPiPKiiiiiiii" from 0x20 to 0x24
GPGPU-Sim PTX: allocating stack frame region for .param "__cudaparmf8__Z21storeSharedChunkToMemILb1EEvPiPKiiiiiiii" from 0x24 to 0x28
GPGPU-Sim PTX: allocating stack frame region for .param "__cudaparmf9__Z21storeSharedChunkToMemILb1EEvPiPKiiiiiiii" from 0x28 to 0x2c
GPGPU-Sim PTX: allocating stack frame region for .param "__cudaparmf1__Z12prescanBlockILb0EEvPiiS0_" from 0x0 to 0x8
GPGPU-Sim PTX: allocating stack frame region for .param "__cudaparmf2__Z12prescanBlockILb0EEvPiiS0_" from 0x8 to 0xc
GPGPU-Sim PTX: allocating stack frame region for .param "__cudaparmf3__Z12prescanBlockILb0EEvPiiS0_" from 0xc to 0x14
GPGPU-Sim PTX: allocating stack frame region for .param "__cudaparmf1__Z16clearLastElementILb0EEvPiS0_i" from 0x0 to 0x8
GPGPU-Sim PTX: allocating stack frame region for .param "__cudaparmf2__Z16clearLastElementILb0EEvPiS0_i" from 0x8 to 0x10
GPGPU-Sim PTX: allocating stack frame region for .param "__cudaparmf3__Z16clearLastElementILb0EEvPiS0_i" from 0x10 to 0x14
GPGPU-Sim PTX: instruction assembly for function '_Z8buildSumPi'...   done.
GPGPU-Sim PTX: finding reconvergence points for '_Z8buildSumPi'...
GPGPU-Sim PTX: Finding dominators for '_Z8buildSumPi'...
GPGPU-Sim PTX: Finding immediate dominators for '_Z8buildSumPi'...
GPGPU-Sim PTX: Finding postdominators for '_Z8buildSumPi'...
GPGPU-Sim PTX: Finding immediate postdominators for '_Z8buildSumPi'...
GPGPU-Sim PTX: pre-decoding instructions for '_Z8buildSumPi'...
GPGPU-Sim PTX: reconvergence points for _Z8buildSumPi...
GPGPU-Sim PTX:  1 (potential) branch divergence @  PC=0x1ee8 (_2.ptx:85) @%p1 bra $Lt_0_3586;
GPGPU-Sim PTX:    immediate post dominator      @  PC=0x1ff8 (_2.ptx:128) mov.s32 %r21, %r5;
GPGPU-Sim PTX:  2 (potential) branch divergence @  PC=0x1f10 (_2.ptx:92) @%p2 bra $Lt_0_2818;
GPGPU-Sim PTX:    immediate post dominator      @  PC=0x1fc0 (_2.ptx:117) mul.lo.u32 %r5, %r5, 2;
GPGPU-Sim PTX:  3 (potential) branch divergence @  PC=0x1fe0 (_2.ptx:122) @%p3 bra $Lt_0_2562;
GPGPU-Sim PTX:    immediate post dominator      @  PC=0x1fe8 (_2.ptx:123) bra.uni $Lt_0_2050;
GPGPU-Sim PTX:  4 (potential) branch divergence @  PC=0x1fe8 (_2.ptx:123) bra.uni $Lt_0_2050;
GPGPU-Sim PTX:    immediate post dominator      @  PC=0x1ff8 (_2.ptx:128) mov.s32 %r21, %r5;
GPGPU-Sim PTX: ... end of reconvergence points for _Z8buildSumPi
GPGPU-Sim PTX: ... done pre-decoding instructions for '_Z8buildSumPi'.
GPGPU-Sim PTX: instruction assembly for function '_Z16scanRootToLeavesPij'...   done.
GPGPU-Sim PTX: finding reconvergence points for '_Z16scanRootToLeavesPij'...
GPGPU-Sim PTX: Finding dominators for '_Z16scanRootToLeavesPij'...
GPGPU-Sim PTX: Finding immediate dominators for '_Z16scanRootToLeavesPij'...
GPGPU-Sim PTX: Finding postdominators for '_Z16scanRootToLeavesPij'...
GPGPU-Sim PTX: Finding immediate postdominators for '_Z16scanRootToLeavesPij'...
GPGPU-Sim PTX: pre-decoding instructions for '_Z16scanRootToLeavesPij'...
GPGPU-Sim PTX: reconvergence points for _Z16scanRootToLeavesPij...
GPGPU-Sim PTX:  1 (potential) branch divergence @  PC=0x2048 (_2.ptx:148) @%p1 bra $Lt_1_2050;
GPGPU-Sim PTX:    immediate post dominator      @  PC=0x2150 (_2.ptx:192) ret;
GPGPU-Sim PTX:  2 (potential) branch divergence @  PC=0x2078 (_2.ptx:158) @%p2 bra $Lt_1_2818;
GPGPU-Sim PTX:    immediate post dominator      @  PC=0x2138 (_2.ptx:187) mul.lo.s32 %r6, %r6, 2;
GPGPU-Sim PTX:  3 (potential) branch divergence @  PC=0x2148 (_2.ptx:189) @%p3 bra $Lt_1_2562;
GPGPU-Sim PTX:    immediate post dominator      @  PC=0x2150 (_2.ptx:192) ret;
GPGPU-Sim PTX: ... end of reconvergence points for _Z16scanRootToLeavesPij
GPGPU-Sim PTX: ... done pre-decoding instructions for '_Z16scanRootToLeavesPij'.
GPGPU-Sim PTX: instruction assembly for function '_Z22loadSharedChunkFromMemILb0EEvPiPKiiiRiS3_S3_S3_S3_S3_'...   done.
GPGPU-Sim PTX: finding reconvergence points for '_Z22loadSharedChunkFromMemILb0EEvPiPKiiiRiS3_S3_S3_S3_S3_'...
GPGPU-Sim PTX: Finding dominators for '_Z22loadSharedChunkFromMemILb0EEvPiPKiiiRiS3_S3_S3_S3_S3_'...
GPGPU-Sim PTX: Finding immediate dominators for '_Z22loadSharedChunkFromMemILb0EEvPiPKiiiRiS3_S3_S3_S3_S3_'...
GPGPU-Sim PTX: Finding postdominators for '_Z22loadSharedChunkFromMemILb0EEvPiPKiiiRiS3_S3_S3_S3_S3_'...
GPGPU-Sim PTX: Finding immediate postdominators for '_Z22loadSharedChunkFromMemILb0EEvPiPKiiiRiS3_S3_S3_S3_S3_'...
GPGPU-Sim PTX: pre-decoding instructions for '_Z22loadSharedChunkFromMemILb0EEvPiPKiiiRiS3_S3_S3_S3_S3_'...
GPGPU-Sim PTX: reconvergence points for _Z22loadSharedChunkFromMemILb0EEvPiPKiiiRiS3_S3_S3_S3_S3_...
GPGPU-Sim PTX: ... end of reconvergence points for _Z22loadSharedChunkFromMemILb0EEvPiPKiiiRiS3_S3_S3_S3_S3_
GPGPU-Sim PTX: ... done pre-decoding instructions for '_Z22loadSharedChunkFromMemILb0EEvPiPKiiiRiS3_S3_S3_S3_S3_'.
GPGPU-Sim PTX: instruction assembly for function '_Z12prescanBlockILb1EEvPiiS0_'...   done.
GPGPU-Sim PTX: finding reconvergence points for '_Z12prescanBlockILb1EEvPiiS0_'...
GPGPU-Sim PTX: Finding dominators for '_Z12prescanBlockILb1EEvPiiS0_'...
GPGPU-Sim PTX: Finding immediate dominators for '_Z12prescanBlockILb1EEvPiiS0_'...
GPGPU-Sim PTX: Finding postdominators for '_Z12prescanBlockILb1EEvPiiS0_'...
GPGPU-Sim PTX: Finding immediate postdominators for '_Z12prescanBlockILb1EEvPiiS0_'...
GPGPU-Sim PTX: pre-decoding instructions for '_Z12prescanBlockILb1EEvPiiS0_'...
GPGPU-Sim PTX: reconvergence points for _Z12prescanBlockILb1EEvPiiS0_...
GPGPU-Sim PTX:  1 (potential) branch divergence @  PC=0x2380 (_2.ptx:291) @%p1 bra $Lt_3_9730;
GPGPU-Sim PTX:    immediate post dominator      @  PC=0x2498 (_2.ptx:335) mov.u32 %r23, %ntid.x;
GPGPU-Sim PTX:  2 (potential) branch divergence @  PC=0x23a8 (_2.ptx:298) @%p2 bra $Lt_3_6914;
GPGPU-Sim PTX:    immediate post dominator      @  PC=0x2458 (_2.ptx:323) mul.lo.u32 %r7, %r7, 2;
GPGPU-Sim PTX:  3 (potential) branch divergence @  PC=0x2478 (_2.ptx:328) @%p3 bra $Lt_3_6658;
GPGPU-Sim PTX:    immediate post dominator      @  PC=0x2480 (_2.ptx:329) bra.uni $Lt_3_6146;
GPGPU-Sim PTX:  4 (potential) branch divergence @  PC=0x2480 (_2.ptx:329) bra.uni $Lt_3_6146;
GPGPU-Sim PTX:    immediate post dominator      @  PC=0x2498 (_2.ptx:335) mov.u32 %r23, %ntid.x;
GPGPU-Sim PTX:  5 (potential) branch divergence @  PC=0x24b0 (_2.ptx:338) @%p4 bra $Lt_3_7682;
GPGPU-Sim PTX:    immediate post dominator      @  PC=0x2548 (_2.ptx:361) mov.s32 %r34, %r7;
GPGPU-Sim PTX:  6 (potential) branch divergence @  PC=0x2560 (_2.ptx:364) @%p6 bra $Lt_3_8194;
GPGPU-Sim PTX:    immediate post dominator      @  PC=0x2660 (_2.ptx:407) ret;
GPGPU-Sim PTX:  7 (potential) branch divergence @  PC=0x2588 (_2.ptx:373) @%p7 bra $Lt_3_8962;
GPGPU-Sim PTX:    immediate post dominator      @  PC=0x2648 (_2.ptx:402) mul.lo.s32 %r36, %r36, 2;
GPGPU-Sim PTX:  8 (potential) branch divergence @  PC=0x2658 (_2.ptx:404) @%p8 bra $Lt_3_8706;
GPGPU-Sim PTX:    immediate post dominator      @  PC=0x2660 (_2.ptx:407) ret;
GPGPU-Sim PTX: ... end of reconvergence points for _Z12prescanBlockILb1EEvPiiS0_
GPGPU-Sim PTX: ... done pre-decoding instructions for '_Z12prescanBlockILb1EEvPiiS0_'.
GPGPU-Sim PTX: instruction assembly for function '_Z16clearLastElementILb1EEvPiS0_i'...   done.
GPGPU-Sim PTX: finding reconvergence points for '_Z16clearLastElementILb1EEvPiS0_i'...
GPGPU-Sim PTX: Finding dominators for '_Z16clearLastElementILb1EEvPiS0_i'...
GPGPU-Sim PTX: Finding immediate dominators for '_Z16clearLastElementILb1EEvPiS0_i'...
GPGPU-Sim PTX: Finding postdominators for '_Z16clearLastElementILb1EEvPiS0_i'...
GPGPU-Sim PTX: Finding immediate postdominators for '_Z16clearLastElementILb1EEvPiS0_i'...
GPGPU-Sim PTX: pre-decoding instructions for '_Z16clearLastElementILb1EEvPiS0_i'...
GPGPU-Sim PTX: reconvergence points for _Z16clearLastElementILb1EEvPiS0_i...
GPGPU-Sim PTX:  1 (potential) branch divergence @  PC=0x26b0 (_2.ptx:427) @%p1 bra $Lt_4_1794;
GPGPU-Sim PTX:    immediate post dominator      @  PC=0x2730 (_2.ptx:447) ret;
GPGPU-Sim PTX: ... end of reconvergence points for _Z16clearLastElementILb1EEvPiS0_i
GPGPU-Sim PTX: ... done pre-decoding instructions for '_Z16clearLastElementILb1EEvPiS0_i'.
GPGPU-Sim PTX: instruction assembly for function '_Z21storeSharedChunkToMemILb0EEvPiPKiiiiiiii'...   done.
GPGPU-Sim PTX: finding reconvergence points for '_Z21storeSharedChunkToMemILb0EEvPiPKiiiiiiii'...
GPGPU-Sim PTX: Finding dominators for '_Z21storeSharedChunkToMemILb0EEvPiPKiiiiiiii'...
GPGPU-Sim PTX: Finding immediate dominators for '_Z21storeSharedChunkToMemILb0EEvPiPKiiiiiiii'...
GPGPU-Sim PTX: Finding postdominators for '_Z21storeSharedChunkToMemILb0EEvPiPKiiiiiiii'...
GPGPU-Sim PTX: Finding immediate postdominators for '_Z21storeSharedChunkToMemILb0EEvPiPKiiiiiiii'...
GPGPU-Sim PTX: pre-decoding instructions for '_Z21storeSharedChunkToMemILb0EEvPiPKiiiiiiii'...
GPGPU-Sim PTX: reconvergence points for _Z21storeSharedChunkToMemILb0EEvPiPKiiiiiiii...
GPGPU-Sim PTX: ... end of reconvergence points for _Z21storeSharedChunkToMemILb0EEvPiPKiiiiiiii
GPGPU-Sim PTX: ... done pre-decoding instructions for '_Z21storeSharedChunkToMemILb0EEvPiPKiiiiiiii'.
GPGPU-Sim PTX: instruction assembly for function '_Z22loadSharedChunkFromMemILb1EEvPiPKiiiRiS3_S3_S3_S3_S3_'...   done.
GPGPU-Sim PTX: finding reconvergence points for '_Z22loadSharedChunkFromMemILb1EEvPiPKiiiRiS3_S3_S3_S3_S3_'...
GPGPU-Sim PTX: Finding dominators for '_Z22loadSharedChunkFromMemILb1EEvPiPKiiiRiS3_S3_S3_S3_S3_'...
GPGPU-Sim PTX: Finding immediate dominators for '_Z22loadSharedChunkFromMemILb1EEvPiPKiiiRiS3_S3_S3_S3_S3_'...
GPGPU-Sim PTX: Finding postdominators for '_Z22loadSharedChunkFromMemILb1EEvPiPKiiiRiS3_S3_S3_S3_S3_'...
GPGPU-Sim PTX: Finding immediate postdominators for '_Z22loadSharedChunkFromMemILb1EEvPiPKiiiRiS3_S3_S3_S3_S3_'...
GPGPU-Sim PTX: pre-decoding instructions for '_Z22loadSharedChunkFromMemILb1EEvPiPKiiiRiS3_S3_S3_S3_S3_'...
GPGPU-Sim PTX: reconvergence points for _Z22loadSharedChunkFromMemILb1EEvPiPKiiiRiS3_S3_S3_S3_S3_...
GPGPU-Sim PTX:  1 (potential) branch divergence @  PC=0x29e0 (_2.ptx:562) @%p1 bra $Lt_6_2050;
GPGPU-Sim PTX:    immediate post dominator      @  PC=0x2a20 (_2.ptx:573) ld.s32 %r23, [%rd16+0];
GPGPU-Sim PTX:  2 (potential) branch divergence @  PC=0x2a10 (_2.ptx:569) bra.uni $Lt_6_1794;
GPGPU-Sim PTX:    immediate post dominator      @  PC=0x2a20 (_2.ptx:573) ld.s32 %r23, [%rd16+0];
GPGPU-Sim PTX: ... end of reconvergence points for _Z22loadSharedChunkFromMemILb1EEvPiPKiiiRiS3_S3_S3_S3_S3_
GPGPU-Sim PTX: ... done pre-decoding instructions for '_Z22loadSharedChunkFromMemILb1EEvPiPKiiiRiS3_S3_S3_S3_S3_'.
GPGPU-Sim PTX: instruction assembly for function '_Z21storeSharedChunkToMemILb1EEvPiPKiiiiiiii'...   done.
GPGPU-Sim PTX: finding reconvergence points for '_Z21storeSharedChunkToMemILb1EEvPiPKiiiiiiii'...
GPGPU-Sim PTX: Finding dominators for '_Z21storeSharedChunkToMemILb1EEvPiPKiiiiiiii'...
GPGPU-Sim PTX: Finding immediate dominators for '_Z21storeSharedChunkToMemILb1EEvPiPKiiiiiiii'...
[...]
traffic_breakdown_coretomem[CONST_ACC_R] = 120 {8:15,}
traffic_breakdown_coretomem[GLOBAL_ACC_R] = 1048576 {8:131072,}
traffic_breakdown_coretomem[GLOBAL_ACC_W] = 17907712 {40:2048,136:131072,}
traffic_breakdown_coretomem[INST_ACC_R] = 1680 {8:210,}
traffic_breakdown_memtocore[CONST_ACC_R] = 1080 {72:15,}
traffic_breakdown_memtocore[GLOBAL_ACC_R] = 17825792 {136:131072,}
traffic_breakdown_memtocore[GLOBAL_ACC_W] = 1064960 {8:133120,}
traffic_breakdown_memtocore[INST_ACC_R] = 28560 {136:210,}
maxmrqlatency = 1517 
maxdqlatency = 0 
maxmflatency = 2093 
averagemflatency = 353 
max_icnt2mem_latency = 1256 
max_icnt2sh_latency = 366798 
mrq_lat_table:101248 	15647 	10831 	16977 	27729 	39517 	58494 	23926 	550 	194 	13 	0 	0 	0 	0 	0 	0 	0 	0 	0 	0 	0 	0 	0 	0 	0 	0 	0 	0 	0 	0 	0 	
dq_lat_table:0 	0 	0 	0 	0 	0 	0 	0 	0 	0 	0 	0 	0 	0 	0 	0 	0 	0 	0 	0 	0 	0 	0 	0 	0 	0 	0 	0 	0 	0 	0 	0 	
mf_lat_table:0 	0 	0 	0 	0 	0 	0 	67151 	153561 	42447 	1047 	1 	0 	0 	0 	0 	0 	0 	0 	0 	0 	0 	0 	0 	0 	0 	0 	0 	0 	0 	0 	0 	
icnt2mem_lat_table:0 	0 	0 	61045 	39669 	44512 	91518 	24972 	2286 	407 	8 	0 	0 	0 	0 	0 	0 	0 	0 	0 	0 	0 	0 	0 	
icnt2sh_lat_table:0 	0 	0 	40855 	65053 	24871 	308 	0 	0 	0 	0 	1754 	2614 	6422 	12866 	26163 	48485 	18904 	15912 	0 	0 	0 	0 	0 	
mf_lat_pw_table:0 	0 	0 	0 	0 	0 	0 	67 	639 	12 	5 	0 	0 	0 	0 	0 	0 	0 	0 	0 	0 	0 	0 	0 	0 	0 	0 	0 	0 	0 	0 	0 	
maximum concurrent accesses to same row:
dram[0]:        64        64        64        64        64        64        64        64        64        64        64        64        64        64        64        64 
dram[1]:        64        64        64        64        64        64        64        64        64        64        64        64        64        64        64        64 
dram[2]:        64        64        64        64        64        64        64        64        64        64        64        64        64        64        64        64 
dram[3]:        64        64        64        64        64        64        64        64        64        64        64        64        64        64        64        64 
dram[4]:        64        64        64        64        64        64        64        64        64        64        64        64        64        64        64        64 
dram[5]:        64        64        64        64        64        64        64        64        64        64        64        64        64        64        64        64 
maximum service time to same row:
dram[0]:     14153     14508     14163     14382     13631     14107     14059     13802     15752     14603     13626     13598     13711     13948     13946     14072 
dram[1]:     14147     14527     14142     14340     13591     14440     14055     13850     15781     14675     13647     13634     13610     13903     13993     14240 
dram[2]:     14166     14167     14146     13722     13617     14328     14078     14104     15835     15885     13585     13594     13783     13430     13774     13812 
dram[3]:     14154     14186     14184     13696     13811     14315     14056     14087     15826     15851     13532     13462     13679     13641     13907     13720 
dram[4]:     14477     14166     14397     13848     13662     14328     13822     14227     14663     16008     13643     13552     14009     13622     14262     13723 
dram[5]:     14473     14165     14366     13800     13613     14279     13810     14083     14691     15952     13660     13605     13925     13516     14233     13721 
average row accesses per activate:
dram[0]:  6.570825  7.443645  6.232932  7.135632  6.717391  7.198135  7.283293  7.482587  6.744395  7.127962  6.972727  7.497561  7.320755  8.146981  7.168591  7.408114 
dram[1]:  7.240093  7.552311  6.646681  6.480167  6.633047  7.418269  7.011655  7.144893  6.962963  7.300971  6.848214  7.354067  7.425838  7.818640  7.168591  7.303529 
dram[2]:  6.608510  7.425838  6.386831  6.837004  6.855876  7.592138  7.161905  8.129729  7.111111  7.213429  6.972727  7.182243  7.664197  7.702233  7.038549  7.515738 
dram[3]:  6.722944  7.086758  6.466667  6.733189  6.840708  6.921525  7.372549  7.408867  7.230769  7.127962  6.848214  6.610753  7.252337  7.664197  6.867257  7.102975 
dram[4]:  7.669136  6.977528  6.646681  7.303529  6.797357  7.034169  7.028038  7.978780  7.213429  7.230769  6.954751  6.986363  7.938619  7.918367  7.355450  7.607843 
dram[5]:  7.355450  7.091324  6.618337  6.675269  6.638710  7.244132  7.144893  7.634518  6.714286  7.094340  7.165501  7.319047  8.020672  7.607843  7.235431  7.515738 
average row locality = 295126/41301 = 7.145735
number of total memory accesses made:
dram[0]:         0         0         0         0         0         0         0         0         0         0         0         0         0         0         0         0 
dram[1]:         0         0         0         0         0         0         0         0         0         0         0         0         0         0         0         0 
dram[2]:         0         0         0         0         0         0         0         0         0         0         0         0         0         0         0         0 
dram[3]:         0         0         0         0         0         0         0         0         0         0         0         0         0         0         0         0 
dram[4]:         0         0         0         0         0         0         0         0         0         0         0         0         0         0         0         0 
dram[5]:         0         0         0         0         0         0         0         0         0         0         0         0         0         0         0         0 
total accesses: 0
min_bank_accesses = 0!
min_chip_accesses = 0!
number of total read accesses:
dram[0]:      1732      1728      1728      1728      1714      1712      1664      1664      1664      1664      1704      1708      1728      1728      1728      1728 
dram[1]:      1730      1728      1728      1728      1714      1712      1664      1664      1664      1664      1704      1708      1728      1728      1728      1728 
dram[2]:      1730      1728      1728      1728      1714      1710      1664      1664      1664      1664      1704      1708      1728      1728      1728      1728 
dram[3]:      1730      1728      1728      1728      1714      1710      1664      1664      1664      1664      1704      1708      1728      1728      1728      1728 
dram[4]:      1730      1729      1728      1728      1712      1710      1664      1664      1664      1664      1708      1708      1728      1728      1728      1728 
dram[5]:      1728      1730      1728      1728      1712      1710      1664      1664      1664      1664      1708      1708      1728      1728      1728      1728 
total reads: 163919
bank skew: 1732/1664 = 1.04
chip skew: 27322/27318 = 1.00
number of total write accesses:
dram[0]:      1376      1376      1376      1376      1376      1376      1344      1344      1344      1344      1364      1366      1376      1376      1376      1376 
dram[1]:      1376      1376      1376      1376      1377      1374      1344      1344      1344      1344      1364      1366      1376      1376      1376      1376 
dram[2]:      1376      1376      1376      1376      1378      1380      1344      1344      1344      1344      1364      1366      1376      1376      1376      1376 
dram[3]:      1376      1376      1376      1376      1378      1377      1344      1344      1344      1344      1364      1366      1376      1376      1376      1376 
dram[4]:      1376      1376      1376      1376      1374      1378      1344      1344      1344      1344      1366      1366      1376      1376      1376      1376 
dram[5]:      1376      1376      1376      1376      1375      1376      1344      1344      1344      1344      1366      1366      1376      1376      1376      1376 
total reads: 131207
bank skew: 1380/1344 = 1.03
chip skew: 21872/21865 = 1.00
average mf latency per bank:
dram[0]:        317       314       319       311       325       318       326       325       315       313       310       308       319       317       324       319
dram[1]:        308       305       306       308       317       315       320       316       306       306       303       301       309       311       315       314
dram[2]:        310       309       311       310       320       319       321       322       309       309       305       308       315       322       323       319
dram[3]:        314       314       314       313       325       323       328       326       316       314       310       312       318       323       324       323
dram[4]:        315       310       315       313       323       328       325       327       315       312       308       311       318       320       321       324
dram[5]:        314       310       315       311       324       321       322       324       312       311       312       307       318       319       318       320
maximum mf latency per bank:
dram[0]:       1520      1421      1476      1490      1552      1743      1330      1212      1260      1071      1365      1108      1456      1209      2093      1411
dram[1]:       1423      1537      1311      1453      1466      1647      1419      1223      1532      1061      1173      1077      1125      1149      1647      1406
dram[2]:       1508      1463      1258      1576      1366      1637      1474      1241      1234      1034      1219      1020      1067      1299      1598      1592
dram[3]:       1273      1554      1270      1563      1581      1535      1483      1392      1390      1122      1011      1110      1210      1192      1446      1656
dram[4]:       1596      1571      1664      1707      1839      1577      1283      1413      1120      1394      1426      1263      1310      1248      1486      1723
dram[5]:       1715      1443      1564      1504      1858      1641      1333      1300      1044      1314      1138      1143      1109      1139      1377      1614

Number of Memory Banks Accessed per Memory Operation per Warp (from 0):
0	0	0	0	0	0	0	0	0	0	0	0	0	0	0	0	0	0	0	0	0	0	0	0	0	0	0	0	0	0	0	0	0	0	0	0	0	0	0	0	0	0	0	0	0	0	0	0	0	0	0	0	0	0	0	0	0	0	0	0	0	0	0	0	0	0	0	0	0	0	0	0	0	0	0	0	0	0	0	0	0	0	0	0	0	0	0	0	0	0	0	0	0	0	0	0	
Average # of Memory Banks Accessed per Memory Operation per Warp=-nan

position of mrq chosen
0	0	0	0	0	0	0	0	0	0	0	0	0	0	0	0	

average position of mrq chosen = -nan
Memory Partition 0: 
Cache L2_bank_000:
MSHR contents

Cache L2_bank_001:
MSHR contents

In Dram Latency Queue (total = 0): 
DRAM[0]: 16 bks, busW=4 BL=8 CL=12, tRRD=2 tCCD=6, tRCD=12 tRAS=28 tRP=12 tRC=40
n_cmd=484173 n_nop=372019 n_act=6903 n_pre=6887 n_req=49188 n_rd=54644 n_write=43720 bw_util=0.4063
n_activity=350552 dram_eff=0.5612
bk0: 3464a 392192i bk1: 3456a 388796i bk2: 3456a 386876i bk3: 3456a 387838i bk4: 3428a 385719i bk5: 3424a 384314i bk6: 3328a 385035i bk7: 3328a 378989i bk8: 3328a 394626i bk9: 3328a 391823i bk10: 3408a 388294i bk11: 3416a 384158i bk12: 3456a 384348i bk13: 3456a 380842i bk14: 3456a 380222i bk15: 3456a 376746i 
dram_util_bins: 0 0 0 0 0 0 0 0 0 0
dram_eff_bins: 0 0 0 0 0 0 0 0 0 0
mrqq: max=16 avg=5.54428
Memory Partition 1: 
Cache L2_bank_002:
MSHR contents

Cache L2_bank_003:
MSHR contents

In Dram Latency Queue (total = 0): 
DRAM[1]: 16 bks, busW=4 BL=8 CL=12, tRRD=2 tCCD=6, tRCD=12 tRAS=28 tRP=12 tRC=40
n_cmd=484173 n_nop=372028 n_act=6901 n_pre=6885 n_req=49185 n_rd=54640 n_write=43719 bw_util=0.4063
n_activity=350700 dram_eff=0.5609
bk0: 3460a 393114i bk1: 3456a 389386i bk2: 3456a 389358i bk3: 3456a 382942i bk4: 3428a 384912i bk5: 3424a 383643i bk6: 3328a 384310i bk7: 3328a 379550i bk8: 3328a 394623i bk9: 3328a 392590i bk10: 3408a 388181i bk11: 3416a 387241i bk12: 3456a 385592i bk13: 3456a 382681i bk14: 3456a 382581i bk15: 3456a 377956i 
dram_util_bins: 0 0 0 0 0 0 0 0 0 0
dram_eff_bins: 0 0 0 0 0 0 0 0 0 0
mrqq: max=16 avg=5.43225
Memory Partition 2: 
Cache L2_bank_004:
MSHR contents

Cache L2_bank_005:
MSHR contents

In Dram Latency Queue (total = 0): 
DRAM[2]: 16 bks, busW=4 BL=8 CL=12, tRRD=2 tCCD=6, tRCD=12 tRAS=28 tRP=12 tRC=40
n_cmd=484173 n_nop=372135 n_act=6846 n_pre=6830 n_req=49190 n_rd=54636 n_write=43726 bw_util=0.4063
n_activity=352047 dram_eff=0.5588
bk0: 3460a 392892i bk1: 3456a 388893i bk2: 3456a 387613i bk3: 3456a 385839i bk4: 3428a 383457i bk5: 3420a 382276i bk6: 3328a 382869i bk7: 3328a 380593i bk8: 3328a 393347i bk9: 3328a 391656i bk10: 3408a 388884i bk11: 3416a 382402i bk12: 3456a 385993i bk13: 3456a 382134i bk14: 3456a 381727i bk15: 3456a 377619i 
dram_util_bins: 0 0 0 0 0 0 0 0 0 0
dram_eff_bins: 0 0 0 0 0 0 0 0 0 0
mrqq: max=16 avg=5.49147
Memory Partition 3: 
Cache L2_bank_006:
MSHR contents

Cache L2_bank_007:
MSHR contents
MSHR: tag=0x847fc580, atomic=0 1 entries : 0x7fc7d3642a30 :  mf: uid=5233367, sid14:w27, part=3, addr=0x847fc580, load , size=128, unknown  status = IN_PARTITION_DRAM (366790), 

In Dram Latency Queue (total = 0): 
DRAM[3]: 16 bks, busW=4 BL=8 CL=12, tRRD=2 tCCD=6, tRCD=12 tRAS=28 tRP=12 tRC=40
n_cmd=484173 n_nop=371778 n_act=7026 n_pre=7010 n_req=49187 n_rd=54636 n_write=43723 bw_util=0.4063
n_activity=351019 dram_eff=0.5604
bk0: 3460a 393892i bk1: 3456a 387250i bk2: 3456a 386762i bk3: 3456a 385277i bk4: 3428a 386900i bk5: 3420a 379206i bk6: 3328a 384367i bk7: 3328a 380009i bk8: 3328a 394488i bk9: 3328a 391065i bk10: 3408a 389843i bk11: 3416a 383004i bk12: 3456a 385550i bk13: 3456a 381412i bk14: 3456a 381368i bk15: 3456a 377024i 
dram_util_bins: 0 0 0 0 0 0 0 0 0 0
dram_eff_bins: 0 0 0 0 0 0 0 0 0 0
mrqq: max=16 avg=5.60064
Memory Partition 4: 
Cache L2_bank_008:
MSHR contents

Cache L2_bank_009:
MSHR contents

In Dram Latency Queue (total = 0): 
DRAM[4]: 16 bks, busW=4 BL=8 CL=12, tRRD=2 tCCD=6, tRCD=12 tRAS=28 tRP=12 tRC=40
n_cmd=484173 n_nop=372287 n_act=6768 n_pre=6752 n_req=49189 n_rd=54642 n_write=43724 bw_util=0.4063
n_activity=351210 dram_eff=0.5602
bk0: 3460a 395376i bk1: 3458a 389242i bk2: 3456a 390099i bk3: 3456a 383280i bk4: 3424a 385582i bk5: 3420a 380659i bk6: 3328a 383012i bk7: 3328a 382042i bk8: 3328a 396519i bk9: 3328a 390948i bk10: 3416a 389317i bk11: 3416a 384144i bk12: 3456a 387643i bk13: 3456a 383095i bk14: 3456a 382163i bk15: 3456a 374965i 
dram_util_bins: 0 0 0 0 0 0 0 0 0 0
dram_eff_bins: 0 0 0 0 0 0 0 0 0 0
mrqq: max=16 avg=5.51872
Memory Partition 5: 
Cache L2_bank_010:
MSHR contents

Cache L2_bank_011:
MSHR contents
MSHR: tag=0x847fc780, atomic=0 1 entries : 0x7fc7d3643ac0 :  mf: uid=5233368, sid14:w31, part=5, addr=0x847fc780, load , size=128, unknown  status = IN_PARTITION_DRAM (366796), 

In Dram Latency Queue (total = 0): 
DRAM[5]: 16 bks, busW=4 BL=8 CL=12, tRRD=2 tCCD=6, tRCD=12 tRAS=28 tRP=12 tRC=40
n_cmd=484173 n_nop=372110 n_act=6858 n_pre=6842 n_req=49187 n_rd=54640 n_write=43723 bw_util=0.4063
n_activity=351368 dram_eff=0.5599
bk0: 3456a 393661i bk1: 3460a 386748i bk2: 3456a 388703i bk3: 3456a 384409i bk4: 3424a 386495i bk5: 3420a 380694i bk6: 3328a 382521i bk7: 3328a 378014i bk8: 3328a 394837i bk9: 3328a 389810i bk10: 3416a 389179i bk11: 3416a 383643i bk12: 3456a 386433i bk13: 3456a 380151i bk14: 3456a 383305i bk15: 3456a 375978i 
dram_util_bins: 0 0 0 0 0 0 0 0 0 0
dram_eff_bins: 0 0 0 0 0 0 0 0 0 0
mrqq: max=16 avg=5.54353

========= L2 cache stats =========
L2_cache_bank[0]: Access = 22096, Miss = 13662, Miss_rate = 0.618, Pending_hits = 12, Reservation_fails = 332
L2_cache_bank[1]: Access = 21976, Miss = 13660, Miss_rate = 0.622, Pending_hits = 2, Reservation_fails = 34
L2_cache_bank[2]: Access = 22066, Miss = 13660, Miss_rate = 0.619, Pending_hits = 7, Reservation_fails = 510
L2_cache_bank[3]: Access = 21976, Miss = 13660, Miss_rate = 0.622, Pending_hits = 0, Reservation_fails = 58
L2_cache_bank[4]: Access = 22066, Miss = 13660, Miss_rate = 0.619, Pending_hits = 6, Reservation_fails = 132
L2_cache_bank[5]: Access = 22036, Miss = 13658, Miss_rate = 0.620, Pending_hits = 4, Reservation_fails = 147
L2_cache_bank[6]: Access = 22066, Miss = 13660, Miss_rate = 0.619, Pending_hits = 3, Reservation_fails = 53
L2_cache_bank[7]: Access = 22036, Miss = 13658, Miss_rate = 0.620, Pending_hits = 1, Reservation_fails = 101
L2_cache_bank[8]: Access = 22006, Miss = 13662, Miss_rate = 0.621, Pending_hits = 3, Reservation_fails = 157
L2_cache_bank[9]: Access = 22051, Miss = 13659, Miss_rate = 0.619, Pending_hits = 5, Reservation_fails = 171
L2_cache_bank[10]: Access = 21976, Miss = 13660, Miss_rate = 0.622, Pending_hits = 1, Reservation_fails = 68
L2_cache_bank[11]: Access = 22066, Miss = 13660, Miss_rate = 0.619, Pending_hits = 6, Reservation_fails = 348
L2_total_cache_accesses = 264417
L2_total_cache_misses = 163919
L2_total_cache_miss_rate = 0.6199
L2_total_cache_pending_hits = 50
L2_total_cache_reservation_fails = 2111
L2_total_cache_breakdown:
	L2_cache_stats_breakdown[GLOBAL_ACC_R][MISS] = 131072
	L2_cache_stats_breakdown[GLOBAL_ACC_R][RESERVATION_FAIL] = 678
	L2_cache_stats_breakdown[CONST_ACC_R][HIT] = 11
	L2_cache_stats_breakdown[CONST_ACC_R][HIT_RESERVED] = 3
	L2_cache_stats_breakdown[CONST_ACC_R][MISS] = 1
	L2_cache_stats_breakdown[CONST_ACC_R][RESERVATION_FAIL] = 99
	L2_cache_stats_breakdown[GLOBAL_ACC_W][HIT] = 100273
	L2_cache_stats_breakdown[GLOBAL_ACC_W][HIT_RESERVED] = 15
	L2_cache_stats_breakdown[GLOBAL_ACC_W][MISS] = 32832
	L2_cache_stats_breakdown[GLOBAL_ACC_W][RESERVATION_FAIL] = 172
	L2_cache_stats_breakdown[INST_ACC_R][HIT] = 164
	L2_cache_stats_breakdown[INST_ACC_R][HIT_RESERVED] = 32
	L2_cache_stats_breakdown[INST_ACC_R][MISS] = 14
	L2_cache_stats_breakdown[INST_ACC_R][RESERVATION_FAIL] = 1162
L2_cache_data_port_util = 0.177
L2_cache_fill_port_util = 0.149

icnt_total_pkts_mem_to_simt=789575
icnt_total_pkts_simt_to_mem=790753
LD_mem_lat_dist  0 0 0 0 0 0 0 0 0 0 0 0 0 0 0 0 0 0 0 0 0 0 0 0 0 0 0
ST_mem_lat_dist  0 0 0 0 0 0 0 0 0 0 0 0 0 0 0 0 0 0 0 0 0 0 0 0 0 0 0
----------------------------Interconnect-DETAILS--------------------------------
Class 0:
Packet latency average = 12.3882
	minimum = 6
	maximum = 908
Network latency average = 10.8645
	minimum = 6
	maximum = 634
Slowest packet = 397799
Flit latency average = 8.87019
	minimum = 6
	maximum = 634
Slowest flit = 1197598
Fragmentation average = 0.0664068
	minimum = 0
	maximum = 345
Injected packet rate average = 0.0208912
	minimum = 0.0187288 (at node 0)
	maximum = 0.0236587 (at node 15)
Accepted packet rate average = 0.0208912
	minimum = 0.0187288 (at node 0)
	maximum = 0.0236587 (at node 15)
Injected flit rate average = 0.0617261
	minimum = 0.0555368 (at node 0)
	maximum = 0.0696271 (at node 15)
Accepted flit rate average= 0.0617261
	minimum = 0.0551371 (at node 0)
	maximum = 0.0699269 (at node 15)
Injected packet length average = 2.95465
Accepted packet length average = 2.95465
Total in-flight flits = 0 (0 measured)
====== Overall Traffic Statistics ======
====== Traffic class 0 ======
Packet latency average = 21.9196 (2 samples)
	minimum = 6 (2 samples)
	maximum = 607.5 (2 samples)
Network latency average = 16.3192 (2 samples)
	minimum = 6 (2 samples)
	maximum = 470.5 (2 samples)
Flit latency average = 13.2938 (2 samples)
	minimum = 6 (2 samples)
	maximum = 456 (2 samples)
Fragmentation average = 0.0645317 (2 samples)
	minimum = 0 (2 samples)
	maximum = 269 (2 samples)
Injected packet rate average = 0.0679701 (2 samples)
	minimum = 0.0588495 (2 samples)
	maximum = 0.0766382 (2 samples)
Accepted packet rate average = 0.0679701 (2 samples)
	minimum = 0.0588495 (2 samples)
	maximum = 0.0766382 (2 samples)
Injected flit rate average = 0.203432 (2 samples)
	minimum = 0.176184 (2 samples)
	maximum = 0.229477 (2 samples)
Accepted flit rate average = 0.203432 (2 samples)
	minimum = 0.176056 (2 samples)
	maximum = 0.229153 (2 samples)
Injected packet size average = 2.99297 (2 samples)
Accepted packet size average = 2.99297 (2 samples)
Hops average = 1 (2 samples)
