

        *** GPGPU-Sim Simulator Version 3.2.2  [build 0] ***


GPGPU-Sim PTX: simulation mode 0 (can change with PTX_SIM_MODE_FUNC environment variable:
               1=functional simulation only, 0=detailed performance simulator)
GPGPU-Sim: Configuration options:

-network_mode                           1 # Interconnection network mode
-inter_config_file   config_fermi_islip.icnt # Interconnection network config file
-gpgpu_ptx_use_cuobjdump                    1 # Use cuobjdump to extract ptx and sass from binaries
-gpgpu_experimental_lib_support                    0 # Try to extract code from cuda libraries [Broken because of unknown cudaGetExportTable]
-gpgpu_ptx_convert_to_ptxplus                    0 # Convert SASS (native ISA) to ptxplus and run ptxplus
-gpgpu_ptx_force_max_capability                   20 # Force maximum compute capability
-gpgpu_ptx_inst_debug_to_file                    0 # Dump executed instructions' debug information to file
-gpgpu_ptx_inst_debug_file       inst_debug.txt # Executed instructions' debug output file
-gpgpu_ptx_inst_debug_thread_uid                    1 # Thread UID for executed instructions' debug output
-gpgpu_simd_model                       1 # 1 = post-dominator
-gpgpu_shader_core_pipeline              1536:32 # shader core pipeline config, i.e., {<nthread>:<warpsize>}
-gpgpu_tex_cache:l1  4:128:24,L:R:m:N:L,F:128:4,128:2 # per-shader L1 texture cache  (READ-ONLY) config  {<nsets>:<bsize>:<assoc>,<rep>:<wr>:<alloc>:<wr_alloc>,<mshr>:<N>:<merge>,<mq>:<rf>}
-gpgpu_const_cache:l1 64:64:2,L:R:f:N:L,A:2:32,4 # per-shader L1 constant memory cache  (READ-ONLY) config  {<nsets>:<bsize>:<assoc>,<rep>:<wr>:<alloc>:<wr_alloc>,<mshr>:<N>:<merge>,<mq>} 
-gpgpu_cache:il1     4:128:4,L:R:f:N:L,A:2:32,4 # shader L1 instruction cache config  {<nsets>:<bsize>:<assoc>,<rep>:<wr>:<alloc>:<wr_alloc>,<mshr>:<N>:<merge>,<mq>} 
-gpgpu_cache:dl1     32:128:4,L:L:m:N:H,A:32:8,8:2,0,1:0:1:1:0:1,1:4:8:16:32:64,/sciclone/data10/hwang07/GPU_RESEARCH/swl/swl_outputs/RESULTS/swl16/ # per-shader L1 data cache config  {<nsets>:<bsize>:<assoc>,<rep>:<wr>:<alloc>:<wr_alloc>,<mshr>:<N>:<merge>,<mq> | none}
-gpgpu_cache:dl1PrefL1                 none # per-shader L1 data cache config  {<nsets>:<bsize>:<assoc>,<rep>:<wr>:<alloc>:<wr_alloc>,<mshr>:<N>:<merge>,<mq> | none}
-gpgpu_cache:dl1PreShared                 none # per-shader L1 data cache config  {<nsets>:<bsize>:<assoc>,<rep>:<wr>:<alloc>:<wr_alloc>,<mshr>:<N>:<merge>,<mq> | none}
-gmem_skip_L1D                          0 # global memory access skip L1D cache (implements -Xptxas -dlcm=cg, default=no skip)
-gpgpu_perfect_mem                      0 # enable perfect memory mode (no cache miss)
-n_regfile_gating_group                    4 # group of lanes that should be read/written together)
-gpgpu_clock_gated_reg_file                    0 # enable clock gated reg file for power calculations
-gpgpu_clock_gated_lanes                    0 # enable clock gated lanes for power calculations
-gpgpu_shader_registers                32768 # Number of registers per shader core. Limits number of concurrent CTAs. (default 8192)
-gpgpu_shader_cta                       8 # Maximum number of concurrent CTAs in shader (default 8)
-gpgpu_num_cta_barriers                   16 # Maximum number of named barriers per CTA (default 16)
-gpgpu_n_clusters                      15 # number of processing clusters
-gpgpu_n_cores_per_cluster                    1 # number of simd cores per cluster
-gpgpu_n_cluster_ejection_buffer_size                    8 # number of packets in ejection buffer
-gpgpu_n_ldst_response_buffer_size                    2 # number of response packets in ld/st unit ejection buffer
-gpgpu_shmem_size                   16384 # Size of shared memory per shader core (default 16kB)
-gpgpu_shmem_size                   49152 # Size of shared memory per shader core (default 16kB)
-gpgpu_shmem_size_PrefL1                16384 # Size of shared memory per shader core (default 16kB)
-gpgpu_shmem_size_PrefShared                16384 # Size of shared memory per shader core (default 16kB)
-gpgpu_shmem_num_banks                   32 # Number of banks in the shared memory in each shader core (default 16)
-gpgpu_shmem_limited_broadcast                    0 # Limit shared memory to do one broadcast per cycle (default on)
-gpgpu_shmem_warp_parts                    1 # Number of portions a warp is divided into for shared memory bank conflict check 
-gpgpu_warpdistro_shader                   -1 # Specify which shader core to collect the warp size distribution from
-gpgpu_warp_issue_shader                    0 # Specify which shader core to collect the warp issue distribution from
-gpgpu_local_mem_map                    1 # Mapping from local memory space address to simulated GPU physical address space (default = enabled)
-gpgpu_num_reg_banks                   16 # Number of register banks (default = 8)
-gpgpu_reg_bank_use_warp_id                    0 # Use warp ID in mapping registers to banks (default = off)
-gpgpu_operand_collector_num_units_sp                    6 # number of collector units (default = 4)
-gpgpu_operand_collector_num_units_sfu                    8 # number of collector units (default = 4)
-gpgpu_operand_collector_num_units_mem                    2 # number of collector units (default = 2)
-gpgpu_operand_collector_num_units_gen                    0 # number of collector units (default = 0)
-gpgpu_operand_collector_num_in_ports_sp                    2 # number of collector unit in ports (default = 1)
-gpgpu_operand_collector_num_in_ports_sfu                    1 # number of collector unit in ports (default = 1)
-gpgpu_operand_collector_num_in_ports_mem                    1 # number of collector unit in ports (default = 1)
-gpgpu_operand_collector_num_in_ports_gen                    0 # number of collector unit in ports (default = 0)
-gpgpu_operand_collector_num_out_ports_sp                    2 # number of collector unit in ports (default = 1)
-gpgpu_operand_collector_num_out_ports_sfu                    1 # number of collector unit in ports (default = 1)
-gpgpu_operand_collector_num_out_ports_mem                    1 # number of collector unit in ports (default = 1)
-gpgpu_operand_collector_num_out_ports_gen                    0 # number of collector unit in ports (default = 0)
-gpgpu_coalesce_arch                   13 # Coalescing arch (default = 13, anything else is off for now)
-gpgpu_num_sched_per_core                    2 # Number of warp schedulers per core
-gpgpu_max_insn_issue_per_warp                    1 # Max number of instructions that can be issued per warp in one cycle by scheduler
-gpgpu_simt_core_sim_order                    1 # Select the simulation order of cores in a cluster (0=Fix, 1=Round-Robin)
-gpgpu_pipeline_widths        2,1,1,2,1,1,2 # Pipeline widths ID_OC_SP,ID_OC_SFU,ID_OC_MEM,OC_EX_SP,OC_EX_SFU,OC_EX_MEM,EX_WB
-gpgpu_num_sp_units                     2 # Number of SP units (default=1)
-gpgpu_num_sfu_units                    1 # Number of SF units (default=1)
-gpgpu_num_mem_units                    1 # Number if ldst units (default=1) WARNING: not hooked up to anything
-gpgpu_scheduler       warp_limiting:2:16 # Scheduler configuration: < lrr | gto | two_level_active > If two_level_active:<num_active_warps>:<inner_prioritization>:<outer_prioritization>For complete list of prioritization values see shader.h enum scheduler_prioritization_typeDefault: gto
-gpgpu_dram_scheduler                    1 # 0 = fifo, 1 = FR-FCFS (defaul)
-gpgpu_dram_partition_queues              8:8:8:8 # i2$:$2d:d2$:$2i
-l2_ideal                               0 # Use a ideal L2 cache that always hit
-gpgpu_cache:dl2     64:128:8,L:B:m:W:L,A:32:4,4:0,32 # unified banked L2 data cache config  {<nsets>:<bsize>:<assoc>,<rep>:<wr>:<alloc>:<wr_alloc>,<mshr>:<N>:<merge>,<mq>}
-gpgpu_cache:dl2_texture_only                    0 # L2 cache used for texture only
-gpgpu_n_mem                            6 # number of memory modules (e.g. memory controllers) in gpu
-gpgpu_n_sub_partition_per_mchannel                    2 # number of memory subpartition in each memory module
-gpgpu_n_mem_per_ctrlr                    2 # number of memory chips per memory controller
-gpgpu_memlatency_stat                   14 # track and display latency statistics 0x2 enables MC, 0x4 enables queue logs
-gpgpu_frfcfs_dram_sched_queue_size                   16 # 0 = unlimited (default); # entries per chip
-gpgpu_dram_return_queue_size                  116 # 0 = unlimited (default); # entries per chip
-gpgpu_dram_buswidth                    4 # default = 4 bytes (8 bytes per cycle at DDR)
-gpgpu_dram_burst_length                    8 # Burst length of each DRAM request (default = 4 data bus cycle)
-dram_data_command_freq_ratio                    4 # Frequency ratio between DRAM data bus and command bus (default = 2 times, i.e. DDR)
-gpgpu_dram_timing_opt nbk=16:CCD=2:RRD=6:RCD=12:RAS=28:RP=12:RC=40: CL=12:WL=4:CDLR=5:WR=12:nbkgrp=4:CCDL=3:RTPL=2 # DRAM timing parameters = {nbk:tCCD:tRRD:tRCD:tRAS:tRP:tRC:CL:WL:tCDLR:tWR:nbkgrp:tCCDL:tRTPL}
-rop_latency                          120 # ROP queue latency (default 85)
-dram_latency                         100 # DRAM latency (default 30)
-gpgpu_mem_addr_mapping dramid@8;00000000.00000000.00000000.00000000.0000RRRR.RRRRRRRR.BBBCCCCB.CCSSSSSS # mapping memory address to dram model {dramid@<start bit>;<memory address map>}
-gpgpu_mem_addr_test                    0 # run sweep test to check address mapping for aliased address
-gpgpu_mem_address_mask                    1 # 0 = old addressing mask, 1 = new addressing mask, 2 = new add. mask + flipped bank sel and chip sel bits
-gpuwattch_xml_file  gpuwattch_gtx480.xml # GPUWattch XML file
-power_simulation_enabled                    0 # Turn on power simulator (1=On, 0=Off)
-power_per_cycle_dump                    0 # Dump detailed power output each cycle
-power_trace_enabled                    0 # produce a file for the power trace (1=On, 0=Off)
-power_trace_zlevel                     6 # Compression level of the power trace output log (0=no comp, 9=highest)
-steady_power_levels_enabled                    0 # produce a file for the steady power levels (1=On, 0=Off)
-steady_state_definition                  8:4 # allowed deviation:number of samples
-gpgpu_max_cycle                        0 # terminates gpu simulation early (0 = no limit)
-gpgpu_max_insn                         0 # terminates gpu simulation early (0 = no limit)
-gpgpu_max_cta                          0 # terminates gpu simulation early (0 = no limit)
-gpgpu_runtime_stat                   500 # display runtime statistics such as dram utilization {<freq>:<flag>}
-liveness_message_freq                    1 # Minimum number of seconds between simulation liveness messages (0 = always print)
-gpgpu_flush_l1_cache                    0 # Flush L1 cache at the end of each kernel call
-gpgpu_flush_l2_cache                    0 # Flush L2 cache at the end of each kernel call
-gpgpu_deadlock_detect                    1 # Stop the simulation at deadlock (1=on (default), 0=off)
-gpgpu_ptx_instruction_classification                    0 # if enabled will classify ptx instruction types per kernel (Max 255 kernels now)
-gpgpu_ptx_sim_mode                     0 # Select between Performance (default) or Functional simulation (1)
-gpgpu_clock_domains 700.0:700.0:700.0:924.0 # Clock Domain Frequencies in MhZ {<Core Clock>:<ICNT Clock>:<L2 Clock>:<DRAM Clock>}
-gpgpu_max_concurrent_kernel                    8 # maximum kernels that can run concurrently on GPU
-gpgpu_cflog_interval                    0 # Interval between each snapshot in control flow logger
-visualizer_enabled                     0 # Turn on visualizer output (1=On, 0=Off)
-visualizer_outputfile                 NULL # Specifies the output log file for visualizer
-visualizer_zlevel                      6 # Compression level of the visualizer output log (0=no comp, 9=highest)
-trace_enabled                          0 # Turn on traces
-trace_components                    none # comma seperated list of traces to enable. Complete list found in trace_streams.tup. Default none
-trace_sampling_core                    0 # The core which is printed using CORE_DPRINTF. Default 0
-trace_sampling_memory_partition                   -1 # The memory partition which is printed using MEMPART_DPRINTF. Default -1 (i.e. all)
-enable_ptx_file_line_stats                    1 # Turn on PTX source line statistic profiling. (1 = On)
-ptx_line_stats_filename gpgpu_inst_stats.txt # Output file for PTX source line statistics.
-save_embedded_ptx                      0 # saves ptx files embedded in binary as <n>.ptx
-keep                                   0 # keep intermediate files created by GPGPU-Sim when interfacing with external programs
-gpgpu_ptx_save_converted_ptxplus                    0 # Saved converted ptxplus to a file
-ptx_opcode_latency_int         4,13,4,5,145 # Opcode latencies for integers <ADD,MAX,MUL,MAD,DIV>Default 1,1,19,25,145
-ptx_opcode_latency_fp          4,13,4,5,39 # Opcode latencies for single precision floating points <ADD,MAX,MUL,MAD,DIV>Default 1,1,1,1,30
-ptx_opcode_latency_dp         8,19,8,8,330 # Opcode latencies for double precision floating points <ADD,MAX,MUL,MAD,DIV>Default 8,8,8,8,335
-ptx_opcode_initiation_int            1,2,2,1,8 # Opcode initiation intervals for integers <ADD,MAX,MUL,MAD,DIV>Default 1,1,4,4,32
-ptx_opcode_initiation_fp            1,2,1,1,4 # Opcode initiation intervals for single precision floating points <ADD,MAX,MUL,MAD,DIV>Default 1,1,1,1,5
-ptx_opcode_initiation_dp         8,16,8,8,130 # Opcode initiation intervals for double precision floating points <ADD,MAX,MUL,MAD,DIV>Default 8,8,8,8,130
DRAM Timing Options:
nbk                                    16 # number of banks
CCD                                     2 # column to column delay
RRD                                     6 # minimal delay between activation of rows in different banks
RCD                                    12 # row to column delay
RAS                                    28 # time needed to activate row
RP                                     12 # time needed to precharge (deactivate) row
RC                                     40 # row cycle time
CDLR                                    5 # switching from write to read (changes tWTR)
WR                                     12 # last data-in to row precharge
CL                                     12 # CAS latency
WL                                      4 # Write latency
nbkgrp                                  4 # number of bank groups
CCDL                                    3 # column to column delay between accesses to different bank groups
RTPL                                    2 # read to precharge delay between accesses to different bank groups
Total number of memory sub partition = 12
addr_dec_mask[CHIP]  = 0000000000000000 	high:64 low:0
addr_dec_mask[BK]    = 000000000000e100 	high:16 low:8
addr_dec_mask[ROW]   = 000000000fff0000 	high:28 low:16
addr_dec_mask[COL]   = 0000000000001eff 	high:13 low:0
addr_dec_mask[BURST] = 000000000000003f 	high:6 low:0
sub_partition_id_mask = 0000000000000100
GPGPU-Sim uArch: clock freqs: 700000000.000000:700000000.000000:700000000.000000:924000000.000000
GPGPU-Sim uArch: clock periods: 0.00000000142857142857:0.00000000142857142857:0.00000000142857142857:0.00000000108225108225
*** Initializing Memory Statistics ***
GPGPU-Sim uArch: interconnect node map (shaderID+MemID to icntID)
GPGPU-Sim uArch: Memory nodes ID start from index: 15
GPGPU-Sim uArch:    0   1   2   3   4
GPGPU-Sim uArch:    5   6   7   8   9
GPGPU-Sim uArch:   10  11  12  13  14
GPGPU-Sim uArch:   15  16  17  18  19
GPGPU-Sim uArch:   20  21  22  23  24
GPGPU-Sim uArch:   25  26
GPGPU-Sim uArch: interconnect node reverse map (icntID to shaderID+MemID)
GPGPU-Sim uArch: Memory nodes start from ID: 15
GPGPU-Sim uArch:    0   1   2   3   4
GPGPU-Sim uArch:    5   6   7   8   9
GPGPU-Sim uArch:   10  11  12  13  14
GPGPU-Sim uArch:   15  16  17  18  19
GPGPU-Sim uArch:   20  21  22  23  24
GPGPU-Sim uArch:   25  26
3f6c321e31928578cff917a813374c5f  /sciclone/data10/hwang07/adwait/applications/benchmarks/lonestar/bin/sssp
GPGPU-Sim uArch: performance model initialization complete.
GPGPU-Sim PTX: __cudaRegisterFatBinary, fat_cubin_handle = 1, filename=apps/sssp/./main.cu
self exe links to: /sciclone/data10/hwang07/adwait/applications/benchmarks/lonestar/bin/sssp
Running md5sum using "md5sum /sciclone/data10/hwang07/adwait/applications/benchmarks/lonestar/bin/sssp "
Parsing file _cuobjdump_complete_output_cW5RiM
######### cuobjdump parser ########
## Adding new section PTX
Adding ptx filename: _cuobjdump_1.ptx
Adding arch: sm_20
Adding identifier: apps/sssp/./main.cu
## Adding new section ELF
Adding arch: sm_20
Adding identifier: apps/sssp/./main.cu
Done parsing!!!
GPGPU-Sim PTX: __cudaRegisterFunction _Z6drelaxPj5GraphPb : hostFun 0x0x403050, fat_cubin_handle = 1
GPGPU-Sim PTX: allocating stack frame region for .param "__cudaparmf1__Z11global_syncjPVjS0_" from 0x0 to 0x4
GPGPU-Sim PTX: allocating stack frame region for .param "__cudaparmf2__Z11global_syncjPVjS0_" from 0x4 to 0xc
GPGPU-Sim PTX: allocating stack frame region for .param "__cudaparmf3__Z11global_syncjPVjS0_" from 0xc to 0x14
GPGPU-Sim PTX: allocating stack frame region for .param "__cudaretf__Z11processedgePjR5GraphjjRj" from 0x0 to 0x4
GPGPU-Sim PTX: allocating stack frame region for .param "__cudaparmf1__Z11processedgePjR5GraphjjRj" from 0x4 to 0xc
GPGPU-Sim PTX: allocating stack frame region for .param "__cudaparmf2__Z11processedgePjR5GraphjjRj" from 0xc to 0x14
GPGPU-Sim PTX: allocating stack frame region for .param "__cudaparmf3__Z11processedgePjR5GraphjjRj" from 0x14 to 0x18
GPGPU-Sim PTX: allocating stack frame region for .param "__cudaparmf4__Z11processedgePjR5GraphjjRj" from 0x18 to 0x1c
GPGPU-Sim PTX: allocating stack frame region for .param "__cudaparmf5__Z11processedgePjR5GraphjjRj" from 0x1c to 0x24
GPGPU-Sim PTX: allocating stack frame region for .param "__cudaretf__ZN5Graph14getDestinationEjj" from 0x0 to 0x4
GPGPU-Sim PTX: allocating stack frame region for .param "__cudaparmf1__ZN5Graph14getDestinationEjj" from 0x4 to 0xc
GPGPU-Sim PTX: allocating stack frame region for .param "__cudaparmf2__ZN5Graph14getDestinationEjj" from 0xc to 0x10
GPGPU-Sim PTX: allocating stack frame region for .param "__cudaparmf3__ZN5Graph14getDestinationEjj" from 0x10 to 0x14
GPGPU-Sim PTX: allocating stack frame region for .param "__cudaretf__ZN5Graph9getWeightEjj" from 0x0 to 0x4
GPGPU-Sim PTX: allocating stack frame region for .param "__cudaparmf1__ZN5Graph9getWeightEjj" from 0x4 to 0xc
GPGPU-Sim PTX: allocating stack frame region for .param "__cudaparmf2__ZN5Graph9getWeightEjj" from 0xc to 0x10
GPGPU-Sim PTX: allocating stack frame region for .param "__cudaparmf3__ZN5Graph9getWeightEjj" from 0x10 to 0x14
GPGPU-Sim PTX: allocating stack frame region for .param "__cudaretf__Z11processnodePjR5Graphj" from 0x0 to 0x4
GPGPU-Sim PTX: allocating stack frame region for .param "__cudaparmf1__Z11processnodePjR5Graphj" from 0x4 to 0xc
GPGPU-Sim PTX: allocating stack frame region for .param "__cudaparmf2__Z11processnodePjR5Graphj" from 0xc to 0x14
GPGPU-Sim PTX: allocating stack frame region for .param "__cudaparmf3__Z11processnodePjR5Graphj" from 0x14 to 0x18
GPGPU-Sim PTX: allocating stack frame region for .param "__cudaretf__ZN5Graph12getOutDegreeEj" from 0x0 to 0x4
GPGPU-Sim PTX: allocating stack frame region for .param "__cudaparmf1__ZN5Graph12getOutDegreeEj" from 0x4 to 0xc
GPGPU-Sim PTX: allocating stack frame region for .param "__cudaparmf2__ZN5Graph12getOutDegreeEj" from 0xc to 0x10
GPGPU-Sim PTX: allocating stack frame region for .param "__cudaparmf1__ZN5Graph13printStats1x1Ev" from 0x0 to 0x8
GPGPU-Sim PTX: allocating stack frame region for .param "__cudaretf__ZN5Graph13computeLevelsEv" from 0x0 to 0x4
GPGPU-Sim PTX: allocating stack frame region for .param "__cudaparmf1__ZN5Graph13computeLevelsEv" from 0x4 to 0xc
GPGPU-Sim PTX: allocating stack frame region for .param "__cudaparmf1__ZN5Graph10initLevelsEv" from 0x0 to 0x8
GPGPU-Sim PTX: allocating stack frame region for .param "__cudaparmf1__ZN5Graph8print1x1Ev" from 0x0 to 0x8
GPGPU-Sim PTX: allocating stack frame region for .param "__cudaparmf1__ZN14ComponentSpace8print1x1Ev" from 0x0 to 0x8
GPGPU-Sim PTX: allocating stack frame region for .param "__cudaparmf1__ZN5Graph12computeStatsEv" from 0x0 to 0x8
GPGPU-Sim PTX: allocating stack frame region for .param "__cudaretf_printf" from 0x0 to 0x4
GPGPU-Sim PTX: allocating stack frame region for .param "__cudaparmf1_printf" from 0x4 to 0xc
GPGPU-Sim PTX: allocating stack frame region for .param "__cudaretf_vprintf" from 0x0 to 0x4
GPGPU-Sim PTX: allocating stack frame region for .param "__cudaparmf1_vprintf" from 0x4 to 0xc
GPGPU-Sim PTX: allocating stack frame region for .param "__cudaparmf2_vprintf" from 0xc to 0x14
GPGPU-Sim PTX: allocating stack frame region for .param "__cudaretf__ZN5Graph11getInDegreeEj" from 0x0 to 0x4
GPGPU-Sim PTX: allocating stack frame region for .param "__cudaparmf1__ZN5Graph11getInDegreeEj" from 0x4 to 0xc
GPGPU-Sim PTX: allocating stack frame region for .param "__cudaparmf2__ZN5Graph11getInDegreeEj" from 0xc to 0x10
GPGPU-Sim PTX: allocating stack frame region for .param "__cudaretf__ZN5Graph12getFirstEdgeEj" from 0x0 to 0x4
GPGPU-Sim PTX: allocating stack frame region for .param "__cudaparmf1__ZN5Graph12getFirstEdgeEj" from 0x4 to 0xc
GPGPU-Sim PTX: allocating stack frame region for .param "__cudaparmf2__ZN5Graph12getFirstEdgeEj" from 0xc to 0x10
GPGPU-Sim PTX: allocating stack frame region for .param "__cudaretf__ZN5Graph10getMinEdgeEj" from 0x0 to 0x4
GPGPU-Sim PTX: allocating stack frame region for .param "__cudaparmf1__ZN5Graph10getMinEdgeEj" from 0x4 to 0xc
GPGPU-Sim PTX: allocating stack frame region for .param "__cudaparmf2__ZN5Graph10getMinEdgeEj" from 0xc to 0x10
GPGPU-Sim PTX: allocating stack frame region for .param "__cudaparmf1__ZN5Graph12computeInOutEv" from 0x0 to 0x8
GPGPU-Sim PTX: allocating stack frame region for .param "__cudaparmf1__ZN5Graph15computeDiameterEv" from 0x0 to 0x8
GPGPU-Sim PTX: allocating stack frame region for .param "__cudaretf__ZN5Graph12findMaxLevelEv" from 0x0 to 0x4
GPGPU-Sim PTX: allocating stack frame region for .param "__cudaparmf1__ZN5Graph12findMaxLevelEv" from 0x4 to 0xc
GPGPU-Sim PTX: allocating stack frame region for .param "__cudaparmf1__ZN4ListC1Ej" from 0x0 to 0x8
GPGPU-Sim PTX: allocating stack frame region for .param "__cudaparmf2__ZN4ListC1Ej" from 0x8 to 0xc
GPGPU-Sim PTX: allocating stack frame region for .param "__cudaretf_malloc" from 0x0 to 0x8
GPGPU-Sim PTX: allocating stack frame region for .param "__cudaparmf1_malloc" from 0x8 to 0x10
GPGPU-Sim PTX: allocating stack frame region for .param "__cudaparmf1__ZN4List4initEPjjj" from 0x0 to 0x8
GPGPU-Sim PTX: allocating stack frame region for .param "__cudaparmf2__ZN4List4initEPjjj" from 0x8 to 0x10
GPGPU-Sim PTX: allocating stack frame region for .param "__cudaparmf3__ZN4List4initEPjjj" from 0x10 to 0x14
GPGPU-Sim PTX: allocating stack frame region for .param "__cudaparmf4__ZN4List4initEPjjj" from 0x14 to 0x18
GPGPU-Sim PTX: allocating stack frame region for .param "__cudaparmf1__ZN4List4pushEj" from 0x0 to 0x8
GPGPU-Sim PTX: allocating stack frame region for .param "__cudaparmf2__ZN4List4pushEj" from 0x8 to 0xc
GPGPU-Sim PTX: allocating stack frame region for .param "__cudaretf__ZN4List7toArrayEv" from 0x0 to 0x8
GPGPU-Sim PTX: allocating stack frame region for .param "__cudaparmf1__ZN4List7toArrayEv" from 0x8 to 0x10
GPGPU-Sim PTX: allocating stack frame region for .param "__cudaparmf1__ZN4List5clearEv" from 0x0 to 0x8
GPGPU-Sim PTX: allocating stack frame region for .param "__cudaparmf1_free" from 0x0 to 0x8
GPGPU-Sim PTX: allocating stack frame region for .param "__cudaretf__ZN4List4sizeEv" from 0x0 to 0x4
GPGPU-Sim PTX: allocating stack frame region for .param "__cudaparmf1__ZN4List4sizeEv" from 0x4 to 0xc
GPGPU-Sim PTX: allocating stack frame region for .param "__cudaparmf1__ZN4List4uniqEPjj" from 0x0 to 0x8
GPGPU-Sim PTX: allocating stack frame region for .param "__cudaparmf2__ZN4List4uniqEPjj" from 0x8 to 0x10
GPGPU-Sim PTX: allocating stack frame region for .param "__cudaparmf3__ZN4List4uniqEPjj" from 0x10 to 0x14
GPGPU-Sim PTX: allocating stack frame region for .param "__cudaretf__ZN14ComponentSpace16numberOfElementsEv" from 0x0 to 0x4
GPGPU-Sim PTX: allocating stack frame region for .param "__cudaparmf1__ZN14ComponentSpace16numberOfElementsEv" from 0x4 to 0xc
GPGPU-Sim PTX: allocating stack frame region for .param "__cudaretf__ZN14ComponentSpace18numberOfComponentsEv" from 0x0 to 0x4
GPGPU-Sim PTX: allocating stack frame region for .param "__cudaparmf1__ZN14ComponentSpace18numberOfComponentsEv" from 0x4 to 0xc
GPGPU-Sim PTX: allocating stack frame region for .param "__cudaretf__ZN14ComponentSpace6isBossEj" from 0x0 to 0x4
GPGPU-Sim PTX: allocating stack frame region for .param "__cudaparmf1__ZN14ComponentSpace6isBossEj" from 0x4 to 0xc
GPGPU-Sim PTX: allocating stack frame region for .param "__cudaparmf2__ZN14ComponentSpace6isBossEj" from 0xc to 0x10
GPGPU-Sim PTX: allocating stack frame region for .param "__cudaretf__ZN14ComponentSpace4findEjb" from 0x0 to 0x4
GPGPU-Sim PTX: allocating stack frame region for .param "__cudaparmf1__ZN14ComponentSpace4findEjb" from 0x4 to 0xc
GPGPU-Sim PTX: allocating stack frame region for .param "__cudaparmf2__ZN14ComponentSpace4findEjb" from 0xc to 0x10
GPGPU-Sim PTX: allocating stack frame region for .param "__cudaparmf3__ZN14ComponentSpace4findEjb" from 0x10 to 0x14
GPGPU-Sim PTX: allocating stack frame region for .param "__cudaretf__ZN14ComponentSpace5unifyEjj" from 0x0 to 0x4
GPGPU-Sim PTX: allocating stack frame region for .param "__cudaparmf1__ZN14ComponentSpace5unifyEjj" from 0x4 to 0xc
GPGPU-Sim PTX: allocating stack frame region for .param "__cudaparmf2__ZN14ComponentSpace5unifyEjj" from 0xc to 0x10
GPGPU-Sim PTX: allocating stack frame region for .param "__cudaparmf3__ZN14ComponentSpace5unifyEjj" from 0x10 to 0x14
GPGPU-Sim PTX: instruction assembly for function '_Z11global_syncjPVjS0_'...   done.
GPGPU-Sim PTX: finding reconvergence points for '_Z11global_syncjPVjS0_'...
GPGPU-Sim PTX: Finding dominators for '_Z11global_syncjPVjS0_'...
GPGPU-Sim PTX: Finding immediate dominators for '_Z11global_syncjPVjS0_'...
GPGPU-Sim PTX: Finding postdominators for '_Z11global_syncjPVjS0_'...
GPGPU-Sim PTX: Finding immediate postdominators for '_Z11global_syncjPVjS0_'...
GPGPU-Sim PTX: pre-decoding instructions for '_Z11global_syncjPVjS0_'...
GPGPU-Sim PTX: reconvergence points for _Z11global_syncjPVjS0_...
GPGPU-Sim PTX:  1 (potential) branch divergence @  PC=0x090 (_1.ptx:148) @!%p1 bra $Lt_0_6146;
GPGPU-Sim PTX:    immediate post dominator      @  PC=0x0c0 (_1.ptx:157) mov.u32 %r14, 0;
GPGPU-Sim PTX:  2 (potential) branch divergence @  PC=0x0d0 (_1.ptx:159) @%p2 bra $Lt_0_6658;
GPGPU-Sim PTX:    immediate post dominator      @  PC=0x178 (_1.ptx:188) @!%p1 bra $Lt_0_9218;
GPGPU-Sim PTX:  3 (potential) branch divergence @  PC=0x0f0 (_1.ptx:163) @!%p3 bra $Lt_0_7170;
GPGPU-Sim PTX:    immediate post dominator      @  PC=0x140 (_1.ptx:177) bar.sync 0;
GPGPU-Sim PTX:  4 (potential) branch divergence @  PC=0x120 (_1.ptx:169) @%p4 bra $Lt_0_7682;
GPGPU-Sim PTX:    immediate post dominator      @  PC=0x140 (_1.ptx:177) bar.sync 0;
GPGPU-Sim PTX:  5 (potential) branch divergence @  PC=0x138 (_1.ptx:173) @%p5 bra $Lt_0_8194;
GPGPU-Sim PTX:    immediate post dominator      @  PC=0x140 (_1.ptx:177) bar.sync 0;
GPGPU-Sim PTX:  6 (potential) branch divergence @  PC=0x148 (_1.ptx:178) @!%p3 bra $Lt_0_8706;
GPGPU-Sim PTX:    immediate post dominator      @  PC=0x178 (_1.ptx:188) @!%p1 bra $Lt_0_9218;
GPGPU-Sim PTX:  7 (potential) branch divergence @  PC=0x178 (_1.ptx:188) @!%p1 bra $Lt_0_9218;
GPGPU-Sim PTX:    immediate post dominator      @  PC=0x1c8 (_1.ptx:202) ret;
GPGPU-Sim PTX:  8 (potential) branch divergence @  PC=0x1a8 (_1.ptx:194) @%p6 bra $Lt_0_9730;
GPGPU-Sim PTX:    immediate post dominator      @  PC=0x1c8 (_1.ptx:202) ret;
GPGPU-Sim PTX:  9 (potential) branch divergence @  PC=0x1c0 (_1.ptx:198) @%p7 bra $Lt_0_10242;
GPGPU-Sim PTX:    immediate post dominator      @  PC=0x1c8 (_1.ptx:202) ret;
GPGPU-Sim PTX: ... end of reconvergence points for _Z11global_syncjPVjS0_
GPGPU-Sim PTX: ... done pre-decoding instructions for '_Z11global_syncjPVjS0_'.
GPGPU-Sim PTX: allocating global region for "__constant876" from 0x100 to 0x135 (global memory space)
GPGPU-Sim PTX: allocating global region for "__constant877" from 0x180 to 0x192 (global memory space)
GPGPU-Sim PTX: allocating global region for "__constant880" from 0x200 to 0x23e (global memory space)
GPGPU-Sim PTX: allocating global region for "__constant882" from 0x280 to 0x2b5 (global memory space)
GPGPU-Sim PTX: allocating stack frame region for .local "__cuda___cuda__temp__valist_array_55_160" from 0x80 to 0x98
GPGPU-Sim PTX: allocating stack frame region for .local "__cuda___cuda__temp__valist_array_49_4024" from 0x100 to 0x11c
GPGPU-Sim PTX: allocating stack frame region for .local "__cuda___cuda__temp__valist_array_45_7256" from 0x180 to 0x198
GPGPU-Sim PTX: allocating stack frame region for .local "__cuda___cuda__temp__valist_array_55_9680" from 0x200 to 0x218
GPGPU-Sim PTX: allocating stack frame region for .local "__cuda___cuda__temp__valist_array_51_120104" from 0x280 to 0x29c
GPGPU-Sim PTX: allocating stack frame region for .local "__cuda___cuda__temp__valist_array_45_152136" from 0x300 to 0x318
GPGPU-Sim PTX: allocating stack frame region for .param "__cudaparma1_vprintf" from 0x318 to 0x320
GPGPU-Sim PTX: allocating stack frame region for .param "__cudaparma2_vprintf" from 0x320 to 0x328
GPGPU-Sim PTX: instruction assembly for function '_Z11processedgePjR5GraphjjRj'...   done.
GPGPU-Sim PTX: finding reconvergence points for '_Z11processedgePjR5GraphjjRj'...
GPGPU-Sim PTX: Finding dominators for '_Z11processedgePjR5GraphjjRj'...
GPGPU-Sim PTX: Finding immediate dominators for '_Z11processedgePjR5GraphjjRj'...
GPGPU-Sim PTX: Finding postdominators for '_Z11processedgePjR5GraphjjRj'...
GPGPU-Sim PTX: Finding immediate postdominators for '_Z11processedgePjR5GraphjjRj'...
GPGPU-Sim PTX: pre-decoding instructions for '_Z11processedgePjR5GraphjjRj'...
GPGPU-Sim PTX: reconvergence points for _Z11processedgePjR5GraphjjRj...
GPGPU-Sim PTX:  1 (potential) branch divergence @  PC=0x230 (_1.ptx:238) @!%p1 bra $Lt_1_29954;
GPGPU-Sim PTX:    immediate post dominator      @  PC=0x5c0 (_1.ptx:380) st.u32 [%rd6+0], %r21;
GPGPU-Sim PTX:  2 (potential) branch divergence @  PC=0x268 (_1.ptx:246) @%p2 bra $Lt_1_8194;
GPGPU-Sim PTX:    immediate post dominator      @  PC=0x5c0 (_1.ptx:380) st.u32 [%rd6+0], %r21;
GPGPU-Sim PTX:  3 (potential) branch divergence @  PC=0x280 (_1.ptx:250) @%p3 bra $Lt_1_30466;
GPGPU-Sim PTX:    immediate post dominator      @  PC=0x380 (_1.ptx:289) add.u32 %r17, %r9, %r4;
GPGPU-Sim PTX:  4 (potential) branch divergence @  PC=0x2a8 (_1.ptx:255) @%p4 bra $L_1_22786;
GPGPU-Sim PTX:    immediate post dominator      @  PC=0x380 (_1.ptx:289) add.u32 %r17, %r9, %r4;
GPGPU-Sim PTX:  5 (potential) branch divergence @  PC=0x2e0 (_1.ptx:263) bra.uni $LDWendi__ZN5Graph12getFirstEdgeEj_182_14;
GPGPU-Sim PTX:    immediate post dominator      @  PC=0x380 (_1.ptx:289) add.u32 %r17, %r9, %r4;
GPGPU-Sim PTX:  6 (potential) branch divergence @  PC=0x398 (_1.ptx:292) @%p5 bra $Lt_1_30978;
GPGPU-Sim PTX:    immediate post dominator      @  PC=0x5c0 (_1.ptx:380) st.u32 [%rd6+0], %r21;
GPGPU-Sim PTX:  7 (potential) branch divergence @  PC=0x3b8 (_1.ptx:296) @%p6 bra $L_1_23298;
GPGPU-Sim PTX:    immediate post dominator      @  PC=0x5c0 (_1.ptx:380) st.u32 [%rd6+0], %r21;
GPGPU-Sim PTX:  8 (potential) branch divergence @  PC=0x3e8 (_1.ptx:303) bra.uni $LDWendi__ZN5Graph14getDestinationEjj_182_11;
GPGPU-Sim PTX:    immediate post dominator      @  PC=0x5c0 (_1.ptx:380) st.u32 [%rd6+0], %r21;
GPGPU-Sim PTX:  9 (potential) branch divergence @  PC=0x3f8 (_1.ptx:308) bra.uni $LDWendi__ZN5Graph14getDestinationEjj_182_11;
GPGPU-Sim PTX:    immediate post dominator      @  PC=0x5c0 (_1.ptx:380) st.u32 [%rd6+0], %r21;
GPGPU-Sim PTX: 10 (potential) branch divergence @  PC=0x428 (_1.ptx:316) @!%p1 bra $Lt_1_25602;
GPGPU-Sim PTX:    immediate post dominator      @  PC=0x5b8 (_1.ptx:377) ld.u32 %r21, [%rd4+4];
GPGPU-Sim PTX: 11 (potential) branch divergence @  PC=0x478 (_1.ptx:327) @%p7 bra $Lt_1_25858;
GPGPU-Sim PTX:    immediate post dominator      @  PC=0x518 (_1.ptx:353) st.local.u32 [__cuda___cuda__temp__valist_array_49_4024+24], %r29;
GPGPU-Sim PTX: 12 (potential) branch divergence @  PC=0x4a8 (_1.ptx:334) bra.uni $LDWendi__ZN5Graph12getOutDegreeEj_182_12;
GPGPU-Sim PTX:    immediate post dominator      @  PC=0x518 (_1.ptx:353) st.local.u32 [__cuda___cuda__temp__valist_array_49_4024+24], %r29;
GPGPU-Sim PTX: 13 (potential) branch divergence @  PC=0x548 (_1.ptx:359) bra.uni $Lt_1_25346;
GPGPU-Sim PTX:    immediate post dominator      @  PC=0x5b8 (_1.ptx:377) ld.u32 %r21, [%rd4+4];
GPGPU-Sim PTX: 14 (potential) branch divergence @  PC=0x5d8 (_1.ptx:383) @%p8 bra $Lt_1_26370;
GPGPU-Sim PTX:    immediate post dominator      @  PC=0xa28 (_1.ptx:561) mov.s32 %r68, %r34;
GPGPU-Sim PTX: 15 (potential) branch divergence @  PC=0x5e8 (_1.ptx:386) bra.uni $LBB49__Z11processedgePjR5GraphjjRj;
GPGPU-Sim PTX:    immediate post dominator      @  PC=0xa28 (_1.ptx:561) mov.s32 %r68, %r34;
GPGPU-Sim PTX: 16 (potential) branch divergence @  PC=0x5f8 (_1.ptx:390) @!%p1 bra $Lt_1_31490;
GPGPU-Sim PTX:    immediate post dominator      @  PC=0x968 (_1.ptx:528) mov.u32 %r61, 999999999;
GPGPU-Sim PTX: 17 (potential) branch divergence @  PC=0x630 (_1.ptx:398) @%p9 bra $Lt_1_13570;
GPGPU-Sim PTX:    immediate post dominator      @  PC=0x968 (_1.ptx:528) mov.u32 %r61, 999999999;
GPGPU-Sim PTX: 18 (potential) branch divergence @  PC=0x648 (_1.ptx:402) @%p10 bra $Lt_1_32002;
GPGPU-Sim PTX:    immediate post dominator      @  PC=0x738 (_1.ptx:439) add.u32 %r45, %r37, %r4;
GPGPU-Sim PTX: 19 (potential) branch divergence @  PC=0x670 (_1.ptx:407) @%p11 bra $L_1_23810;
GPGPU-Sim PTX:    immediate post dominator      @  PC=0x738 (_1.ptx:439) add.u32 %r45, %r37, %r4;
GPGPU-Sim PTX: 20 (potential) branch divergence @  PC=0x6a0 (_1.ptx:414) bra.uni $LDWendi__ZN5Graph12getFirstEdgeEj_182_4;
GPGPU-Sim PTX:    immediate post dominator      @  PC=0x738 (_1.ptx:439) add.u32 %r45, %r37, %r4;
GPGPU-Sim PTX: 21 (potential) branch divergence @  PC=0x750 (_1.ptx:442) @%p12 bra $Lt_1_32514;
GPGPU-Sim PTX:    immediate post dominator      @  PC=0x968 (_1.ptx:528) mov.u32 %r61, 999999999;
GPGPU-Sim PTX: 22 (potential) branch divergence @  PC=0x770 (_1.ptx:446) @%p13 bra $L_1_24322;
GPGPU-Sim PTX:    immediate post dominator      @  PC=0x968 (_1.ptx:528) mov.u32 %r61, 999999999;
GPGPU-Sim PTX: 23 (potential) branch divergence @  PC=0x7a0 (_1.ptx:453) bra.uni $LDWendi__ZN5Graph9getWeightEjj_182_1;
GPGPU-Sim PTX:    immediate post dominator      @  PC=0x968 (_1.ptx:528) mov.u32 %r61, 999999999;
GPGPU-Sim PTX: 24 (potential) branch divergence @  PC=0x7b0 (_1.ptx:458) bra.uni $LDWendi__ZN5Graph9getWeightEjj_182_1;
GPGPU-Sim PTX:    immediate post dominator      @  PC=0x968 (_1.ptx:528) mov.u32 %r61, 999999999;
GPGPU-Sim PTX: 25 (potential) branch divergence @  PC=0x7e0 (_1.ptx:466) @!%p1 bra $Lt_1_27650;
GPGPU-Sim PTX:    immediate post dominator      @  PC=0x960 (_1.ptx:525) mov.u32 %r49, 1000000000;
GPGPU-Sim PTX: 26 (potential) branch divergence @  PC=0x828 (_1.ptx:476) @%p14 bra $Lt_1_27906;
GPGPU-Sim PTX:    immediate post dominator      @  PC=0x8c8 (_1.ptx:502) st.local.u32 [__cuda___cuda__temp__valist_array_51_120104+24], %r56;
GPGPU-Sim PTX: 27 (potential) branch divergence @  PC=0x858 (_1.ptx:483) bra.uni $LDWendi__ZN5Graph12getOutDegreeEj_182_2;
GPGPU-Sim PTX:    immediate post dominator      @  PC=0x8c8 (_1.ptx:502) st.local.u32 [__cuda___cuda__temp__valist_array_51_120104+24], %r56;
GPGPU-Sim PTX: 28 (potential) branch divergence @  PC=0x8f8 (_1.ptx:508) bra.uni $Lt_1_27394;
GPGPU-Sim PTX:    immediate post dominator      @  PC=0x960 (_1.ptx:525) mov.u32 %r49, 1000000000;
GPGPU-Sim PTX: 29 (potential) branch divergence @  PC=0x978 (_1.ptx:530) @%p15 bra $Lt_1_28418;
GPGPU-Sim PTX:    immediate post dominator      @  PC=0xa28 (_1.ptx:561) mov.s32 %r68, %r34;
GPGPU-Sim PTX: 30 (potential) branch divergence @  PC=0x988 (_1.ptx:533) bra.uni $LBB49__Z11processedgePjR5GraphjjRj;
GPGPU-Sim PTX:    immediate post dominator      @  PC=0xa28 (_1.ptx:561) mov.s32 %r68, %r34;
GPGPU-Sim PTX: 31 (potential) branch divergence @  PC=0x9e8 (_1.ptx:547) @%p16 bra $Lt_1_28930;
GPGPU-Sim PTX:    immediate post dominator      @  PC=0xa28 (_1.ptx:561) mov.s32 %r68, %r34;
GPGPU-Sim PTX: 32 (potential) branch divergence @  PC=0xa08 (_1.ptx:552) @%p17 bra $Lt_1_29698;
GPGPU-Sim PTX:    immediate post dominator      @  PC=0xa28 (_1.ptx:561) mov.s32 %r68, %r34;
GPGPU-Sim PTX: 33 (potential) branch divergence @  PC=0xa18 (_1.ptx:555) bra.uni $LBB49__Z11processedgePjR5GraphjjRj;
GPGPU-Sim PTX:    immediate post dominator      @  PC=0xa28 (_1.ptx:561) mov.s32 %r68, %r34;
GPGPU-Sim PTX: ... end of reconvergence points for _Z11processedgePjR5GraphjjRj
GPGPU-Sim PTX: ... done pre-decoding instructions for '_Z11processedgePjR5GraphjjRj'.
GPGPU-Sim PTX: allocating stack frame region for .local "__cuda___cuda__temp__valist_array_55_16160" from 0x80 to 0x98
GPGPU-Sim PTX: allocating stack frame region for .local "__cuda___cuda__temp__valist_array_49_40184" from 0x100 to 0x11c
GPGPU-Sim PTX: allocating stack frame region for .local "__cuda___cuda__temp__valist_array_45_72216" from 0x180 to 0x198
GPGPU-Sim PTX: allocating stack frame region for .local "__cuda___cuda__temp__valist_array_55_96240" from 0x200 to 0x218
GPGPU-Sim PTX: allocating stack frame region for .local "__cuda___cuda__temp__valist_array_51_120264" from 0x280 to 0x29c
GPGPU-Sim PTX: allocating stack frame region for .local "__cuda___cuda__temp__valist_array_45_152296" from 0x300 to 0x318
GPGPU-Sim PTX: allocating stack frame region for .param "__cudaparma1_vprintf" from 0x318 to 0x320
GPGPU-Sim PTX: allocating stack frame region for .param "__cudaparma2_vprintf" from 0x320 to 0x328
GPGPU-Sim PTX: instruction assembly for function '_Z11processnodePjR5Graphj'...   done.
GPGPU-Sim PTX: finding reconvergence points for '_Z11processnodePjR5Graphj'...
GPGPU-Sim PTX: Finding dominators for '_Z11processnodePjR5Graphj'...
GPGPU-Sim PTX: Finding immediate dominators for '_Z11processnodePjR5Graphj'...
GPGPU-Sim PTX: Finding postdominators for '_Z11processnodePjR5Graphj'...
GPGPU-Sim PTX: Finding immediate postdominators for '_Z11processnodePjR5Graphj'...
GPGPU-Sim PTX: pre-decoding instructions for '_Z11processnodePjR5Graphj'...
GPGPU-Sim PTX: reconvergence points for _Z11processnodePjR5Graphj...
GPGPU-Sim PTX:  1 (potential) branch divergence @  PC=0xa80 (_1.ptx:590) @%p1 bra $Lt_2_29186;
GPGPU-Sim PTX:    immediate post dominator      @  PC=0x12e0 (_1.ptx:937) mov.s32 %r74, %r4;
GPGPU-Sim PTX:  2 (potential) branch divergence @  PC=0xa90 (_1.ptx:593) bra.uni $LBB60__Z11processnodePjR5Graphj;
GPGPU-Sim PTX:    immediate post dominator      @  PC=0x12e0 (_1.ptx:937) mov.s32 %r74, %r4;
GPGPU-Sim PTX:  3 (potential) branch divergence @  PC=0xad0 (_1.ptx:603) @%p2 bra $Lt_2_37122;
GPGPU-Sim PTX:    immediate post dominator      @  PC=0x12d8 (_1.ptx:935) mov.s32 %r4, %r9;
GPGPU-Sim PTX:  4 (potential) branch divergence @  PC=0xb10 (_1.ptx:614) @!%p3 bra $Lt_2_37378;
GPGPU-Sim PTX:    immediate post dominator      @  PC=0xe70 (_1.ptx:750) setp.lt.u32 %p10, %r27, %r11;
GPGPU-Sim PTX:  5 (potential) branch divergence @  PC=0xb38 (_1.ptx:620) @%p4 bra $Lt_2_37378;
GPGPU-Sim PTX:    immediate post dominator      @  PC=0xe70 (_1.ptx:750) setp.lt.u32 %p10, %r27, %r11;
GPGPU-Sim PTX:  6 (potential) branch divergence @  PC=0xb50 (_1.ptx:624) @%p5 bra $Lt_2_37890;
GPGPU-Sim PTX:    immediate post dominator      @  PC=0xc48 (_1.ptx:662) neg.s32 %r23, %r15;
GPGPU-Sim PTX:  7 (potential) branch divergence @  PC=0xb78 (_1.ptx:629) @%p6 bra $Lt_2_37890;
GPGPU-Sim PTX:    immediate post dominator      @  PC=0xc48 (_1.ptx:662) neg.s32 %r23, %r15;
GPGPU-Sim PTX:  8 (potential) branch divergence @  PC=0xba8 (_1.ptx:636) bra.uni $LDWendi__ZN5Graph12getFirstEdgeEj_185_15;
GPGPU-Sim PTX:    immediate post dominator      @  PC=0xc48 (_1.ptx:662) neg.s32 %r23, %r15;
GPGPU-Sim PTX:  9 (potential) branch divergence @  PC=0xc58 (_1.ptx:664) @%p7 bra $Lt_2_38402;
GPGPU-Sim PTX:    immediate post dominator      @  PC=0xe70 (_1.ptx:750) setp.lt.u32 %p10, %r27, %r11;
GPGPU-Sim PTX: 10 (potential) branch divergence @  PC=0xc80 (_1.ptx:669) @%p8 bra $Lt_2_38402;
GPGPU-Sim PTX:    immediate post dominator      @  PC=0xe70 (_1.ptx:750) setp.lt.u32 %p10, %r27, %r11;
GPGPU-Sim PTX: 11 (potential) branch divergence @  PC=0xcb0 (_1.ptx:676) bra.uni $LDWendi__ZN5Graph14getDestinationEjj_185_12;
GPGPU-Sim PTX:    immediate post dominator      @  PC=0xe70 (_1.ptx:750) setp.lt.u32 %p10, %r27, %r11;
GPGPU-Sim PTX: 12 (potential) branch divergence @  PC=0xcc0 (_1.ptx:681) bra.uni $LDWendi__ZN5Graph14getDestinationEjj_185_12;
GPGPU-Sim PTX:    immediate post dominator      @  PC=0xe70 (_1.ptx:750) setp.lt.u32 %p10, %r27, %r11;
GPGPU-Sim PTX: 13 (potential) branch divergence @  PC=0xcf0 (_1.ptx:689) @!%p3 bra $Lt_2_31746;
GPGPU-Sim PTX:    immediate post dominator      @  PC=0xe60 (_1.ptx:746) ld.u32 %r11, [%rd4+4];
GPGPU-Sim PTX: 14 (potential) branch divergence @  PC=0xd38 (_1.ptx:699) @%p9 bra $Lt_2_32002;
GPGPU-Sim PTX:    immediate post dominator      @  PC=0xdc8 (_1.ptx:723) st.local.u32 [__cuda___cuda__temp__valist_array_49_40184+24], %r35;
GPGPU-Sim PTX: 15 (potential) branch divergence @  PC=0xd58 (_1.ptx:704) bra.uni $LDWendi__ZN5Graph12getOutDegreeEj_185_13;
GPGPU-Sim PTX:    immediate post dominator      @  PC=0xdc8 (_1.ptx:723) st.local.u32 [__cuda___cuda__temp__valist_array_49_40184+24], %r35;
GPGPU-Sim PTX: 16 (potential) branch divergence @  PC=0xdf8 (_1.ptx:729) bra.uni $Lt_2_31490;
GPGPU-Sim PTX:    immediate post dominator      @  PC=0xe60 (_1.ptx:746) ld.u32 %r11, [%rd4+4];
GPGPU-Sim PTX: 17 (potential) branch divergence @  PC=0xe78 (_1.ptx:751) @%p10 bra $Lt_2_32514;
GPGPU-Sim PTX:    immediate post dominator      @  PC=0x1290 (_1.ptx:922) mov.u32 %r73, 0;
GPGPU-Sim PTX: 18 (potential) branch divergence @  PC=0xe88 (_1.ptx:754) bra.uni $LDWendi__Z11processedgePjR5GraphjjRj_185_1;
GPGPU-Sim PTX:    immediate post dominator      @  PC=0x1290 (_1.ptx:922) mov.u32 %r73, 0;
GPGPU-Sim PTX: 19 (potential) branch divergence @  PC=0xe98 (_1.ptx:757) @!%p3 bra $Lt_2_38914;
GPGPU-Sim PTX:    immediate post dominator      @  PC=0x11e8 (_1.ptx:891) mov.u32 %r67, 999999999;
GPGPU-Sim PTX: 20 (potential) branch divergence @  PC=0xec0 (_1.ptx:763) @%p11 bra $Lt_2_38914;
GPGPU-Sim PTX:    immediate post dominator      @  PC=0x11e8 (_1.ptx:891) mov.u32 %r67, 999999999;
GPGPU-Sim PTX: 21 (potential) branch divergence @  PC=0xed8 (_1.ptx:767) @%p12 bra $Lt_2_39426;
GPGPU-Sim PTX:    immediate post dominator      @  PC=0xfc8 (_1.ptx:804) neg.s32 %r51, %r43;
GPGPU-Sim PTX: 22 (potential) branch divergence @  PC=0xf00 (_1.ptx:772) @%p13 bra $Lt_2_39426;
GPGPU-Sim PTX:    immediate post dominator      @  PC=0xfc8 (_1.ptx:804) neg.s32 %r51, %r43;
GPGPU-Sim PTX: 23 (potential) branch divergence @  PC=0xf30 (_1.ptx:779) bra.uni $LDWendi__ZN5Graph12getFirstEdgeEj_185_5;
GPGPU-Sim PTX:    immediate post dominator      @  PC=0xfc8 (_1.ptx:804) neg.s32 %r51, %r43;
GPGPU-Sim PTX: 24 (potential) branch divergence @  PC=0xfd8 (_1.ptx:806) @%p14 bra $Lt_2_39938;
GPGPU-Sim PTX:    immediate post dominator      @  PC=0x11e8 (_1.ptx:891) mov.u32 %r67, 999999999;
GPGPU-Sim PTX: 25 (potential) branch divergence @  PC=0x1000 (_1.ptx:811) @%p15 bra $Lt_2_39938;
GPGPU-Sim PTX:    immediate post dominator      @  PC=0x11e8 (_1.ptx:891) mov.u32 %r67, 999999999;
GPGPU-Sim PTX: 26 (potential) branch divergence @  PC=0x1030 (_1.ptx:818) bra.uni $LDWendi__ZN5Graph9getWeightEjj_185_2;
GPGPU-Sim PTX:    immediate post dominator      @  PC=0x11e8 (_1.ptx:891) mov.u32 %r67, 999999999;
GPGPU-Sim PTX: 27 (potential) branch divergence @  PC=0x1040 (_1.ptx:823) bra.uni $LDWendi__ZN5Graph9getWeightEjj_185_2;
GPGPU-Sim PTX:    immediate post dominator      @  PC=0x11e8 (_1.ptx:891) mov.u32 %r67, 999999999;
GPGPU-Sim PTX: 28 (potential) branch divergence @  PC=0x1070 (_1.ptx:831) @!%p3 bra $Lt_2_33794;
GPGPU-Sim PTX:    immediate post dominator      @  PC=0x11e0 (_1.ptx:888) mov.u32 %r55, 1000000000;
GPGPU-Sim PTX: 29 (potential) branch divergence @  PC=0x10b8 (_1.ptx:841) @%p16 bra $Lt_2_34050;
GPGPU-Sim PTX:    immediate post dominator      @  PC=0x1148 (_1.ptx:865) st.local.u32 [__cuda___cuda__temp__valist_array_51_120264+24], %r62;
GPGPU-Sim PTX: 30 (potential) branch divergence @  PC=0x10d8 (_1.ptx:846) bra.uni $LDWendi__ZN5Graph12getOutDegreeEj_185_3;
GPGPU-Sim PTX:    immediate post dominator      @  PC=0x1148 (_1.ptx:865) st.local.u32 [__cuda___cuda__temp__valist_array_51_120264+24], %r62;
GPGPU-Sim PTX: 31 (potential) branch divergence @  PC=0x1178 (_1.ptx:871) bra.uni $Lt_2_33538;
GPGPU-Sim PTX:    immediate post dominator      @  PC=0x11e0 (_1.ptx:888) mov.u32 %r55, 1000000000;
GPGPU-Sim PTX: 32 (potential) branch divergence @  PC=0x11f8 (_1.ptx:893) @%p17 bra $Lt_2_34562;
GPGPU-Sim PTX:    immediate post dominator      @  PC=0x1290 (_1.ptx:922) mov.u32 %r73, 0;
GPGPU-Sim PTX: 33 (potential) branch divergence @  PC=0x1208 (_1.ptx:896) bra.uni $LDWendi__Z11processedgePjR5GraphjjRj_185_1;
GPGPU-Sim PTX:    immediate post dominator      @  PC=0x1290 (_1.ptx:922) mov.u32 %r73, 0;
GPGPU-Sim PTX: 34 (potential) branch divergence @  PC=0x1250 (_1.ptx:907) @%p18 bra $Lt_2_35842;
GPGPU-Sim PTX:    immediate post dominator      @  PC=0x1290 (_1.ptx:922) mov.u32 %r73, 0;
GPGPU-Sim PTX: 35 (potential) branch divergence @  PC=0x1270 (_1.ptx:912) @%p19 bra $Lt_2_35842;
GPGPU-Sim PTX:    immediate post dominator      @  PC=0x1290 (_1.ptx:922) mov.u32 %r73, 0;
GPGPU-Sim PTX: 36 (potential) branch divergence @  PC=0x1280 (_1.ptx:915) bra.uni $LDWendi__Z11processedgePjR5GraphjjRj_185_1;
GPGPU-Sim PTX:    immediate post dominator      @  PC=0x1290 (_1.ptx:922) mov.u32 %r73, 0;
GPGPU-Sim PTX: 37 (potential) branch divergence @  PC=0x12a0 (_1.ptx:924) @%p20 bra $Lt_2_36098;
GPGPU-Sim PTX:    immediate post dominator      @  PC=0x12b0 (_1.ptx:927) add.u32 %r8, %r8, 1;
GPGPU-Sim PTX: 38 (potential) branch divergence @  PC=0x12c0 (_1.ptx:929) @%p21 bra $Lt_2_30722;
GPGPU-Sim PTX:    immediate post dominator      @  PC=0x12c8 (_1.ptx:930) bra.uni $Lt_2_30210;
GPGPU-Sim PTX: 39 (potential) branch divergence @  PC=0x12c8 (_1.ptx:930) bra.uni $Lt_2_30210;
GPGPU-Sim PTX:    immediate post dominator      @  PC=0x12d8 (_1.ptx:935) mov.s32 %r4, %r9;
GPGPU-Sim PTX: ... end of reconvergence points for _Z11processnodePjR5Graphj
GPGPU-Sim PTX: ... done pre-decoding instructions for '_Z11processnodePjR5Graphj'.
GPGPU-Sim PTX: allocating global region for "__constant867" from 0x300 to 0x31c (global memory space)
GPGPU-Sim PTX: allocating global region for "__constant869" from 0x380 to 0x39c (global memory space)
GPGPU-Sim PTX: allocating global region for "__constant870" from 0x400 to 0x422 (global memory space)
GPGPU-Sim PTX: allocating global region for "__constant871" from 0x480 to 0x4a2 (global memory space)
GPGPU-Sim PTX: allocating global region for "__constant872" from 0x500 to 0x51c (global memory space)
GPGPU-Sim PTX: allocating stack frame region for .local "__cuda___cuda__temp__valist_array_47_40424" from 0x0 to 0x18
GPGPU-Sim PTX: allocating stack frame region for .local "__cuda___cuda__temp__valist_array_41_64448" from 0x80 to 0x94
GPGPU-Sim PTX: allocating stack frame region for .local "__cuda_local_var_75907_7_non_const_prefix_32" from 0x94 to 0x96
GPGPU-Sim PTX: allocating stack frame region for .param "__cudaparma1_vprintf" from 0x96 to 0x9e
GPGPU-Sim PTX: allocating stack frame region for .param "__cudaparma2_vprintf" from 0x9e to 0xa6
GPGPU-Sim PTX: instruction assembly for function '_Z11dprintstats5Graph'...   done.
GPGPU-Sim PTX: finding reconvergence points for '_Z11dprintstats5Graph'...
GPGPU-Sim PTX: Finding dominators for '_Z11dprintstats5Graph'...
GPGPU-Sim PTX: Finding immediate dominators for '_Z11dprintstats5Graph'...
GPGPU-Sim PTX: Finding postdominators for '_Z11dprintstats5Graph'...
GPGPU-Sim PTX: Finding immediate postdominators for '_Z11dprintstats5Graph'...
GPGPU-Sim PTX: pre-decoding instructions for '_Z11dprintstats5Graph'...
GPGPU-Sim PTX: reconvergence points for _Z11dprintstats5Graph...
GPGPU-Sim PTX:  1 (potential) branch divergence @  PC=0x1330 (_1.ptx:971) @!%p1 bra $Lt_3_12034;
GPGPU-Sim PTX:    immediate post dominator      @  PC=0x14c0 (_1.ptx:1038) @!%p1 bra $Lt_3_12290;
GPGPU-Sim PTX:  2 (potential) branch divergence @  PC=0x1398 (_1.ptx:987) @%p2 bra $Lt_3_9218;
GPGPU-Sim PTX:    immediate post dominator      @  PC=0x13a8 (_1.ptx:992) setp.le.u32 %p3, %r3, %r6;
GPGPU-Sim PTX:  3 (potential) branch divergence @  PC=0x13b0 (_1.ptx:993) @%p3 bra $Lt_3_9730;
GPGPU-Sim PTX:    immediate post dominator      @  PC=0x1460 (_1.ptx:1021) ld.global.u32 %r17, [%rd3+0];
GPGPU-Sim PTX:  4 (potential) branch divergence @  PC=0x13d0 (_1.ptx:998) bra.uni $LDWendi__ZN5Graph11getInDegreeEj_187_1;
GPGPU-Sim PTX:    immediate post dominator      @  PC=0x1460 (_1.ptx:1021) ld.global.u32 %r17, [%rd3+0];
GPGPU-Sim PTX:  5 (potential) branch divergence @  PC=0x1478 (_1.ptx:1024) @%p4 bra $Lt_3_10242;
GPGPU-Sim PTX:    immediate post dominator      @  PC=0x1488 (_1.ptx:1028) add.u32 %r6, %r6, 1;
GPGPU-Sim PTX:  6 (potential) branch divergence @  PC=0x14a0 (_1.ptx:1031) @%p5 bra $Lt_3_8962;
GPGPU-Sim PTX:    immediate post dominator      @  PC=0x14a8 (_1.ptx:1032) bra.uni $Lt_3_8450;
GPGPU-Sim PTX:  7 (potential) branch divergence @  PC=0x14a8 (_1.ptx:1032) bra.uni $Lt_3_8450;
GPGPU-Sim PTX:    immediate post dominator      @  PC=0x14c0 (_1.ptx:1038) @!%p1 bra $Lt_3_12290;
GPGPU-Sim PTX:  8 (potential) branch divergence @  PC=0x14c0 (_1.ptx:1038) @!%p1 bra $Lt_3_12290;
GPGPU-Sim PTX:    immediate post dominator      @  PC=0x1568 (_1.ptx:1068) cvta.local.u64 %rd12, __cuda_local_var_75907_7_non_const_prefix_32;
GPGPU-Sim PTX:  9 (potential) branch divergence @  PC=0x1500 (_1.ptx:1049) @%p6 bra $Lt_3_12546;
GPGPU-Sim PTX:    immediate post dominator      @  PC=0x1530 (_1.ptx:1058) mov.s32 %r21, %r24;
GPGPU-Sim PTX: 10 (potential) branch divergence @  PC=0x1510 (_1.ptx:1051) @%p7 bra $Lt_3_12546;
GPGPU-Sim PTX:    immediate post dominator      @  PC=0x1530 (_1.ptx:1058) mov.s32 %r21, %r24;
GPGPU-Sim PTX: 11 (potential) branch divergence @  PC=0x1520 (_1.ptx:1053) bra.uni $L_3_7682;
GPGPU-Sim PTX:    immediate post dominator      @  PC=0x1530 (_1.ptx:1058) mov.s32 %r21, %r24;
GPGPU-Sim PTX: 12 (potential) branch divergence @  PC=0x1550 (_1.ptx:1062) @%p8 bra $Lt_3_11522;
GPGPU-Sim PTX:    immediate post dominator      @  PC=0x1558 (_1.ptx:1063) bra.uni $Lt_3_11010;
GPGPU-Sim PTX: 13 (potential) branch divergence @  PC=0x1558 (_1.ptx:1063) bra.uni $Lt_3_11010;
GPGPU-Sim PTX:    immediate post dominator      @  PC=0x1568 (_1.ptx:1068) cvta.local.u64 %rd12, __cuda_local_var_75907_7_non_const_prefix_32;
GPGPU-Sim PTX: ... end of reconvergence points for _Z11dprintstats5Graph
GPGPU-Sim PTX: ... done pre-decoding instructions for '_Z11dprintstats5Graph'.
GPGPU-Sim PTX: allocating global region for "__constant885" from 0x580 to 0x59f (global memory space)
GPGPU-Sim PTX: allocating stack frame region for .local "__cuda___cuda__temp__valist_array_55_16584" from 0x0 to 0x18
GPGPU-Sim PTX: allocating stack frame region for .local "__cuda___cuda__temp__valist_array_49_40608" from 0x80 to 0x9c
GPGPU-Sim PTX: allocating stack frame region for .local "__cuda___cuda__temp__valist_array_57_72640" from 0x100 to 0x114
GPGPU-Sim PTX: allocating stack frame region for .param "__cudaparma1_vprintf" from 0x114 to 0x11c
GPGPU-Sim PTX: allocating stack frame region for .param "__cudaparma2_vprintf" from 0x11c to 0x124
GPGPU-Sim PTX: instruction assembly for function '_Z14dcomputelevels5GraphPb'...   done.
GPGPU-Sim PTX: finding reconvergence points for '_Z14dcomputelevels5GraphPb'...
GPGPU-Sim PTX: Finding dominators for '_Z14dcomputelevels5GraphPb'...
GPGPU-Sim PTX: Finding immediate dominators for '_Z14dcomputelevels5GraphPb'...
GPGPU-Sim PTX: Finding postdominators for '_Z14dcomputelevels5GraphPb'...
GPGPU-Sim PTX: Finding immediate postdominators for '_Z14dcomputelevels5GraphPb'...
GPGPU-Sim PTX: pre-decoding instructions for '_Z14dcomputelevels5GraphPb'...
GPGPU-Sim PTX: reconvergence points for _Z14dcomputelevels5GraphPb...
GPGPU-Sim PTX:  1 (potential) branch divergence @  PC=0x1708 (_1.ptx:1145) @%p1 bra $Lt_4_17410;
GPGPU-Sim PTX:    immediate post dominator      @  PC=0x1a88 (_1.ptx:1292) mov.u32 %r36, 0;
GPGPU-Sim PTX:  2 (potential) branch divergence @  PC=0x1760 (_1.ptx:1158) @%p2 bra $Lt_4_22018;
GPGPU-Sim PTX:    immediate post dominator      @  PC=0x1a88 (_1.ptx:1292) mov.u32 %r36, 0;
GPGPU-Sim PTX:  3 (potential) branch divergence @  PC=0x17a0 (_1.ptx:1169) @%p3 bra $Lt_4_7170;
GPGPU-Sim PTX:    immediate post dominator      @  PC=0x1990 (_1.ptx:1248) setp.ge.u32 %p7, %r30, %r6;
GPGPU-Sim PTX:  4 (potential) branch divergence @  PC=0x17b8 (_1.ptx:1173) @%p4 bra $Lt_4_22274;
GPGPU-Sim PTX:    immediate post dominator      @  PC=0x1880 (_1.ptx:1205) add.u32 %r20, %r17, %r11;
GPGPU-Sim PTX:  5 (potential) branch divergence @  PC=0x17e0 (_1.ptx:1178) @%p5 bra $Lt_4_22274;
GPGPU-Sim PTX:    immediate post dominator      @  PC=0x1880 (_1.ptx:1205) add.u32 %r20, %r17, %r11;
GPGPU-Sim PTX:  6 (potential) branch divergence @  PC=0x1810 (_1.ptx:1185) bra.uni $LDWendi__ZN5Graph12getFirstEdgeEj_189_4;
GPGPU-Sim PTX:    immediate post dominator      @  PC=0x1880 (_1.ptx:1205) add.u32 %r20, %r17, %r11;
GPGPU-Sim PTX:  7 (potential) branch divergence @  PC=0x18d8 (_1.ptx:1216) @%p6 bra $Lt_4_18946;
GPGPU-Sim PTX:    immediate post dominator      @  PC=0x1990 (_1.ptx:1248) setp.ge.u32 %p7, %r30, %r6;
GPGPU-Sim PTX:  8 (potential) branch divergence @  PC=0x1908 (_1.ptx:1223) bra.uni $LDWendi__ZN5Graph14getDestinationEjj_189_1;
GPGPU-Sim PTX:    immediate post dominator      @  PC=0x1990 (_1.ptx:1248) setp.ge.u32 %p7, %r30, %r6;
GPGPU-Sim PTX:  9 (potential) branch divergence @  PC=0x1918 (_1.ptx:1227) bra.uni $LDWendi__ZN5Graph14getDestinationEjj_189_1;
GPGPU-Sim PTX:    immediate post dominator      @  PC=0x1990 (_1.ptx:1248) setp.ge.u32 %p7, %r30, %r6;
GPGPU-Sim PTX: 10 (potential) branch divergence @  PC=0x1998 (_1.ptx:1249) @%p7 bra $Lt_4_22786;
GPGPU-Sim PTX:    immediate post dominator      @  PC=0x1a50 (_1.ptx:1281) add.u32 %r11, %r11, 1;
GPGPU-Sim PTX: 11 (potential) branch divergence @  PC=0x19d0 (_1.ptx:1256) @%p8 bra $Lt_4_22786;
GPGPU-Sim PTX:    immediate post dominator      @  PC=0x1a50 (_1.ptx:1281) add.u32 %r11, %r11, 1;
GPGPU-Sim PTX: 12 (potential) branch divergence @  PC=0x19e8 (_1.ptx:1261) bra.uni $Lt_4_20482;
GPGPU-Sim PTX:    immediate post dominator      @  PC=0x1a50 (_1.ptx:1281) add.u32 %r11, %r11, 1;
GPGPU-Sim PTX: 13 (potential) branch divergence @  PC=0x19f8 (_1.ptx:1266) @%p9 bra $Lt_4_20482;
GPGPU-Sim PTX:    immediate post dominator      @  PC=0x1a50 (_1.ptx:1281) add.u32 %r11, %r11, 1;
GPGPU-Sim PTX: 14 (potential) branch divergence @  PC=0x1a60 (_1.ptx:1283) @%p10 bra $Lt_4_18178;
GPGPU-Sim PTX:    immediate post dominator      @  PC=0x1a68 (_1.ptx:1284) bra.uni $Lt_4_17154;
GPGPU-Sim PTX: 15 (potential) branch divergence @  PC=0x1a68 (_1.ptx:1284) bra.uni $Lt_4_17154;
GPGPU-Sim PTX:    immediate post dominator      @  PC=0x1a88 (_1.ptx:1292) mov.u32 %r36, 0;
GPGPU-Sim PTX: 16 (potential) branch divergence @  PC=0x1a78 (_1.ptx:1287) bra.uni $Lt_4_17154;
GPGPU-Sim PTX:    immediate post dominator      @  PC=0x1a88 (_1.ptx:1292) mov.u32 %r36, 0;
GPGPU-Sim PTX: 17 (potential) branch divergence @  PC=0x1a98 (_1.ptx:1294) @%p11 bra $Lt_4_21250;
GPGPU-Sim PTX:    immediate post dominator      @  PC=0x1ab8 (_1.ptx:1301) exit;
GPGPU-Sim PTX: ... end of reconvergence points for _Z14dcomputelevels5GraphPb
GPGPU-Sim PTX: ... done pre-decoding instructions for '_Z14dcomputelevels5GraphPb'.
GPGPU-Sim PTX: instruction assembly for function '_Z11dinitlevels5Graph'...   done.
GPGPU-Sim PTX: finding reconvergence points for '_Z11dinitlevels5Graph'...
GPGPU-Sim PTX: Finding dominators for '_Z11dinitlevels5Graph'...
GPGPU-Sim PTX: Finding immediate dominators for '_Z11dinitlevels5Graph'...
GPGPU-Sim PTX: Finding postdominators for '_Z11dinitlevels5Graph'...
GPGPU-Sim PTX: Finding immediate postdominators for '_Z11dinitlevels5Graph'...
GPGPU-Sim PTX: pre-decoding instructions for '_Z11dinitlevels5Graph'...
GPGPU-Sim PTX: reconvergence points for _Z11dinitlevels5Graph...
GPGPU-Sim PTX:  1 (potential) branch divergence @  PC=0x1af8 (_1.ptx:1321) @%p1 bra $Lt_5_1026;
GPGPU-Sim PTX:    immediate post dominator      @  PC=0x1b28 (_1.ptx:1330) exit;
GPGPU-Sim PTX: ... end of reconvergence points for _Z11dinitlevels5Graph
GPGPU-Sim PTX: ... done pre-decoding instructions for '_Z11dinitlevels5Graph'.
GPGPU-Sim PTX: allocating global region for "__constant873" from 0x600 to 0x607 (global memory space)
GPGPU-Sim PTX: allocating global region for "__constant874" from 0x680 to 0x68a (global memory space)
GPGPU-Sim PTX: allocating global region for "__constant875" from 0x700 to 0x724 (global memory space)
GPGPU-Sim PTX: allocating stack frame region for .local "__cuda___cuda__temp__valist_array_43_16872" from 0x0 to 0xc
GPGPU-Sim PTX: allocating stack frame region for .local "__cuda___cuda__temp__valist_array_55_32888" from 0x80 to 0x98
GPGPU-Sim PTX: allocating stack frame region for .local "__cuda___cuda__temp__valist_array_49_56912" from 0x100 to 0x11c
GPGPU-Sim PTX: allocating stack frame region for .local "__cuda___cuda__temp__valist_array_55_88944" from 0x180 to 0x198
GPGPU-Sim PTX: allocating stack frame region for .local "__cuda___cuda__temp__valist_array_51_112968" from 0x200 to 0x21c
GPGPU-Sim PTX: allocating stack frame region for .param "__cudaparma1_vprintf" from 0x21c to 0x224
GPGPU-Sim PTX: allocating stack frame region for .param "__cudaparma2_vprintf" from 0x224 to 0x22c
GPGPU-Sim PTX: instruction assembly for function '_Z9dprint1x15Graph'...   done.
GPGPU-Sim PTX: finding reconvergence points for '_Z9dprint1x15Graph'...
GPGPU-Sim PTX: Finding dominators for '_Z9dprint1x15Graph'...
GPGPU-Sim PTX: Finding immediate dominators for '_Z9dprint1x15Graph'...
GPGPU-Sim PTX: Finding postdominators for '_Z9dprint1x15Graph'...
GPGPU-Sim PTX: Finding immediate postdominators for '_Z9dprint1x15Graph'...
GPGPU-Sim PTX: pre-decoding instructions for '_Z9dprint1x15Graph'...
GPGPU-Sim PTX: reconvergence points for _Z9dprint1x15Graph...
GPGPU-Sim PTX:  1 (potential) branch divergence @  PC=0x1b88 (_1.ptx:1365) @%p1 bra $Lt_6_32002;
GPGPU-Sim PTX:    immediate post dominator      @  PC=0x2210 (_1.ptx:1627) setp.eq.u32 %p14, %r2, %r6;
GPGPU-Sim PTX:  2 (potential) branch divergence @  PC=0x1be8 (_1.ptx:1380) @%p2 bra $Lt_6_25858;
GPGPU-Sim PTX:    immediate post dominator      @  PC=0x21e0 (_1.ptx:1619) add.u32 %r5, %r5, 1;
GPGPU-Sim PTX:  3 (potential) branch divergence @  PC=0x1c10 (_1.ptx:1388) @!%p3 bra $Lt_6_32514;
GPGPU-Sim PTX:    immediate post dominator      @  PC=0x1ec8 (_1.ptx:1496) @!%p3 bra $Lt_6_33538;
GPGPU-Sim PTX:  4 (potential) branch divergence @  PC=0x1c28 (_1.ptx:1392) @%p4 bra $Lt_6_32514;
GPGPU-Sim PTX:    immediate post dominator      @  PC=0x1ec8 (_1.ptx:1496) @!%p3 bra $Lt_6_33538;
GPGPU-Sim PTX:  5 (potential) branch divergence @  PC=0x1c40 (_1.ptx:1396) @%p5 bra $Lt_6_33026;
GPGPU-Sim PTX:    immediate post dominator      @  PC=0x1d30 (_1.ptx:1433) add.u32 %r24, %r16, %r11;
GPGPU-Sim PTX:  6 (potential) branch divergence @  PC=0x1c68 (_1.ptx:1401) @%p6 bra $Lt_6_33026;
GPGPU-Sim PTX:    immediate post dominator      @  PC=0x1d30 (_1.ptx:1433) add.u32 %r24, %r16, %r11;
GPGPU-Sim PTX:  7 (potential) branch divergence @  PC=0x1c98 (_1.ptx:1408) bra.uni $LDWendi__ZN5Graph12getFirstEdgeEj_193_14;
GPGPU-Sim PTX:    immediate post dominator      @  PC=0x1d30 (_1.ptx:1433) add.u32 %r24, %r16, %r11;
GPGPU-Sim PTX:  8 (potential) branch divergence @  PC=0x1d80 (_1.ptx:1443) @%p7 bra $Lt_6_27138;
GPGPU-Sim PTX:    immediate post dominator      @  PC=0x1ec8 (_1.ptx:1496) @!%p3 bra $Lt_6_33538;
GPGPU-Sim PTX:  9 (potential) branch divergence @  PC=0x1db0 (_1.ptx:1450) bra.uni $LDWendi__ZN5Graph14getDestinationEjj_193_11;
GPGPU-Sim PTX:    immediate post dominator      @  PC=0x1ec8 (_1.ptx:1496) @!%p3 bra $Lt_6_33538;
GPGPU-Sim PTX: 10 (potential) branch divergence @  PC=0x1dc0 (_1.ptx:1454) bra.uni $LDWendi__ZN5Graph14getDestinationEjj_193_11;
GPGPU-Sim PTX:    immediate post dominator      @  PC=0x1ec8 (_1.ptx:1496) @!%p3 bra $Lt_6_33538;
GPGPU-Sim PTX: 11 (potential) branch divergence @  PC=0x1df0 (_1.ptx:1462) @!%p3 bra $Lt_6_27906;
GPGPU-Sim PTX:    immediate post dominator      @  PC=0x1ec0 (_1.ptx:1493) mov.s32 %r33, %r1;
GPGPU-Sim PTX: 12 (potential) branch divergence @  PC=0x1e60 (_1.ptx:1477) bra.uni $Lt_6_27650;
GPGPU-Sim PTX:    immediate post dominator      @  PC=0x1ec0 (_1.ptx:1493) mov.s32 %r33, %r1;
GPGPU-Sim PTX: 13 (potential) branch divergence @  PC=0x1ec8 (_1.ptx:1496) @!%p3 bra $Lt_6_33538;
GPGPU-Sim PTX:    immediate post dominator      @  PC=0x2180 (_1.ptx:1604) st.local.u32 [__cuda___cuda__temp__valist_array_43_16872+0], %r5;
GPGPU-Sim PTX: 14 (potential) branch divergence @  PC=0x1ee0 (_1.ptx:1500) @%p8 bra $Lt_6_33538;
GPGPU-Sim PTX:    immediate post dominator      @  PC=0x2180 (_1.ptx:1604) st.local.u32 [__cuda___cuda__temp__valist_array_43_16872+0], %r5;
GPGPU-Sim PTX: 15 (potential) branch divergence @  PC=0x1ef8 (_1.ptx:1504) @%p9 bra $Lt_6_34050;
GPGPU-Sim PTX:    immediate post dominator      @  PC=0x1fe8 (_1.ptx:1541) add.u32 %r52, %r44, %r11;
GPGPU-Sim PTX: 16 (potential) branch divergence @  PC=0x1f20 (_1.ptx:1509) @%p10 bra $Lt_6_34050;
GPGPU-Sim PTX:    immediate post dominator      @  PC=0x1fe8 (_1.ptx:1541) add.u32 %r52, %r44, %r11;
GPGPU-Sim PTX: 17 (potential) branch divergence @  PC=0x1f50 (_1.ptx:1516) bra.uni $LDWendi__ZN5Graph12getFirstEdgeEj_193_4;
GPGPU-Sim PTX:    immediate post dominator      @  PC=0x1fe8 (_1.ptx:1541) add.u32 %r52, %r44, %r11;
GPGPU-Sim PTX: 18 (potential) branch divergence @  PC=0x2038 (_1.ptx:1551) @%p11 bra $Lt_6_29186;
GPGPU-Sim PTX:    immediate post dominator      @  PC=0x2180 (_1.ptx:1604) st.local.u32 [__cuda___cuda__temp__valist_array_43_16872+0], %r5;
GPGPU-Sim PTX: 19 (potential) branch divergence @  PC=0x2068 (_1.ptx:1558) bra.uni $LDWendi__ZN5Graph9getWeightEjj_193_1;
GPGPU-Sim PTX:    immediate post dominator      @  PC=0x2180 (_1.ptx:1604) st.local.u32 [__cuda___cuda__temp__valist_array_43_16872+0], %r5;
GPGPU-Sim PTX: 20 (potential) branch divergence @  PC=0x2078 (_1.ptx:1562) bra.uni $LDWendi__ZN5Graph9getWeightEjj_193_1;
GPGPU-Sim PTX:    immediate post dominator      @  PC=0x2180 (_1.ptx:1604) st.local.u32 [__cuda___cuda__temp__valist_array_43_16872+0], %r5;
GPGPU-Sim PTX: 21 (potential) branch divergence @  PC=0x20a8 (_1.ptx:1570) @!%p3 bra $Lt_6_29954;
GPGPU-Sim PTX:    immediate post dominator      @  PC=0x2178 (_1.ptx:1601) mov.u32 %r61, 1000000000;
GPGPU-Sim PTX: 22 (potential) branch divergence @  PC=0x2118 (_1.ptx:1585) bra.uni $Lt_6_29698;
GPGPU-Sim PTX:    immediate post dominator      @  PC=0x2178 (_1.ptx:1601) mov.u32 %r61, 1000000000;
GPGPU-Sim PTX: 23 (potential) branch divergence @  PC=0x21d8 (_1.ptx:1617) @%p12 bra $Lt_6_26370;
GPGPU-Sim PTX:    immediate post dominator      @  PC=0x21e0 (_1.ptx:1619) add.u32 %r5, %r5, 1;
GPGPU-Sim PTX: 24 (potential) branch divergence @  PC=0x21f8 (_1.ptx:1622) @%p13 bra $Lt_6_25602;
GPGPU-Sim PTX:    immediate post dominator      @  PC=0x2200 (_1.ptx:1623) bra.uni $Lt_6_25090;
GPGPU-Sim PTX: 25 (potential) branch divergence @  PC=0x2200 (_1.ptx:1623) bra.uni $Lt_6_25090;
GPGPU-Sim PTX:    immediate post dominator      @  PC=0x2210 (_1.ptx:1627) setp.eq.u32 %p14, %r2, %r6;
GPGPU-Sim PTX: 26 (potential) branch divergence @  PC=0x2218 (_1.ptx:1628) @%p14 bra $Lt_6_31234;
GPGPU-Sim PTX:    immediate post dominator      @  PC=0x2258 (_1.ptx:1639) exit;
GPGPU-Sim PTX: ... end of reconvergence points for _Z9dprint1x15Graph
GPGPU-Sim PTX: ... done pre-decoding instructions for '_Z9dprint1x15Graph'.
GPGPU-Sim PTX: allocating global region for "__constant906" from 0x780 to 0x795 (global memory space)
GPGPU-Sim PTX: allocating global region for "__constant907" from 0x800 to 0x80c (global memory space)
GPGPU-Sim PTX: allocating stack frame region for .local "__cuda___cuda__temp__valist_array_68_2488" from 0x0 to 0x8
GPGPU-Sim PTX: allocating stack frame region for .param "__cudaparma1_vprintf" from 0x8 to 0x10
GPGPU-Sim PTX: allocating stack frame region for .param "__cudaparma2_vprintf" from 0x10 to 0x18
GPGPU-Sim PTX: instruction assembly for function '_Z8print1x114ComponentSpace'...   done.
GPGPU-Sim PTX: finding reconvergence points for '_Z8print1x114ComponentSpace'...
GPGPU-Sim PTX: Finding dominators for '_Z8print1x114ComponentSpace'...
GPGPU-Sim PTX: Finding immediate dominators for '_Z8print1x114ComponentSpace'...
GPGPU-Sim PTX: Finding postdominators for '_Z8print1x114ComponentSpace'...
GPGPU-Sim PTX: Finding immediate postdominators for '_Z8print1x114ComponentSpace'...
GPGPU-Sim PTX: pre-decoding instructions for '_Z8print1x114ComponentSpace'...
GPGPU-Sim PTX: reconvergence points for _Z8print1x114ComponentSpace...
GPGPU-Sim PTX:  1 (potential) branch divergence @  PC=0x22a8 (_1.ptx:1667) @%p1 bra $Lt_7_1282;
GPGPU-Sim PTX:    immediate post dominator      @  PC=0x2338 (_1.ptx:1690) cvta.global.u64 %rd8, __constant906;
GPGPU-Sim PTX:  2 (potential) branch divergence @  PC=0x2328 (_1.ptx:1686) @%p2 bra $Lt_7_1794;
GPGPU-Sim PTX:    immediate post dominator      @  PC=0x2330 (_1.ptx:1687) cvta.local.u64 %rd1, __cuda___cuda__temp__valist_array_68_2488;
GPGPU-Sim PTX: ... end of reconvergence points for _Z8print1x114ComponentSpace
GPGPU-Sim PTX: ... done pre-decoding instructions for '_Z8print1x114ComponentSpace'.
GPGPU-Sim PTX: instruction assembly for function '_Z7dinitcsjPjS_'...   done.
GPGPU-Sim PTX: finding reconvergence points for '_Z7dinitcsjPjS_'...
GPGPU-Sim PTX: Finding dominators for '_Z7dinitcsjPjS_'...
GPGPU-Sim PTX: Finding immediate dominators for '_Z7dinitcsjPjS_'...
GPGPU-Sim PTX: Finding postdominators for '_Z7dinitcsjPjS_'...
GPGPU-Sim PTX: Finding immediate postdominators for '_Z7dinitcsjPjS_'...
GPGPU-Sim PTX: pre-decoding instructions for '_Z7dinitcsjPjS_'...
GPGPU-Sim PTX: reconvergence points for _Z7dinitcsjPjS_...
GPGPU-Sim PTX:  1 (potential) branch divergence @  PC=0x23a0 (_1.ptx:1717) @%p1 bra $Lt_8_1026;
GPGPU-Sim PTX:    immediate post dominator      @  PC=0x23f0 (_1.ptx:1731) exit;
GPGPU-Sim PTX: ... end of reconvergence points for _Z7dinitcsjPjS_
GPGPU-Sim PTX: ... done pre-decoding instructions for '_Z7dinitcsjPjS_'.
GPGPU-Sim PTX: instruction assembly for function '_Z10initializePjj'...   done.
GPGPU-Sim PTX: finding reconvergence points for '_Z10initializePjj'...
GPGPU-Sim PTX: Finding dominators for '_Z10initializePjj'...
GPGPU-Sim PTX: Finding immediate dominators for '_Z10initializePjj'...
GPGPU-Sim PTX: Finding postdominators for '_Z10initializePjj'...
GPGPU-Sim PTX: Finding immediate postdominators for '_Z10initializePjj'...
GPGPU-Sim PTX: pre-decoding instructions for '_Z10initializePjj'...
GPGPU-Sim PTX: reconvergence points for _Z10initializePjj...
GPGPU-Sim PTX:  1 (potential) branch divergence @  PC=0x2430 (_1.ptx:1751) @%p1 bra $Lt_9_1026;
GPGPU-Sim PTX:    immediate post dominator      @  PC=0x2468 (_1.ptx:1761) exit;
GPGPU-Sim PTX: ... end of reconvergence points for _Z10initializePjj
GPGPU-Sim PTX: ... done pre-decoding instructions for '_Z10initializePjj'.
GPGPU-Sim PTX: allocating stack frame region for .local "__cuda___cuda__temp__valist_array_55_161192" from 0x0 to 0x18
GPGPU-Sim PTX: allocating stack frame region for .local "__cuda___cuda__temp__valist_array_49_401216" from 0x80 to 0x9c
GPGPU-Sim PTX: allocating stack frame region for .local "__cuda___cuda__temp__valist_array_55_721248" from 0x100 to 0x118
GPGPU-Sim PTX: allocating stack frame region for .local "__cuda___cuda__temp__valist_array_51_961272" from 0x180 to 0x19c
GPGPU-Sim PTX: allocating stack frame region for .param "__cudaparma1_vprintf" from 0x19c to 0x1a4
GPGPU-Sim PTX: allocating stack frame region for .param "__cudaparma2_vprintf" from 0x1a4 to 0x1ac
GPGPU-Sim PTX: instruction assembly for function '_Z15dverifysolutionPj5GraphS_'...   done.
GPGPU-Sim PTX: finding reconvergence points for '_Z15dverifysolutionPj5GraphS_'...
GPGPU-Sim PTX: Finding dominators for '_Z15dverifysolutionPj5GraphS_'...
GPGPU-Sim PTX: Finding immediate dominators for '_Z15dverifysolutionPj5GraphS_'...
GPGPU-Sim PTX: Finding postdominators for '_Z15dverifysolutionPj5GraphS_'...
GPGPU-Sim PTX: Finding immediate postdominators for '_Z15dverifysolutionPj5GraphS_'...
GPGPU-Sim PTX: pre-decoding instructions for '_Z15dverifysolutionPj5GraphS_'...
GPGPU-Sim PTX: reconvergence points for _Z15dverifysolutionPj5GraphS_...
GPGPU-Sim PTX:  1 (potential) branch divergence @  PC=0x24a8 (_1.ptx:1788) @%p1 bra $Lt_10_26370;
GPGPU-Sim PTX:    immediate post dominator      @  PC=0x29d0 (_1.ptx:1998) exit;
GPGPU-Sim PTX:  2 (potential) branch divergence @  PC=0x24e8 (_1.ptx:1797) @%p2 bra $Lt_10_26370;
GPGPU-Sim PTX:    immediate post dominator      @  PC=0x29d0 (_1.ptx:1998) exit;
GPGPU-Sim PTX:  3 (potential) branch divergence @  PC=0x2528 (_1.ptx:1808) @!%p3 bra $Lt_10_9218;
GPGPU-Sim PTX:    immediate post dominator      @  PC=0x2738 (_1.ptx:1891) @!%p3 bra $Lt_10_14082;
GPGPU-Sim PTX:  4 (potential) branch divergence @  PC=0x2540 (_1.ptx:1812) @%p4 bra $Lt_10_32002;
GPGPU-Sim PTX:    immediate post dominator      @  PC=0x2618 (_1.ptx:1846) add.u32 %r19, %r16, %r10;
GPGPU-Sim PTX:  5 (potential) branch divergence @  PC=0x2568 (_1.ptx:1817) @%p5 bra $Lt_10_32002;
GPGPU-Sim PTX:    immediate post dominator      @  PC=0x2618 (_1.ptx:1846) add.u32 %r19, %r16, %r10;
GPGPU-Sim PTX:  6 (potential) branch divergence @  PC=0x2598 (_1.ptx:1824) bra.uni $LDWendi__ZN5Graph12getFirstEdgeEj_199_14;
GPGPU-Sim PTX:    immediate post dominator      @  PC=0x2618 (_1.ptx:1846) add.u32 %r19, %r16, %r10;
GPGPU-Sim PTX:  7 (potential) branch divergence @  PC=0x2670 (_1.ptx:1857) @%p6 bra $Lt_10_27650;
GPGPU-Sim PTX:    immediate post dominator      @  PC=0x2738 (_1.ptx:1891) @!%p3 bra $Lt_10_14082;
GPGPU-Sim PTX:  8 (potential) branch divergence @  PC=0x26a0 (_1.ptx:1864) bra.uni $LDWendi__ZN5Graph14getDestinationEjj_199_11;
GPGPU-Sim PTX:    immediate post dominator      @  PC=0x2738 (_1.ptx:1891) @!%p3 bra $Lt_10_14082;
GPGPU-Sim PTX:  9 (potential) branch divergence @  PC=0x26b0 (_1.ptx:1868) bra.uni $LDWendi__ZN5Graph14getDestinationEjj_199_11;
GPGPU-Sim PTX:    immediate post dominator      @  PC=0x2738 (_1.ptx:1891) @!%p3 bra $Lt_10_14082;
GPGPU-Sim PTX: 10 (potential) branch divergence @  PC=0x2738 (_1.ptx:1891) @!%p3 bra $Lt_10_14082;
GPGPU-Sim PTX:    immediate post dominator      @  PC=0x2930 (_1.ptx:1972) mov.u32 %r50, 0;
GPGPU-Sim PTX: 11 (potential) branch divergence @  PC=0x2758 (_1.ptx:1897) @%p7 bra $Lt_10_32514;
GPGPU-Sim PTX:    immediate post dominator      @  PC=0x2820 (_1.ptx:1929) add.u32 %r37, %r34, %r10;
GPGPU-Sim PTX: 12 (potential) branch divergence @  PC=0x2780 (_1.ptx:1902) @%p8 bra $Lt_10_32514;
GPGPU-Sim PTX:    immediate post dominator      @  PC=0x2820 (_1.ptx:1929) add.u32 %r37, %r34, %r10;
GPGPU-Sim PTX: 13 (potential) branch divergence @  PC=0x27b0 (_1.ptx:1909) bra.uni $LDWendi__ZN5Graph12getFirstEdgeEj_199_4;
GPGPU-Sim PTX:    immediate post dominator      @  PC=0x2820 (_1.ptx:1929) add.u32 %r37, %r34, %r10;
GPGPU-Sim PTX: 14 (potential) branch divergence @  PC=0x2878 (_1.ptx:1940) @%p9 bra $Lt_10_29698;
GPGPU-Sim PTX:    immediate post dominator      @  PC=0x2930 (_1.ptx:1972) mov.u32 %r50, 0;
GPGPU-Sim PTX: 15 (potential) branch divergence @  PC=0x28a8 (_1.ptx:1947) bra.uni $LDWendi__ZN5Graph9getWeightEjj_199_1;
GPGPU-Sim PTX:    immediate post dominator      @  PC=0x2930 (_1.ptx:1972) mov.u32 %r50, 0;
GPGPU-Sim PTX: 16 (potential) branch divergence @  PC=0x28b8 (_1.ptx:1951) bra.uni $LDWendi__ZN5Graph9getWeightEjj_199_1;
GPGPU-Sim PTX:    immediate post dominator      @  PC=0x2930 (_1.ptx:1972) mov.u32 %r50, 0;
GPGPU-Sim PTX: 17 (potential) branch divergence @  PC=0x2940 (_1.ptx:1974) @%p10 bra $Lt_10_33026;
GPGPU-Sim PTX:    immediate post dominator      @  PC=0x29b8 (_1.ptx:1992) add.u32 %r10, %r10, 1;
GPGPU-Sim PTX: 18 (potential) branch divergence @  PC=0x2990 (_1.ptx:1984) @%p11 bra $Lt_10_33026;
GPGPU-Sim PTX:    immediate post dominator      @  PC=0x29b8 (_1.ptx:1992) add.u32 %r10, %r10, 1;
GPGPU-Sim PTX: 19 (potential) branch divergence @  PC=0x29c8 (_1.ptx:1994) @%p12 bra $Lt_10_26882;
GPGPU-Sim PTX:    immediate post dominator      @  PC=0x29d0 (_1.ptx:1998) exit;
GPGPU-Sim PTX: ... end of reconvergence points for _Z15dverifysolutionPj5GraphS_
GPGPU-Sim PTX: ... done pre-decoding instructions for '_Z15dverifysolutionPj5GraphS_'.
GPGPU-Sim PTX: allocating stack frame region for .local "__cuda___cuda__temp__valist_array_55_161424" from 0x0 to 0x18
GPGPU-Sim PTX: allocating stack frame region for .local "__cuda___cuda__temp__valist_array_49_401448" from 0x80 to 0x9c
GPGPU-Sim PTX: allocating stack frame region for .local "__cuda___cuda__temp__valist_array_55_721480" from 0x100 to 0x118
GPGPU-Sim PTX: allocating stack frame region for .local "__cuda___cuda__temp__valist_array_51_961504" from 0x180 to 0x19c
GPGPU-Sim PTX: allocating stack frame region for .param "__cudaparma1_vprintf" from 0x19c to 0x1a4
GPGPU-Sim PTX: allocating stack frame region for .param "__cudaparma2_vprintf" from 0x1a4 to 0x1ac
GPGPU-Sim PTX: instruction assembly for function '_Z6drelaxPj5GraphPb'...   done.
GPGPU-Sim PTX: finding reconvergence points for '_Z6drelaxPj5GraphPb'...
GPGPU-Sim PTX: Finding dominators for '_Z6drelaxPj5GraphPb'...
GPGPU-Sim PTX: Finding immediate dominators for '_Z6drelaxPj5GraphPb'...
GPGPU-Sim PTX: Finding postdominators for '_Z6drelaxPj5GraphPb'...
GPGPU-Sim PTX: Finding immediate postdominators for '_Z6drelaxPj5GraphPb'...
GPGPU-Sim PTX: pre-decoding instructions for '_Z6drelaxPj5GraphPb'...
GPGPU-Sim PTX: reconvergence points for _Z6drelaxPj5GraphPb...
GPGPU-Sim PTX:  1 (potential) branch divergence @  PC=0x2a38 (_1.ptx:2031) @%p1 bra $Lt_11_30722;
GPGPU-Sim PTX:    immediate post dominator      @  PC=0x3048 (_1.ptx:2291) exit;
GPGPU-Sim PTX:  2 (potential) branch divergence @  PC=0x2a68 (_1.ptx:2040) @%p2 bra $Lt_11_31490;
GPGPU-Sim PTX:    immediate post dominator      @  PC=0x3000 (_1.ptx:2278) mov.u32 %r67, 0;
GPGPU-Sim PTX:  3 (potential) branch divergence @  PC=0x2a78 (_1.ptx:2043) bra.uni $LDWendi__Z11processnodePjR5Graphj_200_1;
GPGPU-Sim PTX:    immediate post dominator      @  PC=0x3000 (_1.ptx:2278) mov.u32 %r67, 0;
GPGPU-Sim PTX:  4 (potential) branch divergence @  PC=0x2ab8 (_1.ptx:2053) @%p3 bra $Lt_11_41218;
GPGPU-Sim PTX:    immediate post dominator      @  PC=0x2ff8 (_1.ptx:2275) mov.s32 %r15, %r20;
GPGPU-Sim PTX:  5 (potential) branch divergence @  PC=0x2af0 (_1.ptx:2063) @%p4 bra $Lt_11_11266;
GPGPU-Sim PTX:    immediate post dominator      @  PC=0x2ce0 (_1.ptx:2142) setp.lt.u32 %p8, %r38, %r13;
GPGPU-Sim PTX:  6 (potential) branch divergence @  PC=0x2b08 (_1.ptx:2067) @%p5 bra $Lt_11_41474;
GPGPU-Sim PTX:    immediate post dominator      @  PC=0x2bd0 (_1.ptx:2099) add.u32 %r28, %r25, %r19;
GPGPU-Sim PTX:  7 (potential) branch divergence @  PC=0x2b30 (_1.ptx:2072) @%p6 bra $Lt_11_41474;
GPGPU-Sim PTX:    immediate post dominator      @  PC=0x2bd0 (_1.ptx:2099) add.u32 %r28, %r25, %r19;
GPGPU-Sim PTX:  8 (potential) branch divergence @  PC=0x2b60 (_1.ptx:2079) bra.uni $LDWendi__ZN5Graph12getFirstEdgeEj_200_16;
GPGPU-Sim PTX:    immediate post dominator      @  PC=0x2bd0 (_1.ptx:2099) add.u32 %r28, %r25, %r19;
GPGPU-Sim PTX:  9 (potential) branch divergence @  PC=0x2c28 (_1.ptx:2110) @%p7 bra $Lt_11_33282;
GPGPU-Sim PTX:    immediate post dominator      @  PC=0x2ce0 (_1.ptx:2142) setp.lt.u32 %p8, %r38, %r13;
GPGPU-Sim PTX: 10 (potential) branch divergence @  PC=0x2c58 (_1.ptx:2117) bra.uni $LDWendi__ZN5Graph14getDestinationEjj_200_13;
GPGPU-Sim PTX:    immediate post dominator      @  PC=0x2ce0 (_1.ptx:2142) setp.lt.u32 %p8, %r38, %r13;
GPGPU-Sim PTX: 11 (potential) branch divergence @  PC=0x2c68 (_1.ptx:2121) bra.uni $LDWendi__ZN5Graph14getDestinationEjj_200_13;
GPGPU-Sim PTX:    immediate post dominator      @  PC=0x2ce0 (_1.ptx:2142) setp.lt.u32 %p8, %r38, %r13;
GPGPU-Sim PTX: 12 (potential) branch divergence @  PC=0x2ce8 (_1.ptx:2143) @%p8 bra $LDWendi__ZN5Graph12getOutDegreeEj_200_10;
GPGPU-Sim PTX:    immediate post dominator      @  PC=0x2fb0 (_1.ptx:2262) mov.u32 %r66, 0;
GPGPU-Sim PTX: 13 (potential) branch divergence @  PC=0x2cf8 (_1.ptx:2146) bra.uni $LDWendi__Z11processedgePjR5GraphjjRj_200_2;
GPGPU-Sim PTX:    immediate post dominator      @  PC=0x2fb0 (_1.ptx:2262) mov.u32 %r66, 0;
GPGPU-Sim PTX: 14 (potential) branch divergence @  PC=0x2d10 (_1.ptx:2151) @%p9 bra $Lt_11_16642;
GPGPU-Sim PTX:    immediate post dominator      @  PC=0x2f00 (_1.ptx:2230) mov.u32 %r60, 999999999;
GPGPU-Sim PTX: 15 (potential) branch divergence @  PC=0x2d28 (_1.ptx:2155) @%p10 bra $Lt_11_41986;
GPGPU-Sim PTX:    immediate post dominator      @  PC=0x2df0 (_1.ptx:2187) add.u32 %r47, %r44, %r19;
GPGPU-Sim PTX: 16 (potential) branch divergence @  PC=0x2d50 (_1.ptx:2160) @%p11 bra $Lt_11_41986;
GPGPU-Sim PTX:    immediate post dominator      @  PC=0x2df0 (_1.ptx:2187) add.u32 %r47, %r44, %r19;
GPGPU-Sim PTX: 17 (potential) branch divergence @  PC=0x2d80 (_1.ptx:2167) bra.uni $LDWendi__ZN5Graph12getFirstEdgeEj_200_6;
GPGPU-Sim PTX:    immediate post dominator      @  PC=0x2df0 (_1.ptx:2187) add.u32 %r47, %r44, %r19;
GPGPU-Sim PTX: 18 (potential) branch divergence @  PC=0x2e48 (_1.ptx:2198) @%p12 bra $Lt_11_35842;
GPGPU-Sim PTX:    immediate post dominator      @  PC=0x2f00 (_1.ptx:2230) mov.u32 %r60, 999999999;
GPGPU-Sim PTX: 19 (potential) branch divergence @  PC=0x2e78 (_1.ptx:2205) bra.uni $LDWendi__ZN5Graph9getWeightEjj_200_3;
GPGPU-Sim PTX:    immediate post dominator      @  PC=0x2f00 (_1.ptx:2230) mov.u32 %r60, 999999999;
GPGPU-Sim PTX: 20 (potential) branch divergence @  PC=0x2e88 (_1.ptx:2209) bra.uni $LDWendi__ZN5Graph9getWeightEjj_200_3;
GPGPU-Sim PTX:    immediate post dominator      @  PC=0x2f00 (_1.ptx:2230) mov.u32 %r60, 999999999;
GPGPU-Sim PTX: 21 (potential) branch divergence @  PC=0x2f10 (_1.ptx:2232) @%p13 bra $Lt_11_37378;
GPGPU-Sim PTX:    immediate post dominator      @  PC=0x2fb0 (_1.ptx:2262) mov.u32 %r66, 0;
GPGPU-Sim PTX: 22 (potential) branch divergence @  PC=0x2f20 (_1.ptx:2235) bra.uni $LDWendi__Z11processedgePjR5GraphjjRj_200_2;
GPGPU-Sim PTX:    immediate post dominator      @  PC=0x2fb0 (_1.ptx:2262) mov.u32 %r66, 0;
GPGPU-Sim PTX: 23 (potential) branch divergence @  PC=0x2f70 (_1.ptx:2247) @%p14 bra $Lt_11_38658;
GPGPU-Sim PTX:    immediate post dominator      @  PC=0x2fb0 (_1.ptx:2262) mov.u32 %r66, 0;
GPGPU-Sim PTX: 24 (potential) branch divergence @  PC=0x2f90 (_1.ptx:2252) @%p15 bra $Lt_11_38658;
GPGPU-Sim PTX:    immediate post dominator      @  PC=0x2fb0 (_1.ptx:2262) mov.u32 %r66, 0;
GPGPU-Sim PTX: 25 (potential) branch divergence @  PC=0x2fa0 (_1.ptx:2255) bra.uni $LDWendi__Z11processedgePjR5GraphjjRj_200_2;
GPGPU-Sim PTX:    immediate post dominator      @  PC=0x2fb0 (_1.ptx:2262) mov.u32 %r66, 0;
[...]
GPGPU-Sim uArch: cycles simulated: 655407  inst.: 29014723 (ipc=24.7) sim_rate=74587 (inst/sec) elapsed = 0:0:06:29 / Tue Mar 22 13:07:54 2016
GPGPU-Sim uArch: cycles simulated: 657407  inst.: 29055487 (ipc=24.7) sim_rate=74501 (inst/sec) elapsed = 0:0:06:30 / Tue Mar 22 13:07:55 2016
GPGPU-Sim PTX: 31500000 instructions simulated : ctaid=(29,0,0) tid=(232,0,0)
GPGPU-Sim uArch: cycles simulated: 658907  inst.: 29084076 (ipc=24.7) sim_rate=74383 (inst/sec) elapsed = 0:0:06:31 / Tue Mar 22 13:07:56 2016
GPGPU-Sim uArch: cycles simulated: 660907  inst.: 29125045 (ipc=24.7) sim_rate=74298 (inst/sec) elapsed = 0:0:06:32 / Tue Mar 22 13:07:57 2016
GPGPU-Sim uArch: cycles simulated: 662407  inst.: 29155009 (ipc=24.7) sim_rate=74185 (inst/sec) elapsed = 0:0:06:33 / Tue Mar 22 13:07:58 2016
GPGPU-Sim PTX: 31600000 instructions simulated : ctaid=(24,0,0) tid=(124,0,0)
GPGPU-Sim uArch: cycles simulated: 663907  inst.: 29182884 (ipc=24.6) sim_rate=74068 (inst/sec) elapsed = 0:0:06:34 / Tue Mar 22 13:07:59 2016
GPGPU-Sim uArch: cycles simulated: 665907  inst.: 29221364 (ipc=24.6) sim_rate=73978 (inst/sec) elapsed = 0:0:06:35 / Tue Mar 22 13:08:00 2016
GPGPU-Sim uArch: cycles simulated: 667407  inst.: 29251961 (ipc=24.6) sim_rate=73868 (inst/sec) elapsed = 0:0:06:36 / Tue Mar 22 13:08:01 2016
GPGPU-Sim PTX: 31700000 instructions simulated : ctaid=(5,0,0) tid=(317,0,0)
GPGPU-Sim uArch: cycles simulated: 669407  inst.: 29291149 (ipc=24.6) sim_rate=73781 (inst/sec) elapsed = 0:0:06:37 / Tue Mar 22 13:08:02 2016
GPGPU-Sim uArch: cycles simulated: 670907  inst.: 29319479 (ipc=24.6) sim_rate=73667 (inst/sec) elapsed = 0:0:06:38 / Tue Mar 22 13:08:03 2016
GPGPU-Sim PTX: 31800000 instructions simulated : ctaid=(24,0,0) tid=(75,0,0)
GPGPU-Sim uArch: cycles simulated: 672907  inst.: 29360504 (ipc=24.6) sim_rate=73585 (inst/sec) elapsed = 0:0:06:39 / Tue Mar 22 13:08:04 2016
GPGPU-Sim uArch: cycles simulated: 674407  inst.: 29390013 (ipc=24.6) sim_rate=73475 (inst/sec) elapsed = 0:0:06:40 / Tue Mar 22 13:08:05 2016
GPGPU-Sim uArch: cycles simulated: 676407  inst.: 29427792 (ipc=24.5) sim_rate=73386 (inst/sec) elapsed = 0:0:06:41 / Tue Mar 22 13:08:06 2016
GPGPU-Sim PTX: 31900000 instructions simulated : ctaid=(26,0,0) tid=(125,0,0)
GPGPU-Sim uArch: cycles simulated: 677907  inst.: 29458503 (ipc=24.5) sim_rate=73279 (inst/sec) elapsed = 0:0:06:42 / Tue Mar 22 13:08:07 2016
GPGPU-Sim uArch: cycles simulated: 679907  inst.: 29496127 (ipc=24.5) sim_rate=73191 (inst/sec) elapsed = 0:0:06:43 / Tue Mar 22 13:08:08 2016
GPGPU-Sim uArch: cycles simulated: 681407  inst.: 29524896 (ipc=24.5) sim_rate=73081 (inst/sec) elapsed = 0:0:06:44 / Tue Mar 22 13:08:09 2016
GPGPU-Sim PTX: 32000000 instructions simulated : ctaid=(14,0,0) tid=(342,0,0)
GPGPU-Sim uArch: cycles simulated: 682907  inst.: 29553699 (ipc=24.5) sim_rate=72972 (inst/sec) elapsed = 0:0:06:45 / Tue Mar 22 13:08:10 2016
GPGPU-Sim uArch: cycles simulated: 684907  inst.: 29595015 (ipc=24.5) sim_rate=72894 (inst/sec) elapsed = 0:0:06:46 / Tue Mar 22 13:08:11 2016
GPGPU-Sim uArch: cycles simulated: 686407  inst.: 29622492 (ipc=24.5) sim_rate=72782 (inst/sec) elapsed = 0:0:06:47 / Tue Mar 22 13:08:12 2016
GPGPU-Sim PTX: 32100000 instructions simulated : ctaid=(0,0,0) tid=(457,0,0)
GPGPU-Sim uArch: cycles simulated: 688407  inst.: 29660602 (ipc=24.4) sim_rate=72697 (inst/sec) elapsed = 0:0:06:48 / Tue Mar 22 13:08:13 2016
GPGPU-Sim uArch: cycles simulated: 689907  inst.: 29691319 (ipc=24.4) sim_rate=72594 (inst/sec) elapsed = 0:0:06:49 / Tue Mar 22 13:08:14 2016
GPGPU-Sim PTX: 32200000 instructions simulated : ctaid=(8,0,0) tid=(415,0,0)
GPGPU-Sim uArch: cycles simulated: 691907  inst.: 29731078 (ipc=24.4) sim_rate=72514 (inst/sec) elapsed = 0:0:06:50 / Tue Mar 22 13:08:15 2016
GPGPU-Sim uArch: cycles simulated: 693407  inst.: 29762027 (ipc=24.4) sim_rate=72413 (inst/sec) elapsed = 0:0:06:51 / Tue Mar 22 13:08:16 2016
GPGPU-Sim uArch: cycles simulated: 695407  inst.: 29802092 (ipc=24.4) sim_rate=72335 (inst/sec) elapsed = 0:0:06:52 / Tue Mar 22 13:08:17 2016
GPGPU-Sim PTX: 32300000 instructions simulated : ctaid=(15,0,0) tid=(17,0,0)
GPGPU-Sim uArch: cycles simulated: 696907  inst.: 29832516 (ipc=24.4) sim_rate=72233 (inst/sec) elapsed = 0:0:06:53 / Tue Mar 22 13:08:18 2016
GPGPU-Sim uArch: cycles simulated: 698907  inst.: 29875222 (ipc=24.4) sim_rate=72162 (inst/sec) elapsed = 0:0:06:54 / Tue Mar 22 13:08:19 2016
GPGPU-Sim PTX: 32400000 instructions simulated : ctaid=(13,0,0) tid=(128,0,0)
GPGPU-Sim uArch: cycles simulated: 700407  inst.: 29904763 (ipc=24.4) sim_rate=72059 (inst/sec) elapsed = 0:0:06:55 / Tue Mar 22 13:08:20 2016
GPGPU-Sim uArch: cycles simulated: 702407  inst.: 29948465 (ipc=24.4) sim_rate=71991 (inst/sec) elapsed = 0:0:06:56 / Tue Mar 22 13:08:21 2016
GPGPU-Sim uArch: cycles simulated: 703907  inst.: 29981772 (ipc=24.3) sim_rate=71898 (inst/sec) elapsed = 0:0:06:57 / Tue Mar 22 13:08:22 2016
GPGPU-Sim PTX: 32500000 instructions simulated : ctaid=(9,0,0) tid=(439,0,0)
GPGPU-Sim uArch: cycles simulated: 705907  inst.: 30023162 (ipc=24.3) sim_rate=71825 (inst/sec) elapsed = 0:0:06:58 / Tue Mar 22 13:08:23 2016
GPGPU-Sim uArch: cycles simulated: 707407  inst.: 30055710 (ipc=24.3) sim_rate=71732 (inst/sec) elapsed = 0:0:06:59 / Tue Mar 22 13:08:24 2016
GPGPU-Sim PTX: 32600000 instructions simulated : ctaid=(6,0,0) tid=(140,0,0)
GPGPU-Sim uArch: cycles simulated: 709407  inst.: 30096251 (ipc=24.3) sim_rate=71657 (inst/sec) elapsed = 0:0:07:00 / Tue Mar 22 13:08:25 2016
GPGPU-Sim uArch: cycles simulated: 710907  inst.: 30128767 (ipc=24.3) sim_rate=71564 (inst/sec) elapsed = 0:0:07:01 / Tue Mar 22 13:08:26 2016
GPGPU-Sim uArch: cycles simulated: 712907  inst.: 30171112 (ipc=24.3) sim_rate=71495 (inst/sec) elapsed = 0:0:07:02 / Tue Mar 22 13:08:27 2016
GPGPU-Sim PTX: 32700000 instructions simulated : ctaid=(2,0,0) tid=(213,0,0)
GPGPU-Sim uArch: cycles simulated: 714407  inst.: 30202132 (ipc=24.3) sim_rate=71399 (inst/sec) elapsed = 0:0:07:03 / Tue Mar 22 13:08:28 2016
GPGPU-Sim uArch: cycles simulated: 716407  inst.: 30243017 (ipc=24.3) sim_rate=71327 (inst/sec) elapsed = 0:0:07:04 / Tue Mar 22 13:08:29 2016
GPGPU-Sim PTX: 32800000 instructions simulated : ctaid=(29,0,0) tid=(109,0,0)
GPGPU-Sim uArch: cycles simulated: 717907  inst.: 30275682 (ipc=24.3) sim_rate=71236 (inst/sec) elapsed = 0:0:07:05 / Tue Mar 22 13:08:30 2016
GPGPU-Sim uArch: cycles simulated: 719907  inst.: 30316913 (ipc=24.3) sim_rate=71166 (inst/sec) elapsed = 0:0:07:06 / Tue Mar 22 13:08:31 2016
GPGPU-Sim uArch: cycles simulated: 721407  inst.: 30349031 (ipc=24.3) sim_rate=71075 (inst/sec) elapsed = 0:0:07:07 / Tue Mar 22 13:08:32 2016
GPGPU-Sim PTX: 32900000 instructions simulated : ctaid=(28,0,0) tid=(193,0,0)
GPGPU-Sim uArch: cycles simulated: 723407  inst.: 30391389 (ipc=24.2) sim_rate=71007 (inst/sec) elapsed = 0:0:07:08 / Tue Mar 22 13:08:33 2016
GPGPU-Sim uArch: cycles simulated: 724907  inst.: 30422615 (ipc=24.2) sim_rate=70915 (inst/sec) elapsed = 0:0:07:09 / Tue Mar 22 13:08:34 2016
GPGPU-Sim PTX: 33000000 instructions simulated : ctaid=(23,0,0) tid=(206,0,0)
GPGPU-Sim uArch: cycles simulated: 726907  inst.: 30462519 (ipc=24.2) sim_rate=70843 (inst/sec) elapsed = 0:0:07:10 / Tue Mar 22 13:08:35 2016
GPGPU-Sim uArch: cycles simulated: 728407  inst.: 30492378 (ipc=24.2) sim_rate=70747 (inst/sec) elapsed = 0:0:07:11 / Tue Mar 22 13:08:36 2016
GPGPU-Sim uArch: cycles simulated: 730407  inst.: 30533150 (ipc=24.2) sim_rate=70678 (inst/sec) elapsed = 0:0:07:12 / Tue Mar 22 13:08:37 2016
GPGPU-Sim PTX: 33100000 instructions simulated : ctaid=(17,0,0) tid=(259,0,0)
GPGPU-Sim uArch: cycles simulated: 731907  inst.: 30562314 (ipc=24.2) sim_rate=70582 (inst/sec) elapsed = 0:0:07:13 / Tue Mar 22 13:08:38 2016
GPGPU-Sim uArch: cycles simulated: 733907  inst.: 30602167 (ipc=24.2) sim_rate=70511 (inst/sec) elapsed = 0:0:07:14 / Tue Mar 22 13:08:39 2016
GPGPU-Sim PTX: 33200000 instructions simulated : ctaid=(28,0,0) tid=(352,0,0)
GPGPU-Sim uArch: cycles simulated: 735407  inst.: 30631953 (ipc=24.2) sim_rate=70418 (inst/sec) elapsed = 0:0:07:15 / Tue Mar 22 13:08:40 2016
GPGPU-Sim uArch: cycles simulated: 737407  inst.: 30674627 (ipc=24.2) sim_rate=70354 (inst/sec) elapsed = 0:0:07:16 / Tue Mar 22 13:08:41 2016
GPGPU-Sim uArch: cycles simulated: 738907  inst.: 30706238 (ipc=24.2) sim_rate=70265 (inst/sec) elapsed = 0:0:07:17 / Tue Mar 22 13:08:42 2016
GPGPU-Sim PTX: 33300000 instructions simulated : ctaid=(17,0,0) tid=(510,0,0)
GPGPU-Sim uArch: cycles simulated: 740907  inst.: 30749628 (ipc=24.1) sim_rate=70204 (inst/sec) elapsed = 0:0:07:18 / Tue Mar 22 13:08:43 2016
GPGPU-Sim uArch: cycles simulated: 742907  inst.: 30788862 (ipc=24.1) sim_rate=70134 (inst/sec) elapsed = 0:0:07:19 / Tue Mar 22 13:08:44 2016
GPGPU-Sim PTX: 33400000 instructions simulated : ctaid=(17,0,0) tid=(506,0,0)
GPGPU-Sim uArch: cycles simulated: 744407  inst.: 30817570 (ipc=24.1) sim_rate=70039 (inst/sec) elapsed = 0:0:07:20 / Tue Mar 22 13:08:45 2016
GPGPU-Sim uArch: cycles simulated: 746407  inst.: 30855510 (ipc=24.1) sim_rate=69967 (inst/sec) elapsed = 0:0:07:21 / Tue Mar 22 13:08:46 2016
GPGPU-Sim uArch: cycles simulated: 747907  inst.: 30886876 (ipc=24.1) sim_rate=69879 (inst/sec) elapsed = 0:0:07:22 / Tue Mar 22 13:08:47 2016
GPGPU-Sim PTX: 33500000 instructions simulated : ctaid=(18,0,0) tid=(15,0,0)
GPGPU-Sim uArch: cycles simulated: 749907  inst.: 30927928 (ipc=24.1) sim_rate=69814 (inst/sec) elapsed = 0:0:07:23 / Tue Mar 22 13:08:48 2016
GPGPU-Sim uArch: cycles simulated: 751907  inst.: 30969036 (ipc=24.1) sim_rate=69750 (inst/sec) elapsed = 0:0:07:24 / Tue Mar 22 13:08:49 2016
GPGPU-Sim PTX: 33600000 instructions simulated : ctaid=(29,0,0) tid=(118,0,0)
GPGPU-Sim uArch: cycles simulated: 753407  inst.: 30999504 (ipc=24.1) sim_rate=69661 (inst/sec) elapsed = 0:0:07:25 / Tue Mar 22 13:08:50 2016
GPGPU-Sim uArch: cycles simulated: 755407  inst.: 31041014 (ipc=24.1) sim_rate=69598 (inst/sec) elapsed = 0:0:07:26 / Tue Mar 22 13:08:51 2016
GPGPU-Sim uArch: cycles simulated: 756907  inst.: 31073003 (ipc=24.1) sim_rate=69514 (inst/sec) elapsed = 0:0:07:27 / Tue Mar 22 13:08:52 2016
GPGPU-Sim PTX: 33700000 instructions simulated : ctaid=(19,0,0) tid=(345,0,0)
GPGPU-Sim uArch: cycles simulated: 758907  inst.: 31116708 (ipc=24.0) sim_rate=69456 (inst/sec) elapsed = 0:0:07:28 / Tue Mar 22 13:08:53 2016
GPGPU-Sim uArch: cycles simulated: 760907  inst.: 31156742 (ipc=24.0) sim_rate=69391 (inst/sec) elapsed = 0:0:07:29 / Tue Mar 22 13:08:54 2016
GPGPU-Sim PTX: 33800000 instructions simulated : ctaid=(26,0,0) tid=(277,0,0)
GPGPU-Sim uArch: cycles simulated: 762407  inst.: 31186474 (ipc=24.0) sim_rate=69303 (inst/sec) elapsed = 0:0:07:30 / Tue Mar 22 13:08:55 2016
GPGPU-Sim uArch: cycles simulated: 764407  inst.: 31224253 (ipc=24.0) sim_rate=69233 (inst/sec) elapsed = 0:0:07:31 / Tue Mar 22 13:08:56 2016
GPGPU-Sim uArch: cycles simulated: 766407  inst.: 31267825 (ipc=24.0) sim_rate=69176 (inst/sec) elapsed = 0:0:07:32 / Tue Mar 22 13:08:57 2016
GPGPU-Sim PTX: 33900000 instructions simulated : ctaid=(3,0,0) tid=(272,0,0)
GPGPU-Sim uArch: cycles simulated: 767907  inst.: 31300902 (ipc=24.0) sim_rate=69096 (inst/sec) elapsed = 0:0:07:33 / Tue Mar 22 13:08:58 2016
GPGPU-Sim uArch: cycles simulated: 769907  inst.: 31345354 (ipc=24.0) sim_rate=69042 (inst/sec) elapsed = 0:0:07:34 / Tue Mar 22 13:08:59 2016
GPGPU-Sim PTX: 34000000 instructions simulated : ctaid=(22,0,0) tid=(40,0,0)
GPGPU-Sim uArch: cycles simulated: 771407  inst.: 31379487 (ipc=24.0) sim_rate=68965 (inst/sec) elapsed = 0:0:07:35 / Tue Mar 22 13:09:00 2016
GPGPU-Sim uArch: cycles simulated: 773407  inst.: 31424265 (ipc=24.0) sim_rate=68912 (inst/sec) elapsed = 0:0:07:36 / Tue Mar 22 13:09:01 2016
GPGPU-Sim PTX: 34100000 instructions simulated : ctaid=(29,0,0) tid=(258,0,0)
GPGPU-Sim uArch: cycles simulated: 775407  inst.: 31463585 (ipc=24.0) sim_rate=68848 (inst/sec) elapsed = 0:0:07:37 / Tue Mar 22 13:09:02 2016
GPGPU-Sim uArch: cycles simulated: 776907  inst.: 31494737 (ipc=24.0) sim_rate=68765 (inst/sec) elapsed = 0:0:07:38 / Tue Mar 22 13:09:03 2016
GPGPU-Sim uArch: cycles simulated: 778907  inst.: 31536112 (ipc=24.0) sim_rate=68706 (inst/sec) elapsed = 0:0:07:39 / Tue Mar 22 13:09:04 2016
GPGPU-Sim PTX: 34200000 instructions simulated : ctaid=(26,0,0) tid=(188,0,0)
GPGPU-Sim uArch: cycles simulated: 780907  inst.: 31579946 (ipc=24.0) sim_rate=68652 (inst/sec) elapsed = 0:0:07:40 / Tue Mar 22 13:09:05 2016
GPGPU-Sim uArch: cycles simulated: 782407  inst.: 31610552 (ipc=23.9) sim_rate=68569 (inst/sec) elapsed = 0:0:07:41 / Tue Mar 22 13:09:06 2016
GPGPU-Sim PTX: 34300000 instructions simulated : ctaid=(29,0,0) tid=(103,0,0)
GPGPU-Sim uArch: cycles simulated: 784407  inst.: 31653444 (ipc=23.9) sim_rate=68513 (inst/sec) elapsed = 0:0:07:42 / Tue Mar 22 13:09:07 2016
GPGPU-Sim uArch: cycles simulated: 786407  inst.: 31695209 (ipc=23.9) sim_rate=68456 (inst/sec) elapsed = 0:0:07:43 / Tue Mar 22 13:09:08 2016
GPGPU-Sim PTX: 34400000 instructions simulated : ctaid=(25,0,0) tid=(311,0,0)
GPGPU-Sim uArch: cycles simulated: 787907  inst.: 31727943 (ipc=23.9) sim_rate=68379 (inst/sec) elapsed = 0:0:07:44 / Tue Mar 22 13:09:09 2016
GPGPU-Sim uArch: cycles simulated: 789907  inst.: 31773856 (ipc=23.9) sim_rate=68330 (inst/sec) elapsed = 0:0:07:45 / Tue Mar 22 13:09:10 2016
GPGPU-Sim uArch: cycles simulated: 791907  inst.: 31815026 (ipc=23.9) sim_rate=68272 (inst/sec) elapsed = 0:0:07:46 / Tue Mar 22 13:09:11 2016
GPGPU-Sim PTX: 34500000 instructions simulated : ctaid=(6,0,0) tid=(33,0,0)
GPGPU-Sim uArch: cycles simulated: 793907  inst.: 31858962 (ipc=23.9) sim_rate=68220 (inst/sec) elapsed = 0:0:07:47 / Tue Mar 22 13:09:12 2016
GPGPU-Sim uArch: cycles simulated: 795407  inst.: 31891839 (ipc=23.9) sim_rate=68144 (inst/sec) elapsed = 0:0:07:48 / Tue Mar 22 13:09:13 2016
GPGPU-Sim PTX: 34600000 instructions simulated : ctaid=(23,0,0) tid=(492,0,0)
GPGPU-Sim uArch: cycles simulated: 797407  inst.: 31934655 (ipc=23.9) sim_rate=68090 (inst/sec) elapsed = 0:0:07:49 / Tue Mar 22 13:09:14 2016
GPGPU-Sim uArch: cycles simulated: 799407  inst.: 31981314 (ipc=23.9) sim_rate=68045 (inst/sec) elapsed = 0:0:07:50 / Tue Mar 22 13:09:15 2016
GPGPU-Sim PTX: 34700000 instructions simulated : ctaid=(19,0,0) tid=(59,0,0)
GPGPU-Sim uArch: cycles simulated: 801407  inst.: 32027974 (ipc=23.9) sim_rate=67999 (inst/sec) elapsed = 0:0:07:51 / Tue Mar 22 13:09:16 2016
GPGPU-Sim uArch: cycles simulated: 802907  inst.: 32060526 (ipc=23.9) sim_rate=67924 (inst/sec) elapsed = 0:0:07:52 / Tue Mar 22 13:09:17 2016
GPGPU-Sim PTX: 34800000 instructions simulated : ctaid=(12,0,0) tid=(34,0,0)
GPGPU-Sim uArch: cycles simulated: 804907  inst.: 32105088 (ipc=23.9) sim_rate=67875 (inst/sec) elapsed = 0:0:07:53 / Tue Mar 22 13:09:18 2016
GPGPU-Sim uArch: cycles simulated: 806907  inst.: 32151690 (ipc=23.9) sim_rate=67830 (inst/sec) elapsed = 0:0:07:54 / Tue Mar 22 13:09:19 2016
GPGPU-Sim PTX: 34900000 instructions simulated : ctaid=(1,0,0) tid=(125,0,0)
GPGPU-Sim uArch: cycles simulated: 808907  inst.: 32195819 (ipc=23.9) sim_rate=67780 (inst/sec) elapsed = 0:0:07:55 / Tue Mar 22 13:09:20 2016
GPGPU-Sim uArch: cycles simulated: 810407  inst.: 32229784 (ipc=23.9) sim_rate=67709 (inst/sec) elapsed = 0:0:07:56 / Tue Mar 22 13:09:21 2016
GPGPU-Sim uArch: cycles simulated: 812407  inst.: 32274747 (ipc=23.9) sim_rate=67661 (inst/sec) elapsed = 0:0:07:57 / Tue Mar 22 13:09:22 2016
GPGPU-Sim PTX: 35000000 instructions simulated : ctaid=(21,0,0) tid=(66,0,0)
GPGPU-Sim uArch: cycles simulated: 814407  inst.: 32318272 (ipc=23.9) sim_rate=67611 (inst/sec) elapsed = 0:0:07:58 / Tue Mar 22 13:09:23 2016
GPGPU-Sim uArch: cycles simulated: 816407  inst.: 32361666 (ipc=23.9) sim_rate=67560 (inst/sec) elapsed = 0:0:07:59 / Tue Mar 22 13:09:24 2016
GPGPU-Sim PTX: 35100000 instructions simulated : ctaid=(22,0,0) tid=(51,0,0)
GPGPU-Sim uArch: cycles simulated: 818407  inst.: 32406095 (ipc=23.9) sim_rate=67512 (inst/sec) elapsed = 0:0:08:00 / Tue Mar 22 13:09:25 2016
GPGPU-Sim uArch: cycles simulated: 819907  inst.: 32441752 (ipc=23.9) sim_rate=67446 (inst/sec) elapsed = 0:0:08:01 / Tue Mar 22 13:09:26 2016
GPGPU-Sim PTX: 35200000 instructions simulated : ctaid=(19,0,0) tid=(445,0,0)
GPGPU-Sim uArch: cycles simulated: 821907  inst.: 32485196 (ipc=23.9) sim_rate=67396 (inst/sec) elapsed = 0:0:08:02 / Tue Mar 22 13:09:27 2016
GPGPU-Sim uArch: cycles simulated: 823907  inst.: 32526466 (ipc=23.8) sim_rate=67342 (inst/sec) elapsed = 0:0:08:03 / Tue Mar 22 13:09:28 2016
GPGPU-Sim PTX: 35300000 instructions simulated : ctaid=(8,0,0) tid=(229,0,0)
GPGPU-Sim uArch: cycles simulated: 825907  inst.: 32567243 (ipc=23.8) sim_rate=67287 (inst/sec) elapsed = 0:0:08:04 / Tue Mar 22 13:09:29 2016
GPGPU-Sim uArch: cycles simulated: 827907  inst.: 32610682 (ipc=23.8) sim_rate=67238 (inst/sec) elapsed = 0:0:08:05 / Tue Mar 22 13:09:30 2016
GPGPU-Sim PTX: 35400000 instructions simulated : ctaid=(22,0,0) tid=(276,0,0)
GPGPU-Sim uArch: cycles simulated: 829907  inst.: 32653752 (ipc=23.8) sim_rate=67188 (inst/sec) elapsed = 0:0:08:06 / Tue Mar 22 13:09:31 2016
GPGPU-Sim uArch: cycles simulated: 831407  inst.: 32684441 (ipc=23.8) sim_rate=67113 (inst/sec) elapsed = 0:0:08:07 / Tue Mar 22 13:09:32 2016
GPGPU-Sim uArch: cycles simulated: 833407  inst.: 32727861 (ipc=23.8) sim_rate=67065 (inst/sec) elapsed = 0:0:08:08 / Tue Mar 22 13:09:33 2016
GPGPU-Sim PTX: 35500000 instructions simulated : ctaid=(3,0,0) tid=(258,0,0)
GPGPU-Sim uArch: cycles simulated: 835407  inst.: 32772329 (ipc=23.8) sim_rate=67019 (inst/sec) elapsed = 0:0:08:09 / Tue Mar 22 13:09:34 2016
GPGPU-Sim uArch: cycles simulated: 837407  inst.: 32818086 (ipc=23.8) sim_rate=66975 (inst/sec) elapsed = 0:0:08:10 / Tue Mar 22 13:09:35 2016
GPGPU-Sim PTX: 35600000 instructions simulated : ctaid=(26,0,0) tid=(34,0,0)
GPGPU-Sim uArch: cycles simulated: 839407  inst.: 32863052 (ipc=23.8) sim_rate=66930 (inst/sec) elapsed = 0:0:08:11 / Tue Mar 22 13:09:36 2016
GPGPU-Sim uArch: cycles simulated: 841407  inst.: 32907490 (ipc=23.8) sim_rate=66885 (inst/sec) elapsed = 0:0:08:12 / Tue Mar 22 13:09:37 2016
GPGPU-Sim PTX: 35700000 instructions simulated : ctaid=(9,0,0) tid=(240,0,0)
GPGPU-Sim uArch: cycles simulated: 843407  inst.: 32949847 (ipc=23.8) sim_rate=66835 (inst/sec) elapsed = 0:0:08:13 / Tue Mar 22 13:09:38 2016
GPGPU-Sim uArch: cycles simulated: 845407  inst.: 32993104 (ipc=23.8) sim_rate=66787 (inst/sec) elapsed = 0:0:08:14 / Tue Mar 22 13:09:39 2016
GPGPU-Sim PTX: 35800000 instructions simulated : ctaid=(11,0,0) tid=(68,0,0)
GPGPU-Sim uArch: cycles simulated: 847407  inst.: 33038079 (ipc=23.8) sim_rate=66743 (inst/sec) elapsed = 0:0:08:15 / Tue Mar 22 13:09:40 2016
GPGPU-Sim uArch: cycles simulated: 849407  inst.: 33083231 (ipc=23.8) sim_rate=66700 (inst/sec) elapsed = 0:0:08:16 / Tue Mar 22 13:09:41 2016
GPGPU-Sim PTX: 35900000 instructions simulated : ctaid=(26,0,0) tid=(93,0,0)
GPGPU-Sim uArch: cycles simulated: 851407  inst.: 33127432 (ipc=23.8) sim_rate=66654 (inst/sec) elapsed = 0:0:08:17 / Tue Mar 22 13:09:42 2016
GPGPU-Sim uArch: Shader 6 finished CTA #0 (776421,75407), 1 CTAs running
GPGPU-Sim uArch: core:  6, cta: 0 initialized @(776422,75407)
GPGPU-Sim uArch: cycles simulated: 852907  inst.: 33176791 (ipc=23.8) sim_rate=66620 (inst/sec) elapsed = 0:0:08:18 / Tue Mar 22 13:09:43 2016
GPGPU-Sim PTX: 36000000 instructions simulated : ctaid=(19,0,0) tid=(376,0,0)
GPGPU-Sim uArch: cycles simulated: 854907  inst.: 33230570 (ipc=23.8) sim_rate=66594 (inst/sec) elapsed = 0:0:08:19 / Tue Mar 22 13:09:44 2016
GPGPU-Sim uArch: cycles simulated: 856907  inst.: 33277403 (ipc=23.8) sim_rate=66554 (inst/sec) elapsed = 0:0:08:20 / Tue Mar 22 13:09:45 2016
GPGPU-Sim PTX: 36100000 instructions simulated : ctaid=(0,0,0) tid=(354,0,0)
GPGPU-Sim uArch: cycles simulated: 858907  inst.: 33327167 (ipc=23.8) sim_rate=66521 (inst/sec) elapsed = 0:0:08:21 / Tue Mar 22 13:09:46 2016
