

        *** GPGPU-Sim Simulator Version 3.2.2  [build 0] ***


GPGPU-Sim PTX: simulation mode 0 (can change with PTX_SIM_MODE_FUNC environment variable:
               1=functional simulation only, 0=detailed performance simulator)
GPGPU-Sim: Configuration options:

-network_mode                           1 # Interconnection network mode
-inter_config_file   config_fermi_islip.icnt # Interconnection network config file
-gpgpu_ptx_use_cuobjdump                    1 # Use cuobjdump to extract ptx and sass from binaries
-gpgpu_experimental_lib_support                    0 # Try to extract code from cuda libraries [Broken because of unknown cudaGetExportTable]
-gpgpu_ptx_convert_to_ptxplus                    0 # Convert SASS (native ISA) to ptxplus and run ptxplus
-gpgpu_ptx_force_max_capability                   20 # Force maximum compute capability
-gpgpu_ptx_inst_debug_to_file                    0 # Dump executed instructions' debug information to file
-gpgpu_ptx_inst_debug_file       inst_debug.txt # Executed instructions' debug output file
-gpgpu_ptx_inst_debug_thread_uid                    1 # Thread UID for executed instructions' debug output
-gpgpu_simd_model                       1 # 1 = post-dominator
-gpgpu_shader_core_pipeline              1536:32 # shader core pipeline config, i.e., {<nthread>:<warpsize>}
-gpgpu_tex_cache:l1  4:128:24,L:R:m:N:L,F:128:4,128:2 # per-shader L1 texture cache  (READ-ONLY) config  {<nsets>:<bsize>:<assoc>,<rep>:<wr>:<alloc>:<wr_alloc>,<mshr>:<N>:<merge>,<mq>:<rf>}
-gpgpu_const_cache:l1 64:64:2,L:R:f:N:L,A:2:32,4 # per-shader L1 constant memory cache  (READ-ONLY) config  {<nsets>:<bsize>:<assoc>,<rep>:<wr>:<alloc>:<wr_alloc>,<mshr>:<N>:<merge>,<mq>} 
-gpgpu_cache:il1     4:128:4,L:R:f:N:L,A:2:32,4 # shader L1 instruction cache config  {<nsets>:<bsize>:<assoc>,<rep>:<wr>:<alloc>:<wr_alloc>,<mshr>:<N>:<merge>,<mq>} 
-gpgpu_cache:dl1     32:128:4,L:L:m:N:H,A:32:8,8:2,0,1:0:1:1:0:1,1:4:8:16:32:64,/sciclone/data10/hwang07/GPU_RESEARCH/swl/swl_outputs/RESULTS/swl16/ # per-shader L1 data cache config  {<nsets>:<bsize>:<assoc>,<rep>:<wr>:<alloc>:<wr_alloc>,<mshr>:<N>:<merge>,<mq> | none}
-gpgpu_cache:dl1PrefL1                 none # per-shader L1 data cache config  {<nsets>:<bsize>:<assoc>,<rep>:<wr>:<alloc>:<wr_alloc>,<mshr>:<N>:<merge>,<mq> | none}
-gpgpu_cache:dl1PreShared                 none # per-shader L1 data cache config  {<nsets>:<bsize>:<assoc>,<rep>:<wr>:<alloc>:<wr_alloc>,<mshr>:<N>:<merge>,<mq> | none}
-gmem_skip_L1D                          0 # global memory access skip L1D cache (implements -Xptxas -dlcm=cg, default=no skip)
-gpgpu_perfect_mem                      0 # enable perfect memory mode (no cache miss)
-n_regfile_gating_group                    4 # group of lanes that should be read/written together)
-gpgpu_clock_gated_reg_file                    0 # enable clock gated reg file for power calculations
-gpgpu_clock_gated_lanes                    0 # enable clock gated lanes for power calculations
-gpgpu_shader_registers                32768 # Number of registers per shader core. Limits number of concurrent CTAs. (default 8192)
-gpgpu_shader_cta                       8 # Maximum number of concurrent CTAs in shader (default 8)
-gpgpu_num_cta_barriers                   16 # Maximum number of named barriers per CTA (default 16)
-gpgpu_n_clusters                      15 # number of processing clusters
-gpgpu_n_cores_per_cluster                    1 # number of simd cores per cluster
-gpgpu_n_cluster_ejection_buffer_size                    8 # number of packets in ejection buffer
-gpgpu_n_ldst_response_buffer_size                    2 # number of response packets in ld/st unit ejection buffer
-gpgpu_shmem_size                   16384 # Size of shared memory per shader core (default 16kB)
-gpgpu_shmem_size                   49152 # Size of shared memory per shader core (default 16kB)
-gpgpu_shmem_size_PrefL1                16384 # Size of shared memory per shader core (default 16kB)
-gpgpu_shmem_size_PrefShared                16384 # Size of shared memory per shader core (default 16kB)
-gpgpu_shmem_num_banks                   32 # Number of banks in the shared memory in each shader core (default 16)
-gpgpu_shmem_limited_broadcast                    0 # Limit shared memory to do one broadcast per cycle (default on)
-gpgpu_shmem_warp_parts                    1 # Number of portions a warp is divided into for shared memory bank conflict check 
-gpgpu_warpdistro_shader                   -1 # Specify which shader core to collect the warp size distribution from
-gpgpu_warp_issue_shader                    0 # Specify which shader core to collect the warp issue distribution from
-gpgpu_local_mem_map                    1 # Mapping from local memory space address to simulated GPU physical address space (default = enabled)
-gpgpu_num_reg_banks                   16 # Number of register banks (default = 8)
-gpgpu_reg_bank_use_warp_id                    0 # Use warp ID in mapping registers to banks (default = off)
-gpgpu_operand_collector_num_units_sp                    6 # number of collector units (default = 4)
-gpgpu_operand_collector_num_units_sfu                    8 # number of collector units (default = 4)
-gpgpu_operand_collector_num_units_mem                    2 # number of collector units (default = 2)
-gpgpu_operand_collector_num_units_gen                    0 # number of collector units (default = 0)
-gpgpu_operand_collector_num_in_ports_sp                    2 # number of collector unit in ports (default = 1)
-gpgpu_operand_collector_num_in_ports_sfu                    1 # number of collector unit in ports (default = 1)
-gpgpu_operand_collector_num_in_ports_mem                    1 # number of collector unit in ports (default = 1)
-gpgpu_operand_collector_num_in_ports_gen                    0 # number of collector unit in ports (default = 0)
-gpgpu_operand_collector_num_out_ports_sp                    2 # number of collector unit in ports (default = 1)
-gpgpu_operand_collector_num_out_ports_sfu                    1 # number of collector unit in ports (default = 1)
-gpgpu_operand_collector_num_out_ports_mem                    1 # number of collector unit in ports (default = 1)
-gpgpu_operand_collector_num_out_ports_gen                    0 # number of collector unit in ports (default = 0)
-gpgpu_coalesce_arch                   13 # Coalescing arch (default = 13, anything else is off for now)
-gpgpu_num_sched_per_core                    2 # Number of warp schedulers per core
-gpgpu_max_insn_issue_per_warp                    1 # Max number of instructions that can be issued per warp in one cycle by scheduler
-gpgpu_simt_core_sim_order                    1 # Select the simulation order of cores in a cluster (0=Fix, 1=Round-Robin)
-gpgpu_pipeline_widths        2,1,1,2,1,1,2 # Pipeline widths ID_OC_SP,ID_OC_SFU,ID_OC_MEM,OC_EX_SP,OC_EX_SFU,OC_EX_MEM,EX_WB
-gpgpu_num_sp_units                     2 # Number of SP units (default=1)
-gpgpu_num_sfu_units                    1 # Number of SF units (default=1)
-gpgpu_num_mem_units                    1 # Number if ldst units (default=1) WARNING: not hooked up to anything
-gpgpu_scheduler       warp_limiting:2:16 # Scheduler configuration: < lrr | gto | two_level_active > If two_level_active:<num_active_warps>:<inner_prioritization>:<outer_prioritization>For complete list of prioritization values see shader.h enum scheduler_prioritization_typeDefault: gto
-gpgpu_dram_scheduler                    1 # 0 = fifo, 1 = FR-FCFS (defaul)
-gpgpu_dram_partition_queues              8:8:8:8 # i2$:$2d:d2$:$2i
-l2_ideal                               0 # Use a ideal L2 cache that always hit
-gpgpu_cache:dl2     64:128:8,L:B:m:W:L,A:32:4,4:0,32 # unified banked L2 data cache config  {<nsets>:<bsize>:<assoc>,<rep>:<wr>:<alloc>:<wr_alloc>,<mshr>:<N>:<merge>,<mq>}
-gpgpu_cache:dl2_texture_only                    0 # L2 cache used for texture only
-gpgpu_n_mem                            6 # number of memory modules (e.g. memory controllers) in gpu
-gpgpu_n_sub_partition_per_mchannel                    2 # number of memory subpartition in each memory module
-gpgpu_n_mem_per_ctrlr                    2 # number of memory chips per memory controller
-gpgpu_memlatency_stat                   14 # track and display latency statistics 0x2 enables MC, 0x4 enables queue logs
-gpgpu_frfcfs_dram_sched_queue_size                   16 # 0 = unlimited (default); # entries per chip
-gpgpu_dram_return_queue_size                  116 # 0 = unlimited (default); # entries per chip
-gpgpu_dram_buswidth                    4 # default = 4 bytes (8 bytes per cycle at DDR)
-gpgpu_dram_burst_length                    8 # Burst length of each DRAM request (default = 4 data bus cycle)
-dram_data_command_freq_ratio                    4 # Frequency ratio between DRAM data bus and command bus (default = 2 times, i.e. DDR)
-gpgpu_dram_timing_opt nbk=16:CCD=2:RRD=6:RCD=12:RAS=28:RP=12:RC=40: CL=12:WL=4:CDLR=5:WR=12:nbkgrp=4:CCDL=3:RTPL=2 # DRAM timing parameters = {nbk:tCCD:tRRD:tRCD:tRAS:tRP:tRC:CL:WL:tCDLR:tWR:nbkgrp:tCCDL:tRTPL}
-rop_latency                          120 # ROP queue latency (default 85)
-dram_latency                         100 # DRAM latency (default 30)
-gpgpu_mem_addr_mapping dramid@8;00000000.00000000.00000000.00000000.0000RRRR.RRRRRRRR.BBBCCCCB.CCSSSSSS # mapping memory address to dram model {dramid@<start bit>;<memory address map>}
-gpgpu_mem_addr_test                    0 # run sweep test to check address mapping for aliased address
-gpgpu_mem_address_mask                    1 # 0 = old addressing mask, 1 = new addressing mask, 2 = new add. mask + flipped bank sel and chip sel bits
-gpuwattch_xml_file  gpuwattch_gtx480.xml # GPUWattch XML file
-power_simulation_enabled                    0 # Turn on power simulator (1=On, 0=Off)
-power_per_cycle_dump                    0 # Dump detailed power output each cycle
-power_trace_enabled                    0 # produce a file for the power trace (1=On, 0=Off)
-power_trace_zlevel                     6 # Compression level of the power trace output log (0=no comp, 9=highest)
-steady_power_levels_enabled                    0 # produce a file for the steady power levels (1=On, 0=Off)
-steady_state_definition                  8:4 # allowed deviation:number of samples
-gpgpu_max_cycle                        0 # terminates gpu simulation early (0 = no limit)
-gpgpu_max_insn                         0 # terminates gpu simulation early (0 = no limit)
-gpgpu_max_cta                          0 # terminates gpu simulation early (0 = no limit)
-gpgpu_runtime_stat                   500 # display runtime statistics such as dram utilization {<freq>:<flag>}
-liveness_message_freq                    1 # Minimum number of seconds between simulation liveness messages (0 = always print)
-gpgpu_flush_l1_cache                    0 # Flush L1 cache at the end of each kernel call
-gpgpu_flush_l2_cache                    0 # Flush L2 cache at the end of each kernel call
-gpgpu_deadlock_detect                    1 # Stop the simulation at deadlock (1=on (default), 0=off)
-gpgpu_ptx_instruction_classification                    0 # if enabled will classify ptx instruction types per kernel (Max 255 kernels now)
-gpgpu_ptx_sim_mode                     0 # Select between Performance (default) or Functional simulation (1)
-gpgpu_clock_domains 700.0:700.0:700.0:924.0 # Clock Domain Frequencies in MhZ {<Core Clock>:<ICNT Clock>:<L2 Clock>:<DRAM Clock>}
-gpgpu_max_concurrent_kernel                    8 # maximum kernels that can run concurrently on GPU
-gpgpu_cflog_interval                    0 # Interval between each snapshot in control flow logger
-visualizer_enabled                     0 # Turn on visualizer output (1=On, 0=Off)
-visualizer_outputfile                 NULL # Specifies the output log file for visualizer
-visualizer_zlevel                      6 # Compression level of the visualizer output log (0=no comp, 9=highest)
-trace_enabled                          0 # Turn on traces
-trace_components                    none # comma seperated list of traces to enable. Complete list found in trace_streams.tup. Default none
-trace_sampling_core                    0 # The core which is printed using CORE_DPRINTF. Default 0
-trace_sampling_memory_partition                   -1 # The memory partition which is printed using MEMPART_DPRINTF. Default -1 (i.e. all)
-enable_ptx_file_line_stats                    1 # Turn on PTX source line statistic profiling. (1 = On)
-ptx_line_stats_filename gpgpu_inst_stats.txt # Output file for PTX source line statistics.
-save_embedded_ptx                      0 # saves ptx files embedded in binary as <n>.ptx
-keep                                   0 # keep intermediate files created by GPGPU-Sim when interfacing with external programs
-gpgpu_ptx_save_converted_ptxplus                    0 # Saved converted ptxplus to a file
-ptx_opcode_latency_int         4,13,4,5,145 # Opcode latencies for integers <ADD,MAX,MUL,MAD,DIV>Default 1,1,19,25,145
-ptx_opcode_latency_fp          4,13,4,5,39 # Opcode latencies for single precision floating points <ADD,MAX,MUL,MAD,DIV>Default 1,1,1,1,30
-ptx_opcode_latency_dp         8,19,8,8,330 # Opcode latencies for double precision floating points <ADD,MAX,MUL,MAD,DIV>Default 8,8,8,8,335
-ptx_opcode_initiation_int            1,2,2,1,8 # Opcode initiation intervals for integers <ADD,MAX,MUL,MAD,DIV>Default 1,1,4,4,32
-ptx_opcode_initiation_fp            1,2,1,1,4 # Opcode initiation intervals for single precision floating points <ADD,MAX,MUL,MAD,DIV>Default 1,1,1,1,5
-ptx_opcode_initiation_dp         8,16,8,8,130 # Opcode initiation intervals for double precision floating points <ADD,MAX,MUL,MAD,DIV>Default 8,8,8,8,130
DRAM Timing Options:
nbk                                    16 # number of banks
CCD                                     2 # column to column delay
RRD                                     6 # minimal delay between activation of rows in different banks
RCD                                    12 # row to column delay
RAS                                    28 # time needed to activate row
RP                                     12 # time needed to precharge (deactivate) row
RC                                     40 # row cycle time
CDLR                                    5 # switching from write to read (changes tWTR)
WR                                     12 # last data-in to row precharge
CL                                     12 # CAS latency
WL                                      4 # Write latency
nbkgrp                                  4 # number of bank groups
CCDL                                    3 # column to column delay between accesses to different bank groups
RTPL                                    2 # read to precharge delay between accesses to different bank groups
Total number of memory sub partition = 12
addr_dec_mask[CHIP]  = 0000000000000000 	high:64 low:0
addr_dec_mask[BK]    = 000000000000e100 	high:16 low:8
addr_dec_mask[ROW]   = 000000000fff0000 	high:28 low:16
addr_dec_mask[COL]   = 0000000000001eff 	high:13 low:0
addr_dec_mask[BURST] = 000000000000003f 	high:6 low:0
sub_partition_id_mask = 0000000000000100
GPGPU-Sim uArch: clock freqs: 700000000.000000:700000000.000000:700000000.000000:924000000.000000
GPGPU-Sim uArch: clock periods: 0.00000000142857142857:0.00000000142857142857:0.00000000142857142857:0.00000000108225108225
*** Initializing Memory Statistics ***
GPGPU-Sim uArch: interconnect node map (shaderID+MemID to icntID)
GPGPU-Sim uArch: Memory nodes ID start from index: 15
GPGPU-Sim uArch:    0   1   2   3   4
GPGPU-Sim uArch:    5   6   7   8   9
GPGPU-Sim uArch:   10  11  12  13  14
GPGPU-Sim uArch:   15  16  17  18  19
GPGPU-Sim uArch:   20  21  22  23  24
GPGPU-Sim uArch:   25  26
GPGPU-Sim uArch: interconnect node reverse map (icntID to shaderID+MemID)
GPGPU-Sim uArch: Memory nodes start from ID: 15
GPGPU-Sim uArch:    0   1   2   3   4
GPGPU-Sim uArch:    5   6   7   8   9
GPGPU-Sim uArch:   10  11  12  13  14
GPGPU-Sim uArch:   15  16  17  18  19
GPGPU-Sim uArch:   20  21  22  23  24
GPGPU-Sim uArch:   25  26
55ec01d42c6b4a4b48f84741520f0415  /sciclone/data10/hwang07/adwait/applications/benchmarks/shoc/bin/Serial/CUDA/QTC
GPGPU-Sim uArch: performance model initialization complete.
GPGPU-Sim PTX: __cudaRegisterFatBinary, fat_cubin_handle = 1, filename=QTC.cu
self exe links to: /sciclone/data10/hwang07/adwait/applications/benchmarks/shoc/bin/Serial/CUDA/QTC
Running md5sum using "md5sum /sciclone/data10/hwang07/adwait/applications/benchmarks/shoc/bin/Serial/CUDA/QTC "
Parsing file _cuobjdump_complete_output_imUiwE
######### cuobjdump parser ########
## Adding new section ELF
Adding arch: sm_12
Adding identifier: QTC.cu
## Adding new section ELF
Adding arch: sm_20
Adding identifier: QTC.cu
## Adding new section PTX
Adding ptx filename: _cuobjdump_1.ptx
Adding arch: sm_20
Adding identifier: QTC.cu
## Adding new section ELF
Adding arch: sm_13
Adding identifier: QTC.cu
Done parsing!!!
GPGPU-Sim PTX: __cudaRegisterFunction _Z10QTC_devicePfPcS0_PiS1_S1_S_S1_iiifiiiib : hostFun 0x0x406e30, fat_cubin_handle = 1
GPGPU-Sim PTX: allocating stack frame region for .param "__cudaretf__Z23closest_point_reductionffi" from 0x0 to 0x4
GPGPU-Sim PTX: allocating stack frame region for .param "__cudaparmf1__Z23closest_point_reductionffi" from 0x4 to 0x8
GPGPU-Sim PTX: allocating stack frame region for .param "__cudaparmf2__Z23closest_point_reductionffi" from 0x8 to 0xc
GPGPU-Sim PTX: allocating stack frame region for .param "__cudaparmf3__Z23closest_point_reductionffi" from 0xc to 0x10
GPGPU-Sim PTX: allocating stack frame region for .param "__cudaretf__Z29find_closest_point_to_clusteriiPcS_PfPiS0_iiifb" from 0x0 to 0x4
GPGPU-Sim PTX: allocating stack frame region for .param "__cudaparmf1__Z29find_closest_point_to_clusteriiPcS_PfPiS0_iiifb" from 0x4 to 0x8
GPGPU-Sim PTX: allocating stack frame region for .param "__cudaparmf2__Z29find_closest_point_to_clusteriiPcS_PfPiS0_iiifb" from 0x8 to 0xc
GPGPU-Sim PTX: allocating stack frame region for .param "__cudaparmf3__Z29find_closest_point_to_clusteriiPcS_PfPiS0_iiifb" from 0xc to 0x14
GPGPU-Sim PTX: allocating stack frame region for .param "__cudaparmf4__Z29find_closest_point_to_clusteriiPcS_PfPiS0_iiifb" from 0x14 to 0x1c
GPGPU-Sim PTX: allocating stack frame region for .param "__cudaparmf5__Z29find_closest_point_to_clusteriiPcS_PfPiS0_iiifb" from 0x1c to 0x24
GPGPU-Sim PTX: allocating stack frame region for .param "__cudaparmf6__Z29find_closest_point_to_clusteriiPcS_PfPiS0_iiifb" from 0x24 to 0x2c
GPGPU-Sim PTX: allocating stack frame region for .param "__cudaparmf7__Z29find_closest_point_to_clusteriiPcS_PfPiS0_iiifb" from 0x2c to 0x34
GPGPU-Sim PTX: allocating stack frame region for .param "__cudaparmf8__Z29find_closest_point_to_clusteriiPcS_PfPiS0_iiifb" from 0x34 to 0x38
GPGPU-Sim PTX: allocating stack frame region for .param "__cudaparmf9__Z29find_closest_point_to_clusteriiPcS_PfPiS0_iiifb" from 0x38 to 0x3c
GPGPU-Sim PTX: allocating stack frame region for .param "__cudaparmf10__Z29find_closest_point_to_clusteriiPcS_PfPiS0_iiifb" from 0x3c to 0x40
GPGPU-Sim PTX: allocating stack frame region for .param "__cudaparmf11__Z29find_closest_point_to_clusteriiPcS_PfPiS0_iiifb" from 0x40 to 0x44
GPGPU-Sim PTX: allocating stack frame region for .param "__cudaparmf12__Z29find_closest_point_to_clusteriiPcS_PfPiS0_iiifb" from 0x44 to 0x48
GPGPU-Sim PTX: allocating stack frame region for .param "__cudaretf__Z39generate_candidate_cluster_full_storageiiPcPfS_PiS0_iiiS1_fb" from 0x0 to 0x4
GPGPU-Sim PTX: allocating stack frame region for .param "__cudaparmf1__Z39generate_candidate_cluster_full_storageiiPcPfS_PiS0_iiiS1_fb" from 0x4 to 0x8
GPGPU-Sim PTX: allocating stack frame region for .param "__cudaparmf2__Z39generate_candidate_cluster_full_storageiiPcPfS_PiS0_iiiS1_fb" from 0x8 to 0xc
GPGPU-Sim PTX: allocating stack frame region for .param "__cudaparmf3__Z39generate_candidate_cluster_full_storageiiPcPfS_PiS0_iiiS1_fb" from 0xc to 0x14
GPGPU-Sim PTX: allocating stack frame region for .param "__cudaparmf4__Z39generate_candidate_cluster_full_storageiiPcPfS_PiS0_iiiS1_fb" from 0x14 to 0x1c
GPGPU-Sim PTX: allocating stack frame region for .param "__cudaparmf5__Z39generate_candidate_cluster_full_storageiiPcPfS_PiS0_iiiS1_fb" from 0x1c to 0x24
GPGPU-Sim PTX: allocating stack frame region for .param "__cudaparmf6__Z39generate_candidate_cluster_full_storageiiPcPfS_PiS0_iiiS1_fb" from 0x24 to 0x2c
GPGPU-Sim PTX: allocating stack frame region for .param "__cudaparmf7__Z39generate_candidate_cluster_full_storageiiPcPfS_PiS0_iiiS1_fb" from 0x2c to 0x34
GPGPU-Sim PTX: allocating stack frame region for .param "__cudaparmf8__Z39generate_candidate_cluster_full_storageiiPcPfS_PiS0_iiiS1_fb" from 0x34 to 0x38
GPGPU-Sim PTX: allocating stack frame region for .param "__cudaparmf9__Z39generate_candidate_cluster_full_storageiiPcPfS_PiS0_iiiS1_fb" from 0x38 to 0x3c
GPGPU-Sim PTX: allocating stack frame region for .param "__cudaparmf10__Z39generate_candidate_cluster_full_storageiiPcPfS_PiS0_iiiS1_fb" from 0x3c to 0x40
GPGPU-Sim PTX: allocating stack frame region for .param "__cudaparmf11__Z39generate_candidate_cluster_full_storageiiPcPfS_PiS0_iiiS1_fb" from 0x40 to 0x48
GPGPU-Sim PTX: allocating stack frame region for .param "__cudaparmf12__Z39generate_candidate_cluster_full_storageiiPcPfS_PiS0_iiiS1_fb" from 0x48 to 0x4c
GPGPU-Sim PTX: allocating stack frame region for .param "__cudaparmf13__Z39generate_candidate_cluster_full_storageiiPcPfS_PiS0_iiiS1_fb" from 0x4c to 0x50
GPGPU-Sim PTX: allocating stack frame region for .param "__cudaretf__Z42generate_candidate_cluster_compact_storageiiPcPfS_PiS0_iiiS1_fb" from 0x0 to 0x4
GPGPU-Sim PTX: allocating stack frame region for .param "__cudaparmf1__Z42generate_candidate_cluster_compact_storageiiPcPfS_PiS0_iiiS1_fb" from 0x4 to 0x8
GPGPU-Sim PTX: allocating stack frame region for .param "__cudaparmf2__Z42generate_candidate_cluster_compact_storageiiPcPfS_PiS0_iiiS1_fb" from 0x8 to 0xc
GPGPU-Sim PTX: allocating stack frame region for .param "__cudaparmf3__Z42generate_candidate_cluster_compact_storageiiPcPfS_PiS0_iiiS1_fb" from 0xc to 0x14
GPGPU-Sim PTX: allocating stack frame region for .param "__cudaparmf4__Z42generate_candidate_cluster_compact_storageiiPcPfS_PiS0_iiiS1_fb" from 0x14 to 0x1c
GPGPU-Sim PTX: allocating stack frame region for .param "__cudaparmf5__Z42generate_candidate_cluster_compact_storageiiPcPfS_PiS0_iiiS1_fb" from 0x1c to 0x24
GPGPU-Sim PTX: allocating stack frame region for .param "__cudaparmf6__Z42generate_candidate_cluster_compact_storageiiPcPfS_PiS0_iiiS1_fb" from 0x24 to 0x2c
GPGPU-Sim PTX: allocating stack frame region for .param "__cudaparmf7__Z42generate_candidate_cluster_compact_storageiiPcPfS_PiS0_iiiS1_fb" from 0x2c to 0x34
GPGPU-Sim PTX: allocating stack frame region for .param "__cudaparmf8__Z42generate_candidate_cluster_compact_storageiiPcPfS_PiS0_iiiS1_fb" from 0x34 to 0x38
GPGPU-Sim PTX: allocating stack frame region for .param "__cudaparmf9__Z42generate_candidate_cluster_compact_storageiiPcPfS_PiS0_iiiS1_fb" from 0x38 to 0x3c
GPGPU-Sim PTX: allocating stack frame region for .param "__cudaparmf10__Z42generate_candidate_cluster_compact_storageiiPcPfS_PiS0_iiiS1_fb" from 0x3c to 0x40
GPGPU-Sim PTX: allocating stack frame region for .param "__cudaparmf11__Z42generate_candidate_cluster_compact_storageiiPcPfS_PiS0_iiiS1_fb" from 0x40 to 0x48
GPGPU-Sim PTX: allocating stack frame region for .param "__cudaparmf12__Z42generate_candidate_cluster_compact_storageiiPcPfS_PiS0_iiiS1_fb" from 0x48 to 0x4c
GPGPU-Sim PTX: allocating stack frame region for .param "__cudaparmf13__Z42generate_candidate_cluster_compact_storageiiPcPfS_PiS0_iiiS1_fb" from 0x4c to 0x50
GPGPU-Sim PTX: allocating shared region for "__cuda_local_var_81511_35_non_const_dist_array__0" from 0x0 to 0x100 (shared memory space)
GPGPU-Sim PTX: allocating shared region for "__cuda_local_var_81512_33_non_const_point_index_array__1" from 0x100 to 0x200 (shared memory space)
GPGPU-Sim PTX: instruction assembly for function '_Z23closest_point_reductionffi'...   done.
GPGPU-Sim PTX: finding reconvergence points for '_Z23closest_point_reductionffi'...
GPGPU-Sim PTX: Finding dominators for '_Z23closest_point_reductionffi'...
GPGPU-Sim PTX: Finding immediate dominators for '_Z23closest_point_reductionffi'...
GPGPU-Sim PTX: Finding postdominators for '_Z23closest_point_reductionffi'...
GPGPU-Sim PTX: Finding immediate postdominators for '_Z23closest_point_reductionffi'...
GPGPU-Sim PTX: pre-decoding instructions for '_Z23closest_point_reductionffi'...
GPGPU-Sim PTX: reconvergence points for _Z23closest_point_reductionffi...
GPGPU-Sim PTX:  1 (potential) branch divergence @  PC=0x090 (_1.ptx:93) @%p1 bra $Lt_0_6146;
GPGPU-Sim PTX:    immediate post dominator      @  PC=0x1b8 (_1.ptx:144) bar.sync 0;
GPGPU-Sim PTX:  2 (potential) branch divergence @  PC=0x0d0 (_1.ptx:101) @%p2 bra $Lt_0_5122;
GPGPU-Sim PTX:    immediate post dominator      @  PC=0x198 (_1.ptx:136) setp.gt.f32 %p7, %f2, %f4;
GPGPU-Sim PTX:  3 (potential) branch divergence @  PC=0x110 (_1.ptx:112) @%p3 bra $Lt_0_6914;
GPGPU-Sim PTX:    immediate post dominator      @  PC=0x178 (_1.ptx:131) add.s32 %r12, %r12, 1;
GPGPU-Sim PTX:  4 (potential) branch divergence @  PC=0x120 (_1.ptx:114) @!%p4 bra $Lt_0_7170;
GPGPU-Sim PTX:    immediate post dominator      @  PC=0x178 (_1.ptx:131) add.s32 %r12, %r12, 1;
GPGPU-Sim PTX:  5 (potential) branch divergence @  PC=0x148 (_1.ptx:119) @%p5 bra $Lt_0_7170;
GPGPU-Sim PTX:    immediate post dominator      @  PC=0x178 (_1.ptx:131) add.s32 %r12, %r12, 1;
GPGPU-Sim PTX:  6 (potential) branch divergence @  PC=0x150 (_1.ptx:120) bra.uni $L_0_4354;
GPGPU-Sim PTX:    immediate post dominator      @  PC=0x168 (_1.ptx:126) mov.f32 %f2, %f5;
GPGPU-Sim PTX:  7 (potential) branch divergence @  PC=0x190 (_1.ptx:134) @%p6 bra $Lt_0_5634;
GPGPU-Sim PTX:    immediate post dominator      @  PC=0x198 (_1.ptx:136) setp.gt.f32 %p7, %f2, %f4;
GPGPU-Sim PTX:  8 (potential) branch divergence @  PC=0x1a0 (_1.ptx:137) @!%p7 bra $Lt_0_6146;
GPGPU-Sim PTX:    immediate post dominator      @  PC=0x1b8 (_1.ptx:144) bar.sync 0;
GPGPU-Sim PTX: ... end of reconvergence points for _Z23closest_point_reductionffi
GPGPU-Sim PTX: ... done pre-decoding instructions for '_Z23closest_point_reductionffi'.
GPGPU-Sim PTX: allocating global region for "texDistance" from 0x100 to 0x104 (global memory space)
GPGPU-Sim PTX: instruction assembly for function '_Z29find_closest_point_to_clusteriiPcS_PfPiS0_iiifb'...   done.
GPGPU-Sim PTX: finding reconvergence points for '_Z29find_closest_point_to_clusteriiPcS_PfPiS0_iiifb'...
GPGPU-Sim PTX: Finding dominators for '_Z29find_closest_point_to_clusteriiPcS_PfPiS0_iiifb'...
GPGPU-Sim PTX: Finding immediate dominators for '_Z29find_closest_point_to_clusteriiPcS_PfPiS0_iiifb'...
GPGPU-Sim PTX: Finding postdominators for '_Z29find_closest_point_to_clusteriiPcS_PfPiS0_iiifb'...
GPGPU-Sim PTX: Finding immediate postdominators for '_Z29find_closest_point_to_clusteriiPcS_PfPiS0_iiifb'...
GPGPU-Sim PTX: pre-decoding instructions for '_Z29find_closest_point_to_clusteriiPcS_PfPiS0_iiifb'...
GPGPU-Sim PTX: reconvergence points for _Z29find_closest_point_to_clusteriiPcS_PfPiS0_iiifb...
GPGPU-Sim PTX:  1 (potential) branch divergence @  PC=0x2a0 (_1.ptx:187) @%p1 bra $Lt_1_14594;
GPGPU-Sim PTX:    immediate post dominator      @  PC=0x4f8 (_1.ptx:283) cvta.shared.u64 %rd25, __cuda_local_var_81511_35_non_const_dist_array__0;
GPGPU-Sim PTX:  2 (potential) branch divergence @  PC=0x330 (_1.ptx:208) @%p2 bra $Lt_1_15106;
GPGPU-Sim PTX:    immediate post dominator      @  PC=0x4c8 (_1.ptx:274) add.u64 %rd15, %rd12, %rd15;
GPGPU-Sim PTX:  3 (potential) branch divergence @  PC=0x360 (_1.ptx:214) @%p3 bra $Lt_1_15106;
GPGPU-Sim PTX:    immediate post dominator      @  PC=0x4c8 (_1.ptx:274) add.u64 %rd15, %rd12, %rd15;
GPGPU-Sim PTX:  4 (potential) branch divergence @  PC=0x388 (_1.ptx:219) @%p4 bra $Lt_1_15106;
GPGPU-Sim PTX:    immediate post dominator      @  PC=0x4c8 (_1.ptx:274) add.u64 %rd15, %rd12, %rd15;
GPGPU-Sim PTX:  5 (potential) branch divergence @  PC=0x3c0 (_1.ptx:227) @%p5 bra $Lt_1_11010;
GPGPU-Sim PTX:    immediate post dominator      @  PC=0x478 (_1.ptx:254) setp.lt.f32 %p6, %f4, %f22;
GPGPU-Sim PTX:  6 (potential) branch divergence @  PC=0x440 (_1.ptx:244) bra.uni $Lt_1_10754;
GPGPU-Sim PTX:    immediate post dominator      @  PC=0x478 (_1.ptx:254) setp.lt.f32 %p6, %f4, %f22;
GPGPU-Sim PTX:  7 (potential) branch divergence @  PC=0x480 (_1.ptx:255) @!%p6 bra $Lt_1_11522;
GPGPU-Sim PTX:    immediate post dominator      @  PC=0x4a8 (_1.ptx:265) setp.gt.f32 %p7, %f3, %f23;
GPGPU-Sim PTX:  8 (potential) branch divergence @  PC=0x498 (_1.ptx:260) bra.uni $Lt_1_11266;
GPGPU-Sim PTX:    immediate post dominator      @  PC=0x4a8 (_1.ptx:265) setp.gt.f32 %p7, %f3, %f23;
GPGPU-Sim PTX:  9 (potential) branch divergence @  PC=0x4b0 (_1.ptx:266) @!%p7 bra $Lt_1_15106;
GPGPU-Sim PTX:    immediate post dominator      @  PC=0x4c8 (_1.ptx:274) add.u64 %rd15, %rd12, %rd15;
GPGPU-Sim PTX: 10 (potential) branch divergence @  PC=0x4e0 (_1.ptx:277) @%p8 bra $Lt_1_10498;
GPGPU-Sim PTX:    immediate post dominator      @  PC=0x4e8 (_1.ptx:278) bra.uni $Lt_1_9986;
GPGPU-Sim PTX: 11 (potential) branch divergence @  PC=0x4e8 (_1.ptx:278) bra.uni $Lt_1_9986;
GPGPU-Sim PTX:    immediate post dominator      @  PC=0x4f8 (_1.ptx:283) cvta.shared.u64 %rd25, __cuda_local_var_81511_35_non_const_dist_array__0;
GPGPU-Sim PTX: 12 (potential) branch divergence @  PC=0x558 (_1.ptx:298) @%p9 bra $Lt_1_14082;
GPGPU-Sim PTX:    immediate post dominator      @  PC=0x680 (_1.ptx:349) bar.sync 0;
GPGPU-Sim PTX: 13 (potential) branch divergence @  PC=0x598 (_1.ptx:306) @%p10 bra $Lt_1_13058;
GPGPU-Sim PTX:    immediate post dominator      @  PC=0x660 (_1.ptx:341) setp.lt.f32 %p15, %f2, %f24;
GPGPU-Sim PTX: 14 (potential) branch divergence @  PC=0x5d8 (_1.ptx:317) @%p11 bra $Lt_1_15874;
GPGPU-Sim PTX:    immediate post dominator      @  PC=0x640 (_1.ptx:336) add.s32 %r37, %r37, 1;
GPGPU-Sim PTX: 15 (potential) branch divergence @  PC=0x5e8 (_1.ptx:319) @!%p12 bra $Lt_1_16130;
GPGPU-Sim PTX:    immediate post dominator      @  PC=0x640 (_1.ptx:336) add.s32 %r37, %r37, 1;
GPGPU-Sim PTX: 16 (potential) branch divergence @  PC=0x610 (_1.ptx:324) @%p13 bra $Lt_1_16130;
GPGPU-Sim PTX:    immediate post dominator      @  PC=0x640 (_1.ptx:336) add.s32 %r37, %r37, 1;
GPGPU-Sim PTX: 17 (potential) branch divergence @  PC=0x618 (_1.ptx:325) bra.uni $L_1_9730;
GPGPU-Sim PTX:    immediate post dominator      @  PC=0x630 (_1.ptx:331) mov.f32 %f24, %f25;
GPGPU-Sim PTX: 18 (potential) branch divergence @  PC=0x658 (_1.ptx:339) @%p14 bra $Lt_1_13570;
GPGPU-Sim PTX:    immediate post dominator      @  PC=0x660 (_1.ptx:341) setp.lt.f32 %p15, %f2, %f24;
GPGPU-Sim PTX: 19 (potential) branch divergence @  PC=0x668 (_1.ptx:342) @!%p15 bra $Lt_1_14082;
GPGPU-Sim PTX:    immediate post dominator      @  PC=0x680 (_1.ptx:349) bar.sync 0;
GPGPU-Sim PTX: ... end of reconvergence points for _Z29find_closest_point_to_clusteriiPcS_PfPiS0_iiifb
GPGPU-Sim PTX: ... done pre-decoding instructions for '_Z29find_closest_point_to_clusteriiPcS_PfPiS0_iiifb'.
GPGPU-Sim PTX: instruction assembly for function '_Z39generate_candidate_cluster_full_storageiiPcPfS_PiS0_iiiS1_fb'...   done.
GPGPU-Sim PTX: finding reconvergence points for '_Z39generate_candidate_cluster_full_storageiiPcPfS_PiS0_iiiS1_fb'...
GPGPU-Sim PTX: Finding dominators for '_Z39generate_candidate_cluster_full_storageiiPcPfS_PiS0_iiiS1_fb'...
GPGPU-Sim PTX: Finding immediate dominators for '_Z39generate_candidate_cluster_full_storageiiPcPfS_PiS0_iiiS1_fb'...
GPGPU-Sim PTX: Finding postdominators for '_Z39generate_candidate_cluster_full_storageiiPcPfS_PiS0_iiiS1_fb'...
GPGPU-Sim PTX: Finding immediate postdominators for '_Z39generate_candidate_cluster_full_storageiiPcPfS_PiS0_iiiS1_fb'...
GPGPU-Sim PTX: pre-decoding instructions for '_Z39generate_candidate_cluster_full_storageiiPcPfS_PiS0_iiiS1_fb'...
GPGPU-Sim PTX: reconvergence points for _Z39generate_candidate_cluster_full_storageiiPcPfS_PiS0_iiiS1_fb...
GPGPU-Sim PTX:  1 (potential) branch divergence @  PC=0x780 (_1.ptx:393) @%p1 bra $Lt_2_104706;
GPGPU-Sim PTX:    immediate post dominator      @  PC=0x800 (_1.ptx:413) setp.lt.s32 %p3, %r13, %r10;
GPGPU-Sim PTX:  2 (potential) branch divergence @  PC=0x7f8 (_1.ptx:411) @%p2 bra $Lt_2_105218;
GPGPU-Sim PTX:    immediate post dominator      @  PC=0x800 (_1.ptx:413) setp.lt.s32 %p3, %r13, %r10;
GPGPU-Sim PTX:  3 (potential) branch divergence @  PC=0x808 (_1.ptx:414) @!%p3 bra $Lt_2_105730;
GPGPU-Sim PTX:    immediate post dominator      @  PC=0x898 (_1.ptx:436) mov.s32 %r25, 0;
GPGPU-Sim PTX:  4 (potential) branch divergence @  PC=0x890 (_1.ptx:434) @%p4 bra $Lt_2_106242;
GPGPU-Sim PTX:    immediate post dominator      @  PC=0x898 (_1.ptx:436) mov.s32 %r25, 0;
GPGPU-Sim PTX:  5 (potential) branch divergence @  PC=0x8a8 (_1.ptx:438) @!%p5 bra $Lt_2_106754;
GPGPU-Sim PTX:    immediate post dominator      @  PC=0x8f0 (_1.ptx:452) bar.sync 0;
GPGPU-Sim PTX:  6 (potential) branch divergence @  PC=0x8c0 (_1.ptx:441) @%p6 bra $Lt_2_107266;
GPGPU-Sim PTX:    immediate post dominator      @  PC=0x8d0 (_1.ptx:446) mov.s32 %r26, 1;
GPGPU-Sim PTX:  7 (potential) branch divergence @  PC=0x920 (_1.ptx:459) @%p8 bra $Lt_2_108034;
GPGPU-Sim PTX:    immediate post dominator      @  PC=0x2b30 (_1.ptx:1788) mov.s32 %r243, %r93;
GPGPU-Sim PTX:  8 (potential) branch divergence @  PC=0x930 (_1.ptx:462) @%p9 bra $Lt_2_139010;
GPGPU-Sim PTX:    immediate post dominator      @  PC=0xfc0 (_1.ptx:709) bar.sync 0;
GPGPU-Sim PTX:  9 (potential) branch divergence @  PC=0x9a0 (_1.ptx:478) @%p10 bra $Lt_2_139266;
GPGPU-Sim PTX:    immediate post dominator      @  PC=0xfc0 (_1.ptx:709) bar.sync 0;
GPGPU-Sim PTX: 10 (potential) branch divergence @  PC=0x9e8 (_1.ptx:489) @%p11 bra $Lt_2_139522;
GPGPU-Sim PTX:    immediate post dominator      @  PC=0xfc0 (_1.ptx:709) bar.sync 0;
GPGPU-Sim PTX: 11 (potential) branch divergence @  PC=0xa38 (_1.ptx:501) @%p12 bra $Lt_2_139778;
GPGPU-Sim PTX:    immediate post dominator      @  PC=0xfc0 (_1.ptx:709) bar.sync 0;
GPGPU-Sim PTX: 12 (potential) branch divergence @  PC=0xa88 (_1.ptx:513) @%p13 bra $Lt_2_140034;
GPGPU-Sim PTX:    immediate post dominator      @  PC=0xfc0 (_1.ptx:709) bar.sync 0;
GPGPU-Sim PTX: 13 (potential) branch divergence @  PC=0xad8 (_1.ptx:525) @%p14 bra $Lt_2_140290;
GPGPU-Sim PTX:    immediate post dominator      @  PC=0xfc0 (_1.ptx:709) bar.sync 0;
GPGPU-Sim PTX: 14 (potential) branch divergence @  PC=0xb28 (_1.ptx:537) @%p15 bra $Lt_2_140546;
GPGPU-Sim PTX:    immediate post dominator      @  PC=0xfc0 (_1.ptx:709) bar.sync 0;
GPGPU-Sim PTX: 15 (potential) branch divergence @  PC=0xb78 (_1.ptx:549) @%p16 bra $Lt_2_140802;
GPGPU-Sim PTX:    immediate post dominator      @  PC=0xfc0 (_1.ptx:709) bar.sync 0;
GPGPU-Sim PTX: 16 (potential) branch divergence @  PC=0xbc8 (_1.ptx:561) @%p17 bra $Lt_2_141058;
GPGPU-Sim PTX:    immediate post dominator      @  PC=0xfc0 (_1.ptx:709) bar.sync 0;
GPGPU-Sim PTX: 17 (potential) branch divergence @  PC=0xc18 (_1.ptx:573) @%p18 bra $Lt_2_141314;
GPGPU-Sim PTX:    immediate post dominator      @  PC=0xfc0 (_1.ptx:709) bar.sync 0;
GPGPU-Sim PTX: 18 (potential) branch divergence @  PC=0xc68 (_1.ptx:585) @%p19 bra $Lt_2_141570;
GPGPU-Sim PTX:    immediate post dominator      @  PC=0xfc0 (_1.ptx:709) bar.sync 0;
GPGPU-Sim PTX: 19 (potential) branch divergence @  PC=0xcb8 (_1.ptx:597) @%p20 bra $Lt_2_141826;
GPGPU-Sim PTX:    immediate post dominator      @  PC=0xfc0 (_1.ptx:709) bar.sync 0;
GPGPU-Sim PTX: 20 (potential) branch divergence @  PC=0xcf0 (_1.ptx:605) bra.uni $Lt_2_258;
GPGPU-Sim PTX:    immediate post dominator      @  PC=0xfc0 (_1.ptx:709) bar.sync 0;
GPGPU-Sim PTX: 21 (potential) branch divergence @  PC=0xd58 (_1.ptx:619) bra.uni $Lt_2_258;
GPGPU-Sim PTX:    immediate post dominator      @  PC=0xfc0 (_1.ptx:709) bar.sync 0;
GPGPU-Sim PTX: 22 (potential) branch divergence @  PC=0xdb8 (_1.ptx:632) bra.uni $Lt_2_258;
GPGPU-Sim PTX:    immediate post dominator      @  PC=0xfc0 (_1.ptx:709) bar.sync 0;
GPGPU-Sim PTX: 23 (potential) branch divergence @  PC=0xe10 (_1.ptx:644) bra.uni $Lt_2_258;
GPGPU-Sim PTX:    immediate post dominator      @  PC=0xfc0 (_1.ptx:709) bar.sync 0;
GPGPU-Sim PTX: 24 (potential) branch divergence @  PC=0xe60 (_1.ptx:655) bra.uni $Lt_2_258;
GPGPU-Sim PTX:    immediate post dominator      @  PC=0xfc0 (_1.ptx:709) bar.sync 0;
GPGPU-Sim PTX: 25 (potential) branch divergence @  PC=0xea8 (_1.ptx:665) bra.uni $Lt_2_258;
GPGPU-Sim PTX:    immediate post dominator      @  PC=0xfc0 (_1.ptx:709) bar.sync 0;
GPGPU-Sim PTX: 26 (potential) branch divergence @  PC=0xee8 (_1.ptx:674) bra.uni $Lt_2_258;
GPGPU-Sim PTX:    immediate post dominator      @  PC=0xfc0 (_1.ptx:709) bar.sync 0;
GPGPU-Sim PTX: 27 (potential) branch divergence @  PC=0xf20 (_1.ptx:682) bra.uni $Lt_2_258;
GPGPU-Sim PTX:    immediate post dominator      @  PC=0xfc0 (_1.ptx:709) bar.sync 0;
GPGPU-Sim PTX: 28 (potential) branch divergence @  PC=0xf50 (_1.ptx:689) bra.uni $Lt_2_258;
GPGPU-Sim PTX:    immediate post dominator      @  PC=0xfc0 (_1.ptx:709) bar.sync 0;
GPGPU-Sim PTX: 29 (potential) branch divergence @  PC=0xf78 (_1.ptx:695) bra.uni $Lt_2_258;
GPGPU-Sim PTX:    immediate post dominator      @  PC=0xfc0 (_1.ptx:709) bar.sync 0;
GPGPU-Sim PTX: 30 (potential) branch divergence @  PC=0xf98 (_1.ptx:700) bra.uni $Lt_2_258;
GPGPU-Sim PTX:    immediate post dominator      @  PC=0xfc0 (_1.ptx:709) bar.sync 0;
GPGPU-Sim PTX: 31 (potential) branch divergence @  PC=0xfb0 (_1.ptx:704) bra.uni $Lt_2_258;
GPGPU-Sim PTX:    immediate post dominator      @  PC=0xfc0 (_1.ptx:709) bar.sync 0;
GPGPU-Sim PTX: 32 (potential) branch divergence @  PC=0xfc8 (_1.ptx:711) @!%p7 bra $Lt_2_142082;
GPGPU-Sim PTX:    immediate post dominator      @  PC=0x2b30 (_1.ptx:1788) mov.s32 %r243, %r93;
GPGPU-Sim PTX: 33 (potential) branch divergence @  PC=0x10d0 (_1.ptx:746) @%p22 bra $Lt_2_108546;
GPGPU-Sim PTX:    immediate post dominator      @  PC=0x1260 (_1.ptx:805) mov.u32 %r104, 0;
GPGPU-Sim PTX: 34 (potential) branch divergence @  PC=0x1100 (_1.ptx:753) @%p23 bra $L_2_95490;
GPGPU-Sim PTX:    immediate post dominator      @  PC=0x1260 (_1.ptx:805) mov.u32 %r104, 0;
GPGPU-Sim PTX: 35 (potential) branch divergence @  PC=0x1128 (_1.ptx:758) @%p24 bra $L_2_95234;
GPGPU-Sim PTX:    immediate post dominator      @  PC=0x1260 (_1.ptx:805) mov.u32 %r104, 0;
GPGPU-Sim PTX: 36 (potential) branch divergence @  PC=0x1140 (_1.ptx:762) bra.uni $Lt_2_108290;
GPGPU-Sim PTX:    immediate post dominator      @  PC=0x1260 (_1.ptx:805) mov.u32 %r104, 0;
GPGPU-Sim PTX: 37 (potential) branch divergence @  PC=0x1158 (_1.ptx:766) @%p25 bra $Lt_2_109058;
GPGPU-Sim PTX:    immediate post dominator      @  PC=0x1210 (_1.ptx:791) setp.gt.f32 %p26, %f35, %f16;
GPGPU-Sim PTX: 38 (potential) branch divergence @  PC=0x11d8 (_1.ptx:782) bra.uni $Lt_2_108802;
GPGPU-Sim PTX:    immediate post dominator      @  PC=0x1210 (_1.ptx:791) setp.gt.f32 %p26, %f35, %f16;
GPGPU-Sim PTX: 39 (potential) branch divergence @  PC=0x1228 (_1.ptx:794) @!%p27 bra $Lt_2_109570;
GPGPU-Sim PTX:    immediate post dominator      @  PC=0x1260 (_1.ptx:805) mov.u32 %r104, 0;
GPGPU-Sim PTX: 40 (potential) branch divergence @  PC=0x1240 (_1.ptx:797) bra.uni $Lt_2_108290;
GPGPU-Sim PTX:    immediate post dominator      @  PC=0x1260 (_1.ptx:805) mov.u32 %r104, 0;
GPGPU-Sim PTX: 41 (potential) branch divergence @  PC=0x1250 (_1.ptx:800) bra.uni $Lt_2_108290;
GPGPU-Sim PTX:    immediate post dominator      @  PC=0x1260 (_1.ptx:805) mov.u32 %r104, 0;
GPGPU-Sim PTX: 42 (potential) branch divergence @  PC=0x1270 (_1.ptx:807) @%p28 bra $Lt_2_110850;
GPGPU-Sim PTX:    immediate post dominator      @  PC=0x13d8 (_1.ptx:860) mov.u32 %r112, 0;
GPGPU-Sim PTX: 43 (potential) branch divergence @  PC=0x12a0 (_1.ptx:814) @%p29 bra $L_2_96002;
GPGPU-Sim PTX:    immediate post dominator      @  PC=0x13d8 (_1.ptx:860) mov.u32 %r112, 0;
GPGPU-Sim PTX: 44 (potential) branch divergence @  PC=0x12c8 (_1.ptx:819) @%p30 bra $L_2_95746;
GPGPU-Sim PTX:    immediate post dominator      @  PC=0x13d8 (_1.ptx:860) mov.u32 %r112, 0;
GPGPU-Sim PTX: 45 (potential) branch divergence @  PC=0x12d8 (_1.ptx:822) bra.uni $Lt_2_110850;
GPGPU-Sim PTX:    immediate post dominator      @  PC=0x13d8 (_1.ptx:860) mov.u32 %r112, 0;
GPGPU-Sim PTX: 46 (potential) branch divergence @  PC=0x12f0 (_1.ptx:826) @%p31 bra $Lt_2_110594;
GPGPU-Sim PTX:    immediate post dominator      @  PC=0x13a8 (_1.ptx:851) setp.gt.f32 %p32, %f53, %f15;
GPGPU-Sim PTX: 47 (potential) branch divergence @  PC=0x1370 (_1.ptx:842) bra.uni $Lt_2_110338;
GPGPU-Sim PTX:    immediate post dominator      @  PC=0x13a8 (_1.ptx:851) setp.gt.f32 %p32, %f53, %f15;
GPGPU-Sim PTX: 48 (potential) branch divergence @  PC=0x13c0 (_1.ptx:854) @!%p33 bra $Lt_2_110850;
GPGPU-Sim PTX:    immediate post dominator      @  PC=0x13d8 (_1.ptx:860) mov.u32 %r112, 0;
GPGPU-Sim PTX: 49 (potential) branch divergence @  PC=0x13e8 (_1.ptx:862) @%p34 bra $Lt_2_112386;
GPGPU-Sim PTX:    immediate post dominator      @  PC=0x1550 (_1.ptx:915) mov.u32 %r120, 0;
GPGPU-Sim PTX: 50 (potential) branch divergence @  PC=0x1418 (_1.ptx:869) @%p35 bra $L_2_96514;
GPGPU-Sim PTX:    immediate post dominator      @  PC=0x1550 (_1.ptx:915) mov.u32 %r120, 0;
GPGPU-Sim PTX: 51 (potential) branch divergence @  PC=0x1440 (_1.ptx:874) @%p36 bra $L_2_96258;
GPGPU-Sim PTX:    immediate post dominator      @  PC=0x1550 (_1.ptx:915) mov.u32 %r120, 0;
GPGPU-Sim PTX: 52 (potential) branch divergence @  PC=0x1450 (_1.ptx:877) bra.uni $Lt_2_112386;
GPGPU-Sim PTX:    immediate post dominator      @  PC=0x1550 (_1.ptx:915) mov.u32 %r120, 0;
GPGPU-Sim PTX: 53 (potential) branch divergence @  PC=0x1468 (_1.ptx:881) @%p37 bra $Lt_2_112130;
GPGPU-Sim PTX:    immediate post dominator      @  PC=0x1520 (_1.ptx:906) setp.gt.f32 %p38, %f71, %f14;
GPGPU-Sim PTX: 54 (potential) branch divergence @  PC=0x14e8 (_1.ptx:897) bra.uni $Lt_2_111874;
GPGPU-Sim PTX:    immediate post dominator      @  PC=0x1520 (_1.ptx:906) setp.gt.f32 %p38, %f71, %f14;
GPGPU-Sim PTX: 55 (potential) branch divergence @  PC=0x1538 (_1.ptx:909) @!%p39 bra $Lt_2_112386;
GPGPU-Sim PTX:    immediate post dominator      @  PC=0x1550 (_1.ptx:915) mov.u32 %r120, 0;
GPGPU-Sim PTX: 56 (potential) branch divergence @  PC=0x1560 (_1.ptx:917) @%p40 bra $Lt_2_113922;
GPGPU-Sim PTX:    immediate post dominator      @  PC=0x16c8 (_1.ptx:970) mov.u32 %r128, 0;
GPGPU-Sim PTX: 57 (potential) branch divergence @  PC=0x1590 (_1.ptx:924) @%p41 bra $L_2_97026;
GPGPU-Sim PTX:    immediate post dominator      @  PC=0x16c8 (_1.ptx:970) mov.u32 %r128, 0;
GPGPU-Sim PTX: 58 (potential) branch divergence @  PC=0x15b8 (_1.ptx:929) @%p42 bra $L_2_96770;
GPGPU-Sim PTX:    immediate post dominator      @  PC=0x16c8 (_1.ptx:970) mov.u32 %r128, 0;
GPGPU-Sim PTX: 59 (potential) branch divergence @  PC=0x15c8 (_1.ptx:932) bra.uni $Lt_2_113922;
GPGPU-Sim PTX:    immediate post dominator      @  PC=0x16c8 (_1.ptx:970) mov.u32 %r128, 0;
GPGPU-Sim PTX: 60 (potential) branch divergence @  PC=0x15e0 (_1.ptx:936) @%p43 bra $Lt_2_113666;
GPGPU-Sim PTX:    immediate post dominator      @  PC=0x1698 (_1.ptx:961) setp.gt.f32 %p44, %f89, %f13;
GPGPU-Sim PTX: 61 (potential) branch divergence @  PC=0x1660 (_1.ptx:952) bra.uni $Lt_2_113410;
GPGPU-Sim PTX:    immediate post dominator      @  PC=0x1698 (_1.ptx:961) setp.gt.f32 %p44, %f89, %f13;
GPGPU-Sim PTX: 62 (potential) branch divergence @  PC=0x16b0 (_1.ptx:964) @!%p45 bra $Lt_2_113922;
GPGPU-Sim PTX:    immediate post dominator      @  PC=0x16c8 (_1.ptx:970) mov.u32 %r128, 0;
GPGPU-Sim PTX: 63 (potential) branch divergence @  PC=0x16d8 (_1.ptx:972) @%p46 bra $Lt_2_115458;
GPGPU-Sim PTX:    immediate post dominator      @  PC=0x1840 (_1.ptx:1025) mov.u32 %r136, 0;
GPGPU-Sim PTX: 64 (potential) branch divergence @  PC=0x1708 (_1.ptx:979) @%p47 bra $L_2_97538;
GPGPU-Sim PTX:    immediate post dominator      @  PC=0x1840 (_1.ptx:1025) mov.u32 %r136, 0;
GPGPU-Sim PTX: 65 (potential) branch divergence @  PC=0x1730 (_1.ptx:984) @%p48 bra $L_2_97282;
GPGPU-Sim PTX:    immediate post dominator      @  PC=0x1840 (_1.ptx:1025) mov.u32 %r136, 0;
GPGPU-Sim PTX: 66 (potential) branch divergence @  PC=0x1740 (_1.ptx:987) bra.uni $Lt_2_115458;
GPGPU-Sim PTX:    immediate post dominator      @  PC=0x1840 (_1.ptx:1025) mov.u32 %r136, 0;
GPGPU-Sim PTX: 67 (potential) branch divergence @  PC=0x1758 (_1.ptx:991) @%p49 bra $Lt_2_115202;
GPGPU-Sim PTX:    immediate post dominator      @  PC=0x1810 (_1.ptx:1016) setp.gt.f32 %p50, %f107, %f12;
GPGPU-Sim PTX: 68 (potential) branch divergence @  PC=0x17d8 (_1.ptx:1007) bra.uni $Lt_2_114946;
GPGPU-Sim PTX:    immediate post dominator      @  PC=0x1810 (_1.ptx:1016) setp.gt.f32 %p50, %f107, %f12;
GPGPU-Sim PTX: 69 (potential) branch divergence @  PC=0x1828 (_1.ptx:1019) @!%p51 bra $Lt_2_115458;
GPGPU-Sim PTX:    immediate post dominator      @  PC=0x1840 (_1.ptx:1025) mov.u32 %r136, 0;
GPGPU-Sim PTX: 70 (potential) branch divergence @  PC=0x1850 (_1.ptx:1027) @%p52 bra $Lt_2_116994;
GPGPU-Sim PTX:    immediate post dominator      @  PC=0x19b8 (_1.ptx:1080) mov.u32 %r144, 0;
GPGPU-Sim PTX: 71 (potential) branch divergence @  PC=0x1880 (_1.ptx:1034) @%p53 bra $L_2_98050;
GPGPU-Sim PTX:    immediate post dominator      @  PC=0x19b8 (_1.ptx:1080) mov.u32 %r144, 0;
GPGPU-Sim PTX: 72 (potential) branch divergence @  PC=0x18a8 (_1.ptx:1039) @%p54 bra $L_2_97794;
GPGPU-Sim PTX:    immediate post dominator      @  PC=0x19b8 (_1.ptx:1080) mov.u32 %r144, 0;
GPGPU-Sim PTX: 73 (potential) branch divergence @  PC=0x18b8 (_1.ptx:1042) bra.uni $Lt_2_116994;
GPGPU-Sim PTX:    immediate post dominator      @  PC=0x19b8 (_1.ptx:1080) mov.u32 %r144, 0;
GPGPU-Sim PTX: 74 (potential) branch divergence @  PC=0x18d0 (_1.ptx:1046) @%p55 bra $Lt_2_116738;
GPGPU-Sim PTX:    immediate post dominator      @  PC=0x1988 (_1.ptx:1071) setp.gt.f32 %p56, %f125, %f11;
GPGPU-Sim PTX: 75 (potential) branch divergence @  PC=0x1950 (_1.ptx:1062) bra.uni $Lt_2_116482;
GPGPU-Sim PTX:    immediate post dominator      @  PC=0x1988 (_1.ptx:1071) setp.gt.f32 %p56, %f125, %f11;
GPGPU-Sim PTX: 76 (potential) branch divergence @  PC=0x19a0 (_1.ptx:1074) @!%p57 bra $Lt_2_116994;
GPGPU-Sim PTX:    immediate post dominator      @  PC=0x19b8 (_1.ptx:1080) mov.u32 %r144, 0;
GPGPU-Sim PTX: 77 (potential) branch divergence @  PC=0x19c8 (_1.ptx:1082) @%p58 bra $Lt_2_118530;
GPGPU-Sim PTX:    immediate post dominator      @  PC=0x1b30 (_1.ptx:1135) mov.u32 %r152, 0;
GPGPU-Sim PTX: 78 (potential) branch divergence @  PC=0x19f8 (_1.ptx:1089) @%p59 bra $L_2_98562;
GPGPU-Sim PTX:    immediate post dominator      @  PC=0x1b30 (_1.ptx:1135) mov.u32 %r152, 0;
GPGPU-Sim PTX: 79 (potential) branch divergence @  PC=0x1a20 (_1.ptx:1094) @%p60 bra $L_2_98306;
GPGPU-Sim PTX:    immediate post dominator      @  PC=0x1b30 (_1.ptx:1135) mov.u32 %r152, 0;
GPGPU-Sim PTX: 80 (potential) branch divergence @  PC=0x1a30 (_1.ptx:1097) bra.uni $Lt_2_118530;
GPGPU-Sim PTX:    immediate post dominator      @  PC=0x1b30 (_1.ptx:1135) mov.u32 %r152, 0;
GPGPU-Sim PTX: 81 (potential) branch divergence @  PC=0x1a48 (_1.ptx:1101) @%p61 bra $Lt_2_118274;
GPGPU-Sim PTX:    immediate post dominator      @  PC=0x1b00 (_1.ptx:1126) setp.gt.f32 %p62, %f143, %f10;
GPGPU-Sim PTX: 82 (potential) branch divergence @  PC=0x1ac8 (_1.ptx:1117) bra.uni $Lt_2_118018;
GPGPU-Sim PTX:    immediate post dominator      @  PC=0x1b00 (_1.ptx:1126) setp.gt.f32 %p62, %f143, %f10;
GPGPU-Sim PTX: 83 (potential) branch divergence @  PC=0x1b18 (_1.ptx:1129) @!%p63 bra $Lt_2_118530;
GPGPU-Sim PTX:    immediate post dominator      @  PC=0x1b30 (_1.ptx:1135) mov.u32 %r152, 0;
GPGPU-Sim PTX: 84 (potential) branch divergence @  PC=0x1b40 (_1.ptx:1137) @%p64 bra $Lt_2_120066;
GPGPU-Sim PTX:    immediate post dominator      @  PC=0x1ca8 (_1.ptx:1190) mov.u32 %r160, 0;
GPGPU-Sim PTX: 85 (potential) branch divergence @  PC=0x1b70 (_1.ptx:1144) @%p65 bra $L_2_99074;
GPGPU-Sim PTX:    immediate post dominator      @  PC=0x1ca8 (_1.ptx:1190) mov.u32 %r160, 0;
GPGPU-Sim PTX: 86 (potential) branch divergence @  PC=0x1b98 (_1.ptx:1149) @%p66 bra $L_2_98818;
GPGPU-Sim PTX:    immediate post dominator      @  PC=0x1ca8 (_1.ptx:1190) mov.u32 %r160, 0;
GPGPU-Sim PTX: 87 (potential) branch divergence @  PC=0x1ba8 (_1.ptx:1152) bra.uni $Lt_2_120066;
GPGPU-Sim PTX:    immediate post dominator      @  PC=0x1ca8 (_1.ptx:1190) mov.u32 %r160, 0;
GPGPU-Sim PTX: 88 (potential) branch divergence @  PC=0x1bc0 (_1.ptx:1156) @%p67 bra $Lt_2_119810;
GPGPU-Sim PTX:    immediate post dominator      @  PC=0x1c78 (_1.ptx:1181) setp.gt.f32 %p68, %f161, %f9;
GPGPU-Sim PTX: 89 (potential) branch divergence @  PC=0x1c40 (_1.ptx:1172) bra.uni $Lt_2_119554;
GPGPU-Sim PTX:    immediate post dominator      @  PC=0x1c78 (_1.ptx:1181) setp.gt.f32 %p68, %f161, %f9;
GPGPU-Sim PTX: 90 (potential) branch divergence @  PC=0x1c90 (_1.ptx:1184) @!%p69 bra $Lt_2_120066;
GPGPU-Sim PTX:    immediate post dominator      @  PC=0x1ca8 (_1.ptx:1190) mov.u32 %r160, 0;
GPGPU-Sim PTX: 91 (potential) branch divergence @  PC=0x1cb8 (_1.ptx:1192) @%p70 bra $Lt_2_121602;
GPGPU-Sim PTX:    immediate post dominator      @  PC=0x1e20 (_1.ptx:1245) mov.u32 %r168, 0;
GPGPU-Sim PTX: 92 (potential) branch divergence @  PC=0x1ce8 (_1.ptx:1199) @%p71 bra $L_2_99586;
GPGPU-Sim PTX:    immediate post dominator      @  PC=0x1e20 (_1.ptx:1245) mov.u32 %r168, 0;
GPGPU-Sim PTX: 93 (potential) branch divergence @  PC=0x1d10 (_1.ptx:1204) @%p72 bra $L_2_99330;
GPGPU-Sim PTX:    immediate post dominator      @  PC=0x1e20 (_1.ptx:1245) mov.u32 %r168, 0;
GPGPU-Sim PTX: 94 (potential) branch divergence @  PC=0x1d20 (_1.ptx:1207) bra.uni $Lt_2_121602;
GPGPU-Sim PTX:    immediate post dominator      @  PC=0x1e20 (_1.ptx:1245) mov.u32 %r168, 0;
GPGPU-Sim PTX: 95 (potential) branch divergence @  PC=0x1d38 (_1.ptx:1211) @%p73 bra $Lt_2_121346;
GPGPU-Sim PTX:    immediate post dominator      @  PC=0x1df0 (_1.ptx:1236) setp.gt.f32 %p74, %f179, %f8;
GPGPU-Sim PTX: 96 (potential) branch divergence @  PC=0x1db8 (_1.ptx:1227) bra.uni $Lt_2_121090;
GPGPU-Sim PTX:    immediate post dominator      @  PC=0x1df0 (_1.ptx:1236) setp.gt.f32 %p74, %f179, %f8;
GPGPU-Sim PTX: 97 (potential) branch divergence @  PC=0x1e08 (_1.ptx:1239) @!%p75 bra $Lt_2_121602;
GPGPU-Sim PTX:    immediate post dominator      @  PC=0x1e20 (_1.ptx:1245) mov.u32 %r168, 0;
GPGPU-Sim PTX: 98 (potential) branch divergence @  PC=0x1e30 (_1.ptx:1247) @%p76 bra $Lt_2_123138;
GPGPU-Sim PTX:    immediate post dominator      @  PC=0x1f98 (_1.ptx:1300) mov.u32 %r176, 0;
GPGPU-Sim PTX: 99 (potential) branch divergence @  PC=0x1e60 (_1.ptx:1254) @%p77 bra $L_2_100098;
GPGPU-Sim PTX:    immediate post dominator      @  PC=0x1f98 (_1.ptx:1300) mov.u32 %r176, 0;
GPGPU-Sim PTX: 100 (potential) branch divergence @  PC=0x1e88 (_1.ptx:1259) @%p78 bra $L_2_99842;
GPGPU-Sim PTX:    immediate post dominator      @  PC=0x1f98 (_1.ptx:1300) mov.u32 %r176, 0;
GPGPU-Sim PTX: 101 (potential) branch divergence @  PC=0x1e98 (_1.ptx:1262) bra.uni $Lt_2_123138;
GPGPU-Sim PTX:    immediate post dominator      @  PC=0x1f98 (_1.ptx:1300) mov.u32 %r176, 0;
GPGPU-Sim PTX: 102 (potential) branch divergence @  PC=0x1eb0 (_1.ptx:1266) @%p79 bra $Lt_2_122882;
GPGPU-Sim PTX:    immediate post dominator      @  PC=0x1f68 (_1.ptx:1291) setp.gt.f32 %p80, %f197, %f7;
GPGPU-Sim PTX: 103 (potential) branch divergence @  PC=0x1f30 (_1.ptx:1282) bra.uni $Lt_2_122626;
GPGPU-Sim PTX:    immediate post dominator      @  PC=0x1f68 (_1.ptx:1291) setp.gt.f32 %p80, %f197, %f7;
GPGPU-Sim PTX: 104 (potential) branch divergence @  PC=0x1f80 (_1.ptx:1294) @!%p81 bra $Lt_2_123138;
GPGPU-Sim PTX:    immediate post dominator      @  PC=0x1f98 (_1.ptx:1300) mov.u32 %r176, 0;
GPGPU-Sim PTX: 105 (potential) branch divergence @  PC=0x1fa8 (_1.ptx:1302) @%p82 bra $Lt_2_124674;
GPGPU-Sim PTX:    immediate post dominator      @  PC=0x2110 (_1.ptx:1355) mov.u32 %r184, 0;
GPGPU-Sim PTX: 106 (potential) branch divergence @  PC=0x1fd8 (_1.ptx:1309) @%p83 bra $L_2_100610;
GPGPU-Sim PTX:    immediate post dominator      @  PC=0x2110 (_1.ptx:1355) mov.u32 %r184, 0;
GPGPU-Sim PTX: 107 (potential) branch divergence @  PC=0x2000 (_1.ptx:1314) @%p84 bra $L_2_100354;
GPGPU-Sim PTX:    immediate post dominator      @  PC=0x2110 (_1.ptx:1355) mov.u32 %r184, 0;
GPGPU-Sim PTX: 108 (potential) branch divergence @  PC=0x2010 (_1.ptx:1317) bra.uni $Lt_2_124674;
GPGPU-Sim PTX:    immediate post dominator      @  PC=0x2110 (_1.ptx:1355) mov.u32 %r184, 0;
GPGPU-Sim PTX: 109 (potential) branch divergence @  PC=0x2028 (_1.ptx:1321) @%p85 bra $Lt_2_124418;
GPGPU-Sim PTX:    immediate post dominator      @  PC=0x20e0 (_1.ptx:1346) setp.gt.f32 %p86, %f215, %f6;
GPGPU-Sim PTX: 110 (potential) branch divergence @  PC=0x20a8 (_1.ptx:1337) bra.uni $Lt_2_124162;
GPGPU-Sim PTX:    immediate post dominator      @  PC=0x20e0 (_1.ptx:1346) setp.gt.f32 %p86, %f215, %f6;
GPGPU-Sim PTX: 111 (potential) branch divergence @  PC=0x20f8 (_1.ptx:1349) @!%p87 bra $Lt_2_124674;
GPGPU-Sim PTX:    immediate post dominator      @  PC=0x2110 (_1.ptx:1355) mov.u32 %r184, 0;
GPGPU-Sim PTX: 112 (potential) branch divergence @  PC=0x2120 (_1.ptx:1357) @%p88 bra $Lt_2_126210;
GPGPU-Sim PTX:    immediate post dominator      @  PC=0x2288 (_1.ptx:1410) @!%p21 bra $Lt_2_126722;
GPGPU-Sim PTX: 113 (potential) branch divergence @  PC=0x2150 (_1.ptx:1364) @%p89 bra $L_2_101122;
GPGPU-Sim PTX:    immediate post dominator      @  PC=0x2288 (_1.ptx:1410) @!%p21 bra $Lt_2_126722;
GPGPU-Sim PTX: 114 (potential) branch divergence @  PC=0x2178 (_1.ptx:1369) @%p90 bra $L_2_100866;
GPGPU-Sim PTX:    immediate post dominator      @  PC=0x2288 (_1.ptx:1410) @!%p21 bra $Lt_2_126722;
GPGPU-Sim PTX: 115 (potential) branch divergence @  PC=0x2188 (_1.ptx:1372) bra.uni $Lt_2_126210;
GPGPU-Sim PTX:    immediate post dominator      @  PC=0x2288 (_1.ptx:1410) @!%p21 bra $Lt_2_126722;
GPGPU-Sim PTX: 116 (potential) branch divergence @  PC=0x21a0 (_1.ptx:1376) @%p91 bra $Lt_2_125954;
GPGPU-Sim PTX:    immediate post dominator      @  PC=0x2258 (_1.ptx:1401) setp.gt.f32 %p92, %f233, %f5;
GPGPU-Sim PTX: 117 (potential) branch divergence @  PC=0x2220 (_1.ptx:1392) bra.uni $Lt_2_125698;
GPGPU-Sim PTX:    immediate post dominator      @  PC=0x2258 (_1.ptx:1401) setp.gt.f32 %p92, %f233, %f5;
GPGPU-Sim PTX: 118 (potential) branch divergence @  PC=0x2270 (_1.ptx:1404) @!%p93 bra $Lt_2_126210;
GPGPU-Sim PTX:    immediate post dominator      @  PC=0x2288 (_1.ptx:1410) @!%p21 bra $Lt_2_126722;
GPGPU-Sim PTX: 119 (potential) branch divergence @  PC=0x2288 (_1.ptx:1410) @!%p21 bra $Lt_2_126722;
GPGPU-Sim PTX:    immediate post dominator      @  PC=0x2490 (_1.ptx:1489) mov.f32 %f254, %f17;
GPGPU-Sim PTX: 120 (potential) branch divergence @  PC=0x22d8 (_1.ptx:1423) @%p94 bra $Lt_2_129026;
GPGPU-Sim PTX:    immediate post dominator      @  PC=0x2478 (_1.ptx:1484) add.s32 %r192, %r192, %r19;
GPGPU-Sim PTX: 121 (potential) branch divergence @  PC=0x2308 (_1.ptx:1430) @%p95 bra $Lt_2_129026;
GPGPU-Sim PTX:    immediate post dominator      @  PC=0x2478 (_1.ptx:1484) add.s32 %r192, %r192, %r19;
GPGPU-Sim PTX: 122 (potential) branch divergence @  PC=0x2330 (_1.ptx:1435) @%p96 bra $L_2_101378;
GPGPU-Sim PTX:    immediate post dominator      @  PC=0x2478 (_1.ptx:1484) add.s32 %r192, %r192, %r19;
GPGPU-Sim PTX: 123 (potential) branch divergence @  PC=0x2338 (_1.ptx:1436) bra.uni $Lt_2_129026;
GPGPU-Sim PTX:    immediate post dominator      @  PC=0x2478 (_1.ptx:1484) add.s32 %r192, %r192, %r19;
GPGPU-Sim PTX: 124 (potential) branch divergence @  PC=0x2370 (_1.ptx:1444) @%p97 bra $Lt_2_128258;
GPGPU-Sim PTX:    immediate post dominator      @  PC=0x2428 (_1.ptx:1469) setp.lt.f32 %p98, %f234, %f252;
GPGPU-Sim PTX: 125 (potential) branch divergence @  PC=0x23f0 (_1.ptx:1460) bra.uni $Lt_2_128002;
GPGPU-Sim PTX:    immediate post dominator      @  PC=0x2428 (_1.ptx:1469) setp.lt.f32 %p98, %f234, %f252;
GPGPU-Sim PTX: 126 (potential) branch divergence @  PC=0x2430 (_1.ptx:1470) @!%p98 bra $Lt_2_128770;
GPGPU-Sim PTX:    immediate post dominator      @  PC=0x2458 (_1.ptx:1477) setp.gt.f32 %p99, %f17, %f253;
GPGPU-Sim PTX: 127 (potential) branch divergence @  PC=0x2448 (_1.ptx:1473) bra.uni $Lt_2_128514;
GPGPU-Sim PTX:    immediate post dominator      @  PC=0x2458 (_1.ptx:1477) setp.gt.f32 %p99, %f17, %f253;
GPGPU-Sim PTX: 128 (potential) branch divergence @  PC=0x2460 (_1.ptx:1478) @!%p99 bra $Lt_2_129026;
GPGPU-Sim PTX:    immediate post dominator      @  PC=0x2478 (_1.ptx:1484) add.s32 %r192, %r192, %r19;
GPGPU-Sim PTX: 129 (potential) branch divergence @  PC=0x2488 (_1.ptx:1486) @%p100 bra $Lt_2_127234;
GPGPU-Sim PTX:    immediate post dominator      @  PC=0x2490 (_1.ptx:1489) mov.f32 %f254, %f17;
GPGPU-Sim PTX: 130 (potential) branch divergence @  PC=0x24b0 (_1.ptx:1496) @!%p5 bra $Lt_2_131330;
GPGPU-Sim PTX:    immediate post dominator      @  PC=0x25b0 (_1.ptx:1542) bar.sync 0;
GPGPU-Sim PTX: 131 (potential) branch divergence @  PC=0x24c8 (_1.ptx:1499) @%p101 bra $Lt_2_130306;
GPGPU-Sim PTX:    immediate post dominator      @  PC=0x2590 (_1.ptx:1534) setp.lt.f32 %p106, %f2, %f254;
GPGPU-Sim PTX: 132 (potential) branch divergence @  PC=0x2508 (_1.ptx:1510) @%p102 bra $Lt_2_146178;
GPGPU-Sim PTX:    immediate post dominator      @  PC=0x2570 (_1.ptx:1529) add.s32 %r205, %r205, 1;
GPGPU-Sim PTX: 133 (potential) branch divergence @  PC=0x2518 (_1.ptx:1512) @!%p103 bra $Lt_2_146434;
GPGPU-Sim PTX:    immediate post dominator      @  PC=0x2570 (_1.ptx:1529) add.s32 %r205, %r205, 1;
GPGPU-Sim PTX: 134 (potential) branch divergence @  PC=0x2540 (_1.ptx:1517) @%p104 bra $Lt_2_146434;
GPGPU-Sim PTX:    immediate post dominator      @  PC=0x2570 (_1.ptx:1529) add.s32 %r205, %r205, 1;
GPGPU-Sim PTX: 135 (potential) branch divergence @  PC=0x2548 (_1.ptx:1518) bra.uni $L_2_102146;
GPGPU-Sim PTX:    immediate post dominator      @  PC=0x2560 (_1.ptx:1524) mov.f32 %f254, %f255;
GPGPU-Sim PTX: 136 (potential) branch divergence @  PC=0x2588 (_1.ptx:1532) @%p105 bra $Lt_2_130818;
GPGPU-Sim PTX:    immediate post dominator      @  PC=0x2590 (_1.ptx:1534) setp.lt.f32 %p106, %f2, %f254;
GPGPU-Sim PTX: 137 (potential) branch divergence @  PC=0x2598 (_1.ptx:1535) @!%p106 bra $Lt_2_131330;
GPGPU-Sim PTX:    immediate post dominator      @  PC=0x25b0 (_1.ptx:1542) bar.sync 0;
GPGPU-Sim PTX: 138 (potential) branch divergence @  PC=0x25d0 (_1.ptx:1548) @%p107 bra $Lt_2_132098;
GPGPU-Sim PTX:    immediate post dominator      @  PC=0x2620 (_1.ptx:1566) bar.sync 0;
GPGPU-Sim PTX: 139 (potential) branch divergence @  PC=0x25d8 (_1.ptx:1549) @!%p5 bra $Lt_2_132354;
GPGPU-Sim PTX:    immediate post dominator      @  PC=0x2600 (_1.ptx:1557) mov.s32 %r27, %r210;
GPGPU-Sim PTX: 140 (potential) branch divergence @  PC=0x2610 (_1.ptx:1560) bra.uni $Lt_2_131842;
GPGPU-Sim PTX:    immediate post dominator      @  PC=0x2620 (_1.ptx:1566) bar.sync 0;
GPGPU-Sim PTX: 141 (potential) branch divergence @  PC=0x2630 (_1.ptx:1569) @%p108 bra $L_2_102658;
GPGPU-Sim PTX:    immediate post dominator      @  PC=0x2b30 (_1.ptx:1788) mov.s32 %r243, %r93;
GPGPU-Sim PTX: 142 (potential) branch divergence @  PC=0x2648 (_1.ptx:1572) @%p109 bra $L_2_94210;
GPGPU-Sim PTX:    immediate post dominator      @  PC=0x2b30 (_1.ptx:1788) mov.s32 %r243, %r93;
GPGPU-Sim PTX: 143 (potential) branch divergence @  PC=0x2650 (_1.ptx:1573) bra.uni $L_2_102658;
GPGPU-Sim PTX:    immediate post dominator      @  PC=0x2b30 (_1.ptx:1788) mov.s32 %r243, %r93;
GPGPU-Sim PTX: 144 (potential) branch divergence @  PC=0x2660 (_1.ptx:1576) bra.uni $L_2_102658;
GPGPU-Sim PTX:    immediate post dominator      @  PC=0x2b30 (_1.ptx:1788) mov.s32 %r243, %r93;
GPGPU-Sim PTX: 145 (potential) branch divergence @  PC=0x2668 (_1.ptx:1579) @!%p7 bra $Lt_2_147202;
GPGPU-Sim PTX:    immediate post dominator      @  PC=0x2b30 (_1.ptx:1788) mov.s32 %r243, %r93;
GPGPU-Sim PTX: 146 (potential) branch divergence @  PC=0x26c0 (_1.ptx:1592) @!%p3 bra $Lt_2_147458;
GPGPU-Sim PTX:    immediate post dominator      @  PC=0x2918 (_1.ptx:1688) mov.f32 %f278, %f257;
GPGPU-Sim PTX: 147 (potential) branch divergence @  PC=0x2750 (_1.ptx:1613) @%p110 bra $Lt_2_147970;
GPGPU-Sim PTX:    immediate post dominator      @  PC=0x28e8 (_1.ptx:1679) add.u64 %rd166, %rd166, %rd19;
GPGPU-Sim PTX: 148 (potential) branch divergence @  PC=0x2780 (_1.ptx:1619) @%p111 bra $Lt_2_147970;
GPGPU-Sim PTX:    immediate post dominator      @  PC=0x28e8 (_1.ptx:1679) add.u64 %rd166, %rd166, %rd19;
GPGPU-Sim PTX: 149 (potential) branch divergence @  PC=0x27a8 (_1.ptx:1624) @%p112 bra $Lt_2_147970;
GPGPU-Sim PTX:    immediate post dominator      @  PC=0x28e8 (_1.ptx:1679) add.u64 %rd166, %rd166, %rd19;
GPGPU-Sim PTX: 150 (potential) branch divergence @  PC=0x27e0 (_1.ptx:1632) @%p113 bra $Lt_2_133890;
GPGPU-Sim PTX:    immediate post dominator      @  PC=0x2898 (_1.ptx:1659) setp.lt.f32 %p114, %f258, %f276;
GPGPU-Sim PTX: 151 (potential) branch divergence @  PC=0x2860 (_1.ptx:1649) bra.uni $Lt_2_133634;
GPGPU-Sim PTX:    immediate post dominator      @  PC=0x2898 (_1.ptx:1659) setp.lt.f32 %p114, %f258, %f276;
GPGPU-Sim PTX: 152 (potential) branch divergence @  PC=0x28a0 (_1.ptx:1660) @!%p114 bra $Lt_2_134402;
GPGPU-Sim PTX:    immediate post dominator      @  PC=0x28c8 (_1.ptx:1670) setp.gt.f32 %p115, %f257, %f277;
GPGPU-Sim PTX: 153 (potential) branch divergence @  PC=0x28b8 (_1.ptx:1665) bra.uni $Lt_2_134146;
GPGPU-Sim PTX:    immediate post dominator      @  PC=0x28c8 (_1.ptx:1670) setp.gt.f32 %p115, %f257, %f277;
GPGPU-Sim PTX: 154 (potential) branch divergence @  PC=0x28d0 (_1.ptx:1671) @!%p115 bra $Lt_2_147970;
GPGPU-Sim PTX:    immediate post dominator      @  PC=0x28e8 (_1.ptx:1679) add.u64 %rd166, %rd166, %rd19;
GPGPU-Sim PTX: 155 (potential) branch divergence @  PC=0x2900 (_1.ptx:1682) @%p116 bra $Lt_2_133378;
GPGPU-Sim PTX:    immediate post dominator      @  PC=0x2908 (_1.ptx:1683) bra.uni $Lt_2_132866;
GPGPU-Sim PTX: 156 (potential) branch divergence @  PC=0x2908 (_1.ptx:1683) bra.uni $Lt_2_132866;
GPGPU-Sim PTX:    immediate post dominator      @  PC=0x2918 (_1.ptx:1688) mov.f32 %f278, %f257;
GPGPU-Sim PTX: 157 (potential) branch divergence @  PC=0x2938 (_1.ptx:1695) @!%p5 bra $Lt_2_136962;
GPGPU-Sim PTX:    immediate post dominator      @  PC=0x2a60 (_1.ptx:1746) bar.sync 0;
GPGPU-Sim PTX: 158 (potential) branch divergence @  PC=0x2978 (_1.ptx:1703) @%p117 bra $Lt_2_135938;
GPGPU-Sim PTX:    immediate post dominator      @  PC=0x2a40 (_1.ptx:1738) setp.lt.f32 %p122, %f2, %f278;
GPGPU-Sim PTX: 159 (potential) branch divergence @  PC=0x29b8 (_1.ptx:1714) @%p118 bra $Lt_2_148738;
GPGPU-Sim PTX:    immediate post dominator      @  PC=0x2a20 (_1.ptx:1733) add.s32 %r234, %r234, 1;
GPGPU-Sim PTX: 160 (potential) branch divergence @  PC=0x29c8 (_1.ptx:1716) @!%p119 bra $Lt_2_148994;
GPGPU-Sim PTX:    immediate post dominator      @  PC=0x2a20 (_1.ptx:1733) add.s32 %r234, %r234, 1;
GPGPU-Sim PTX: 161 (potential) branch divergence @  PC=0x29f0 (_1.ptx:1721) @%p120 bra $Lt_2_148994;
GPGPU-Sim PTX:    immediate post dominator      @  PC=0x2a20 (_1.ptx:1733) add.s32 %r234, %r234, 1;
GPGPU-Sim PTX: 162 (potential) branch divergence @  PC=0x29f8 (_1.ptx:1722) bra.uni $L_2_104450;
GPGPU-Sim PTX:    immediate post dominator      @  PC=0x2a10 (_1.ptx:1728) mov.f32 %f278, %f279;
GPGPU-Sim PTX: 163 (potential) branch divergence @  PC=0x2a38 (_1.ptx:1736) @%p121 bra $Lt_2_136450;
GPGPU-Sim PTX:    immediate post dominator      @  PC=0x2a40 (_1.ptx:1738) setp.lt.f32 %p122, %f2, %f278;
GPGPU-Sim PTX: 164 (potential) branch divergence @  PC=0x2a48 (_1.ptx:1739) @!%p122 bra $Lt_2_136962;
GPGPU-Sim PTX:    immediate post dominator      @  PC=0x2a60 (_1.ptx:1746) bar.sync 0;
GPGPU-Sim PTX: 165 (potential) branch divergence @  PC=0x2a80 (_1.ptx:1752) @%p123 bra $Lt_2_137730;
GPGPU-Sim PTX:    immediate post dominator      @  PC=0x2af0 (_1.ptx:1775) bar.sync 0;
GPGPU-Sim PTX: 166 (potential) branch divergence @  PC=0x2a88 (_1.ptx:1753) @!%p5 bra $Lt_2_137986;
GPGPU-Sim PTX:    immediate post dominator      @  PC=0x2ad0 (_1.ptx:1766) mov.s32 %r27, %r239;
GPGPU-Sim PTX: 167 (potential) branch divergence @  PC=0x2ae0 (_1.ptx:1769) bra.uni $Lt_2_137474;
GPGPU-Sim PTX:    immediate post dominator      @  PC=0x2af0 (_1.ptx:1775) bar.sync 0;
GPGPU-Sim PTX: 168 (potential) branch divergence @  PC=0x2b00 (_1.ptx:1778) @%p124 bra $L_2_102658;
GPGPU-Sim PTX:    immediate post dominator      @  PC=0x2b30 (_1.ptx:1788) mov.s32 %r243, %r93;
GPGPU-Sim PTX: 169 (potential) branch divergence @  PC=0x2b18 (_1.ptx:1781) @%p125 bra $L_2_102402;
GPGPU-Sim PTX:    immediate post dominator      @  PC=0x2b30 (_1.ptx:1788) mov.s32 %r243, %r93;
GPGPU-Sim PTX: 170 (potential) branch divergence @  PC=0x2b20 (_1.ptx:1782) bra.uni $L_2_102658;
GPGPU-Sim PTX:    immediate post dominator      @  PC=0x2b30 (_1.ptx:1788) mov.s32 %r243, %r93;
GPGPU-Sim PTX: ... end of reconvergence points for _Z39generate_candidate_cluster_full_storageiiPcPfS_PiS0_iiiS1_fb
GPGPU-Sim PTX: ... done pre-decoding instructions for '_Z39generate_candidate_cluster_full_storageiiPcPfS_PiS0_iiiS1_fb'.
GPGPU-Sim PTX: instruction assembly for function '_Z42generate_candidate_cluster_compact_storageiiPcPfS_PiS0_iiiS1_fb'...   done.
GPGPU-Sim PTX: finding reconvergence points for '_Z42generate_candidate_cluster_compact_storageiiPcPfS_PiS0_iiiS1_fb'...
GPGPU-Sim PTX: Finding dominators for '_Z42generate_candidate_cluster_compact_storageiiPcPfS_PiS0_iiiS1_fb'...
GPGPU-Sim PTX: Finding immediate dominators for '_Z42generate_candidate_cluster_compact_storageiiPcPfS_PiS0_iiiS1_fb'...
GPGPU-Sim PTX: Finding postdominators for '_Z42generate_candidate_cluster_compact_storageiiPcPfS_PiS0_iiiS1_fb'...
GPGPU-Sim PTX: Finding immediate postdominators for '_Z42generate_candidate_cluster_compact_storageiiPcPfS_PiS0_iiiS1_fb'...
GPGPU-Sim PTX: pre-decoding instructions for '_Z42generate_candidate_cluster_compact_storageiiPcPfS_PiS0_iiiS1_fb'...
GPGPU-Sim PTX: reconvergence points for _Z42generate_candidate_cluster_compact_storageiiPcPfS_PiS0_iiiS1_fb...
GPGPU-Sim PTX:  1 (potential) branch divergence @  PC=0x2c18 (_1.ptx:1828) @%p1 bra $Lt_3_139266;
GPGPU-Sim PTX:    immediate post dominator      @  PC=0x2c98 (_1.ptx:1848) setp.ge.s32 %p3, %r11, %r8;
GPGPU-Sim PTX:  2 (potential) branch divergence @  PC=0x2c90 (_1.ptx:1846) @%p2 bra $Lt_3_139778;
GPGPU-Sim PTX:    immediate post dominator      @  PC=0x2c98 (_1.ptx:1848) setp.ge.s32 %p3, %r11, %r8;
GPGPU-Sim PTX:  3 (potential) branch divergence @  PC=0x2ca0 (_1.ptx:1849) @%p3 bra $Lt_3_140290;
GPGPU-Sim PTX:    immediate post dominator      @  PC=0x2d30 (_1.ptx:1871) mov.s32 %r23, 0;
GPGPU-Sim PTX:  4 (potential) branch divergence @  PC=0x2d28 (_1.ptx:1869) @%p4 bra $Lt_3_140802;
GPGPU-Sim PTX:    immediate post dominator      @  PC=0x2d30 (_1.ptx:1871) mov.s32 %r23, 0;
GPGPU-Sim PTX:  5 (potential) branch divergence @  PC=0x2d40 (_1.ptx:1873) @!%p5 bra $Lt_3_141314;
GPGPU-Sim PTX:    immediate post dominator      @  PC=0x2d88 (_1.ptx:1887) bar.sync 0;
GPGPU-Sim PTX:  6 (potential) branch divergence @  PC=0x2d58 (_1.ptx:1876) @%p6 bra $Lt_3_141826;
GPGPU-Sim PTX:    immediate post dominator      @  PC=0x2d68 (_1.ptx:1881) mov.s32 %r24, 1;
GPGPU-Sim PTX:  7 (potential) branch divergence @  PC=0x2da0 (_1.ptx:1892) @%p7 bra $Lt_3_194050;
GPGPU-Sim PTX:    immediate post dominator      @  PC=0x3750 (_1.ptx:2238) bar.sync 0;
GPGPU-Sim PTX:  8 (potential) branch divergence @  PC=0x2de8 (_1.ptx:1901) @%p8 bra $Lt_3_194306;
GPGPU-Sim PTX:    immediate post dominator      @  PC=0x3750 (_1.ptx:2238) bar.sync 0;
GPGPU-Sim PTX:  9 (potential) branch divergence @  PC=0x2e28 (_1.ptx:1910) @%p9 bra $Lt_3_194562;
GPGPU-Sim PTX:    immediate post dominator      @  PC=0x3750 (_1.ptx:2238) bar.sync 0;
GPGPU-Sim PTX: 10 (potential) branch divergence @  PC=0x2e68 (_1.ptx:1918) @%p10 bra $Lt_3_194818;
GPGPU-Sim PTX:    immediate post dominator      @  PC=0x3750 (_1.ptx:2238) bar.sync 0;
GPGPU-Sim PTX: 11 (potential) branch divergence @  PC=0x2e88 (_1.ptx:1923) @%p11 bra $Lt_3_195074;
GPGPU-Sim PTX:    immediate post dominator      @  PC=0x3750 (_1.ptx:2238) bar.sync 0;
GPGPU-Sim PTX: 12 (potential) branch divergence @  PC=0x2ec8 (_1.ptx:1931) @%p12 bra $Lt_3_195330;
GPGPU-Sim PTX:    immediate post dominator      @  PC=0x3750 (_1.ptx:2238) bar.sync 0;
GPGPU-Sim PTX: 13 (potential) branch divergence @  PC=0x2ee8 (_1.ptx:1936) @%p13 bra $Lt_3_195586;
GPGPU-Sim PTX:    immediate post dominator      @  PC=0x3750 (_1.ptx:2238) bar.sync 0;
GPGPU-Sim PTX: 14 (potential) branch divergence @  PC=0x2f28 (_1.ptx:1944) @%p14 bra $Lt_3_195842;
GPGPU-Sim PTX:    immediate post dominator      @  PC=0x3750 (_1.ptx:2238) bar.sync 0;
GPGPU-Sim PTX: 15 (potential) branch divergence @  PC=0x2f48 (_1.ptx:1949) @%p15 bra $Lt_3_196098;
GPGPU-Sim PTX:    immediate post dominator      @  PC=0x3750 (_1.ptx:2238) bar.sync 0;
GPGPU-Sim PTX: 16 (potential) branch divergence @  PC=0x2f88 (_1.ptx:1957) @%p16 bra $Lt_3_196354;
GPGPU-Sim PTX:    immediate post dominator      @  PC=0x3750 (_1.ptx:2238) bar.sync 0;
GPGPU-Sim PTX: 17 (potential) branch divergence @  PC=0x2fa8 (_1.ptx:1962) @%p17 bra $Lt_3_196610;
GPGPU-Sim PTX:    immediate post dominator      @  PC=0x3750 (_1.ptx:2238) bar.sync 0;
GPGPU-Sim PTX: 18 (potential) branch divergence @  PC=0x2fe8 (_1.ptx:1970) @%p18 bra $Lt_3_196866;
GPGPU-Sim PTX:    immediate post dominator      @  PC=0x3750 (_1.ptx:2238) bar.sync 0;
GPGPU-Sim PTX: 19 (potential) branch divergence @  PC=0x3008 (_1.ptx:1975) @%p19 bra $Lt_3_197122;
GPGPU-Sim PTX:    immediate post dominator      @  PC=0x3750 (_1.ptx:2238) bar.sync 0;
GPGPU-Sim PTX: 20 (potential) branch divergence @  PC=0x3048 (_1.ptx:1983) @%p20 bra $Lt_3_197378;
GPGPU-Sim PTX:    immediate post dominator      @  PC=0x3750 (_1.ptx:2238) bar.sync 0;
GPGPU-Sim PTX: 21 (potential) branch divergence @  PC=0x3068 (_1.ptx:1988) @%p21 bra $Lt_3_197634;
GPGPU-Sim PTX:    immediate post dominator      @  PC=0x3750 (_1.ptx:2238) bar.sync 0;
GPGPU-Sim PTX: 22 (potential) branch divergence @  PC=0x30a8 (_1.ptx:1996) @%p22 bra $Lt_3_197890;
GPGPU-Sim PTX:    immediate post dominator      @  PC=0x3750 (_1.ptx:2238) bar.sync 0;
GPGPU-Sim PTX: 23 (potential) branch divergence @  PC=0x30c8 (_1.ptx:2001) @%p23 bra $Lt_3_198146;
GPGPU-Sim PTX:    immediate post dominator      @  PC=0x3750 (_1.ptx:2238) bar.sync 0;
GPGPU-Sim PTX: 24 (potential) branch divergence @  PC=0x3108 (_1.ptx:2009) @%p24 bra $Lt_3_198402;
GPGPU-Sim PTX:    immediate post dominator      @  PC=0x3750 (_1.ptx:2238) bar.sync 0;
GPGPU-Sim PTX: 25 (potential) branch divergence @  PC=0x3128 (_1.ptx:2014) @%p25 bra $Lt_3_198658;
GPGPU-Sim PTX:    immediate post dominator      @  PC=0x3750 (_1.ptx:2238) bar.sync 0;
GPGPU-Sim PTX: 26 (potential) branch divergence @  PC=0x3168 (_1.ptx:2022) @%p26 bra $Lt_3_198914;
GPGPU-Sim PTX:    immediate post dominator      @  PC=0x3750 (_1.ptx:2238) bar.sync 0;
GPGPU-Sim PTX: 27 (potential) branch divergence @  PC=0x3188 (_1.ptx:2027) @%p27 bra $Lt_3_199170;
GPGPU-Sim PTX:    immediate post dominator      @  PC=0x3750 (_1.ptx:2238) bar.sync 0;
GPGPU-Sim PTX: 28 (potential) branch divergence @  PC=0x31c8 (_1.ptx:2035) @%p28 bra $Lt_3_199426;
GPGPU-Sim PTX:    immediate post dominator      @  PC=0x3750 (_1.ptx:2238) bar.sync 0;
GPGPU-Sim PTX: 29 (potential) branch divergence @  PC=0x31e8 (_1.ptx:2040) @%p29 bra $Lt_3_199682;
GPGPU-Sim PTX:    immediate post dominator      @  PC=0x3750 (_1.ptx:2238) bar.sync 0;
GPGPU-Sim PTX: 30 (potential) branch divergence @  PC=0x3218 (_1.ptx:2046) bra.uni $Lt_3_258;
GPGPU-Sim PTX:    immediate post dominator      @  PC=0x3750 (_1.ptx:2238) bar.sync 0;
GPGPU-Sim PTX: 31 (potential) branch divergence @  PC=0x3280 (_1.ptx:2060) bra.uni $Lt_3_258;
GPGPU-Sim PTX:    immediate post dominator      @  PC=0x3750 (_1.ptx:2238) bar.sync 0;
GPGPU-Sim PTX: 32 (potential) branch divergence @  PC=0x32e0 (_1.ptx:2073) bra.uni $Lt_3_258;
GPGPU-Sim PTX:    immediate post dominator      @  PC=0x3750 (_1.ptx:2238) bar.sync 0;
GPGPU-Sim PTX: 33 (potential) branch divergence @  PC=0x3340 (_1.ptx:2086) bra.uni $Lt_3_258;
GPGPU-Sim PTX:    immediate post dominator      @  PC=0x3750 (_1.ptx:2238) bar.sync 0;
GPGPU-Sim PTX: 34 (potential) branch divergence @  PC=0x3398 (_1.ptx:2098) bra.uni $Lt_3_258;
GPGPU-Sim PTX:    immediate post dominator      @  PC=0x3750 (_1.ptx:2238) bar.sync 0;
GPGPU-Sim PTX: 35 (potential) branch divergence @  PC=0x33f0 (_1.ptx:2110) bra.uni $Lt_3_258;
GPGPU-Sim PTX:    immediate post dominator      @  PC=0x3750 (_1.ptx:2238) bar.sync 0;
GPGPU-Sim PTX: 36 (potential) branch divergence @  PC=0x3440 (_1.ptx:2121) bra.uni $Lt_3_258;
GPGPU-Sim PTX:    immediate post dominator      @  PC=0x3750 (_1.ptx:2238) bar.sync 0;
GPGPU-Sim PTX: 37 (potential) branch divergence @  PC=0x3490 (_1.ptx:2132) bra.uni $Lt_3_258;
GPGPU-Sim PTX:    immediate post dominator      @  PC=0x3750 (_1.ptx:2238) bar.sync 0;
GPGPU-Sim PTX: 38 (potential) branch divergence @  PC=0x34d8 (_1.ptx:2142) bra.uni $Lt_3_258;
GPGPU-Sim PTX:    immediate post dominator      @  PC=0x3750 (_1.ptx:2238) bar.sync 0;
GPGPU-Sim PTX: 39 (potential) branch divergence @  PC=0x3520 (_1.ptx:2152) bra.uni $Lt_3_258;
GPGPU-Sim PTX:    immediate post dominator      @  PC=0x3750 (_1.ptx:2238) bar.sync 0;
GPGPU-Sim PTX: 40 (potential) branch divergence @  PC=0x3560 (_1.ptx:2161) bra.uni $Lt_3_258;
GPGPU-Sim PTX:    immediate post dominator      @  PC=0x3750 (_1.ptx:2238) bar.sync 0;
GPGPU-Sim PTX: 41 (potential) branch divergence @  PC=0x35a0 (_1.ptx:2170) bra.uni $Lt_3_258;
GPGPU-Sim PTX:    immediate post dominator      @  PC=0x3750 (_1.ptx:2238) bar.sync 0;
GPGPU-Sim PTX: 42 (potential) branch divergence @  PC=0x35d8 (_1.ptx:2178) bra.uni $Lt_3_258;
GPGPU-Sim PTX:    immediate post dominator      @  PC=0x3750 (_1.ptx:2238) bar.sync 0;
GPGPU-Sim PTX: 43 (potential) branch divergence @  PC=0x3610 (_1.ptx:2186) bra.uni $Lt_3_258;
GPGPU-Sim PTX:    immediate post dominator      @  PC=0x3750 (_1.ptx:2238) bar.sync 0;
GPGPU-Sim PTX: 44 (potential) branch divergence @  PC=0x3640 (_1.ptx:2193) bra.uni $Lt_3_258;
GPGPU-Sim PTX:    immediate post dominator      @  PC=0x3750 (_1.ptx:2238) bar.sync 0;
GPGPU-Sim PTX: 45 (potential) branch divergence @  PC=0x3670 (_1.ptx:2200) bra.uni $Lt_3_258;
GPGPU-Sim PTX:    immediate post dominator      @  PC=0x3750 (_1.ptx:2238) bar.sync 0;
GPGPU-Sim PTX: 46 (potential) branch divergence @  PC=0x3698 (_1.ptx:2206) bra.uni $Lt_3_258;
GPGPU-Sim PTX:    immediate post dominator      @  PC=0x3750 (_1.ptx:2238) bar.sync 0;
GPGPU-Sim PTX: 47 (potential) branch divergence @  PC=0x36c0 (_1.ptx:2212) bra.uni $Lt_3_258;
GPGPU-Sim PTX:    immediate post dominator      @  PC=0x3750 (_1.ptx:2238) bar.sync 0;
GPGPU-Sim PTX: 48 (potential) branch divergence @  PC=0x36e0 (_1.ptx:2217) bra.uni $Lt_3_258;
GPGPU-Sim PTX:    immediate post dominator      @  PC=0x3750 (_1.ptx:2238) bar.sync 0;
GPGPU-Sim PTX: 49 (potential) branch divergence @  PC=0x3700 (_1.ptx:2222) bra.uni $Lt_3_258;
GPGPU-Sim PTX:    immediate post dominator      @  PC=0x3750 (_1.ptx:2238) bar.sync 0;
GPGPU-Sim PTX: 50 (potential) branch divergence @  PC=0x3718 (_1.ptx:2226) bra.uni $Lt_3_258;
GPGPU-Sim PTX:    immediate post dominator      @  PC=0x3750 (_1.ptx:2238) bar.sync 0;
GPGPU-Sim PTX: 51 (potential) branch divergence @  PC=0x3730 (_1.ptx:2230) bra.uni $Lt_3_258;
GPGPU-Sim PTX:    immediate post dominator      @  PC=0x3750 (_1.ptx:2238) bar.sync 0;
GPGPU-Sim PTX: 52 (potential) branch divergence @  PC=0x3740 (_1.ptx:2233) bra.uni $Lt_3_258;
GPGPU-Sim PTX:    immediate post dominator      @  PC=0x3750 (_1.ptx:2238) bar.sync 0;
GPGPU-Sim PTX: 53 (potential) branch divergence @  PC=0x3768 (_1.ptx:2242) @%p30 bra $Lt_3_199938;
GPGPU-Sim PTX:    immediate post dominator      @  PC=0x5e18 (_1.ptx:3720) mov.s32 %r369, %r92;
GPGPU-Sim PTX: 54 (potential) branch divergence @  PC=0x3818 (_1.ptx:2267) @%p32 bra $Lt_3_200194;
GPGPU-Sim PTX:    immediate post dominator      @  PC=0x58e8 (_1.ptx:3500) bar.sync 0;
GPGPU-Sim PTX: 55 (potential) branch divergence @  PC=0x3828 (_1.ptx:2269) @%p33 bra $Lt_3_200450;
GPGPU-Sim PTX:    immediate post dominator      @  PC=0x3af0 (_1.ptx:2375) mov.u32 %r116, 0;
GPGPU-Sim PTX: 56 (potential) branch divergence @  PC=0x3848 (_1.ptx:2273) @%p34 bra $Lt_3_200706;
GPGPU-Sim PTX:    immediate post dominator      @  PC=0x3af0 (_1.ptx:2375) mov.u32 %r116, 0;
GPGPU-Sim PTX: 57 (potential) branch divergence @  PC=0x3878 (_1.ptx:2279) @%p35 bra $Lt_3_200706;
GPGPU-Sim PTX:    immediate post dominator      @  PC=0x3af0 (_1.ptx:2375) mov.u32 %r116, 0;
GPGPU-Sim PTX: 58 (potential) branch divergence @  PC=0x38a0 (_1.ptx:2284) @%p36 bra $L_3_128770;
GPGPU-Sim PTX:    immediate post dominator      @  PC=0x3af0 (_1.ptx:2375) mov.u32 %r116, 0;
GPGPU-Sim PTX: 59 (potential) branch divergence @  PC=0x38c0 (_1.ptx:2290) bra.uni $Lt_3_770;
GPGPU-Sim PTX:    immediate post dominator      @  PC=0x3af0 (_1.ptx:2375) mov.u32 %r116, 0;
GPGPU-Sim PTX: 60 (potential) branch divergence @  PC=0x38e8 (_1.ptx:2296) @%p37 bra $Lt_3_142338;
GPGPU-Sim PTX:    immediate post dominator      @  PC=0x3a78 (_1.ptx:2354) setp.lt.f32 %p42, %f7, %f9;
GPGPU-Sim PTX: 61 (potential) branch divergence @  PC=0x3978 (_1.ptx:2316) @%p38 bra $Lt_3_143106;
GPGPU-Sim PTX:    immediate post dominator      @  PC=0x3a78 (_1.ptx:2354) setp.lt.f32 %p42, %f7, %f9;
GPGPU-Sim PTX: 62 (potential) branch divergence @  PC=0x3988 (_1.ptx:2318) bra.uni $Lt_3_1026;
GPGPU-Sim PTX:    immediate post dominator      @  PC=0x3a78 (_1.ptx:2354) setp.lt.f32 %p42, %f7, %f9;
GPGPU-Sim PTX: 63 (potential) branch divergence @  PC=0x3998 (_1.ptx:2321) @%p39 bra $Lt_3_143618;
GPGPU-Sim PTX:    immediate post dominator      @  PC=0x3a78 (_1.ptx:2354) setp.lt.f32 %p42, %f7, %f9;
GPGPU-Sim PTX: 64 (potential) branch divergence @  PC=0x39b0 (_1.ptx:2324) @%p40 bra $Lt_3_144386;
GPGPU-Sim PTX:    immediate post dominator      @  PC=0x3a48 (_1.ptx:2345) mov.s32 %r99, 0;
GPGPU-Sim PTX: 65 (potential) branch divergence @  PC=0x3a30 (_1.ptx:2340) bra.uni $Lt_3_144130;
GPGPU-Sim PTX:    immediate post dominator      @  PC=0x3a48 (_1.ptx:2345) mov.s32 %r99, 0;
GPGPU-Sim PTX: 66 (potential) branch divergence @  PC=0x3a50 (_1.ptx:2346) bra.uni $Lt_3_1026;
GPGPU-Sim PTX:    immediate post dominator      @  PC=0x3a78 (_1.ptx:2354) setp.lt.f32 %p42, %f7, %f9;
GPGPU-Sim PTX: 67 (potential) branch divergence @  PC=0x3a68 (_1.ptx:2350) @%p41 bra $Lt_3_142850;
GPGPU-Sim PTX:    immediate post dominator      @  PC=0x3a78 (_1.ptx:2354) setp.lt.f32 %p42, %f7, %f9;
GPGPU-Sim PTX: 68 (potential) branch divergence @  PC=0x3a80 (_1.ptx:2355) @!%p42 bra $Lt_3_145154;
GPGPU-Sim PTX:    immediate post dominator      @  PC=0x3aa8 (_1.ptx:2362) setp.gt.f32 %p43, %f5, %f27;
GPGPU-Sim PTX: 69 (potential) branch divergence @  PC=0x3a98 (_1.ptx:2358) bra.uni $Lt_3_144898;
GPGPU-Sim PTX:    immediate post dominator      @  PC=0x3aa8 (_1.ptx:2362) setp.gt.f32 %p43, %f5, %f27;
GPGPU-Sim PTX: 70 (potential) branch divergence @  PC=0x3ab0 (_1.ptx:2363) @!%p43 bra $Lt_3_145666;
GPGPU-Sim PTX:    immediate post dominator      @  PC=0x3af0 (_1.ptx:2375) mov.u32 %r116, 0;
GPGPU-Sim PTX: 71 (potential) branch divergence @  PC=0x3ac8 (_1.ptx:2366) bra.uni $Lt_3_770;
GPGPU-Sim PTX:    immediate post dominator      @  PC=0x3af0 (_1.ptx:2375) mov.u32 %r116, 0;
GPGPU-Sim PTX: 72 (potential) branch divergence @  PC=0x3ad8 (_1.ptx:2369) bra.uni $Lt_3_770;
GPGPU-Sim PTX:    immediate post dominator      @  PC=0x3af0 (_1.ptx:2375) mov.u32 %r116, 0;
GPGPU-Sim PTX: 73 (potential) branch divergence @  PC=0x3b00 (_1.ptx:2377) @%p44 bra $Lt_3_212994;
[...]
traffic_breakdown_coretomem[INST_ACC_R] = 3897824 {8:487228,}
traffic_breakdown_memtocore[CONST_ACC_R] = 2160 {72:30,}
traffic_breakdown_memtocore[GLOBAL_ACC_R] = 580123504 {136:4265614,}
traffic_breakdown_memtocore[GLOBAL_ACC_W] = 2479048 {8:309881,}
traffic_breakdown_memtocore[INST_ACC_R] = 66263008 {136:487228,}
maxmrqlatency = 717 
maxdqlatency = 0 
maxmflatency = 2214 
averagemflatency = 319 
max_icnt2mem_latency = 2280 
max_icnt2sh_latency = 7732828 
mrq_lat_table:2252602 	48139 	78168 	177689 	309559 	209807 	103074 	24478 	2302 	37 	0 	0 	0 	0 	0 	0 	0 	0 	0 	0 	0 	0 	0 	0 	0 	0 	0 	0 	0 	0 	0 	0 	
dq_lat_table:0 	0 	0 	0 	0 	0 	0 	0 	0 	0 	0 	0 	0 	0 	0 	0 	0 	0 	0 	0 	0 	0 	0 	0 	0 	0 	0 	0 	0 	0 	0 	0 	
mf_lat_table:0 	0 	0 	0 	0 	0 	0 	1157991 	3161854 	251803 	3870 	7 	0 	0 	0 	0 	0 	0 	0 	0 	0 	0 	0 	0 	0 	0 	0 	0 	0 	0 	0 	0 	
icnt2mem_lat_table:0 	0 	0 	3423317 	916938 	348578 	162568 	150160 	55893 	5025 	273 	1 	0 	0 	0 	0 	0 	0 	0 	0 	0 	0 	0 	0 	
icnt2sh_lat_table:0 	0 	0 	635459 	2125950 	1412272 	91874 	89 	0 	0 	0 	0 	0 	0 	0 	0 	120 	16883 	23114 	22660 	45871 	116903 	84330 	0 	
mf_lat_pw_table:0 	0 	0 	0 	0 	0 	0 	1540 	13163 	61 	5 	0 	0 	0 	0 	0 	0 	0 	0 	0 	0 	0 	0 	0 	0 	0 	0 	0 	0 	0 	0 	0 	
maximum concurrent accesses to same row:
dram[0]:        51        96        98        94        96       100        56        48        35        37        36        49        56        70        72        96 
dram[1]:        96        96        98        96       102       102        54        52        34        37        66        73        66        66        87        96 
dram[2]:        96        73        72        98       101        99        43        47        33        42        57        47        65        60        95        68 
dram[3]:        96        48        93        96        96        96        50        42        29        41        65        46        68        69        96        96 
dram[4]:        86        90        97        94        95        93        48        54        35        38        68        31        66        69        70        96 
dram[5]:        94        96        96        96       102        97        50        60        37        41        71        59        80        70        87        96 
maximum service time to same row:
dram[0]:     85389     81634     85428     81351     84076     81611     85445     81290     84082     81300    102379    100690     84174     82570     84114     81935 
dram[1]:    118687     72028    111189     38738    118885     47871    118591     38784    118599     46802    118673     72141    118882     49142    181976     38759 
dram[2]:     81577     84159     81865     84100     81600     84094     81286     84132     81303     84121     82816     47012     81600     45790     81320     84125 
dram[3]:     72235    118938     49187    119541     38734    118896     57277    119990     38754    118607     48826    146244     38760    118675     47737    118631 
dram[4]:     84115     81606     85267     81602     85688     81351     84057     82569    102385     81847     84432    126910     84132     81659     85378     81364 
dram[5]:    118713     38766    118910     72080    119544     38739    118578     84240    118603     38750    118650     46804    125251     72238    118644     72051 
average row accesses per activate:
dram[0]:  1.100268  1.105350  1.095695  1.099976  1.106706  1.107704  1.097631  1.097973  1.091577  1.083737  1.093910  1.088153  1.107024  1.117468  1.102587  1.103781 
dram[1]:  1.113658  1.105342  1.113144  1.088790  1.115062  1.095778  1.113652  1.090264  1.121406  1.071935  1.104280  1.073418  1.131042  1.090912  1.122759  1.096465 
dram[2]:  1.092083  1.107332  1.101318  1.100745  1.106118  1.104722  1.089169  1.088486  1.097683  1.073808  1.103849  1.091528  1.109953  1.106172  1.113513  1.124222 
dram[3]:  1.099056  1.111223  1.099152  1.122029  1.092871  1.126190  1.081658  1.101532  1.083661  1.089028  1.084156  1.108887  1.088214  1.124611  1.090308  1.126639 
dram[4]:  1.098009  1.092212  1.095092  1.099279  1.094909  1.107316  1.093170  1.091128  1.093518  1.089319  1.093080  1.093678  1.099169  1.107429  1.097371  1.106813 
dram[5]:  1.113087  1.084509  1.107646  1.096130  1.120330  1.100817  1.112038  1.091309  1.100694  1.078321  1.113740  1.089844  1.126448  1.101546  1.116359  1.105222 
average row locality = 3205855/2914499 = 1.099968
number of total memory accesses made:
dram[0]:         0         0         0         0         0         0         0         0         0         0         0         0         0         0         0         0 
dram[1]:         0         0         0         0         0         0         0         0         0         0         0         0         0         0         0         0 
dram[2]:         0         0         0         0         0         0         0         0         0         0         0         0         0         0         0         0 
dram[3]:         0         0         0         0         0         0         0         0         0         0         0         0         0         0         0         0 
dram[4]:         0         0         0         0         0         0         0         0         0         0         0         0         0         0         0         0 
dram[5]:         0         0         0         0         0         0         0         0         0         0         0         0         0         0         0         0 
total accesses: 0
min_bank_accesses = 0!
min_chip_accesses = 0!
number of total read accesses:
dram[0]:     36751     27679     35284     29444     36816     29374     33891     27556     36062     29590     33547     29646     36109     29319     35154     27401 
dram[1]:     25880     29535     26832     36124     26407     35027     23984     32189     22016     35543     24737     34140     25171     35585     24686     30826 
dram[2]:     29753     32783     29514     34849     30241     36933     27616     36855     25963     41050     27025     35789     30114     36714     26358     30424 
dram[3]:     31294     27400     32408     25889     36813     25298     33220     26180     30446     28683     31750     24160     37176     27726     32569     25142 
dram[4]:     36801     31166     38877     30873     41003     29569     34467     28738     37286     30128     35819     26938     43599     30222     37733     27973 
dram[5]:     27894     37143     27581     33375     27104     33446     24694     29575     26772     34224     24111     28023     28453     34378     25321     29123 
total reads: 2982849
bank skew: 43599/22016 = 1.98
chip skew: 541192/468682 = 1.15
number of total write accesses:
dram[0]:      2292      2444      2363      2408      2627      2632      2063      2120      1962      1989      2039      2078      2773      2930      2388      2347 
dram[1]:      2398      2206      2427      2319      2569      2476      2169      1921      2129      1815      2150      1856      2932      2586      2560      2205 
dram[2]:      2304      2284      2498      2387      2645      2510      1968      2017      2085      1912      2259      2051      2886      2804      2443      2437 
dram[3]:      2136      2493      2312      2532      2538      2627      1909      2158      1807      2106      1964      2155      2608      2959      2214      2615 
dram[4]:      2399      2283      2397      2522      2570      2593      1976      2082      2003      2130      2030      2144      2831      2827      2253      2388 
dram[5]:      2530      2229      2434      2372      2615      2532      2115      1918      2086      1848      2112      1830      2958      2667      2358      2178 
total reads: 223006
bank skew: 2959/1807 = 1.64
chip skew: 37490/36718 = 1.02
average mf latency per bank:
dram[0]:        465       426       458       418       469       430       483       421       465       415       461       421       558       638       475       430
dram[1]:        418       427       411       413       418       419       413       419       404       411       398       418       485       589       416       427
dram[2]:        412       452       400       447       411       458       406       463       398       462       399       457       480       545       410       462
dram[3]:        429       423       422       437       424       426       419       417       416       418       416       418       519       514       422       431
dram[4]:        529       419       535       424       532       421       528       415       529       410       528       406       717       499       554       423
dram[5]:        424       423       432       436       431       424       426       430       414       419       414       424       601       510       438       444
maximum mf latency per bank:
dram[0]:       1950       920      1833       928      2139       877      2174      1172      1894      1341      1955      1050      1856       976      1859      1044
dram[1]:        972       884       845       837       884       970       922       960      1078      1053       939       910       815       881       937       973
dram[2]:        994      1831       984      1936       957      2214       989      1964      1008      1911      1346      1903       975      2178       952      1983
dram[3]:       1114       871      1056      1009      1013      1034       908       962      1037       912       893       956       945       905      1046       988
dram[4]:       1931      1000      1925       905      1983      1291      1943       964      1977       966      1813       952      1909      1139      2060      1335
dram[5]:       1001       989       996       913      1028      1025       947      1119      1344       976       987      1032      1018      1137       954       851

Number of Memory Banks Accessed per Memory Operation per Warp (from 0):
0	0	0	0	0	0	0	0	0	0	0	0	0	0	0	0	0	0	0	0	0	0	0	0	0	0	0	0	0	0	0	0	0	0	0	0	0	0	0	0	0	0	0	0	0	0	0	0	0	0	0	0	0	0	0	0	0	0	0	0	0	0	0	0	0	0	0	0	0	0	0	0	0	0	0	0	0	0	0	0	0	0	0	0	0	0	0	0	0	0	0	0	0	0	0	0	
Average # of Memory Banks Accessed per Memory Operation per Warp=-nan

position of mrq chosen
0	0	0	0	0	0	0	0	0	0	0	0	0	0	0	0	

average position of mrq chosen = -nan
Memory Partition 0: 
Cache L2_bank_000:
MSHR contents

Cache L2_bank_001:
MSHR contents

In Dram Latency Queue (total = 0): 
DRAM[0]: 16 bks, busW=4 BL=8 CL=12, tRRD=2 tCCD=6, tRCD=12 tRAS=28 tRP=12 tRC=40
n_cmd=10207333 n_nop=8132339 n_act=501012 n_pre=500996 n_req=551078 n_rd=1027246 n_write=45740 bw_util=0.2102
n_activity=6861969 dram_eff=0.3127
bk0: 73502a 8819283i bk1: 55358a 9113491i bk2: 70568a 8861113i bk3: 58888a 9055901i bk4: 73632a 8794440i bk5: 58748a 9037208i bk6: 67782a 8907765i bk7: 55112a 9114336i bk8: 72124a 8847394i bk9: 59180a 9044612i bk10: 67094a 8920368i bk11: 59292a 9036830i bk12: 72218a 8809003i bk13: 58638a 9030963i bk14: 70308a 8853972i bk15: 54802a 9110792i 
dram_util_bins: 0 0 0 0 0 0 0 0 0 0
dram_eff_bins: 0 0 0 0 0 0 0 0 0 0
mrqq: max=16 avg=0.733564
Memory Partition 1: 
Cache L2_bank_002:
MSHR contents

Cache L2_bank_003:
MSHR contents

In Dram Latency Queue (total = 0): 
DRAM[1]: 16 bks, busW=4 BL=8 CL=12, tRRD=2 tCCD=6, tRCD=12 tRAS=28 tRP=12 tRC=40
n_cmd=10207333 n_nop=8306523 n_act=459175 n_pre=459159 n_req=505400 n_rd=937364 n_write=45112 bw_util=0.1925
n_activity=6742585 dram_eff=0.2914
bk0: 51760a 9222090i bk1: 59070a 9116153i bk2: 53664a 9196063i bk3: 72248a 8866965i bk4: 52814a 9186442i bk5: 70054a 8893902i bk6: 47968a 9279619i bk7: 64378a 9009533i bk8: 44032a 9368912i bk9: 71086a 8890015i bk10: 49474a 9255546i bk11: 68280a 8926771i bk12: 50342a 9224229i bk13: 71170a 8868146i bk14: 49372a 9247257i bk15: 61652a 9044427i 
dram_util_bins: 0 0 0 0 0 0 0 0 0 0
dram_eff_bins: 0 0 0 0 0 0 0 0 0 0
mrqq: max=16 avg=0.572511
Memory Partition 2: 
Cache L2_bank_004:
MSHR contents

Cache L2_bank_005:
MSHR contents

In Dram Latency Queue (total = 0): 
DRAM[2]: 16 bks, busW=4 BL=8 CL=12, tRRD=2 tCCD=6, tRCD=12 tRAS=28 tRP=12 tRC=40
n_cmd=10207333 n_nop=8138321 n_act=499534 n_pre=499518 n_req=549471 n_rd=1023962 n_write=45998 bw_util=0.2096
n_activity=6868390 dram_eff=0.3116
bk0: 59506a 9049333i bk1: 65566a 8974435i bk2: 59028a 9067807i bk3: 69698a 8896592i bk4: 60482a 9027463i bk5: 73866a 8798752i bk6: 55232a 9132276i bk7: 73710a 8799109i bk8: 51926a 9190069i bk9: 82100a 8644966i bk10: 54050a 9140750i bk11: 71578a 8836647i bk12: 60228a 9006039i bk13: 73428a 8775385i bk14: 52716a 9158627i bk15: 60848a 9044971i 
dram_util_bins: 0 0 0 0 0 0 0 0 0 0
dram_eff_bins: 0 0 0 0 0 0 0 0 0 0
mrqq: max=16 avg=0.714017
Memory Partition 3: 
Cache L2_bank_006:
MSHR contents

Cache L2_bank_007:
MSHR contents

In Dram Latency Queue (total = 0): 
DRAM[3]: 16 bks, busW=4 BL=8 CL=12, tRRD=2 tCCD=6, tRCD=12 tRAS=28 tRP=12 tRC=40
n_cmd=10207333 n_nop=8276373 n_act=466488 n_pre=466472 n_req=513287 n_rd=952308 n_write=45692 bw_util=0.1955
n_activity=6741114 dram_eff=0.2961
bk0: 62588a 9042330i bk1: 54800a 9153010i bk2: 64816a 8996423i bk3: 51778a 9209653i bk4: 73626a 8822300i bk5: 50596a 9211064i bk6: 66440a 8963155i bk7: 52360a 9183502i bk8: 60892a 9075610i bk9: 57366a 9095667i bk10: 63500a 9014650i bk11: 48320a 9269761i bk12: 74352a 8783492i bk13: 55452a 9106320i bk14: 65138a 8975100i bk15: 50284a 9222022i 
dram_util_bins: 0 0 0 0 0 0 0 0 0 0
dram_eff_bins: 0 0 0 0 0 0 0 0 0 0
mrqq: max=16 avg=0.612963
Memory Partition 4: 
Cache L2_bank_008:
MSHR contents

Cache L2_bank_009:
MSHR contents

In Dram Latency Queue (total = 0): 
DRAM[4]: 16 bks, busW=4 BL=8 CL=12, tRRD=2 tCCD=6, tRCD=12 tRAS=28 tRP=12 tRC=40
n_cmd=10207333 n_nop=8024014 n_act=527531 n_pre=527515 n_req=578620 n_rd=1082384 n_write=45889 bw_util=0.2211
n_activity=6888275 dram_eff=0.3276
bk0: 73602a 8759475i bk1: 62332a 8969187i bk2: 77754a 8672278i bk3: 61746a 8961172i bk4: 82006a 8585190i bk5: 59138a 8996590i bk6: 68934a 8839737i bk7: 57476a 9053788i bk8: 74572a 8752267i bk9: 60256a 8995928i bk10: 71638a 8799753i bk11: 53876a 9119431i bk12: 87198a 8474009i bk13: 60444a 8971486i bk14: 75466a 8703186i bk15: 55946a 9073405i 
dram_util_bins: 0 0 0 0 0 0 0 0 0 0
dram_eff_bins: 0 0 0 0 0 0 0 0 0 0
mrqq: max=16 avg=0.898985
Memory Partition 5: 
Cache L2_bank_010:
MSHR contents

Cache L2_bank_011:
MSHR contents

In Dram Latency Queue (total = 0): 
DRAM[5]: 16 bks, busW=4 BL=8 CL=12, tRRD=2 tCCD=6, tRCD=12 tRAS=28 tRP=12 tRC=40
n_cmd=10207333 n_nop=8298454 n_act=460760 n_pre=460744 n_req=507999 n_rd=942434 n_write=44941 bw_util=0.1935
n_activity=6695009 dram_eff=0.295
bk0: 55788a 9140860i bk1: 74286a 8817059i bk2: 55162a 9132604i bk3: 66750a 8948773i bk4: 54208a 9145896i bk5: 66892a 8932803i bk6: 49388a 9244221i bk7: 59150a 9092644i bk8: 53544a 9179194i bk9: 68448a 8942549i bk10: 48222a 9268627i bk11: 56046a 9158098i bk12: 56906a 9107720i bk13: 68756a 8910915i bk14: 50642a 9220250i bk15: 58246a 9123288i 
dram_util_bins: 0 0 0 0 0 0 0 0 0 0
dram_eff_bins: 0 0 0 0 0 0 0 0 0 0
mrqq: max=16 avg=0.602158

========= L2 cache stats =========
L2_cache_bank[0]: Access = 497622, Miss = 283614, Miss_rate = 0.570, Pending_hits = 18419, Reservation_fails = 101517
L2_cache_bank[1]: Access = 427783, Miss = 230009, Miss_rate = 0.538, Pending_hits = 11722, Reservation_fails = 53667
L2_cache_bank[2]: Access = 350784, Miss = 199713, Miss_rate = 0.569, Pending_hits = 12351, Reservation_fails = 33598
L2_cache_bank[3]: Access = 424410, Miss = 268969, Miss_rate = 0.634, Pending_hits = 11758, Reservation_fails = 61259
L2_cache_bank[4]: Access = 372259, Miss = 226584, Miss_rate = 0.609, Pending_hits = 11365, Reservation_fails = 37144
L2_cache_bank[5]: Access = 469135, Miss = 285397, Miss_rate = 0.608, Pending_hits = 18862, Reservation_fails = 104194
L2_cache_bank[6]: Access = 442254, Miss = 265676, Miss_rate = 0.601, Pending_hits = 11336, Reservation_fails = 54668
L2_cache_bank[7]: Access = 374704, Miss = 210478, Miss_rate = 0.562, Pending_hits = 12611, Reservation_fails = 41220
L2_cache_bank[8]: Access = 501521, Miss = 305585, Miss_rate = 0.609, Pending_hits = 20324, Reservation_fails = 203706
L2_cache_bank[9]: Access = 389911, Miss = 235607, Miss_rate = 0.604, Pending_hits = 11816, Reservation_fails = 61162
L2_cache_bank[10]: Access = 363495, Miss = 211930, Miss_rate = 0.583, Pending_hits = 12888, Reservation_fails = 68558
L2_cache_bank[11]: Access = 448875, Miss = 259287, Miss_rate = 0.578, Pending_hits = 12149, Reservation_fails = 50411
L2_total_cache_accesses = 5062753
L2_total_cache_misses = 2982849
L2_total_cache_miss_rate = 0.5892
L2_total_cache_pending_hits = 165601
L2_total_cache_reservation_fails = 871104
L2_total_cache_breakdown:
	L2_cache_stats_breakdown[GLOBAL_ACC_R][HIT] = 1302128
	L2_cache_stats_breakdown[GLOBAL_ACC_R][HIT_RESERVED] = 57795
	L2_cache_stats_breakdown[GLOBAL_ACC_R][MISS] = 2905691
	L2_cache_stats_breakdown[GLOBAL_ACC_R][RESERVATION_FAIL] = 864177
	L2_cache_stats_breakdown[CONST_ACC_R][HIT] = 22
	L2_cache_stats_breakdown[CONST_ACC_R][HIT_RESERVED] = 6
	L2_cache_stats_breakdown[CONST_ACC_R][MISS] = 2
	L2_cache_stats_breakdown[CONST_ACC_R][RESERVATION_FAIL] = 209
	L2_cache_stats_breakdown[GLOBAL_ACC_W][HIT] = 131328
	L2_cache_stats_breakdown[GLOBAL_ACC_W][HIT_RESERVED] = 106586
	L2_cache_stats_breakdown[GLOBAL_ACC_W][MISS] = 71967
	L2_cache_stats_breakdown[GLOBAL_ACC_W][RESERVATION_FAIL] = 1979
	L2_cache_stats_breakdown[INST_ACC_R][HIT] = 480825
	L2_cache_stats_breakdown[INST_ACC_R][HIT_RESERVED] = 1214
	L2_cache_stats_breakdown[INST_ACC_R][MISS] = 5189
	L2_cache_stats_breakdown[INST_ACC_R][RESERVATION_FAIL] = 4739
L2_cache_data_port_util = 0.080
L2_cache_fill_port_util = 0.129

icnt_total_pkts_mem_to_simt=24074181
icnt_total_pkts_simt_to_mem=5400486
LD_mem_lat_dist  0 0 0 0 0 0 0 0 0 0 0 0 0 0 0 0 0 0 0 0 0 0 0 0 0 0 0
ST_mem_lat_dist  0 0 0 0 0 0 0 0 0 0 0 0 0 0 0 0 0 0 0 0 0 0 0 0 0 0 0
----------------------------Interconnect-DETAILS--------------------------------
Class 0:
Packet latency average = 21.1963
	minimum = 6
	maximum = 1419
Network latency average = 16.8485
	minimum = 6
	maximum = 940
Slowest packet = 540582
Flit latency average = 14.7996
	minimum = 6
	maximum = 940
Slowest flit = 1578163
Fragmentation average = 0.00274439
	minimum = 0
	maximum = 472
Injected packet rate average = 0.0474419
	minimum = 0.0394079 (at node 12)
	maximum = 0.0639779 (at node 23)
Accepted packet rate average = 0.0474419
	minimum = 0.0394079 (at node 12)
	maximum = 0.0639779 (at node 23)
Injected flit rate average = 0.13788
	minimum = 0.0423296 (at node 12)
	maximum = 0.306729 (at node 23)
Accepted flit rate average= 0.13788
	minimum = 0.0478523 (at node 17)
	maximum = 0.236626 (at node 13)
Injected packet length average = 2.90629
Accepted packet length average = 2.90629
Total in-flight flits = 0 (0 measured)
====== Overall Traffic Statistics ======
====== Traffic class 0 ======
Packet latency average = 23.4599 (2 samples)
	minimum = 6 (2 samples)
	maximum = 901.5 (2 samples)
Network latency average = 18.7934 (2 samples)
	minimum = 6 (2 samples)
	maximum = 659 (2 samples)
Flit latency average = 15.5713 (2 samples)
	minimum = 6 (2 samples)
	maximum = 659 (2 samples)
Fragmentation average = 0.00170038 (2 samples)
	minimum = 0 (2 samples)
	maximum = 303 (2 samples)
Injected packet rate average = 0.0656468 (2 samples)
	minimum = 0.0519709 (2 samples)
	maximum = 0.0800022 (2 samples)
Accepted packet rate average = 0.0656468 (2 samples)
	minimum = 0.0519709 (2 samples)
	maximum = 0.0800022 (2 samples)
Injected flit rate average = 0.194673 (2 samples)
	minimum = 0.0535076 (2 samples)
	maximum = 0.393217 (2 samples)
Accepted flit rate average = 0.194673 (2 samples)
	minimum = 0.0705939 (2 samples)
	maximum = 0.347015 (2 samples)
Injected packet size average = 2.96546 (2 samples)
Accepted packet size average = 2.96546 (2 samples)
Hops average = 1 (2 samples)
