

        *** GPGPU-Sim Simulator Version 3.2.2  [build 0] ***


GPGPU-Sim PTX: simulation mode 0 (can change with PTX_SIM_MODE_FUNC environment variable:
               1=functional simulation only, 0=detailed performance simulator)
GPGPU-Sim: Configuration options:

-network_mode                           1 # Interconnection network mode
-inter_config_file   config_fermi_islip.icnt # Interconnection network config file
-gpgpu_ptx_use_cuobjdump                    1 # Use cuobjdump to extract ptx and sass from binaries
-gpgpu_experimental_lib_support                    0 # Try to extract code from cuda libraries [Broken because of unknown cudaGetExportTable]
-gpgpu_ptx_convert_to_ptxplus                    0 # Convert SASS (native ISA) to ptxplus and run ptxplus
-gpgpu_ptx_force_max_capability                   20 # Force maximum compute capability
-gpgpu_ptx_inst_debug_to_file                    0 # Dump executed instructions' debug information to file
-gpgpu_ptx_inst_debug_file       inst_debug.txt # Executed instructions' debug output file
-gpgpu_ptx_inst_debug_thread_uid                    1 # Thread UID for executed instructions' debug output
-gpgpu_simd_model                       1 # 1 = post-dominator
-gpgpu_shader_core_pipeline              1536:32 # shader core pipeline config, i.e., {<nthread>:<warpsize>}
-gpgpu_tex_cache:l1  4:128:24,L:R:m:N:L,F:128:4,128:2 # per-shader L1 texture cache  (READ-ONLY) config  {<nsets>:<bsize>:<assoc>,<rep>:<wr>:<alloc>:<wr_alloc>,<mshr>:<N>:<merge>,<mq>:<rf>}
-gpgpu_const_cache:l1 64:64:2,L:R:f:N:L,A:2:32,4 # per-shader L1 constant memory cache  (READ-ONLY) config  {<nsets>:<bsize>:<assoc>,<rep>:<wr>:<alloc>:<wr_alloc>,<mshr>:<N>:<merge>,<mq>} 
-gpgpu_cache:il1     4:128:4,L:R:f:N:L,A:2:32,4 # shader L1 instruction cache config  {<nsets>:<bsize>:<assoc>,<rep>:<wr>:<alloc>:<wr_alloc>,<mshr>:<N>:<merge>,<mq>} 
-gpgpu_cache:dl1     32:128:4,L:L:m:N:H,A:32:8,8:2,0,1:0:1:1:0:1,1:4:8:16:32:64,/sciclone/data10/hwang07/GPU_RESEARCH/swl/swl_outputs/RESULTS/swl2/ # per-shader L1 data cache config  {<nsets>:<bsize>:<assoc>,<rep>:<wr>:<alloc>:<wr_alloc>,<mshr>:<N>:<merge>,<mq> | none}
-gpgpu_cache:dl1PrefL1                 none # per-shader L1 data cache config  {<nsets>:<bsize>:<assoc>,<rep>:<wr>:<alloc>:<wr_alloc>,<mshr>:<N>:<merge>,<mq> | none}
-gpgpu_cache:dl1PreShared                 none # per-shader L1 data cache config  {<nsets>:<bsize>:<assoc>,<rep>:<wr>:<alloc>:<wr_alloc>,<mshr>:<N>:<merge>,<mq> | none}
-gmem_skip_L1D                          0 # global memory access skip L1D cache (implements -Xptxas -dlcm=cg, default=no skip)
-gpgpu_perfect_mem                      0 # enable perfect memory mode (no cache miss)
-n_regfile_gating_group                    4 # group of lanes that should be read/written together)
-gpgpu_clock_gated_reg_file                    0 # enable clock gated reg file for power calculations
-gpgpu_clock_gated_lanes                    0 # enable clock gated lanes for power calculations
-gpgpu_shader_registers                32768 # Number of registers per shader core. Limits number of concurrent CTAs. (default 8192)
-gpgpu_shader_cta                       8 # Maximum number of concurrent CTAs in shader (default 8)
-gpgpu_num_cta_barriers                   16 # Maximum number of named barriers per CTA (default 16)
-gpgpu_n_clusters                      15 # number of processing clusters
-gpgpu_n_cores_per_cluster                    1 # number of simd cores per cluster
-gpgpu_n_cluster_ejection_buffer_size                    8 # number of packets in ejection buffer
-gpgpu_n_ldst_response_buffer_size                    2 # number of response packets in ld/st unit ejection buffer
-gpgpu_shmem_size                   16384 # Size of shared memory per shader core (default 16kB)
-gpgpu_shmem_size                   49152 # Size of shared memory per shader core (default 16kB)
-gpgpu_shmem_size_PrefL1                16384 # Size of shared memory per shader core (default 16kB)
-gpgpu_shmem_size_PrefShared                16384 # Size of shared memory per shader core (default 16kB)
-gpgpu_shmem_num_banks                   32 # Number of banks in the shared memory in each shader core (default 16)
-gpgpu_shmem_limited_broadcast                    0 # Limit shared memory to do one broadcast per cycle (default on)
-gpgpu_shmem_warp_parts                    1 # Number of portions a warp is divided into for shared memory bank conflict check 
-gpgpu_warpdistro_shader                   -1 # Specify which shader core to collect the warp size distribution from
-gpgpu_warp_issue_shader                    0 # Specify which shader core to collect the warp issue distribution from
-gpgpu_local_mem_map                    1 # Mapping from local memory space address to simulated GPU physical address space (default = enabled)
-gpgpu_num_reg_banks                   16 # Number of register banks (default = 8)
-gpgpu_reg_bank_use_warp_id                    0 # Use warp ID in mapping registers to banks (default = off)
-gpgpu_operand_collector_num_units_sp                    6 # number of collector units (default = 4)
-gpgpu_operand_collector_num_units_sfu                    8 # number of collector units (default = 4)
-gpgpu_operand_collector_num_units_mem                    2 # number of collector units (default = 2)
-gpgpu_operand_collector_num_units_gen                    0 # number of collector units (default = 0)
-gpgpu_operand_collector_num_in_ports_sp                    2 # number of collector unit in ports (default = 1)
-gpgpu_operand_collector_num_in_ports_sfu                    1 # number of collector unit in ports (default = 1)
-gpgpu_operand_collector_num_in_ports_mem                    1 # number of collector unit in ports (default = 1)
-gpgpu_operand_collector_num_in_ports_gen                    0 # number of collector unit in ports (default = 0)
-gpgpu_operand_collector_num_out_ports_sp                    2 # number of collector unit in ports (default = 1)
-gpgpu_operand_collector_num_out_ports_sfu                    1 # number of collector unit in ports (default = 1)
-gpgpu_operand_collector_num_out_ports_mem                    1 # number of collector unit in ports (default = 1)
-gpgpu_operand_collector_num_out_ports_gen                    0 # number of collector unit in ports (default = 0)
-gpgpu_coalesce_arch                   13 # Coalescing arch (default = 13, anything else is off for now)
-gpgpu_num_sched_per_core                    2 # Number of warp schedulers per core
-gpgpu_max_insn_issue_per_warp                    1 # Max number of instructions that can be issued per warp in one cycle by scheduler
-gpgpu_simt_core_sim_order                    1 # Select the simulation order of cores in a cluster (0=Fix, 1=Round-Robin)
-gpgpu_pipeline_widths        2,1,1,2,1,1,2 # Pipeline widths ID_OC_SP,ID_OC_SFU,ID_OC_MEM,OC_EX_SP,OC_EX_SFU,OC_EX_MEM,EX_WB
-gpgpu_num_sp_units                     2 # Number of SP units (default=1)
-gpgpu_num_sfu_units                    1 # Number of SF units (default=1)
-gpgpu_num_mem_units                    1 # Number if ldst units (default=1) WARNING: not hooked up to anything
-gpgpu_scheduler        warp_limiting:2:2 # Scheduler configuration: < lrr | gto | two_level_active > If two_level_active:<num_active_warps>:<inner_prioritization>:<outer_prioritization>For complete list of prioritization values see shader.h enum scheduler_prioritization_typeDefault: gto
-gpgpu_dram_scheduler                    1 # 0 = fifo, 1 = FR-FCFS (defaul)
-gpgpu_dram_partition_queues              8:8:8:8 # i2$:$2d:d2$:$2i
-l2_ideal                               0 # Use a ideal L2 cache that always hit
-gpgpu_cache:dl2     64:128:8,L:B:m:W:L,A:32:4,4:0,32 # unified banked L2 data cache config  {<nsets>:<bsize>:<assoc>,<rep>:<wr>:<alloc>:<wr_alloc>,<mshr>:<N>:<merge>,<mq>}
-gpgpu_cache:dl2_texture_only                    0 # L2 cache used for texture only
-gpgpu_n_mem                            6 # number of memory modules (e.g. memory controllers) in gpu
-gpgpu_n_sub_partition_per_mchannel                    2 # number of memory subpartition in each memory module
-gpgpu_n_mem_per_ctrlr                    2 # number of memory chips per memory controller
-gpgpu_memlatency_stat                   14 # track and display latency statistics 0x2 enables MC, 0x4 enables queue logs
-gpgpu_frfcfs_dram_sched_queue_size                   16 # 0 = unlimited (default); # entries per chip
-gpgpu_dram_return_queue_size                  116 # 0 = unlimited (default); # entries per chip
-gpgpu_dram_buswidth                    4 # default = 4 bytes (8 bytes per cycle at DDR)
-gpgpu_dram_burst_length                    8 # Burst length of each DRAM request (default = 4 data bus cycle)
-dram_data_command_freq_ratio                    4 # Frequency ratio between DRAM data bus and command bus (default = 2 times, i.e. DDR)
-gpgpu_dram_timing_opt nbk=16:CCD=2:RRD=6:RCD=12:RAS=28:RP=12:RC=40: CL=12:WL=4:CDLR=5:WR=12:nbkgrp=4:CCDL=3:RTPL=2 # DRAM timing parameters = {nbk:tCCD:tRRD:tRCD:tRAS:tRP:tRC:CL:WL:tCDLR:tWR:nbkgrp:tCCDL:tRTPL}
-rop_latency                          120 # ROP queue latency (default 85)
-dram_latency                         100 # DRAM latency (default 30)
-gpgpu_mem_addr_mapping dramid@8;00000000.00000000.00000000.00000000.0000RRRR.RRRRRRRR.BBBCCCCB.CCSSSSSS # mapping memory address to dram model {dramid@<start bit>;<memory address map>}
-gpgpu_mem_addr_test                    0 # run sweep test to check address mapping for aliased address
-gpgpu_mem_address_mask                    1 # 0 = old addressing mask, 1 = new addressing mask, 2 = new add. mask + flipped bank sel and chip sel bits
-gpuwattch_xml_file  gpuwattch_gtx480.xml # GPUWattch XML file
-power_simulation_enabled                    0 # Turn on power simulator (1=On, 0=Off)
-power_per_cycle_dump                    0 # Dump detailed power output each cycle
-power_trace_enabled                    0 # produce a file for the power trace (1=On, 0=Off)
-power_trace_zlevel                     6 # Compression level of the power trace output log (0=no comp, 9=highest)
-steady_power_levels_enabled                    0 # produce a file for the steady power levels (1=On, 0=Off)
-steady_state_definition                  8:4 # allowed deviation:number of samples
-gpgpu_max_cycle                        0 # terminates gpu simulation early (0 = no limit)
-gpgpu_max_insn                         0 # terminates gpu simulation early (0 = no limit)
-gpgpu_max_cta                          0 # terminates gpu simulation early (0 = no limit)
-gpgpu_runtime_stat                   500 # display runtime statistics such as dram utilization {<freq>:<flag>}
-liveness_message_freq                    1 # Minimum number of seconds between simulation liveness messages (0 = always print)
-gpgpu_flush_l1_cache                    0 # Flush L1 cache at the end of each kernel call
-gpgpu_flush_l2_cache                    0 # Flush L2 cache at the end of each kernel call
-gpgpu_deadlock_detect                    1 # Stop the simulation at deadlock (1=on (default), 0=off)
-gpgpu_ptx_instruction_classification                    0 # if enabled will classify ptx instruction types per kernel (Max 255 kernels now)
-gpgpu_ptx_sim_mode                     0 # Select between Performance (default) or Functional simulation (1)
-gpgpu_clock_domains 700.0:700.0:700.0:924.0 # Clock Domain Frequencies in MhZ {<Core Clock>:<ICNT Clock>:<L2 Clock>:<DRAM Clock>}
-gpgpu_max_concurrent_kernel                    8 # maximum kernels that can run concurrently on GPU
-gpgpu_cflog_interval                    0 # Interval between each snapshot in control flow logger
-visualizer_enabled                     0 # Turn on visualizer output (1=On, 0=Off)
-visualizer_outputfile                 NULL # Specifies the output log file for visualizer
-visualizer_zlevel                      6 # Compression level of the visualizer output log (0=no comp, 9=highest)
-trace_enabled                          0 # Turn on traces
-trace_components                    none # comma seperated list of traces to enable. Complete list found in trace_streams.tup. Default none
-trace_sampling_core                    0 # The core which is printed using CORE_DPRINTF. Default 0
-trace_sampling_memory_partition                   -1 # The memory partition which is printed using MEMPART_DPRINTF. Default -1 (i.e. all)
-enable_ptx_file_line_stats                    1 # Turn on PTX source line statistic profiling. (1 = On)
-ptx_line_stats_filename gpgpu_inst_stats.txt # Output file for PTX source line statistics.
-save_embedded_ptx                      0 # saves ptx files embedded in binary as <n>.ptx
-keep                                   0 # keep intermediate files created by GPGPU-Sim when interfacing with external programs
-gpgpu_ptx_save_converted_ptxplus                    0 # Saved converted ptxplus to a file
-ptx_opcode_latency_int         4,13,4,5,145 # Opcode latencies for integers <ADD,MAX,MUL,MAD,DIV>Default 1,1,19,25,145
-ptx_opcode_latency_fp          4,13,4,5,39 # Opcode latencies for single precision floating points <ADD,MAX,MUL,MAD,DIV>Default 1,1,1,1,30
-ptx_opcode_latency_dp         8,19,8,8,330 # Opcode latencies for double precision floating points <ADD,MAX,MUL,MAD,DIV>Default 8,8,8,8,335
-ptx_opcode_initiation_int            1,2,2,1,8 # Opcode initiation intervals for integers <ADD,MAX,MUL,MAD,DIV>Default 1,1,4,4,32
-ptx_opcode_initiation_fp            1,2,1,1,4 # Opcode initiation intervals for single precision floating points <ADD,MAX,MUL,MAD,DIV>Default 1,1,1,1,5
-ptx_opcode_initiation_dp         8,16,8,8,130 # Opcode initiation intervals for double precision floating points <ADD,MAX,MUL,MAD,DIV>Default 8,8,8,8,130
DRAM Timing Options:
nbk                                    16 # number of banks
CCD                                     2 # column to column delay
RRD                                     6 # minimal delay between activation of rows in different banks
RCD                                    12 # row to column delay
RAS                                    28 # time needed to activate row
RP                                     12 # time needed to precharge (deactivate) row
RC                                     40 # row cycle time
CDLR                                    5 # switching from write to read (changes tWTR)
WR                                     12 # last data-in to row precharge
CL                                     12 # CAS latency
WL                                      4 # Write latency
nbkgrp                                  4 # number of bank groups
CCDL                                    3 # column to column delay between accesses to different bank groups
RTPL                                    2 # read to precharge delay between accesses to different bank groups
Total number of memory sub partition = 12
addr_dec_mask[CHIP]  = 0000000000000000 	high:64 low:0
addr_dec_mask[BK]    = 000000000000e100 	high:16 low:8
addr_dec_mask[ROW]   = 000000000fff0000 	high:28 low:16
addr_dec_mask[COL]   = 0000000000001eff 	high:13 low:0
addr_dec_mask[BURST] = 000000000000003f 	high:6 low:0
sub_partition_id_mask = 0000000000000100
GPGPU-Sim uArch: clock freqs: 700000000.000000:700000000.000000:700000000.000000:924000000.000000
GPGPU-Sim uArch: clock periods: 0.00000000142857142857:0.00000000142857142857:0.00000000142857142857:0.00000000108225108225
*** Initializing Memory Statistics ***
GPGPU-Sim uArch: interconnect node map (shaderID+MemID to icntID)
GPGPU-Sim uArch: Memory nodes ID start from index: 15
GPGPU-Sim uArch:    0   1   2   3   4
GPGPU-Sim uArch:    5   6   7   8   9
GPGPU-Sim uArch:   10  11  12  13  14
GPGPU-Sim uArch:   15  16  17  18  19
GPGPU-Sim uArch:   20  21  22  23  24
GPGPU-Sim uArch:   25  26
GPGPU-Sim uArch: interconnect node reverse map (icntID to shaderID+MemID)
GPGPU-Sim uArch: Memory nodes start from ID: 15
GPGPU-Sim uArch:    0   1   2   3   4
GPGPU-Sim uArch:    5   6   7   8   9
GPGPU-Sim uArch:   10  11  12  13  14
GPGPU-Sim uArch:   15  16  17  18  19
GPGPU-Sim uArch:   20  21  22  23  24
GPGPU-Sim uArch:   25  26
54328626b7b3e20cd9d3237c822777b1  /sciclone/data10/hwang07/adwait/applications/benchmarks/rodinia/cuda/hotspot/gpgpu_ptx_sim__hotspot
GPGPU-Sim uArch: performance model initialization complete.
GPGPU-Sim PTX: __cudaRegisterFatBinary, fat_cubin_handle = 1, filename=hotspot.cu
self exe links to: /sciclone/data10/hwang07/adwait/applications/benchmarks/rodinia/cuda/hotspot/gpgpu_ptx_sim__hotspot
Running md5sum using "md5sum /sciclone/data10/hwang07/adwait/applications/benchmarks/rodinia/cuda/hotspot/gpgpu_ptx_sim__hotspot "
Parsing file _cuobjdump_complete_output_x3NbJD
######### cuobjdump parser ########
## Adding new section ELF
Adding arch: sm_20
Adding identifier: hotspot.cu
## Adding new section PTX
Adding ptx filename: _cuobjdump_1.ptx
Adding arch: sm_20
Adding identifier: hotspot.cu
Done parsing!!!
GPGPU-Sim PTX: __cudaRegisterFunction _Z14calculate_tempiPfS_S_iiiiffffff : hostFun 0x0x401b60, fat_cubin_handle = 1
GPGPU-Sim PTX: allocating shared region for "__cuda___cuda_local_var_32316_39_non_const_temp_on_cuda72" from 0x0 to 0x400 (shared memory space)
GPGPU-Sim PTX: allocating shared region for "__cuda___cuda_local_var_32317_39_non_const_power_on_cuda1096" from 0x400 to 0x800 (shared memory space)
GPGPU-Sim PTX: allocating shared region for "__cuda___cuda_local_var_32318_39_non_const_temp_t2120" from 0x800 to 0xc00 (shared memory space)
GPGPU-Sim PTX: instruction assembly for function '_Z14calculate_tempiPfS_S_iiiiffffff'...   done.
GPGPU-Sim PTX: finding reconvergence points for '_Z14calculate_tempiPfS_S_iiiiffffff'...
GPGPU-Sim PTX: Finding dominators for '_Z14calculate_tempiPfS_S_iiiiffffff'...
GPGPU-Sim PTX: Finding immediate dominators for '_Z14calculate_tempiPfS_S_iiiiffffff'...
GPGPU-Sim PTX: Finding postdominators for '_Z14calculate_tempiPfS_S_iiiiffffff'...
GPGPU-Sim PTX: Finding immediate postdominators for '_Z14calculate_tempiPfS_S_iiiiffffff'...
GPGPU-Sim PTX: pre-decoding instructions for '_Z14calculate_tempiPfS_S_iiiiffffff'...
GPGPU-Sim PTX: reconvergence points for _Z14calculate_tempiPfS_S_iiiiffffff...
GPGPU-Sim PTX:  1 (potential) branch divergence @  PC=0x060 (_1.ptx:91) @%p1 bra $Lt_0_15106;
GPGPU-Sim PTX:    immediate post dominator      @  PC=0x198 (_1.ptx:134) mov.u64 %rd1, __cuda___cuda_local_var_32316_39_non_const_temp_on_cuda72;
GPGPU-Sim PTX:  2 (potential) branch divergence @  PC=0x080 (_1.ptx:95) @%p2 bra $Lt_0_15106;
GPGPU-Sim PTX:    immediate post dominator      @  PC=0x198 (_1.ptx:134) mov.u64 %rd1, __cuda___cuda_local_var_32316_39_non_const_temp_on_cuda72;
GPGPU-Sim PTX:  3 (potential) branch divergence @  PC=0x0c8 (_1.ptx:104) @%p3 bra $Lt_0_15106;
GPGPU-Sim PTX:    immediate post dominator      @  PC=0x198 (_1.ptx:134) mov.u64 %rd1, __cuda___cuda_local_var_32316_39_non_const_temp_on_cuda72;
GPGPU-Sim PTX:  4 (potential) branch divergence @  PC=0x0e8 (_1.ptx:108) @%p4 bra $Lt_0_15106;
GPGPU-Sim PTX:    immediate post dominator      @  PC=0x198 (_1.ptx:134) mov.u64 %rd1, __cuda___cuda_local_var_32316_39_non_const_temp_on_cuda72;
GPGPU-Sim PTX:  5 (potential) branch divergence @  PC=0x1c0 (_1.ptx:140) @%p5 bra $Lt_0_15618;
GPGPU-Sim PTX:    immediate post dominator      @  PC=0x6b0 (_1.ptx:315) @!%p20 bra $Lt_0_14082;
GPGPU-Sim PTX:  6 (potential) branch divergence @  PC=0x388 (_1.ptx:200) @%p10 bra $Lt_0_17410;
GPGPU-Sim PTX:    immediate post dominator      @  PC=0x5c8 (_1.ptx:277) bar.sync 0;
GPGPU-Sim PTX:  7 (potential) branch divergence @  PC=0x3a8 (_1.ptx:204) @%p11 bra $Lt_0_17410;
GPGPU-Sim PTX:    immediate post dominator      @  PC=0x5c8 (_1.ptx:277) bar.sync 0;
GPGPU-Sim PTX:  8 (potential) branch divergence @  PC=0x3b8 (_1.ptx:206) @%p12 bra $Lt_0_17410;
GPGPU-Sim PTX:    immediate post dominator      @  PC=0x5c8 (_1.ptx:277) bar.sync 0;
GPGPU-Sim PTX:  9 (potential) branch divergence @  PC=0x3c8 (_1.ptx:208) @%p13 bra $Lt_0_17410;
GPGPU-Sim PTX:    immediate post dominator      @  PC=0x5c8 (_1.ptx:277) bar.sync 0;
GPGPU-Sim PTX: 10 (potential) branch divergence @  PC=0x3d8 (_1.ptx:210) @%p14 bra $Lt_0_17410;
GPGPU-Sim PTX:    immediate post dominator      @  PC=0x5c8 (_1.ptx:277) bar.sync 0;
GPGPU-Sim PTX: 11 (potential) branch divergence @  PC=0x3e8 (_1.ptx:212) @%p15 bra $Lt_0_17410;
GPGPU-Sim PTX:    immediate post dominator      @  PC=0x5c8 (_1.ptx:277) bar.sync 0;
GPGPU-Sim PTX: 12 (potential) branch divergence @  PC=0x3f8 (_1.ptx:214) @%p16 bra $Lt_0_17410;
GPGPU-Sim PTX:    immediate post dominator      @  PC=0x5c8 (_1.ptx:277) bar.sync 0;
GPGPU-Sim PTX: 13 (potential) branch divergence @  PC=0x408 (_1.ptx:216) @%p17 bra $Lt_0_17410;
GPGPU-Sim PTX:    immediate post dominator      @  PC=0x5c8 (_1.ptx:277) bar.sync 0;
GPGPU-Sim PTX: 14 (potential) branch divergence @  PC=0x5d8 (_1.ptx:280) @%p18 bra $Lt_0_17922;
GPGPU-Sim PTX:    immediate post dominator      @  PC=0x6b0 (_1.ptx:315) @!%p20 bra $Lt_0_14082;
GPGPU-Sim PTX: 15 (potential) branch divergence @  PC=0x600 (_1.ptx:285) @!%p19 bra $Lt_0_13314;
GPGPU-Sim PTX:    immediate post dominator      @  PC=0x650 (_1.ptx:298) bar.sync 0;
GPGPU-Sim PTX: 16 (potential) branch divergence @  PC=0x668 (_1.ptx:302) @%p23 bra $Lt_0_13058;
GPGPU-Sim PTX:    immediate post dominator      @  PC=0x6b0 (_1.ptx:315) @!%p20 bra $Lt_0_14082;
GPGPU-Sim PTX: 17 (potential) branch divergence @  PC=0x670 (_1.ptx:303) bra.uni $Lt_0_258;
GPGPU-Sim PTX:    immediate post dominator      @  PC=0x6b0 (_1.ptx:315) @!%p20 bra $Lt_0_14082;
GPGPU-Sim PTX: 18 (potential) branch divergence @  PC=0x698 (_1.ptx:309) bra.uni $Lt_0_258;
GPGPU-Sim PTX:    immediate post dominator      @  PC=0x6b0 (_1.ptx:315) @!%p20 bra $Lt_0_14082;
GPGPU-Sim PTX: 19 (potential) branch divergence @  PC=0x6b0 (_1.ptx:315) @!%p20 bra $Lt_0_14082;
GPGPU-Sim PTX:    immediate post dominator      @  PC=0x760 (_1.ptx:340) exit;
GPGPU-Sim PTX: ... end of reconvergence points for _Z14calculate_tempiPfS_S_iiiiffffff
GPGPU-Sim PTX: ... done pre-decoding instructions for '_Z14calculate_tempiPfS_S_iiiiffffff'.
GPGPU-Sim PTX: finished parsing EMBEDDED .ptx file _1.ptx
Adding _cuobjdump_1.ptx with cubin handle 1
GPGPU-Sim PTX: extracting embedded .ptx to temporary file "_ptx_E2CkpE"
Running: cat _ptx_E2CkpE | sed 's/.version 1.5/.version 1.4/' | sed 's/, texmode_independent//' | sed 's/\(\.extern \.const\[1\] .b8 \w\+\)\[\]/\1\[1\]/' | sed 's/const\[.\]/const\[0\]/g' > _ptx2_Ny8guK
GPGPU-Sim PTX: generating ptxinfo using "$CUDA_INSTALL_PATH/bin/ptxas --gpu-name=sm_20 -v _ptx2_Ny8guK --output-file  /dev/null 2> _ptx_E2CkpEinfo"
GPGPU-Sim PTX: Kernel '_Z14calculate_tempiPfS_S_iiiiffffff' : regs=35, lmem=0, smem=3072, cmem=120
GPGPU-Sim PTX: removing ptxinfo using "rm -f _ptx_E2CkpE _ptx2_Ny8guK _ptx_E2CkpEinfo"
GPGPU-Sim PTX: loading globals with explicit initializers... 
GPGPU-Sim PTX: finished loading globals (0 bytes total).
GPGPU-Sim PTX: loading constants with explicit initializers...  done.
pyramidHeight: 2
gridSize: [512, 512]
border:[2, 2]
blockGrid:[43, 43]
targetBlock:[12, 12]
Start computing the transient temperature

GPGPU-Sim PTX: cudaLaunch for 0x0x401b60 (mode=performance simulation) on stream 0
GPGPU-Sim PTX: pushing kernel '_Z14calculate_tempiPfS_S_iiiiffffff' to stream 0, gridDim= (43,43,1) blockDim = (16,16,1) 
kernel '_Z14calculate_tempiPfS_S_iiiiffffff' transfer to GPU hardware scheduler
GPGPU-Sim uArch: Shader 1 bind to kernel 1 '_Z14calculate_tempiPfS_S_iiiiffffff'
GPGPU-Sim uArch: CTA/core = 3, limited by: regs
GPGPU-Sim uArch: core:  1, cta: 0 initialized @(1,0)
GPGPU-Sim uArch: Shader 2 bind to kernel 1 '_Z14calculate_tempiPfS_S_iiiiffffff'
GPGPU-Sim uArch: core:  2, cta: 0 initialized @(1,0)
GPGPU-Sim uArch: Shader 3 bind to kernel 1 '_Z14calculate_tempiPfS_S_iiiiffffff'
GPGPU-Sim uArch: core:  3, cta: 0 initialized @(1,0)
GPGPU-Sim uArch: Shader 4 bind to kernel 1 '_Z14calculate_tempiPfS_S_iiiiffffff'
GPGPU-Sim uArch: core:  4, cta: 0 initialized @(1,0)
GPGPU-Sim uArch: Shader 5 bind to kernel 1 '_Z14calculate_tempiPfS_S_iiiiffffff'
GPGPU-Sim uArch: core:  5, cta: 0 initialized @(1,0)
GPGPU-Sim uArch: Shader 6 bind to kernel 1 '_Z14calculate_tempiPfS_S_iiiiffffff'
GPGPU-Sim uArch: core:  6, cta: 0 initialized @(1,0)
GPGPU-Sim uArch: Shader 7 bind to kernel 1 '_Z14calculate_tempiPfS_S_iiiiffffff'
GPGPU-Sim uArch: core:  7, cta: 0 initialized @(1,0)
GPGPU-Sim uArch: Shader 8 bind to kernel 1 '_Z14calculate_tempiPfS_S_iiiiffffff'
GPGPU-Sim uArch: core:  8, cta: 0 initialized @(1,0)
GPGPU-Sim uArch: Shader 9 bind to kernel 1 '_Z14calculate_tempiPfS_S_iiiiffffff'
GPGPU-Sim uArch: core:  9, cta: 0 initialized @(1,0)
GPGPU-Sim uArch: Shader 10 bind to kernel 1 '_Z14calculate_tempiPfS_S_iiiiffffff'
GPGPU-Sim uArch: core: 10, cta: 0 initialized @(1,0)
GPGPU-Sim uArch: Shader 11 bind to kernel 1 '_Z14calculate_tempiPfS_S_iiiiffffff'
GPGPU-Sim uArch: core: 11, cta: 0 initialized @(1,0)
GPGPU-Sim uArch: Shader 12 bind to kernel 1 '_Z14calculate_tempiPfS_S_iiiiffffff'
GPGPU-Sim uArch: core: 12, cta: 0 initialized @(1,0)
GPGPU-Sim uArch: Shader 13 bind to kernel 1 '_Z14calculate_tempiPfS_S_iiiiffffff'
GPGPU-Sim uArch: core: 13, cta: 0 initialized @(1,0)
GPGPU-Sim uArch: Shader 14 bind to kernel 1 '_Z14calculate_tempiPfS_S_iiiiffffff'
GPGPU-Sim uArch: core: 14, cta: 0 initialized @(1,0)
GPGPU-Sim uArch: Shader 0 bind to kernel 1 '_Z14calculate_tempiPfS_S_iiiiffffff'
GPGPU-Sim uArch: core:  0, cta: 0 initialized @(1,0)
GPGPU-Sim uArch: core:  1, cta: 1 initialized @(2,0)
GPGPU-Sim uArch: core:  2, cta: 1 initialized @(2,0)
GPGPU-Sim uArch: core:  3, cta: 1 initialized @(2,0)
GPGPU-Sim uArch: core:  4, cta: 1 initialized @(2,0)
GPGPU-Sim uArch: core:  5, cta: 1 initialized @(2,0)
GPGPU-Sim uArch: core:  6, cta: 1 initialized @(2,0)
GPGPU-Sim uArch: core:  7, cta: 1 initialized @(2,0)
GPGPU-Sim uArch: core:  8, cta: 1 initialized @(2,0)
GPGPU-Sim uArch: core:  9, cta: 1 initialized @(2,0)
GPGPU-Sim uArch: core: 10, cta: 1 initialized @(2,0)
GPGPU-Sim uArch: core: 11, cta: 1 initialized @(2,0)
GPGPU-Sim uArch: core: 12, cta: 1 initialized @(2,0)
GPGPU-Sim uArch: core: 13, cta: 1 initialized @(2,0)
GPGPU-Sim uArch: core: 14, cta: 1 initialized @(2,0)
GPGPU-Sim uArch: core:  0, cta: 1 initialized @(2,0)
GPGPU-Sim uArch: core:  1, cta: 2 initialized @(3,0)
GPGPU-Sim uArch: core:  2, cta: 2 initialized @(3,0)
GPGPU-Sim uArch: core:  3, cta: 2 initialized @(3,0)
GPGPU-Sim uArch: core:  4, cta: 2 initialized @(3,0)
GPGPU-Sim uArch: core:  5, cta: 2 initialized @(3,0)
GPGPU-Sim uArch: core:  6, cta: 2 initialized @(3,0)
GPGPU-Sim uArch: core:  7, cta: 2 initialized @(3,0)
GPGPU-Sim uArch: core:  8, cta: 2 initialized @(3,0)
GPGPU-Sim uArch: core:  9, cta: 2 initialized @(3,0)
GPGPU-Sim uArch: core: 10, cta: 2 initialized @(3,0)
GPGPU-Sim uArch: core: 11, cta: 2 initialized @(3,0)
GPGPU-Sim uArch: core: 12, cta: 2 initialized @(3,0)
GPGPU-Sim uArch: core: 13, cta: 2 initialized @(3,0)
GPGPU-Sim uArch: core: 14, cta: 2 initialized @(3,0)
GPGPU-Sim uArch: core:  0, cta: 2 initialized @(3,0)
GPGPU-Sim uArch: cycles simulated: 500  inst.: 0 (ipc= 0.0) sim_rate=0 (inst/sec) elapsed = 0:0:00:11 / Tue Mar 22 12:44:19 2016
GPGPU-Sim uArch: cycles simulated: 1500  inst.: 84224 (ipc=56.1) sim_rate=4432 (inst/sec) elapsed = 0:0:00:19 / Tue Mar 22 12:44:27 2016
GPGPU-Sim PTX: 100000 instructions simulated : ctaid=(6,0,0) tid=(15,7,0)
GPGPU-Sim PTX: 200000 instructions simulated : ctaid=(22,0,0) tid=(3,5,0)
GPGPU-Sim PTX: 300000 instructions simulated : ctaid=(3,0,0) tid=(11,3,0)
GPGPU-Sim uArch: cycles simulated: 3500  inst.: 289052 (ipc=82.6) sim_rate=14452 (inst/sec) elapsed = 0:0:00:20 / Tue Mar 22 12:44:28 2016
GPGPU-Sim PTX: 400000 instructions simulated : ctaid=(6,0,0) tid=(6,5,0)
GPGPU-Sim PTX: 500000 instructions simulated : ctaid=(4,0,0) tid=(3,7,0)
GPGPU-Sim uArch: cycles simulated: 5500  inst.: 516988 (ipc=94.0) sim_rate=24618 (inst/sec) elapsed = 0:0:00:21 / Tue Mar 22 12:44:29 2016
GPGPU-Sim PTX: 600000 instructions simulated : ctaid=(0,0,0) tid=(13,15,0)
GPGPU-Sim PTX: 700000 instructions simulated : ctaid=(4,0,0) tid=(12,3,0)
GPGPU-Sim uArch: cycles simulated: 7000  inst.: 740855 (ipc=105.8) sim_rate=33675 (inst/sec) elapsed = 0:0:00:22 / Tue Mar 22 12:44:30 2016
GPGPU-Sim PTX: 800000 instructions simulated : ctaid=(18,0,0) tid=(9,3,0)
GPGPU-Sim uArch: Shader 0 finished CTA #0 (7250,0), 2 CTAs running
GPGPU-Sim uArch: core:  0, cta: 0 initialized @(7251,0)
GPGPU-Sim uArch: Shader 6 finished CTA #0 (7253,0), 2 CTAs running
GPGPU-Sim uArch: core:  6, cta: 0 initialized @(7254,0)
GPGPU-Sim uArch: Shader 1 finished CTA #0 (7283,0), 2 CTAs running
GPGPU-Sim uArch: core:  1, cta: 0 initialized @(7284,0)
GPGPU-Sim uArch: Shader 8 finished CTA #0 (7305,0), 2 CTAs running
GPGPU-Sim uArch: core:  8, cta: 0 initialized @(7306,0)
GPGPU-Sim uArch: Shader 2 finished CTA #0 (7312,0), 2 CTAs running
GPGPU-Sim uArch: core:  2, cta: 0 initialized @(7313,0)
GPGPU-Sim uArch: Shader 7 finished CTA #0 (7337,0), 2 CTAs running
GPGPU-Sim uArch: core:  7, cta: 0 initialized @(7338,0)
GPGPU-Sim uArch: Shader 9 finished CTA #0 (7339,0), 2 CTAs running
GPGPU-Sim uArch: core:  9, cta: 0 initialized @(7340,0)
GPGPU-Sim uArch: Shader 11 finished CTA #0 (7347,0), 2 CTAs running
GPGPU-Sim uArch: core: 11, cta: 0 initialized @(7348,0)
GPGPU-Sim uArch: Shader 5 finished CTA #0 (7429,0), 2 CTAs running
GPGPU-Sim uArch: core:  5, cta: 0 initialized @(7430,0)
GPGPU-Sim uArch: Shader 4 finished CTA #0 (7431,0), 2 CTAs running
GPGPU-Sim uArch: core:  4, cta: 0 initialized @(7432,0)
GPGPU-Sim uArch: Shader 3 finished CTA #0 (7443,0), 2 CTAs running
GPGPU-Sim uArch: core:  3, cta: 0 initialized @(7444,0)
GPGPU-Sim uArch: Shader 12 finished CTA #0 (7450,0), 2 CTAs running
GPGPU-Sim uArch: core: 12, cta: 0 initialized @(7451,0)
GPGPU-Sim uArch: Shader 13 finished CTA #0 (7462,0), 2 CTAs running
GPGPU-Sim uArch: core: 13, cta: 0 initialized @(7463,0)
GPGPU-Sim uArch: Shader 14 finished CTA #0 (7468,0), 2 CTAs running
GPGPU-Sim uArch: core: 14, cta: 0 initialized @(7469,0)
GPGPU-Sim uArch: Shader 10 finished CTA #0 (7470,0), 2 CTAs running
GPGPU-Sim uArch: core: 10, cta: 0 initialized @(7471,0)
GPGPU-Sim PTX: 900000 instructions simulated : ctaid=(20,0,0) tid=(13,10,0)
GPGPU-Sim uArch: cycles simulated: 8000  inst.: 900685 (ipc=112.6) sim_rate=39160 (inst/sec) elapsed = 0:0:00:23 / Tue Mar 22 12:44:31 2016
GPGPU-Sim PTX: 1000000 instructions simulated : ctaid=(17,0,0) tid=(5,15,0)
GPGPU-Sim PTX: 1100000 instructions simulated : ctaid=(29,0,0) tid=(9,7,0)
GPGPU-Sim PTX: 1200000 instructions simulated : ctaid=(21,0,0) tid=(4,7,0)
GPGPU-Sim PTX: 1300000 instructions simulated : ctaid=(28,0,0) tid=(3,15,0)
GPGPU-Sim uArch: cycles simulated: 9500  inst.: 1231961 (ipc=129.7) sim_rate=51331 (inst/sec) elapsed = 0:0:00:24 / Tue Mar 22 12:44:32 2016
GPGPU-Sim PTX: 1400000 instructions simulated : ctaid=(24,0,0) tid=(1,9,0)
GPGPU-Sim uArch: Shader 1 finished CTA #1 (10138,0), 2 CTAs running
GPGPU-Sim uArch: core:  1, cta: 1 initialized @(10139,0)
GPGPU-Sim PTX: 1500000 instructions simulated : ctaid=(28,0,0) tid=(12,5,0)
GPGPU-Sim uArch: cycles simulated: 10500  inst.: 1459451 (ipc=139.0) sim_rate=58378 (inst/sec) elapsed = 0:0:00:25 / Tue Mar 22 12:44:33 2016
GPGPU-Sim PTX: 1600000 instructions simulated : ctaid=(11,1,0) tid=(9,8,0)
GPGPU-Sim uArch: Shader 3 finished CTA #1 (10779,0), 2 CTAs running
GPGPU-Sim uArch: core:  3, cta: 1 initialized @(10780,0)
GPGPU-Sim uArch: Shader 12 finished CTA #1 (10808,0), 2 CTAs running
GPGPU-Sim uArch: core: 12, cta: 1 initialized @(10809,0)
GPGPU-Sim uArch: Shader 2 finished CTA #1 (10810,0), 2 CTAs running
GPGPU-Sim uArch: core:  2, cta: 1 initialized @(10811,0)
GPGPU-Sim uArch: Shader 7 finished CTA #1 (10842,0), 2 CTAs running
GPGPU-Sim uArch: core:  7, cta: 1 initialized @(10843,0)
GPGPU-Sim uArch: Shader 13 finished CTA #1 (10859,0), 2 CTAs running
GPGPU-Sim uArch: core: 13, cta: 1 initialized @(10860,0)
GPGPU-Sim uArch: Shader 11 finished CTA #1 (10874,0), 2 CTAs running
GPGPU-Sim uArch: core: 11, cta: 1 initialized @(10875,0)
GPGPU-Sim uArch: Shader 14 finished CTA #1 (10881,0), 2 CTAs running
GPGPU-Sim uArch: core: 14, cta: 1 initialized @(10882,0)
GPGPU-Sim uArch: Shader 9 finished CTA #1 (10897,0), 2 CTAs running
GPGPU-Sim uArch: core:  9, cta: 1 initialized @(10898,0)
GPGPU-Sim uArch: Shader 10 finished CTA #1 (10905,0), 2 CTAs running
GPGPU-Sim uArch: core: 10, cta: 1 initialized @(10906,0)
GPGPU-Sim uArch: Shader 4 finished CTA #1 (10920,0), 2 CTAs running
GPGPU-Sim uArch: core:  4, cta: 1 initialized @(10921,0)
GPGPU-Sim uArch: Shader 8 finished CTA #1 (10934,0), 2 CTAs running
GPGPU-Sim uArch: core:  8, cta: 1 initialized @(10935,0)
GPGPU-Sim uArch: Shader 0 finished CTA #1 (10935,0), 2 CTAs running
GPGPU-Sim uArch: core:  0, cta: 1 initialized @(10936,0)
GPGPU-Sim uArch: Shader 5 finished CTA #1 (10940,0), 2 CTAs running
GPGPU-Sim uArch: core:  5, cta: 1 initialized @(10941,0)
GPGPU-Sim uArch: Shader 6 finished CTA #1 (10951,0), 2 CTAs running
GPGPU-Sim uArch: core:  6, cta: 1 initialized @(10952,0)
GPGPU-Sim PTX: 1700000 instructions simulated : ctaid=(32,0,0) tid=(9,11,0)
GPGPU-Sim PTX: 1800000 instructions simulated : ctaid=(20,1,0) tid=(7,8,0)
GPGPU-Sim uArch: cycles simulated: 11500  inst.: 1690717 (ipc=147.0) sim_rate=65027 (inst/sec) elapsed = 0:0:00:26 / Tue Mar 22 12:44:34 2016
GPGPU-Sim uArch: Shader 12 finished CTA #2 (11516,0), 2 CTAs running
GPGPU-Sim uArch: core: 12, cta: 2 initialized @(11517,0)
GPGPU-Sim uArch: Shader 11 finished CTA #2 (11537,0), 2 CTAs running
GPGPU-Sim uArch: core: 11, cta: 2 initialized @(11538,0)
GPGPU-Sim uArch: Shader 8 finished CTA #2 (11550,0), 2 CTAs running
GPGPU-Sim uArch: core:  8, cta: 2 initialized @(11551,0)
GPGPU-Sim uArch: Shader 13 finished CTA #2 (11555,0), 2 CTAs running
GPGPU-Sim uArch: core: 13, cta: 2 initialized @(11556,0)
GPGPU-Sim uArch: Shader 10 finished CTA #2 (11560,0), 2 CTAs running
GPGPU-Sim uArch: core: 10, cta: 2 initialized @(11561,0)
GPGPU-Sim uArch: Shader 9 finished CTA #2 (11579,0), 2 CTAs running
GPGPU-Sim uArch: core:  9, cta: 2 initialized @(11580,0)
GPGPU-Sim PTX: 1900000 instructions simulated : ctaid=(31,0,0) tid=(5,8,0)
GPGPU-Sim PTX: 2000000 instructions simulated : ctaid=(5,1,0) tid=(3,7,0)
GPGPU-Sim PTX: 2100000 instructions simulated : ctaid=(35,1,0) tid=(0,1,0)
GPGPU-Sim uArch: cycles simulated: 13000  inst.: 1978729 (ipc=152.2) sim_rate=73286 (inst/sec) elapsed = 0:0:00:27 / Tue Mar 22 12:44:35 2016
GPGPU-Sim PTX: 2200000 instructions simulated : ctaid=(14,1,0) tid=(12,6,0)
GPGPU-Sim uArch: Shader 1 finished CTA #2 (13272,0), 2 CTAs running
GPGPU-Sim uArch: core:  1, cta: 2 initialized @(13273,0)
GPGPU-Sim PTX: 2300000 instructions simulated : ctaid=(7,1,0) tid=(3,3,0)
GPGPU-Sim uArch: Shader 2 finished CTA #2 (13714,0), 2 CTAs running
GPGPU-Sim uArch: core:  2, cta: 2 initialized @(13715,0)
GPGPU-Sim uArch: cycles simulated: 14000  inst.: 2206379 (ipc=157.6) sim_rate=78799 (inst/sec) elapsed = 0:0:00:28 / Tue Mar 22 12:44:36 2016
GPGPU-Sim PTX: 2400000 instructions simulated : ctaid=(16,1,0) tid=(11,15,0)
GPGPU-Sim uArch: Shader 3 finished CTA #2 (14272,0), 2 CTAs running
GPGPU-Sim uArch: core:  3, cta: 2 initialized @(14273,0)
GPGPU-Sim uArch: Shader 4 finished CTA #2 (14294,0), 2 CTAs running
GPGPU-Sim uArch: core:  4, cta: 2 initialized @(14295,0)
GPGPU-Sim uArch: Shader 14 finished CTA #2 (14324,0), 2 CTAs running
GPGPU-Sim uArch: core: 14, cta: 2 initialized @(14325,0)
GPGPU-Sim uArch: Shader 7 finished CTA #2 (14335,0), 2 CTAs running
GPGPU-Sim uArch: core:  7, cta: 2 initialized @(14336,0)
GPGPU-Sim uArch: Shader 6 finished CTA #2 (14350,0), 2 CTAs running
GPGPU-Sim uArch: core:  6, cta: 2 initialized @(14351,0)
GPGPU-Sim uArch: Shader 0 finished CTA #2 (14353,0), 2 CTAs running
GPGPU-Sim uArch: core:  0, cta: 2 initialized @(14354,0)
GPGPU-Sim uArch: Shader 5 finished CTA #2 (14354,0), 2 CTAs running
GPGPU-Sim uArch: core:  5, cta: 2 initialized @(14355,0)
GPGPU-Sim PTX: 2500000 instructions simulated : ctaid=(9,1,0) tid=(6,10,0)
GPGPU-Sim uArch: cycles simulated: 15000  inst.: 2405128 (ipc=160.3) sim_rate=82935 (inst/sec) elapsed = 0:0:00:29 / Tue Mar 22 12:44:37 2016
GPGPU-Sim PTX: 2600000 instructions simulated : ctaid=(5,1,0) tid=(10,11,0)
GPGPU-Sim uArch: Shader 13 finished CTA #0 (15355,0), 2 CTAs running
GPGPU-Sim uArch: core: 13, cta: 0 initialized @(15356,0)
GPGPU-Sim uArch: Shader 12 finished CTA #0 (15446,0), 2 CTAs running
GPGPU-Sim uArch: core: 12, cta: 0 initialized @(15447,0)
GPGPU-Sim uArch: Shader 9 finished CTA #0 (15458,0), 2 CTAs running
GPGPU-Sim uArch: core:  9, cta: 0 initialized @(15459,0)
GPGPU-Sim uArch: Shader 11 finished CTA #0 (15469,0), 2 CTAs running
GPGPU-Sim uArch: core: 11, cta: 0 initialized @(15470,0)
GPGPU-Sim uArch: Shader 8 finished CTA #0 (15474,0), 2 CTAs running
GPGPU-Sim uArch: core:  8, cta: 0 initialized @(15475,0)
GPGPU-Sim PTX: 2700000 instructions simulated : ctaid=(3,1,0) tid=(14,1,0)
GPGPU-Sim uArch: Shader 10 finished CTA #0 (15488,0), 2 CTAs running
GPGPU-Sim uArch: core: 10, cta: 0 initialized @(15489,0)
GPGPU-Sim PTX: 2800000 instructions simulated : ctaid=(26,1,0) tid=(7,15,0)
GPGPU-Sim PTX: 2900000 instructions simulated : ctaid=(6,1,0) tid=(14,4,0)
GPGPU-Sim uArch: cycles simulated: 16500  inst.: 2721278 (ipc=164.9) sim_rate=90709 (inst/sec) elapsed = 0:0:00:30 / Tue Mar 22 12:44:38 2016
GPGPU-Sim PTX: 3000000 instructions simulated : ctaid=(20,1,0) tid=(9,7,0)
GPGPU-Sim uArch: Shader 2 finished CTA #0 (16884,0), 2 CTAs running
GPGPU-Sim uArch: core:  2, cta: 0 initialized @(16885,0)
GPGPU-Sim uArch: Shader 1 finished CTA #0 (16969,0), 2 CTAs running
GPGPU-Sim uArch: core:  1, cta: 0 initialized @(16970,0)
GPGPU-Sim uArch: Shader 0 finished CTA #0 (17233,0), 2 CTAs running
GPGPU-Sim uArch: core:  0, cta: 0 initialized @(17234,0)
GPGPU-Sim uArch: Shader 3 finished CTA #0 (17237,0), 2 CTAs running
GPGPU-Sim uArch: core:  3, cta: 0 initialized @(17238,0)
GPGPU-Sim uArch: Shader 14 finished CTA #0 (17264,0), 2 CTAs running
GPGPU-Sim uArch: core: 14, cta: 0 initialized @(17265,0)
GPGPU-Sim uArch: Shader 7 finished CTA #0 (17277,0), 2 CTAs running
GPGPU-Sim uArch: core:  7, cta: 0 initialized @(17278,0)
GPGPU-Sim uArch: Shader 6 finished CTA #0 (17279,0), 2 CTAs running
GPGPU-Sim uArch: core:  6, cta: 0 initialized @(17280,0)
GPGPU-Sim PTX: 3100000 instructions simulated : ctaid=(25,1,0) tid=(8,3,0)
GPGPU-Sim uArch: Shader 4 finished CTA #0 (17295,0), 2 CTAs running
GPGPU-Sim uArch: core:  4, cta: 0 initialized @(17296,0)
GPGPU-Sim uArch: Shader 5 finished CTA #0 (17301,0), 2 CTAs running
GPGPU-Sim uArch: core:  5, cta: 0 initialized @(17302,0)
GPGPU-Sim uArch: cycles simulated: 17500  inst.: 2925514 (ipc=167.2) sim_rate=94371 (inst/sec) elapsed = 0:0:00:31 / Tue Mar 22 12:44:39 2016
GPGPU-Sim PTX: 3200000 instructions simulated : ctaid=(24,1,0) tid=(3,10,0)
GPGPU-Sim PTX: 3300000 instructions simulated : ctaid=(42,1,0) tid=(7,2,0)
GPGPU-Sim uArch: cycles simulated: 18500  inst.: 3144010 (ipc=169.9) sim_rate=98250 (inst/sec) elapsed = 0:0:00:32 / Tue Mar 22 12:44:40 2016
GPGPU-Sim PTX: 3400000 instructions simulated : ctaid=(17,1,0) tid=(9,9,0)
GPGPU-Sim uArch: Shader 11 finished CTA #1 (18884,0), 2 CTAs running
GPGPU-Sim uArch: core: 11, cta: 1 initialized @(18885,0)
GPGPU-Sim uArch: Shader 10 finished CTA #1 (18940,0), 2 CTAs running
GPGPU-Sim uArch: core: 10, cta: 1 initialized @(18941,0)
GPGPU-Sim uArch: Shader 13 finished CTA #1 (18942,0), 2 CTAs running
GPGPU-Sim uArch: core: 13, cta: 1 initialized @(18943,0)
GPGPU-Sim uArch: Shader 12 finished CTA #1 (18945,0), 2 CTAs running
GPGPU-Sim uArch: core: 12, cta: 1 initialized @(18946,0)
GPGPU-Sim uArch: Shader 9 finished CTA #1 (18974,0), 2 CTAs running
GPGPU-Sim uArch: core:  9, cta: 1 initialized @(18975,0)
GPGPU-Sim uArch: Shader 8 finished CTA #1 (18983,0), 2 CTAs running
GPGPU-Sim uArch: core:  8, cta: 1 initialized @(18984,0)
GPGPU-Sim PTX: 3500000 instructions simulated : ctaid=(37,1,0) tid=(9,5,0)
GPGPU-Sim PTX: 3600000 instructions simulated : ctaid=(30,1,0) tid=(6,1,0)
GPGPU-Sim uArch: cycles simulated: 19500  inst.: 3368584 (ipc=172.7) sim_rate=102078 (inst/sec) elapsed = 0:0:00:33 / Tue Mar 22 12:44:41 2016
GPGPU-Sim uArch: Shader 9 finished CTA #2 (19698,0), 2 CTAs running
GPGPU-Sim uArch: core:  9, cta: 2 initialized @(19699,0)
GPGPU-Sim PTX: 3700000 instructions simulated : ctaid=(11,2,0) tid=(13,12,0)
GPGPU-Sim uArch: Shader 1 finished CTA #1 (19933,0), 2 CTAs running
GPGPU-Sim uArch: core:  1, cta: 1 initialized @(19934,0)
GPGPU-Sim uArch: Shader 2 finished CTA #1 (20015,0), 2 CTAs running
GPGPU-Sim uArch: core:  2, cta: 1 initialized @(20016,0)
GPGPU-Sim PTX: 3800000 instructions simulated : ctaid=(23,2,0) tid=(11,13,0)
GPGPU-Sim uArch: Shader 14 finished CTA #1 (20349,0), 2 CTAs running
GPGPU-Sim uArch: core: 14, cta: 1 initialized @(20350,0)
GPGPU-Sim uArch: Shader 7 finished CTA #1 (20385,0), 2 CTAs running
GPGPU-Sim uArch: core:  7, cta: 1 initialized @(20386,0)
GPGPU-Sim uArch: Shader 3 finished CTA #1 (20396,0), 2 CTAs running
GPGPU-Sim uArch: core:  3, cta: 1 initialized @(20397,0)
GPGPU-Sim uArch: Shader 4 finished CTA #1 (20456,0), 2 CTAs running
GPGPU-Sim uArch: core:  4, cta: 1 initialized @(20457,0)
GPGPU-Sim uArch: cycles simulated: 20500  inst.: 3599256 (ipc=175.6) sim_rate=105860 (inst/sec) elapsed = 0:0:00:34 / Tue Mar 22 12:44:42 2016
GPGPU-Sim PTX: 3900000 instructions simulated : ctaid=(33,1,0) tid=(13,4,0)
GPGPU-Sim uArch: Shader 2 finished CTA #2 (20707,0), 2 CTAs running
GPGPU-Sim uArch: core:  2, cta: 2 initialized @(20708,0)
GPGPU-Sim uArch: Shader 1 finished CTA #2 (20794,0), 2 CTAs running
GPGPU-Sim uArch: core:  1, cta: 2 initialized @(20795,0)
GPGPU-Sim uArch: Shader 0 finished CTA #1 (20900,0), 2 CTAs running
GPGPU-Sim uArch: core:  0, cta: 1 initialized @(20901,0)
GPGPU-Sim uArch: Shader 6 finished CTA #1 (20928,0), 2 CTAs running
GPGPU-Sim uArch: core:  6, cta: 1 initialized @(20929,0)
GPGPU-Sim uArch: Shader 5 finished CTA #1 (20936,0), 2 CTAs running
GPGPU-Sim uArch: core:  5, cta: 1 initialized @(20937,0)
GPGPU-Sim PTX: 4000000 instructions simulated : ctaid=(36,1,0) tid=(6,8,0)
GPGPU-Sim uArch: Shader 14 finished CTA #2 (21210,0), 2 CTAs running
GPGPU-Sim uArch: core: 14, cta: 2 initialized @(21211,0)
GPGPU-Sim uArch: Shader 4 finished CTA #2 (21242,0), 2 CTAs running
GPGPU-Sim uArch: core:  4, cta: 2 initialized @(21243,0)
GPGPU-Sim uArch: Shader 3 finished CTA #2 (21261,0), 2 CTAs running
GPGPU-Sim uArch: core:  3, cta: 2 initialized @(21262,0)
GPGPU-Sim uArch: cycles simulated: 21500  inst.: 3822399 (ipc=177.8) sim_rate=109211 (inst/sec) elapsed = 0:0:00:35 / Tue Mar 22 12:44:43 2016
GPGPU-Sim PTX: 4100000 instructions simulated : ctaid=(35,1,0) tid=(6,8,0)
GPGPU-Sim PTX: 4200000 instructions simulated : ctaid=(6,2,0) tid=(6,6,0)
GPGPU-Sim uArch: Shader 13 finished CTA #2 (22430,0), 2 CTAs running
GPGPU-Sim uArch: core: 13, cta: 2 initialized @(22431,0)
GPGPU-Sim uArch: Shader 10 finished CTA #2 (22473,0), 2 CTAs running
GPGPU-Sim uArch: core: 10, cta: 2 initialized @(22474,0)
GPGPU-Sim uArch: Shader 12 finished CTA #2 (22522,0), 2 CTAs running
GPGPU-Sim uArch: core: 12, cta: 2 initialized @(22523,0)
GPGPU-Sim uArch: Shader 11 finished CTA #2 (22527,0), 2 CTAs running
GPGPU-Sim uArch: core: 11, cta: 2 initialized @(22528,0)
GPGPU-Sim uArch: Shader 8 finished CTA #2 (22531,0), 2 CTAs running
GPGPU-Sim uArch: core:  8, cta: 2 initialized @(22532,0)
GPGPU-Sim PTX: 4300000 instructions simulated : ctaid=(2,2,0) tid=(7,4,0)
GPGPU-Sim PTX: 4400000 instructions simulated : ctaid=(17,2,0) tid=(13,6,0)
GPGPU-Sim uArch: cycles simulated: 23000  inst.: 4118451 (ipc=179.1) sim_rate=114401 (inst/sec) elapsed = 0:0:00:36 / Tue Mar 22 12:44:44 2016
GPGPU-Sim PTX: 4500000 instructions simulated : ctaid=(13,2,0) tid=(13,3,0)
GPGPU-Sim uArch: Shader 9 finished CTA #0 (23663,0), 2 CTAs running
GPGPU-Sim uArch: core:  9, cta: 0 initialized @(23664,0)
GPGPU-Sim PTX: 4600000 instructions simulated : ctaid=(17,2,0) tid=(10,10,0)
GPGPU-Sim uArch: cycles simulated: 24000  inst.: 4348636 (ipc=181.2) sim_rate=117530 (inst/sec) elapsed = 0:0:00:37 / Tue Mar 22 12:44:45 2016
GPGPU-Sim uArch: Shader 7 finished CTA #2 (24039,0), 2 CTAs running
GPGPU-Sim uArch: core:  7, cta: 2 initialized @(24040,0)
GPGPU-Sim uArch: Shader 6 finished CTA #2 (24070,0), 2 CTAs running
GPGPU-Sim uArch: core:  6, cta: 2 initialized @(24071,0)
GPGPU-Sim PTX: 4700000 instructions simulated : ctaid=(4,2,0) tid=(5,11,0)
GPGPU-Sim uArch: Shader 5 finished CTA #2 (24501,0), 2 CTAs running
GPGPU-Sim uArch: core:  5, cta: 2 initialized @(24502,0)
GPGPU-Sim uArch: Shader 0 finished CTA #2 (24503,0), 2 CTAs running
GPGPU-Sim uArch: core:  0, cta: 2 initialized @(24504,0)
GPGPU-Sim uArch: Shader 2 finished CTA #0 (24562,0), 2 CTAs running
GPGPU-Sim uArch: core:  2, cta: 0 initialized @(24563,0)
GPGPU-Sim PTX: 4800000 instructions simulated : ctaid=(13,2,0) tid=(2,8,0)
GPGPU-Sim uArch: Shader 1 finished CTA #0 (24691,0), 2 CTAs running
GPGPU-Sim uArch: core:  1, cta: 0 initialized @(24692,0)
GPGPU-Sim uArch: cycles simulated: 25000  inst.: 4543714 (ipc=181.7) sim_rate=119571 (inst/sec) elapsed = 0:0:00:38 / Tue Mar 22 12:44:46 2016
GPGPU-Sim uArch: Shader 3 finished CTA #0 (25050,0), 2 CTAs running
GPGPU-Sim uArch: core:  3, cta: 0 initialized @(25051,0)
GPGPU-Sim uArch: Shader 14 finished CTA #0 (25095,0), 2 CTAs running
GPGPU-Sim uArch: core: 14, cta: 0 initialized @(25096,0)
GPGPU-Sim uArch: Shader 4 finished CTA #0 (25100,0), 2 CTAs running
GPGPU-Sim uArch: core:  4, cta: 0 initialized @(25101,0)
GPGPU-Sim PTX: 4900000 instructions simulated : ctaid=(23,2,0) tid=(1,5,0)
GPGPU-Sim uArch: Shader 13 finished CTA #0 (25438,0), 2 CTAs running
GPGPU-Sim uArch: core: 13, cta: 0 initialized @(25439,0)
GPGPU-Sim uArch: Shader 11 finished CTA #0 (25495,0), 2 CTAs running
GPGPU-Sim uArch: core: 11, cta: 0 initialized @(25496,0)
GPGPU-Sim uArch: Shader 8 finished CTA #0 (25499,0), 2 CTAs running
GPGPU-Sim uArch: core:  8, cta: 0 initialized @(25500,0)
GPGPU-Sim uArch: Shader 10 finished CTA #0 (25502,0), 2 CTAs running
GPGPU-Sim uArch: core: 10, cta: 0 initialized @(25503,0)
GPGPU-Sim uArch: Shader 12 finished CTA #0 (25507,0), 2 CTAs running
GPGPU-Sim uArch: core: 12, cta: 0 initialized @(25508,0)
GPGPU-Sim PTX: 5000000 instructions simulated : ctaid=(12,2,0) tid=(12,5,0)
GPGPU-Sim uArch: cycles simulated: 26000  inst.: 4736028 (ipc=182.2) sim_rate=121436 (inst/sec) elapsed = 0:0:00:39 / Tue Mar 22 12:44:47 2016
GPGPU-Sim PTX: 5100000 instructions simulated : ctaid=(15,3,0) tid=(13,8,0)
GPGPU-Sim PTX: 5200000 instructions simulated : ctaid=(23,2,0) tid=(14,2,0)
GPGPU-Sim PTX: 5300000 instructions simulated : ctaid=(21,2,0) tid=(11,3,0)
GPGPU-Sim uArch: Shader 7 finished CTA #0 (26996,0), 2 CTAs running
GPGPU-Sim uArch: core:  7, cta: 0 initialized @(26997,0)
GPGPU-Sim uArch: Shader 6 finished CTA #0 (27112,0), 2 CTAs running
GPGPU-Sim uArch: core:  6, cta: 0 initialized @(27113,0)
GPGPU-Sim uArch: Shader 9 finished CTA #1 (27151,0), 2 CTAs running
GPGPU-Sim uArch: core:  9, cta: 1 initialized @(27152,0)
GPGPU-Sim PTX: 5400000 instructions simulated : ctaid=(19,2,0) tid=(7,10,0)
GPGPU-Sim uArch: Shader 0 finished CTA #0 (27417,0), 2 CTAs running
GPGPU-Sim uArch: core:  0, cta: 0 initialized @(27418,0)
GPGPU-Sim uArch: cycles simulated: 27500  inst.: 5075500 (ipc=184.6) sim_rate=126887 (inst/sec) elapsed = 0:0:00:40 / Tue Mar 22 12:44:48 2016
GPGPU-Sim PTX: 5500000 instructions simulated : ctaid=(21,2,0) tid=(9,11,0)
GPGPU-Sim uArch: Shader 5 finished CTA #0 (28007,0), 2 CTAs running
GPGPU-Sim uArch: core:  5, cta: 0 initialized @(28008,0)
GPGPU-Sim uArch: Shader 1 finished CTA #1 (28128,0), 2 CTAs running
GPGPU-Sim uArch: core:  1, cta: 1 initialized @(28129,0)
GPGPU-Sim uArch: Shader 2 finished CTA #1 (28164,0), 2 CTAs running
GPGPU-Sim uArch: core:  2, cta: 1 initialized @(28165,0)
GPGPU-Sim uArch: Shader 14 finished CTA #1 (28181,0), 2 CTAs running
GPGPU-Sim uArch: core: 14, cta: 1 initialized @(28182,0)
GPGPU-Sim PTX: 5600000 instructions simulated : ctaid=(22,2,0) tid=(12,14,0)
GPGPU-Sim uArch: cycles simulated: 28500  inst.: 5284872 (ipc=185.4) sim_rate=128899 (inst/sec) elapsed = 0:0:00:41 / Tue Mar 22 12:44:49 2016
GPGPU-Sim uArch: Shader 11 finished CTA #1 (28586,0), 2 CTAs running
GPGPU-Sim uArch: core: 11, cta: 1 initialized @(28587,0)
GPGPU-Sim uArch: Shader 8 finished CTA #1 (28590,0), 2 CTAs running
GPGPU-Sim uArch: core:  8, cta: 1 initialized @(28591,0)
GPGPU-Sim uArch: Shader 3 finished CTA #1 (28607,0), 2 CTAs running
GPGPU-Sim uArch: core:  3, cta: 1 initialized @(28608,0)
GPGPU-Sim uArch: Shader 4 finished CTA #1 (28609,0), 2 CTAs running
GPGPU-Sim uArch: core:  4, cta: 1 initialized @(28610,0)
GPGPU-Sim PTX: 5700000 instructions simulated : ctaid=(20,2,0) tid=(2,10,0)
GPGPU-Sim uArch: Shader 14 finished CTA #2 (28905,0), 2 CTAs running
GPGPU-Sim uArch: core: 14, cta: 2 initialized @(28906,0)
GPGPU-Sim PTX: 5800000 instructions simulated : ctaid=(10,3,0) tid=(13,6,0)
GPGPU-Sim uArch: Shader 13 finished CTA #1 (29088,0), 2 CTAs running
GPGPU-Sim uArch: core: 13, cta: 1 initialized @(29089,0)
GPGPU-Sim uArch: Shader 10 finished CTA #1 (29115,0), 2 CTAs running
GPGPU-Sim uArch: core: 10, cta: 1 initialized @(29116,0)
GPGPU-Sim uArch: Shader 12 finished CTA #1 (29118,0), 2 CTAs running
GPGPU-Sim uArch: core: 12, cta: 1 initialized @(29119,0)
GPGPU-Sim uArch: Shader 3 finished CTA #2 (29304,0), 2 CTAs running
GPGPU-Sim uArch: core:  3, cta: 2 initialized @(29305,0)
GPGPU-Sim uArch: Shader 4 finished CTA #2 (29328,0), 2 CTAs running
GPGPU-Sim uArch: core:  4, cta: 2 initialized @(29329,0)
GPGPU-Sim PTX: 5900000 instructions simulated : ctaid=(32,2,0) tid=(1,4,0)
GPGPU-Sim uArch: cycles simulated: 29500  inst.: 5533393 (ipc=187.6) sim_rate=131747 (inst/sec) elapsed = 0:0:00:42 / Tue Mar 22 12:44:50 2016
GPGPU-Sim uArch: Shader 13 finished CTA #2 (29824,0), 2 CTAs running
GPGPU-Sim uArch: core: 13, cta: 2 initialized @(29825,0)
GPGPU-Sim PTX: 6000000 instructions simulated : ctaid=(29,2,0) tid=(9,11,0)
GPGPU-Sim uArch: Shader 10 finished CTA #2 (29862,0), 2 CTAs running
GPGPU-Sim uArch: Shader 12 finished CTA #2 (29862,0), 2 CTAs running
GPGPU-Sim uArch: core: 10, cta: 2 initialized @(29863,0)
GPGPU-Sim uArch: core: 12, cta: 2 initialized @(29863,0)
GPGPU-Sim uArch: Shader 9 finished CTA #2 (30119,0), 2 CTAs running
GPGPU-Sim uArch: core:  9, cta: 2 initialized @(30120,0)
GPGPU-Sim uArch: Shader 7 finished CTA #1 (30155,0), 2 CTAs running
GPGPU-Sim uArch: core:  7, cta: 1 initialized @(30156,0)
GPGPU-Sim PTX: 6100000 instructions simulated : ctaid=(9,3,0) tid=(8,15,0)
GPGPU-Sim uArch: cycles simulated: 30500  inst.: 5735794 (ipc=188.1) sim_rate=133390 (inst/sec) elapsed = 0:0:00:43 / Tue Mar 22 12:44:51 2016
GPGPU-Sim uArch: Shader 6 finished CTA #1 (30763,0), 2 CTAs running
GPGPU-Sim uArch: core:  6, cta: 1 initialized @(30764,0)
GPGPU-Sim PTX: 6200000 instructions simulated : ctaid=(0,3,0) tid=(0,13,0)
GPGPU-Sim uArch: Shader 5 finished CTA #1 (30955,0), 2 CTAs running
GPGPU-Sim uArch: core:  5, cta: 1 initialized @(30956,0)
GPGPU-Sim uArch: Shader 0 finished CTA #1 (31094,0), 2 CTAs running
GPGPU-Sim uArch: core:  0, cta: 1 initialized @(31095,0)
GPGPU-Sim uArch: Shader 1 finished CTA #2 (31181,0), 2 CTAs running
GPGPU-Sim uArch: core:  1, cta: 2 initialized @(31182,0)
GPGPU-Sim uArch: Shader 2 finished CTA #2 (31184,0), 2 CTAs running
GPGPU-Sim uArch: core:  2, cta: 2 initialized @(31185,0)
GPGPU-Sim PTX: 6300000 instructions simulated : ctaid=(1,3,0) tid=(1,13,0)
GPGPU-Sim uArch: cycles simulated: 31500  inst.: 5918451 (ipc=187.9) sim_rate=134510 (inst/sec) elapsed = 0:0:00:44 / Tue Mar 22 12:44:52 2016
GPGPU-Sim PTX: 6400000 instructions simulated : ctaid=(0,4,0) tid=(13,9,0)
GPGPU-Sim PTX: 6500000 instructions simulated : ctaid=(9,3,0) tid=(10,8,0)
GPGPU-Sim uArch: Shader 8 finished CTA #2 (32262,0), 2 CTAs running
GPGPU-Sim uArch: core:  8, cta: 2 initialized @(32263,0)
GPGPU-Sim uArch: Shader 11 finished CTA #2 (32276,0), 2 CTAs running
GPGPU-Sim uArch: core: 11, cta: 2 initialized @(32277,0)
GPGPU-Sim uArch: cycles simulated: 32500  inst.: 6152998 (ipc=189.3) sim_rate=136733 (inst/sec) elapsed = 0:0:00:45 / Tue Mar 22 12:44:53 2016
GPGPU-Sim PTX: 6600000 instructions simulated : ctaid=(15,3,0) tid=(10,12,0)
GPGPU-Sim uArch: Shader 14 finished CTA #0 (32746,0), 2 CTAs running
GPGPU-Sim uArch: core: 14, cta: 0 initialized @(32747,0)
GPGPU-Sim PTX: 6700000 instructions simulated : ctaid=(26,3,0) tid=(9,2,0)
GPGPU-Sim uArch: Shader 3 finished CTA #0 (33166,0), 2 CTAs running
GPGPU-Sim uArch: core:  3, cta: 0 initialized @(33167,0)
GPGPU-Sim uArch: Shader 13 finished CTA #0 (33215,0), 2 CTAs running
GPGPU-Sim uArch: core: 13, cta: 0 initialized @(33216,0)
GPGPU-Sim uArch: Shader 4 finished CTA #0 (33217,0), 2 CTAs running
GPGPU-Sim uArch: core:  4, cta: 0 initialized @(33218,0)
GPGPU-Sim PTX: 6800000 instructions simulated : ctaid=(14,3,0) tid=(4,6,0)
GPGPU-Sim uArch: cycles simulated: 33500  inst.: 6369702 (ipc=190.1) sim_rate=138471 (inst/sec) elapsed = 0:0:00:46 / Tue Mar 22 12:44:54 2016
GPGPU-Sim uArch: Shader 10 finished CTA #0 (33682,0), 2 CTAs running
GPGPU-Sim uArch: core: 10, cta: 0 initialized @(33683,0)
GPGPU-Sim uArch: Shader 12 finished CTA #0 (33768,0), 2 CTAs running
GPGPU-Sim uArch: core: 12, cta: 0 initialized @(33769,0)
GPGPU-Sim uArch: Shader 9 finished CTA #0 (33769,0), 2 CTAs running
GPGPU-Sim uArch: core:  9, cta: 0 initialized @(33770,0)
GPGPU-Sim uArch: Shader 7 finished CTA #2 (33786,0), 2 CTAs running
GPGPU-Sim uArch: core:  7, cta: 2 initialized @(33787,0)
GPGPU-Sim PTX: 6900000 instructions simulated : ctaid=(31,3,0) tid=(5,14,0)
GPGPU-Sim uArch: Shader 1 finished CTA #0 (34197,0), 2 CTAs running
GPGPU-Sim uArch: core:  1, cta: 0 initialized @(34198,0)
GPGPU-Sim uArch: Shader 2 finished CTA #0 (34274,0), 2 CTAs running
GPGPU-Sim uArch: core:  2, cta: 0 initialized @(34275,0)
GPGPU-Sim uArch: Shader 6 finished CTA #2 (34281,0), 2 CTAs running
GPGPU-Sim uArch: core:  6, cta: 2 initialized @(34282,0)
GPGPU-Sim uArch: Shader 5 finished CTA #2 (34330,0), 2 CTAs running
GPGPU-Sim uArch: core:  5, cta: 2 initialized @(34331,0)
GPGPU-Sim uArch: Shader 0 finished CTA #2 (34336,0), 2 CTAs running
GPGPU-Sim uArch: core:  0, cta: 2 initialized @(34337,0)
GPGPU-Sim PTX: 7000000 instructions simulated : ctaid=(30,3,0) tid=(11,0,0)
GPGPU-Sim PTX: 7100000 instructions simulated : ctaid=(13,3,0) tid=(4,11,0)
GPGPU-Sim uArch: cycles simulated: 35000  inst.: 6644848 (ipc=189.9) sim_rate=141379 (inst/sec) elapsed = 0:0:00:47 / Tue Mar 22 12:44:55 2016
GPGPU-Sim uArch: Shader 8 finished CTA #0 (35197,0), 2 CTAs running
GPGPU-Sim uArch: core:  8, cta: 0 initialized @(35198,0)
GPGPU-Sim uArch: Shader 11 finished CTA #0 (35262,0), 2 CTAs running
GPGPU-Sim uArch: core: 11, cta: 0 initialized @(35263,0)
GPGPU-Sim PTX: 7200000 instructions simulated : ctaid=(28,3,0) tid=(11,14,0)
GPGPU-Sim PTX: 7300000 instructions simulated : ctaid=(17,4,0) tid=(3,4,0)
GPGPU-Sim uArch: cycles simulated: 36000  inst.: 6875066 (ipc=191.0) sim_rate=143230 (inst/sec) elapsed = 0:0:00:48 / Tue Mar 22 12:44:56 2016
GPGPU-Sim PTX: 7400000 instructions simulated : ctaid=(21,3,0) tid=(8,4,0)
GPGPU-Sim uArch: Shader 14 finished CTA #1 (36258,0), 2 CTAs running
GPGPU-Sim uArch: core: 14, cta: 1 initialized @(36259,0)
GPGPU-Sim PTX: 7500000 instructions simulated : ctaid=(21,3,0) tid=(3,14,0)
GPGPU-Sim uArch: Shader 7 finished CTA #0 (36757,0), 2 CTAs running
GPGPU-Sim uArch: core:  7, cta: 0 initialized @(36758,0)
GPGPU-Sim uArch: Shader 4 finished CTA #1 (36789,0), 2 CTAs running
GPGPU-Sim uArch: core:  4, cta: 1 initialized @(36790,0)
GPGPU-Sim uArch: Shader 10 finished CTA #1 (36804,0), 2 CTAs running
GPGPU-Sim uArch: core: 10, cta: 1 initialized @(36805,0)
GPGPU-Sim uArch: Shader 13 finished CTA #1 (36829,0), 2 CTAs running
GPGPU-Sim uArch: core: 13, cta: 1 initialized @(36830,0)
GPGPU-Sim uArch: Shader 3 finished CTA #1 (36830,0), 2 CTAs running
GPGPU-Sim uArch: core:  3, cta: 1 initialized @(36831,0)
GPGPU-Sim uArch: cycles simulated: 37000  inst.: 7096032 (ipc=191.8) sim_rate=144816 (inst/sec) elapsed = 0:0:00:49 / Tue Mar 22 12:44:57 2016
GPGPU-Sim PTX: 7600000 instructions simulated : ctaid=(21,3,0) tid=(4,13,0)
GPGPU-Sim uArch: Shader 12 finished CTA #1 (37257,0), 2 CTAs running
GPGPU-Sim uArch: core: 12, cta: 1 initialized @(37258,0)
GPGPU-Sim uArch: Shader 9 finished CTA #1 (37313,0), 2 CTAs running
GPGPU-Sim uArch: core:  9, cta: 1 initialized @(37314,0)
GPGPU-Sim uArch: Shader 2 finished CTA #1 (37364,0), 2 CTAs running
GPGPU-Sim uArch: core:  2, cta: 1 initialized @(37365,0)
GPGPU-Sim uArch: Shader 6 finished CTA #0 (37409,0), 2 CTAs running
GPGPU-Sim uArch: core:  6, cta: 0 initialized @(37410,0)
GPGPU-Sim PTX: 7700000 instructions simulated : ctaid=(5,4,0) tid=(5,3,0)
GPGPU-Sim uArch: Shader 7 finished CTA #1 (37577,0), 2 CTAs running
GPGPU-Sim uArch: core:  7, cta: 1 initialized @(37578,0)
GPGPU-Sim uArch: Shader 5 finished CTA #0 (37844,0), 2 CTAs running
GPGPU-Sim uArch: core:  5, cta: 0 initialized @(37845,0)
GPGPU-Sim PTX: 7800000 instructions simulated : ctaid=(35,3,0) tid=(11,10,0)
GPGPU-Sim uArch: Shader 1 finished CTA #1 (37859,0), 2 CTAs running
GPGPU-Sim uArch: core:  1, cta: 1 initialized @(37860,0)
GPGPU-Sim uArch: Shader 0 finished CTA #0 (37874,0), 2 CTAs running
GPGPU-Sim uArch: core:  0, cta: 0 initialized @(37875,0)
GPGPU-Sim uArch: Shader 12 finished CTA #2 (37958,0), 2 CTAs running
GPGPU-Sim uArch: core: 12, cta: 2 initialized @(37959,0)
GPGPU-Sim uArch: cycles simulated: 38000  inst.: 7330942 (ipc=192.9) sim_rate=146618 (inst/sec) elapsed = 0:0:00:50 / Tue Mar 22 12:44:58 2016
GPGPU-Sim uArch: Shader 9 finished CTA #2 (38058,0), 2 CTAs running
GPGPU-Sim uArch: core:  9, cta: 2 initialized @(38059,0)
GPGPU-Sim uArch: Shader 6 finished CTA #1 (38113,0), 2 CTAs running
GPGPU-Sim uArch: core:  6, cta: 1 initialized @(38114,0)
GPGPU-Sim PTX: 7900000 instructions simulated : ctaid=(41,3,0) tid=(3,15,0)
GPGPU-Sim uArch: Shader 8 finished CTA #1 (38303,0), 2 CTAs running
GPGPU-Sim uArch: core:  8, cta: 1 initialized @(38304,0)
GPGPU-Sim uArch: Shader 11 finished CTA #1 (38419,0), 2 CTAs running
GPGPU-Sim uArch: core: 11, cta: 1 initialized @(38420,0)
GPGPU-Sim uArch: Shader 5 finished CTA #1 (38506,0), 2 CTAs running
GPGPU-Sim uArch: core:  5, cta: 1 initialized @(38507,0)
GPGPU-Sim uArch: Shader 0 finished CTA #1 (38548,0), 2 CTAs running
GPGPU-Sim uArch: core:  0, cta: 1 initialized @(38549,0)
GPGPU-Sim PTX: 8000000 instructions simulated : ctaid=(29,3,0) tid=(13,11,0)
GPGPU-Sim uArch: cycles simulated: 39000  inst.: 7546592 (ipc=193.5) sim_rate=147972 (inst/sec) elapsed = 0:0:00:51 / Tue Mar 22 12:44:59 2016
GPGPU-Sim PTX: 8100000 instructions simulated : ctaid=(26,4,0) tid=(8,3,0)
GPGPU-Sim uArch: Shader 14 finished CTA #2 (39272,0), 2 CTAs running
GPGPU-Sim uArch: core: 14, cta: 2 initialized @(39273,0)
GPGPU-Sim PTX: 8200000 instructions simulated : ctaid=(0,4,0) tid=(1,14,0)
GPGPU-Sim uArch: Shader 3 finished CTA #2 (39706,0), 2 CTAs running
GPGPU-Sim uArch: core:  3, cta: 2 initialized @(39707,0)
GPGPU-Sim uArch: cycles simulated: 40000  inst.: 7751011 (ipc=193.8) sim_rate=149057 (inst/sec) elapsed = 0:0:00:52 / Tue Mar 22 12:45:00 2016
GPGPU-Sim PTX: 8300000 instructions simulated : ctaid=(6,4,0) tid=(15,6,0)
GPGPU-Sim uArch: Shader 10 finished CTA #2 (40262,0), 2 CTAs running
GPGPU-Sim uArch: core: 10, cta: 2 initialized @(40263,0)
GPGPU-Sim uArch: Shader 13 finished CTA #2 (40291,0), 2 CTAs running
GPGPU-Sim uArch: core: 13, cta: 2 initialized @(40292,0)
GPGPU-Sim uArch: Shader 4 finished CTA #2 (40295,0), 2 CTAs running
GPGPU-Sim uArch: core:  4, cta: 2 initialized @(40296,0)
GPGPU-Sim PTX: 8400000 instructions simulated : ctaid=(11,4,0) tid=(5,10,0)
GPGPU-Sim PTX: 8500000 instructions simulated : ctaid=(14,4,0) tid=(10,11,0)
GPGPU-Sim uArch: cycles simulated: 41000  inst.: 7967282 (ipc=194.3) sim_rate=150326 (inst/sec) elapsed = 0:0:00:53 / Tue Mar 22 12:45:01 2016
GPGPU-Sim uArch: Shader 2 finished CTA #2 (41059,0), 2 CTAs running
GPGPU-Sim uArch: core:  2, cta: 2 initialized @(41060,0)
GPGPU-Sim uArch: Shader 1 finished CTA #2 (41063,0), 2 CTAs running
GPGPU-Sim uArch: core:  1, cta: 2 initialized @(41064,0)
GPGPU-Sim PTX: 8600000 instructions simulated : ctaid=(12,4,0) tid=(3,10,0)
GPGPU-Sim uArch: Shader 7 finished CTA #2 (41535,0), 2 CTAs running
GPGPU-Sim uArch: core:  7, cta: 2 initialized @(41536,0)
GPGPU-Sim uArch: Shader 9 finished CTA #0 (41585,0), 2 CTAs running
GPGPU-Sim uArch: core:  9, cta: 0 initialized @(41586,0)
GPGPU-Sim PTX: 8700000 instructions simulated : ctaid=(38,4,0) tid=(15,1,0)
GPGPU-Sim uArch: Shader 12 finished CTA #0 (41838,0), 2 CTAs running
GPGPU-Sim uArch: core: 12, cta: 0 initialized @(41839,0)
GPGPU-Sim uArch: Shader 5 finished CTA #2 (41948,0), 2 CTAs running
GPGPU-Sim uArch: core:  5, cta: 2 initialized @(41949,0)
GPGPU-Sim uArch: Shader 6 finished CTA #2 (41957,0), 2 CTAs running
GPGPU-Sim uArch: core:  6, cta: 2 initialized @(41958,0)
GPGPU-Sim uArch: Shader 8 finished CTA #2 (41958,0), 2 CTAs running
GPGPU-Sim uArch: core:  8, cta: 2 initialized @(41959,0)
GPGPU-Sim uArch: cycles simulated: 42000  inst.: 8174288 (ipc=194.6) sim_rate=151375 (inst/sec) elapsed = 0:0:00:54 / Tue Mar 22 12:45:02 2016
GPGPU-Sim uArch: Shader 11 finished CTA #2 (42021,0), 2 CTAs running
GPGPU-Sim uArch: core: 11, cta: 2 initialized @(42022,0)
GPGPU-Sim PTX: 8800000 instructions simulated : ctaid=(8,4,0) tid=(4,11,0)
GPGPU-Sim uArch: Shader 0 finished CTA #2 (42383,0), 2 CTAs running
GPGPU-Sim uArch: core:  0, cta: 2 initialized @(42384,0)
GPGPU-Sim PTX: 8900000 instructions simulated : ctaid=(13,4,0) tid=(1,15,0)
GPGPU-Sim uArch: Shader 14 finished CTA #0 (42953,0), 2 CTAs running
GPGPU-Sim uArch: core: 14, cta: 0 initialized @(42954,0)
GPGPU-Sim uArch: Shader 3 finished CTA #0 (42977,0), 2 CTAs running
GPGPU-Sim uArch: core:  3, cta: 0 initialized @(42978,0)
GPGPU-Sim PTX: 9000000 instructions simulated : ctaid=(1,5,0) tid=(9,13,0)
GPGPU-Sim uArch: Shader 10 finished CTA #0 (43207,0), 2 CTAs running
GPGPU-Sim uArch: core: 10, cta: 0 initialized @(43208,0)
GPGPU-Sim uArch: Shader 4 finished CTA #0 (43330,0), 2 CTAs running
GPGPU-Sim uArch: core:  4, cta: 0 initialized @(43331,0)
GPGPU-Sim uArch: Shader 13 finished CTA #0 (43340,0), 2 CTAs running
GPGPU-Sim uArch: core: 13, cta: 0 initialized @(43341,0)
GPGPU-Sim uArch: cycles simulated: 43500  inst.: 8480810 (ipc=195.0) sim_rate=154196 (inst/sec) elapsed = 0:0:00:55 / Tue Mar 22 12:45:03 2016
GPGPU-Sim PTX: 9100000 instructions simulated : ctaid=(20,4,0) tid=(11,12,0)
GPGPU-Sim PTX: 9200000 instructions simulated : ctaid=(1,5,0) tid=(9,2,0)
GPGPU-Sim uArch: Shader 1 finished CTA #0 (44033,0), 2 CTAs running
GPGPU-Sim uArch: core:  1, cta: 0 initialized @(44034,0)
GPGPU-Sim uArch: Shader 2 finished CTA #0 (44064,0), 2 CTAs running
GPGPU-Sim uArch: core:  2, cta: 0 initialized @(44065,0)
GPGPU-Sim PTX: 9300000 instructions simulated : ctaid=(23,4,0) tid=(7,4,0)
GPGPU-Sim uArch: cycles simulated: 44500  inst.: 8714538 (ipc=195.8) sim_rate=155616 (inst/sec) elapsed = 0:0:00:56 / Tue Mar 22 12:45:04 2016
GPGPU-Sim PTX: 9400000 instructions simulated : ctaid=(24,4,0) tid=(5,9,0)
GPGPU-Sim uArch: Shader 8 finished CTA #0 (44951,0), 2 CTAs running
GPGPU-Sim uArch: core:  8, cta: 0 initialized @(44952,0)
GPGPU-Sim uArch: Shader 9 finished CTA #1 (45041,0), 2 CTAs running
GPGPU-Sim uArch: core:  9, cta: 1 initialized @(45042,0)
GPGPU-Sim uArch: Shader 7 finished CTA #0 (45118,0), 2 CTAs running
GPGPU-Sim uArch: core:  7, cta: 0 initialized @(45119,0)
GPGPU-Sim uArch: Shader 11 finished CTA #0 (45138,0), 2 CTAs running
GPGPU-Sim uArch: core: 11, cta: 0 initialized @(45139,0)
GPGPU-Sim PTX: 9500000 instructions simulated : ctaid=(23,4,0) tid=(9,9,0)
GPGPU-Sim uArch: Shader 12 finished CTA #1 (45401,0), 2 CTAs running
GPGPU-Sim uArch: core: 12, cta: 1 initialized @(45402,0)
GPGPU-Sim uArch: cycles simulated: 45500  inst.: 8943416 (ipc=196.6) sim_rate=156902 (inst/sec) elapsed = 0:0:00:57 / Tue Mar 22 12:45:05 2016
GPGPU-Sim uArch: Shader 5 finished CTA #0 (45506,0), 2 CTAs running
GPGPU-Sim uArch: core:  5, cta: 0 initialized @(45507,0)
GPGPU-Sim uArch: Shader 6 finished CTA #0 (45566,0), 2 CTAs running
GPGPU-Sim uArch: core:  6, cta: 0 initialized @(45567,0)
GPGPU-Sim PTX: 9600000 instructions simulated : ctaid=(20,5,0) tid=(13,5,0)
GPGPU-Sim uArch: Shader 11 finished CTA #1 (45756,0), 2 CTAs running
GPGPU-Sim uArch: core: 11, cta: 1 initialized @(45757,0)
GPGPU-Sim uArch: Shader 14 finished CTA #1 (45899,0), 2 CTAs running
GPGPU-Sim uArch: core: 14, cta: 1 initialized @(45900,0)
GPGPU-Sim uArch: Shader 3 finished CTA #1 (45914,0), 2 CTAs running
GPGPU-Sim uArch: core:  3, cta: 1 initialized @(45915,0)
GPGPU-Sim uArch: Shader 0 finished CTA #0 (45932,0), 2 CTAs running
GPGPU-Sim uArch: core:  0, cta: 0 initialized @(45933,0)
GPGPU-Sim PTX: 9700000 instructions simulated : ctaid=(31,4,0) tid=(8,8,0)
GPGPU-Sim uArch: Shader 5 finished CTA #1 (46232,0), 2 CTAs running
GPGPU-Sim uArch: core:  5, cta: 1 initialized @(46233,0)
GPGPU-Sim uArch: Shader 10 finished CTA #1 (46329,0), 2 CTAs running
GPGPU-Sim uArch: core: 10, cta: 1 initialized @(46330,0)
GPGPU-Sim uArch: Shader 13 finished CTA #1 (46386,0), 2 CTAs running
GPGPU-Sim uArch: core: 13, cta: 1 initialized @(46387,0)
GPGPU-Sim PTX: 9800000 instructions simulated : ctaid=(34,4,0) tid=(11,7,0)
GPGPU-Sim uArch: Shader 4 finished CTA #1 (46434,0), 2 CTAs running
GPGPU-Sim uArch: core:  4, cta: 1 initialized @(46435,0)
GPGPU-Sim uArch: cycles simulated: 46500  inst.: 9186250 (ipc=197.6) sim_rate=158383 (inst/sec) elapsed = 0:0:00:58 / Tue Mar 22 12:45:06 2016
GPGPU-Sim uArch: Shader 0 finished CTA #1 (46695,0), 2 CTAs running
GPGPU-Sim uArch: core:  0, cta: 1 initialized @(46696,0)
GPGPU-Sim uArch: Shader 3 finished CTA #2 (46742,0), 2 CTAs running
GPGPU-Sim uArch: core:  3, cta: 2 initialized @(46743,0)
GPGPU-Sim uArch: Shader 14 finished CTA #2 (46765,0), 2 CTAs running
GPGPU-Sim uArch: core: 14, cta: 2 initialized @(46766,0)
GPGPU-Sim PTX: 9900000 instructions simulated : ctaid=(1,5,0) tid=(13,10,0)
GPGPU-Sim uArch: Shader 1 finished CTA #1 (47106,0), 2 CTAs running
GPGPU-Sim uArch: core:  1, cta: 1 initialized @(47107,0)
GPGPU-Sim uArch: Shader 10 finished CTA #2 (47179,0), 2 CTAs running
GPGPU-Sim uArch: core: 10, cta: 2 initialized @(47180,0)
GPGPU-Sim uArch: Shader 2 finished CTA #1 (47250,0), 2 CTAs running
GPGPU-Sim uArch: core:  2, cta: 1 initialized @(47251,0)
GPGPU-Sim PTX: 10000000 instructions simulated : ctaid=(14,5,0) tid=(6,7,0)
GPGPU-Sim PTX: 10100000 instructions simulated : ctaid=(15,5,0) tid=(10,6,0)
GPGPU-Sim uArch: cycles simulated: 48000  inst.: 9485966 (ipc=197.6) sim_rate=160779 (inst/sec) elapsed = 0:0:00:59 / Tue Mar 22 12:45:07 2016
GPGPU-Sim uArch: Shader 7 finished CTA #1 (48088,0), 2 CTAs running
GPGPU-Sim uArch: core:  7, cta: 1 initialized @(48089,0)
GPGPU-Sim PTX: 10200000 instructions simulated : ctaid=(35,4,0) tid=(14,10,0)
GPGPU-Sim uArch: Shader 12 finished CTA #2 (48373,0), 2 CTAs running
GPGPU-Sim uArch: core: 12, cta: 2 initialized @(48374,0)
GPGPU-Sim uArch: Shader 8 finished CTA #1 (48605,0), 2 CTAs running
GPGPU-Sim uArch: core:  8, cta: 1 initialized @(48606,0)
GPGPU-Sim uArch: Shader 6 finished CTA #1 (48631,0), 2 CTAs running
GPGPU-Sim uArch: core:  6, cta: 1 initialized @(48632,0)
GPGPU-Sim uArch: Shader 9 finished CTA #2 (48633,0), 2 CTAs running
GPGPU-Sim uArch: core:  9, cta: 2 initialized @(48634,0)
GPGPU-Sim PTX: 10300000 instructions simulated : ctaid=(2,5,0) tid=(4,5,0)
GPGPU-Sim PTX: 10400000 instructions simulated : ctaid=(11,5,0) tid=(3,13,0)
GPGPU-Sim uArch: cycles simulated: 49500  inst.: 9803775 (ipc=198.1) sim_rate=163396 (inst/sec) elapsed = 0:0:01:00 / Tue Mar 22 12:45:08 2016
GPGPU-Sim PTX: 10500000 instructions simulated : ctaid=(6,5,0) tid=(12,0,0)
GPGPU-Sim uArch: Shader 11 finished CTA #2 (49613,0), 2 CTAs running
GPGPU-Sim uArch: core: 11, cta: 2 initialized @(49614,0)
GPGPU-Sim PTX: 10600000 instructions simulated : ctaid=(3,5,0) tid=(14,8,0)
GPGPU-Sim uArch: Shader 13 finished CTA #2 (50056,0), 2 CTAs running
GPGPU-Sim uArch: core: 13, cta: 2 initialized @(50057,0)
GPGPU-Sim uArch: Shader 5 finished CTA #2 (50059,0), 2 CTAs running
GPGPU-Sim uArch: core:  5, cta: 2 initialized @(50060,0)
GPGPU-Sim uArch: Shader 4 finished CTA #2 (50075,0), 2 CTAs running
GPGPU-Sim uArch: core:  4, cta: 2 initialized @(50076,0)
GPGPU-Sim PTX: 10700000 instructions simulated : ctaid=(6,5,0) tid=(9,15,0)
GPGPU-Sim uArch: cycles simulated: 50500  inst.: 10026716 (ipc=198.5) sim_rate=164372 (inst/sec) elapsed = 0:0:01:01 / Tue Mar 22 12:45:09 2016
GPGPU-Sim uArch: Shader 14 finished CTA #0 (50602,0), 2 CTAs running
GPGPU-Sim uArch: core: 14, cta: 0 initialized @(50603,0)
GPGPU-Sim uArch: Shader 0 finished CTA #2 (50604,0), 2 CTAs running
GPGPU-Sim uArch: core:  0, cta: 2 initialized @(50605,0)
GPGPU-Sim uArch: Shader 3 finished CTA #0 (50616,0), 2 CTAs running
GPGPU-Sim uArch: core:  3, cta: 0 initialized @(50617,0)
GPGPU-Sim uArch: Shader 10 finished CTA #0 (50636,0), 2 CTAs running
GPGPU-Sim uArch: core: 10, cta: 0 initialized @(50637,0)
GPGPU-Sim uArch: Shader 1 finished CTA #2 (50804,0), 2 CTAs running
GPGPU-Sim uArch: core:  1, cta: 2 initialized @(50805,0)
GPGPU-Sim uArch: Shader 2 finished CTA #2 (50808,0), 2 CTAs running
GPGPU-Sim uArch: core:  2, cta: 2 initialized @(50809,0)
GPGPU-Sim PTX: 10800000 instructions simulated : ctaid=(3,6,0) tid=(7,13,0)
GPGPU-Sim PTX: 10900000 instructions simulated : ctaid=(5,5,0) tid=(14,13,0)
GPGPU-Sim uArch: Shader 8 finished CTA #2 (51627,0), 2 CTAs running
GPGPU-Sim uArch: core:  8, cta: 2 initialized @(51628,0)
GPGPU-Sim uArch: Shader 6 finished CTA #2 (51650,0), 2 CTAs running
GPGPU-Sim uArch: core:  6, cta: 2 initialized @(51651,0)
GPGPU-Sim uArch: Shader 7 finished CTA #2 (51756,0), 2 CTAs running
GPGPU-Sim uArch: core:  7, cta: 2 initialized @(51757,0)
GPGPU-Sim uArch: Shader 9 finished CTA #0 (51791,0), 2 CTAs running
GPGPU-Sim uArch: core:  9, cta: 0 initialized @(51792,0)
GPGPU-Sim uArch: Shader 12 finished CTA #0 (51797,0), 2 CTAs running
GPGPU-Sim uArch: core: 12, cta: 0 initialized @(51798,0)
GPGPU-Sim PTX: 11000000 instructions simulated : ctaid=(16,5,0) tid=(10,2,0)
GPGPU-Sim uArch: cycles simulated: 52000  inst.: 10307988 (ipc=198.2) sim_rate=166257 (inst/sec) elapsed = 0:0:01:02 / Tue Mar 22 12:45:10 2016
GPGPU-Sim PTX: 11100000 instructions simulated : ctaid=(16,5,0) tid=(15,10,0)
GPGPU-Sim PTX: 11200000 instructions simulated : ctaid=(31,5,0) tid=(5,9,0)
GPGPU-Sim uArch: Shader 4 finished CTA #0 (52817,0), 2 CTAs running
GPGPU-Sim uArch: core:  4, cta: 0 initialized @(52818,0)
GPGPU-Sim PTX: 11300000 instructions simulated : ctaid=(31,5,0) tid=(14,9,0)
GPGPU-Sim uArch: Shader 5 finished CTA #0 (53255,0), 2 CTAs running
GPGPU-Sim uArch: core:  5, cta: 0 initialized @(53256,0)
GPGPU-Sim uArch: Shader 11 finished CTA #0 (53259,0), 2 CTAs running
GPGPU-Sim uArch: core: 11, cta: 0 initialized @(53260,0)
GPGPU-Sim uArch: cycles simulated: 53500  inst.: 10653470 (ipc=199.1) sim_rate=169102 (inst/sec) elapsed = 0:0:01:03 / Tue Mar 22 12:45:11 2016
GPGPU-Sim PTX: 11400000 instructions simulated : ctaid=(31,5,0) tid=(7,5,0)
GPGPU-Sim uArch: Shader 13 finished CTA #0 (53623,0), 2 CTAs running
GPGPU-Sim uArch: core: 13, cta: 0 initialized @(53624,0)
GPGPU-Sim uArch: Shader 1 finished CTA #0 (53674,0), 2 CTAs running
GPGPU-Sim uArch: core:  1, cta: 0 initialized @(53675,0)
GPGPU-Sim PTX: 11500000 instructions simulated : ctaid=(35,5,0) tid=(15,7,0)
GPGPU-Sim uArch: Shader 3 finished CTA #1 (54150,0), 2 CTAs running
GPGPU-Sim uArch: core:  3, cta: 1 initialized @(54151,0)
GPGPU-Sim uArch: Shader 10 finished CTA #1 (54172,0), 2 CTAs running
GPGPU-Sim uArch: core: 10, cta: 1 initialized @(54173,0)
GPGPU-Sim uArch: Shader 14 finished CTA #1 (54208,0), 2 CTAs running
GPGPU-Sim uArch: core: 14, cta: 1 initialized @(54209,0)
GPGPU-Sim uArch: Shader 0 finished CTA #0 (54217,0), 2 CTAs running
GPGPU-Sim uArch: core:  0, cta: 0 initialized @(54218,0)
GPGPU-Sim PTX: 11600000 instructions simulated : ctaid=(22,6,0) tid=(1,1,0)
GPGPU-Sim uArch: Shader 2 finished CTA #0 (54363,0), 2 CTAs running
GPGPU-Sim uArch: core:  2, cta: 0 initialized @(54364,0)
GPGPU-Sim uArch: cycles simulated: 54500  inst.: 10887300 (ipc=199.8) sim_rate=170114 (inst/sec) elapsed = 0:0:01:04 / Tue Mar 22 12:45:12 2016
GPGPU-Sim uArch: Shader 1 finished CTA #1 (54526,0), 2 CTAs running
GPGPU-Sim uArch: core:  1, cta: 1 initialized @(54527,0)
GPGPU-Sim uArch: Shader 8 finished CTA #0 (54687,0), 2 CTAs running
GPGPU-Sim uArch: core:  8, cta: 0 initialized @(54688,0)
GPGPU-Sim uArch: Shader 7 finished CTA #0 (54693,0), 2 CTAs running
GPGPU-Sim uArch: core:  7, cta: 0 initialized @(54694,0)
GPGPU-Sim PTX: 11700000 instructions simulated : ctaid=(32,5,0) tid=(6,6,0)
GPGPU-Sim uArch: Shader 12 finished CTA #1 (54740,0), 2 CTAs running
GPGPU-Sim uArch: core: 12, cta: 1 initialized @(54741,0)
GPGPU-Sim uArch: Shader 6 finished CTA #0 (54795,0), 2 CTAs running
GPGPU-Sim uArch: core:  6, cta: 0 initialized @(54796,0)
GPGPU-Sim uArch: Shader 9 finished CTA #1 (54819,0), 2 CTAs running
GPGPU-Sim uArch: core:  9, cta: 1 initialized @(54820,0)
GPGPU-Sim uArch: Shader 10 finished CTA #2 (54847,0), 2 CTAs running
GPGPU-Sim uArch: core: 10, cta: 2 initialized @(54848,0)
GPGPU-Sim uArch: Shader 2 finished CTA #1 (54931,0), 2 CTAs running
GPGPU-Sim uArch: core:  2, cta: 1 initialized @(54932,0)
GPGPU-Sim PTX: 11800000 instructions simulated : ctaid=(24,6,0) tid=(1,5,0)
GPGPU-Sim uArch: Shader 8 finished CTA #1 (55331,0), 2 CTAs running
GPGPU-Sim uArch: core:  8, cta: 1 initialized @(55332,0)
GPGPU-Sim uArch: Shader 7 finished CTA #1 (55382,0), 2 CTAs running
GPGPU-Sim uArch: core:  7, cta: 1 initialized @(55383,0)
GPGPU-Sim uArch: Shader 12 finished CTA #2 (55438,0), 2 CTAs running
GPGPU-Sim uArch: core: 12, cta: 2 initialized @(55439,0)
GPGPU-Sim uArch: cycles simulated: 55500  inst.: 11118382 (ipc=200.3) sim_rate=171052 (inst/sec) elapsed = 0:0:01:05 / Tue Mar 22 12:45:13 2016
GPGPU-Sim PTX: 11900000 instructions simulated : ctaid=(32,6,0) tid=(5,5,0)
GPGPU-Sim PTX: 12000000 instructions simulated : ctaid=(30,6,0) tid=(8,4,0)
GPGPU-Sim uArch: Shader 11 finished CTA #1 (56183,0), 2 CTAs running
GPGPU-Sim uArch: core: 11, cta: 1 initialized @(56184,0)
GPGPU-Sim uArch: Shader 5 finished CTA #1 (56184,0), 2 CTAs running
GPGPU-Sim uArch: core:  5, cta: 1 initialized @(56185,0)
GPGPU-Sim uArch: Shader 4 finished CTA #1 (56484,0), 2 CTAs running
GPGPU-Sim uArch: core:  4, cta: 1 initialized @(56485,0)
GPGPU-Sim uArch: cycles simulated: 56500  inst.: 11315360 (ipc=200.3) sim_rate=171444 (inst/sec) elapsed = 0:0:01:06 / Tue Mar 22 12:45:14 2016
GPGPU-Sim PTX: 12100000 instructions simulated : ctaid=(34,5,0) tid=(14,8,0)
GPGPU-Sim uArch: Shader 13 finished CTA #1 (56553,0), 2 CTAs running
GPGPU-Sim uArch: core: 13, cta: 1 initialized @(56554,0)
GPGPU-Sim PTX: 12200000 instructions simulated : ctaid=(35,5,0) tid=(13,12,0)
GPGPU-Sim PTX: 12300000 instructions simulated : ctaid=(16,6,0) tid=(14,4,0)
GPGPU-Sim uArch: Shader 3 finished CTA #2 (57701,0), 2 CTAs running
GPGPU-Sim uArch: core:  3, cta: 2 initialized @(57702,0)
GPGPU-Sim uArch: Shader 14 finished CTA #2 (57703,0), 2 CTAs running
GPGPU-Sim uArch: core: 14, cta: 2 initialized @(57704,0)
GPGPU-Sim uArch: Shader 0 finished CTA #1 (57708,0), 2 CTAs running
GPGPU-Sim uArch: core:  0, cta: 1 initialized @(57709,0)
GPGPU-Sim PTX: 12400000 instructions simulated : ctaid=(10,6,0) tid=(1,1,0)
GPGPU-Sim uArch: cycles simulated: 58000  inst.: 11633290 (ipc=200.6) sim_rate=173631 (inst/sec) elapsed = 0:0:01:07 / Tue Mar 22 12:45:15 2016
GPGPU-Sim PTX: 12500000 instructions simulated : ctaid=(27,6,0) tid=(3,12,0)
GPGPU-Sim uArch: Shader 1 finished CTA #2 (58379,0), 2 CTAs running
GPGPU-Sim uArch: core:  1, cta: 2 initialized @(58380,0)
GPGPU-Sim uArch: Shader 6 finished CTA #1 (58428,0), 2 CTAs running
GPGPU-Sim uArch: core:  6, cta: 1 initialized @(58429,0)
GPGPU-Sim uArch: Shader 9 finished CTA #2 (58451,0), 2 CTAs running
GPGPU-Sim uArch: core:  9, cta: 2 initialized @(58452,0)
GPGPU-Sim PTX: 12600000 instructions simulated : ctaid=(4,6,0) tid=(12,12,0)
GPGPU-Sim uArch: Shader 10 finished CTA #0 (58732,0), 2 CTAs running
GPGPU-Sim uArch: core: 10, cta: 0 initialized @(58733,0)
GPGPU-Sim uArch: Shader 2 finished CTA #2 (58769,0), 2 CTAs running
GPGPU-Sim uArch: core:  2, cta: 2 initialized @(58770,0)
GPGPU-Sim uArch: Shader 8 finished CTA #2 (58771,0), 2 CTAs running
GPGPU-Sim uArch: core:  8, cta: 2 initialized @(58772,0)
GPGPU-Sim uArch: cycles simulated: 59000  inst.: 11844082 (ipc=200.7) sim_rate=174177 (inst/sec) elapsed = 0:0:01:08 / Tue Mar 22 12:45:16 2016
GPGPU-Sim PTX: 12700000 instructions simulated : ctaid=(5,6,0) tid=(12,14,0)
GPGPU-Sim uArch: Shader 7 finished CTA #2 (59222,0), 2 CTAs running
GPGPU-Sim uArch: core:  7, cta: 2 initialized @(59223,0)
GPGPU-Sim uArch: Shader 12 finished CTA #0 (59308,0), 2 CTAs running
GPGPU-Sim uArch: core: 12, cta: 0 initialized @(59309,0)
GPGPU-Sim PTX: 12800000 instructions simulated : ctaid=(7,6,0) tid=(2,14,0)
GPGPU-Sim uArch: Shader 4 finished CTA #2 (59849,0), 2 CTAs running
GPGPU-Sim uArch: core:  4, cta: 2 initialized @(59850,0)
GPGPU-Sim uArch: Shader 13 finished CTA #2 (59867,0), 2 CTAs running
GPGPU-Sim uArch: core: 13, cta: 2 initialized @(59868,0)
GPGPU-Sim uArch: Shader 11 finished CTA #2 (59885,0), 2 CTAs running
GPGPU-Sim uArch: core: 11, cta: 2 initialized @(59886,0)
GPGPU-Sim uArch: Shader 5 finished CTA #2 (59912,0), 2 CTAs running
GPGPU-Sim uArch: core:  5, cta: 2 initialized @(59913,0)
GPGPU-Sim uArch: cycles simulated: 60000  inst.: 12031828 (ipc=200.5) sim_rate=174374 (inst/sec) elapsed = 0:0:01:09 / Tue Mar 22 12:45:17 2016
GPGPU-Sim PTX: 12900000 instructions simulated : ctaid=(19,6,0) tid=(9,10,0)
GPGPU-Sim PTX: 13000000 instructions simulated : ctaid=(10,7,0) tid=(7,8,0)
GPGPU-Sim uArch: Shader 3 finished CTA #0 (60631,0), 2 CTAs running
GPGPU-Sim uArch: core:  3, cta: 0 initialized @(60632,0)
GPGPU-Sim uArch: Shader 0 finished CTA #2 (60658,0), 2 CTAs running
GPGPU-Sim uArch: core:  0, cta: 2 initialized @(60659,0)
GPGPU-Sim uArch: Shader 14 finished CTA #0 (60711,0), 2 CTAs running
GPGPU-Sim uArch: core: 14, cta: 0 initialized @(60712,0)
GPGPU-Sim PTX: 13100000 instructions simulated : ctaid=(26,6,0) tid=(13,8,0)
GPGPU-Sim uArch: Shader 9 finished CTA #0 (61362,0), 2 CTAs running
GPGPU-Sim uArch: core:  9, cta: 0 initialized @(61363,0)
GPGPU-Sim PTX: 13200000 instructions simulated : ctaid=(26,6,0) tid=(2,14,0)
GPGPU-Sim uArch: Shader 6 finished CTA #2 (61428,0), 2 CTAs running
GPGPU-Sim uArch: core:  6, cta: 2 initialized @(61429,0)
GPGPU-Sim uArch: cycles simulated: 61500  inst.: 12368216 (ipc=201.1) sim_rate=176688 (inst/sec) elapsed = 0:0:01:10 / Tue Mar 22 12:45:18 2016
GPGPU-Sim PTX: 13300000 instructions simulated : ctaid=(25,6,0) tid=(5,4,0)
GPGPU-Sim uArch: Shader 1 finished CTA #0 (61944,0), 2 CTAs running
GPGPU-Sim uArch: core:  1, cta: 0 initialized @(61945,0)
GPGPU-Sim PTX: 13400000 instructions simulated : ctaid=(4,7,0) tid=(7,3,0)
GPGPU-Sim uArch: Shader 10 finished CTA #1 (62231,0), 2 CTAs running
GPGPU-Sim uArch: core: 10, cta: 1 initialized @(62232,0)
GPGPU-Sim uArch: Shader 2 finished CTA #0 (62296,0), 2 CTAs running
GPGPU-Sim uArch: Shader 8 finished CTA #0 (62296,0), 2 CTAs running
GPGPU-Sim uArch: core:  2, cta: 0 initialized @(62297,0)
GPGPU-Sim uArch: core:  8, cta: 0 initialized @(62297,0)
GPGPU-Sim uArch: cycles simulated: 62500  inst.: 12579578 (ipc=201.3) sim_rate=177177 (inst/sec) elapsed = 0:0:01:11 / Tue Mar 22 12:45:19 2016
GPGPU-Sim PTX: 13500000 instructions simulated : ctaid=(18,6,0) tid=(14,11,0)
[...]
gpgpu_stall_shd_mem[l_mem_ld][wb_rsrv_fail] = 0
gpu_reg_bank_conflict_stalls = 0
Warp Occupancy Distribution:
Stall:18896	W0_Idle:325886	W0_Scoreboard:7006574	W1:0	W2:0	W3:0	W4:0	W5:0	W6:0	W7:0	W8:0	W9:5814	W10:0	W11:0	W12:0	W13:5986	W14:221808	W15:0	W16:0	W17:0	W18:17752	W19:0	W20:6132	W21:0	W22:0	W23:0	W24:0	W25:0	W26:18268	W27:0	W28:727950	W29:0	W30:59168	W31:0	W32:1663412
traffic_breakdown_coretomem[CONST_ACC_R] = 120 {8:15,}
traffic_breakdown_coretomem[GLOBAL_ACC_R] = 481104 {8:60138,}
traffic_breakdown_coretomem[GLOBAL_ACC_W] = 2162688 {40:8704,72:9728,136:8192,}
traffic_breakdown_coretomem[INST_ACC_R] = 1680 {8:210,}
traffic_breakdown_memtocore[CONST_ACC_R] = 1080 {72:15,}
traffic_breakdown_memtocore[GLOBAL_ACC_R] = 8178768 {136:60138,}
traffic_breakdown_memtocore[GLOBAL_ACC_W] = 212992 {8:26624,}
traffic_breakdown_memtocore[INST_ACC_R] = 28560 {136:210,}
maxmrqlatency = 148 
maxdqlatency = 0 
maxmflatency = 477 
averagemflatency = 208 
max_icnt2mem_latency = 93 
max_icnt2sh_latency = 321689 
mrq_lat_table:24606 	3174 	2059 	3824 	7930 	2262 	569 	18 	0 	0 	0 	0 	0 	0 	0 	0 	0 	0 	0 	0 	0 	0 	0 	0 	0 	0 	0 	0 	0 	0 	0 	0 	
dq_lat_table:0 	0 	0 	0 	0 	0 	0 	0 	0 	0 	0 	0 	0 	0 	0 	0 	0 	0 	0 	0 	0 	0 	0 	0 	0 	0 	0 	0 	0 	0 	0 	0 	
mf_lat_table:0 	0 	0 	0 	0 	0 	0 	52329 	34448 	0 	0 	0 	0 	0 	0 	0 	0 	0 	0 	0 	0 	0 	0 	0 	0 	0 	0 	0 	0 	0 	0 	0 	
icnt2mem_lat_table:0 	0 	0 	60996 	14452 	11288 	251 	0 	0 	0 	0 	0 	0 	0 	0 	0 	0 	0 	0 	0 	0 	0 	0 	0 	
icnt2sh_lat_table:0 	0 	0 	27664 	30256 	2231 	2 	0 	0 	0 	0 	0 	273 	557 	1344 	2814 	5523 	11074 	5039 	0 	0 	0 	0 	0 	
mf_lat_pw_table:0 	0 	0 	0 	0 	0 	0 	628 	8 	0 	0 	0 	0 	0 	0 	0 	0 	0 	0 	0 	0 	0 	0 	0 	0 	0 	0 	0 	0 	0 	0 	0 	
maximum concurrent accesses to same row:
dram[0]:       103        96        95        98       117       105        92       104       105       114        95        79        93        84        91        91 
dram[1]:       124       116        87        94        90        88        80        88        91        92        99        96        83        92        89        90 
dram[2]:       100       100        96        96       102       118       103        94       110       106        82        98        87        92        91        91 
dram[3]:       117       120        96        89        90        91        88        80        93        91        96        98        92        81        89        89 
dram[4]:       104        96        95        98       116       104        93       103       106       110        98        82        96        86        91        92 
dram[5]:       122       116        86        94        90        89        83        88        90        93       100        96        82        93        87        89 
maximum service time to same row:
dram[0]:     40448     42033     39054     42436     40507     38746     47444     46953     43018     44335     43491     41514     49044     46659     51728     49166 
dram[1]:     40034     41568     38057     40415     42247     39273     47450     47976     42188     46958     42200     41666     49157     45641     49204     49479 
dram[2]:     40104     37737     39137     39972     42862     41684     46958     47444     41534     49757     41510     43245     49876     49040     49381     51750 
dram[3]:     40556     38503     39033     39191     41406     44681     47973     47450     41569     50364     41662     41860     49216     49152     49697     49232 
dram[4]:     41206     38199     41549     38611     37444     43071     47414     46955     46515     48155     43493     40957     46181     49870     49526     49378 
dram[5]:     42035     39803     41368     40097     38368     41850     47447     47969     45699     47530     42231     41110     45597     49214     49035     49724 
average row accesses per activate:
dram[0]:  5.925926  5.488889  5.351648  5.072917  4.469565  5.483517  4.843137  6.024390  6.108434  6.586667  5.670886  4.047619  4.240000  4.180000  3.990654  4.205883 
dram[1]:  6.227848  6.666667  4.245454  4.808081  4.196429  4.380952  4.540816  4.909091  4.345794  5.127660  4.631579  4.188679  3.696429  4.526882  4.382979  3.980769 
dram[2]:  5.606741  6.012658  5.083333  5.845238  5.311828  4.319328  6.500000  5.402174  6.473684  6.271605  4.174757  5.600000  3.809091  4.326530  4.047170  4.196078 
dram[3]:  7.013699  5.388889  4.596154  4.333333  4.317757  4.452830  5.000000  4.734043  5.041667  4.345794  4.298077  4.568421  4.952941  3.483051  3.952381  4.600000 
dram[4]:  6.233766  5.655172  5.136842  4.989796  4.630630  5.450550  5.071429  6.662162  6.170732  6.187500  4.912088  3.917431  4.336735  4.098039  4.412371  3.909091 
dram[5]:  6.000000  6.300000  4.305555  4.518868  4.290909  4.380952  4.382353  4.958763  4.471154  5.488636  4.589474  4.228571  3.560345  4.421052  4.372340  4.019417 
average row locality = 44442/9233 = 4.813387
number of total memory accesses made:
dram[0]:         0         0         0         0         0         0         0         0         0         0         0         0         0         0         0         0 
dram[1]:         0         0         0         0         0         0         0         0         0         0         0         0         0         0         0         0 
dram[2]:         0         0         0         0         0         0         0         0         0         0         0         0         0         0         0         0 
dram[3]:         0         0         0         0         0         0         0         0         0         0         0         0         0         0         0         0 
dram[4]:         0         0         0         0         0         0         0         0         0         0         0         0         0         0         0         0 
dram[5]:         0         0         0         0         0         0         0         0         0         0         0         0         0         0         0         0 
total accesses: 0
min_bank_accesses = 0!
min_chip_accesses = 0!
number of total read accesses:
dram[0]:       259       257       256       256       256       256       256       256       256       256       256       256       256       256       256       256 
dram[1]:       258       257       256       256       256       256       256       256       256       256       256       256       256       256       256       256 
dram[2]:       258       256       256       256       256       256       256       256       256       256       256       256       256       256       256       256 
dram[3]:       258       256       256       256       256       256       256       256       256       256       256       256       256       256       256       256 
dram[4]:       258       256       256       256       256       256       256       256       256       256       256       256       256       256       256       256 
dram[5]:       258       256       256       256       256       256       256       256       256       256       256       256       256       256       256       256 
total reads: 24591
bank skew: 259/256 = 1.01
chip skew: 4100/4098 = 1.00
number of total write accesses:
dram[0]:       221       237       231       231       258       243       238       238       251       238       192       169       168       162       171       173 
dram[1]:       234       243       211       220       214       204       189       230       209       226       184       188       158       165       156       158 
dram[2]:       241       219       232       235       238       258       238       241       236       252       174       192       163       168       173       172 
dram[3]:       254       229       222       212       206       216       229       189       228       209       191       178       165       155       159       158 
dram[4]:       222       236       232       233       258       240       241       237       250       239       191       171       169       162       172       174 
dram[5]:       228       248       209       223       216       204       191       225       209       227       180       188       157       164       155       158 
total reads: 19851
bank skew: 258/155 = 1.66
chip skew: 3432/3182 = 1.08
average mf latency per bank:
dram[0]:        388       391       365       388       361       384       354       385       355       386       398       446       411       446       426       442
dram[1]:        406       381       413       385       417       397       435       390       416       387       453       425       462       441       475       441
dram[2]:        393       374       387       362       385       363       385       357       388       360       438       401       446       411       445       424
dram[3]:        381       410       386       413       394       418       394       434       381       420       416       453       444       467       440       472
dram[4]:        373       392       363       388       361       387       359       385       355       384       407       442       413       448       423       444
dram[5]:        409       383       414       387       416       397       436       395       418       384       456       420       460       448       478       440
maximum mf latency per bank:
dram[0]:        477       410       350       371       401       413       343       382       354       346       338       443       340       413       326       357
dram[1]:        388       386       355       376       420       345       340       322       386       331       353       389       332       358       342       336
dram[2]:        466       379       375       349       385       393       395       353       393       356       360       366       359       347       361       341
dram[3]:        359       399       352       346       352       368       331       394       328       337       368       427       339       318       326       349
dram[4]:        432       376       336       375       376       364       343       376       343       362       339       370       373       376       330       400
dram[5]:        398       375       344       363       346       327       371       338       326       333       347       395       350       360       340       324

Number of Memory Banks Accessed per Memory Operation per Warp (from 0):
0	0	0	0	0	0	0	0	0	0	0	0	0	0	0	0	0	0	0	0	0	0	0	0	0	0	0	0	0	0	0	0	0	0	0	0	0	0	0	0	0	0	0	0	0	0	0	0	0	0	0	0	0	0	0	0	0	0	0	0	0	0	0	0	0	0	0	0	0	0	0	0	0	0	0	0	0	0	0	0	0	0	0	0	0	0	0	0	0	0	0	0	0	0	0	0	
Average # of Memory Banks Accessed per Memory Operation per Warp=-nan

position of mrq chosen
0	0	0	0	0	0	0	0	0	0	0	0	0	0	0	0	

average position of mrq chosen = -nan
Memory Partition 0: 
Cache L2_bank_000:
MSHR contents

Cache L2_bank_001:
MSHR contents

In Dram Latency Queue (total = 0): 
DRAM[0]: 16 bks, busW=4 BL=8 CL=12, tRRD=2 tCCD=6, tRCD=12 tRAS=28 tRP=12 tRC=40
n_cmd=443829 n_nop=427351 n_act=1499 n_pre=1483 n_req=7521 n_rd=8200 n_write=5296 bw_util=0.06082
n_activity=123630 dram_eff=0.2183
bk0: 518a 437550i bk1: 514a 436955i bk2: 512a 437435i bk3: 512a 437245i bk4: 512a 436457i bk5: 512a 437327i bk6: 512a 437080i bk7: 512a 437681i bk8: 512a 437571i bk9: 512a 437908i bk10: 512a 438316i bk11: 512a 437646i bk12: 512a 437966i bk13: 512a 437944i bk14: 512a 437908i bk15: 512a 437797i 
dram_util_bins: 0 0 0 0 0 0 0 0 0 0
dram_eff_bins: 0 0 0 0 0 0 0 0 0 0
mrqq: max=16 avg=0.204216
Memory Partition 1: 
Cache L2_bank_002:
MSHR contents

Cache L2_bank_003:
MSHR contents

In Dram Latency Queue (total = 0): 
DRAM[1]: 16 bks, busW=4 BL=8 CL=12, tRRD=2 tCCD=6, tRCD=12 tRAS=28 tRP=12 tRC=40
n_cmd=443829 n_nop=427710 n_act=1582 n_pre=1566 n_req=7288 n_rd=8198 n_write=4773 bw_util=0.05845
n_activity=124067 dram_eff=0.2091
bk0: 516a 437817i bk1: 514a 437611i bk2: 512a 437070i bk3: 512a 437194i bk4: 512a 437182i bk5: 512a 437403i bk6: 512a 437597i bk7: 512a 437379i bk8: 512a 437282i bk9: 512a 437478i bk10: 512a 437872i bk11: 512a 437512i bk12: 512a 437654i bk13: 512a 438289i bk14: 512a 438424i bk15: 512a 438095i 
dram_util_bins: 0 0 0 0 0 0 0 0 0 0
dram_eff_bins: 0 0 0 0 0 0 0 0 0 0
mrqq: max=14 avg=0.159733
Memory Partition 2: 
Cache L2_bank_004:
MSHR contents

Cache L2_bank_005:
MSHR contents

In Dram Latency Queue (total = 0): 
DRAM[2]: 16 bks, busW=4 BL=8 CL=12, tRRD=2 tCCD=6, tRCD=12 tRAS=28 tRP=12 tRC=40
n_cmd=443829 n_nop=427363 n_act=1484 n_pre=1468 n_req=7530 n_rd=8196 n_write=5318 bw_util=0.0609
n_activity=123346 dram_eff=0.2191
bk0: 516a 436925i bk1: 512a 437650i bk2: 512a 437319i bk3: 512a 437745i bk4: 512a 437230i bk5: 512a 436359i bk6: 512a 437801i bk7: 512a 437287i bk8: 512a 437804i bk9: 512a 437509i bk10: 512a 437827i bk11: 512a 438157i bk12: 512a 437814i bk13: 512a 437937i bk14: 512a 437739i bk15: 512a 437913i 
dram_util_bins: 0 0 0 0 0 0 0 0 0 0
dram_eff_bins: 0 0 0 0 0 0 0 0 0 0
mrqq: max=16 avg=0.20646
Memory Partition 3: 
Cache L2_bank_006:
MSHR contents

Cache L2_bank_007:
MSHR contents

In Dram Latency Queue (total = 0): 
DRAM[3]: 16 bks, busW=4 BL=8 CL=12, tRRD=2 tCCD=6, tRCD=12 tRAS=28 tRP=12 tRC=40
n_cmd=443829 n_nop=427706 n_act=1579 n_pre=1563 n_req=7298 n_rd=8196 n_write=4785 bw_util=0.0585
n_activity=124360 dram_eff=0.2088
bk0: 516a 437771i bk1: 512a 437445i bk2: 512a 437218i bk3: 512a 437191i bk4: 512a 437356i bk5: 512a 437213i bk6: 512a 437412i bk7: 512a 437849i bk8: 512a 437434i bk9: 512a 437285i bk10: 512a 437661i bk11: 512a 437951i bk12: 512a 438452i bk13: 512a 437599i bk14: 512a 438069i bk15: 512a 438420i 
dram_util_bins: 0 0 0 0 0 0 0 0 0 0
dram_eff_bins: 0 0 0 0 0 0 0 0 0 0
mrqq: max=15 avg=0.163468
Memory Partition 4: 
Cache L2_bank_008:
MSHR contents

Cache L2_bank_009:
MSHR contents

In Dram Latency Queue (total = 0): 
DRAM[4]: 16 bks, busW=4 BL=8 CL=12, tRRD=2 tCCD=6, tRCD=12 tRAS=28 tRP=12 tRC=40
n_cmd=443829 n_nop=427354 n_act=1500 n_pre=1484 n_req=7525 n_rd=8196 n_write=5295 bw_util=0.06079
n_activity=123056 dram_eff=0.2193
bk0: 516a 437718i bk1: 512a 437178i bk2: 512a 437430i bk3: 512a 437206i bk4: 512a 436649i bk5: 512a 437208i bk6: 512a 436964i bk7: 512a 437791i bk8: 512a 437726i bk9: 512a 437813i bk10: 512a 438089i bk11: 512a 437591i bk12: 512a 437962i bk13: 512a 437999i bk14: 512a 438029i bk15: 512a 437521i 
dram_util_bins: 0 0 0 0 0 0 0 0 0 0
dram_eff_bins: 0 0 0 0 0 0 0 0 0 0
mrqq: max=16 avg=0.203297
Memory Partition 5: 
Cache L2_bank_010:
MSHR contents

Cache L2_bank_011:
MSHR contents

In Dram Latency Queue (total = 0): 
DRAM[5]: 16 bks, busW=4 BL=8 CL=12, tRRD=2 tCCD=6, tRCD=12 tRAS=28 tRP=12 tRC=40
n_cmd=443829 n_nop=427709 n_act=1589 n_pre=1573 n_req=7280 n_rd=8196 n_write=4762 bw_util=0.05839
n_activity=123949 dram_eff=0.2091
bk0: 516a 437888i bk1: 512a 437483i bk2: 512a 437226i bk3: 512a 436865i bk4: 512a 436953i bk5: 512a 437399i bk6: 512a 437546i bk7: 512a 437510i bk8: 512a 437367i bk9: 512a 437641i bk10: 512a 438015i bk11: 512a 437650i bk12: 512a 437648i bk13: 512a 438248i bk14: 512a 438404i bk15: 512a 438154i 
dram_util_bins: 0 0 0 0 0 0 0 0 0 0
dram_eff_bins: 0 0 0 0 0 0 0 0 0 0
mrqq: max=14 avg=0.157739

========= L2 cache stats =========
L2_cache_bank[0]: Access = 6714, Miss = 2051, Miss_rate = 0.305, Pending_hits = 1419, Reservation_fails = 342
L2_cache_bank[1]: Access = 7252, Miss = 2049, Miss_rate = 0.283, Pending_hits = 1425, Reservation_fails = 92
L2_cache_bank[2]: Access = 7801, Miss = 2050, Miss_rate = 0.263, Pending_hits = 1073, Reservation_fails = 198
L2_cache_bank[3]: Access = 7253, Miss = 2049, Miss_rate = 0.283, Pending_hits = 1227, Reservation_fails = 100
L2_cache_bank[4]: Access = 7265, Miss = 2050, Miss_rate = 0.282, Pending_hits = 1426, Reservation_fails = 136
L2_cache_bank[5]: Access = 6670, Miss = 2048, Miss_rate = 0.307, Pending_hits = 1441, Reservation_fails = 0
L2_cache_bank[6]: Access = 7270, Miss = 2050, Miss_rate = 0.282, Pending_hits = 1286, Reservation_fails = 191
L2_cache_bank[7]: Access = 7770, Miss = 2048, Miss_rate = 0.264, Pending_hits = 1088, Reservation_fails = 0
L2_cache_bank[8]: Access = 6699, Miss = 2050, Miss_rate = 0.306, Pending_hits = 1450, Reservation_fails = 191
L2_cache_bank[9]: Access = 7238, Miss = 2048, Miss_rate = 0.283, Pending_hits = 1412, Reservation_fails = 0
L2_cache_bank[10]: Access = 7813, Miss = 2050, Miss_rate = 0.262, Pending_hits = 1081, Reservation_fails = 189
L2_cache_bank[11]: Access = 7242, Miss = 2048, Miss_rate = 0.283, Pending_hits = 1263, Reservation_fails = 0
L2_total_cache_accesses = 86987
L2_total_cache_misses = 24591
L2_total_cache_miss_rate = 0.2827
L2_total_cache_pending_hits = 15591
L2_total_cache_reservation_fails = 1439
L2_total_cache_breakdown:
	L2_cache_stats_breakdown[GLOBAL_ACC_R][HIT] = 34932
	L2_cache_stats_breakdown[GLOBAL_ACC_R][HIT_RESERVED] = 8822
	L2_cache_stats_breakdown[GLOBAL_ACC_R][MISS] = 16384
	L2_cache_stats_breakdown[CONST_ACC_R][HIT] = 11
	L2_cache_stats_breakdown[CONST_ACC_R][HIT_RESERVED] = 3
	L2_cache_stats_breakdown[CONST_ACC_R][MISS] = 1
	L2_cache_stats_breakdown[CONST_ACC_R][RESERVATION_FAIL] = 109
	L2_cache_stats_breakdown[GLOBAL_ACC_W][HIT] = 11708
	L2_cache_stats_breakdown[GLOBAL_ACC_W][HIT_RESERVED] = 6724
	L2_cache_stats_breakdown[GLOBAL_ACC_W][MISS] = 8192
	L2_cache_stats_breakdown[INST_ACC_R][HIT] = 154
	L2_cache_stats_breakdown[INST_ACC_R][HIT_RESERVED] = 42
	L2_cache_stats_breakdown[INST_ACC_R][MISS] = 14
	L2_cache_stats_breakdown[INST_ACC_R][RESERVATION_FAIL] = 1330
L2_cache_data_port_util = 0.045
L2_cache_fill_port_util = 0.024

icnt_total_pkts_mem_to_simt=328409
icnt_total_pkts_simt_to_mem=147915
LD_mem_lat_dist  0 0 0 0 0 0 0 0 0 0 0 0 0 0 0 0 0 0 0 0 0 0 0 0 0 0 0
ST_mem_lat_dist  0 0 0 0 0 0 0 0 0 0 0 0 0 0 0 0 0 0 0 0 0 0 0 0 0 0 0
----------------------------Interconnect-DETAILS--------------------------------
Class 0:
Packet latency average = 12.4081
	minimum = 6
	maximum = 73
Network latency average = 10.8902
	minimum = 6
	maximum = 64
Slowest packet = 46972
Flit latency average = 9.76414
	minimum = 6
	maximum = 60
Slowest flit = 234117
Fragmentation average = 0
	minimum = 0
	maximum = 0
Injected packet rate average = 0.0191636
	minimum = 0.015849 (at node 6)
	maximum = 0.0232367 (at node 25)
Accepted packet rate average = 0.0191636
	minimum = 0.015849 (at node 6)
	maximum = 0.0232367 (at node 25)
Injected flit rate average = 0.0524682
	minimum = 0.0283135 (at node 6)
	maximum = 0.0877868 (at node 25)
Accepted flit rate average= 0.0524682
	minimum = 0.0350499 (at node 20)
	maximum = 0.0695317 (at node 1)
Injected packet length average = 2.7379
Accepted packet length average = 2.7379
Total in-flight flits = 0 (0 measured)
====== Overall Traffic Statistics ======
====== Traffic class 0 ======
Packet latency average = 12.4081 (1 samples)
	minimum = 6 (1 samples)
	maximum = 73 (1 samples)
Network latency average = 10.8902 (1 samples)
	minimum = 6 (1 samples)
	maximum = 64 (1 samples)
Flit latency average = 9.76414 (1 samples)
	minimum = 6 (1 samples)
	maximum = 60 (1 samples)
Fragmentation average = 0 (1 samples)
	minimum = 0 (1 samples)
	maximum = 0 (1 samples)
Injected packet rate average = 0.0191636 (1 samples)
	minimum = 0.015849 (1 samples)
	maximum = 0.0232367 (1 samples)
Accepted packet rate average = 0.0191636 (1 samples)
	minimum = 0.015849 (1 samples)
	maximum = 0.0232367 (1 samples)
Injected flit rate average = 0.0524682 (1 samples)
	minimum = 0.0283135 (1 samples)
	maximum = 0.0877868 (1 samples)
Accepted flit rate average = 0.0524682 (1 samples)
	minimum = 0.0350499 (1 samples)
	maximum = 0.0695317 (1 samples)
Injected packet size average = 2.7379 (1 samples)
Accepted packet size average = 2.7379 (1 samples)
Hops average = 1 (1 samples)
----------------------------END-of-Interconnect-DETAILS-------------------------


gpgpu_simulation_time = 0 days, 0 hrs, 5 min, 26 sec (326 sec)
gpgpu_simulation_rate = 228036 (inst/sec)
gpgpu_simulation_rate = 1031 (cycle/sec)
