

        *** GPGPU-Sim Simulator Version 3.2.2  [build 0] ***


GPGPU-Sim PTX: simulation mode 0 (can change with PTX_SIM_MODE_FUNC environment variable:
               1=functional simulation only, 0=detailed performance simulator)
GPGPU-Sim: Configuration options:

-network_mode                           1 # Interconnection network mode
-inter_config_file   config_fermi_islip.icnt # Interconnection network config file
-gpgpu_ptx_use_cuobjdump                    1 # Use cuobjdump to extract ptx and sass from binaries
-gpgpu_experimental_lib_support                    0 # Try to extract code from cuda libraries [Broken because of unknown cudaGetExportTable]
-gpgpu_ptx_convert_to_ptxplus                    0 # Convert SASS (native ISA) to ptxplus and run ptxplus
-gpgpu_ptx_force_max_capability                   20 # Force maximum compute capability
-gpgpu_ptx_inst_debug_to_file                    0 # Dump executed instructions' debug information to file
-gpgpu_ptx_inst_debug_file       inst_debug.txt # Executed instructions' debug output file
-gpgpu_ptx_inst_debug_thread_uid                    1 # Thread UID for executed instructions' debug output
-gpgpu_simd_model                       1 # 1 = post-dominator
-gpgpu_shader_core_pipeline              1536:32 # shader core pipeline config, i.e., {<nthread>:<warpsize>}
-gpgpu_tex_cache:l1  4:128:24,L:R:m:N:L,F:128:4,128:2 # per-shader L1 texture cache  (READ-ONLY) config  {<nsets>:<bsize>:<assoc>,<rep>:<wr>:<alloc>:<wr_alloc>,<mshr>:<N>:<merge>,<mq>:<rf>}
-gpgpu_const_cache:l1 64:64:2,L:R:f:N:L,A:2:32,4 # per-shader L1 constant memory cache  (READ-ONLY) config  {<nsets>:<bsize>:<assoc>,<rep>:<wr>:<alloc>:<wr_alloc>,<mshr>:<N>:<merge>,<mq>} 
-gpgpu_cache:il1     4:128:4,L:R:f:N:L,A:2:32,4 # shader L1 instruction cache config  {<nsets>:<bsize>:<assoc>,<rep>:<wr>:<alloc>:<wr_alloc>,<mshr>:<N>:<merge>,<mq>} 
-gpgpu_cache:dl1     32:128:4,L:L:m:N:H,A:32:8,8:2,0,1:0:1:1:0:1,1:4:8:16:32:64,/sciclone/data10/hwang07/GPU_RESEARCH/swl/swl_outputs/RESULTS/lrr/ # per-shader L1 data cache config  {<nsets>:<bsize>:<assoc>,<rep>:<wr>:<alloc>:<wr_alloc>,<mshr>:<N>:<merge>,<mq> | none}
-gpgpu_cache:dl1PrefL1                 none # per-shader L1 data cache config  {<nsets>:<bsize>:<assoc>,<rep>:<wr>:<alloc>:<wr_alloc>,<mshr>:<N>:<merge>,<mq> | none}
-gpgpu_cache:dl1PreShared                 none # per-shader L1 data cache config  {<nsets>:<bsize>:<assoc>,<rep>:<wr>:<alloc>:<wr_alloc>,<mshr>:<N>:<merge>,<mq> | none}
-gmem_skip_L1D                          0 # global memory access skip L1D cache (implements -Xptxas -dlcm=cg, default=no skip)
-gpgpu_perfect_mem                      0 # enable perfect memory mode (no cache miss)
-n_regfile_gating_group                    4 # group of lanes that should be read/written together)
-gpgpu_clock_gated_reg_file                    0 # enable clock gated reg file for power calculations
-gpgpu_clock_gated_lanes                    0 # enable clock gated lanes for power calculations
-gpgpu_shader_registers                32768 # Number of registers per shader core. Limits number of concurrent CTAs. (default 8192)
-gpgpu_shader_cta                       8 # Maximum number of concurrent CTAs in shader (default 8)
-gpgpu_num_cta_barriers                   16 # Maximum number of named barriers per CTA (default 16)
-gpgpu_n_clusters                      15 # number of processing clusters
-gpgpu_n_cores_per_cluster                    1 # number of simd cores per cluster
-gpgpu_n_cluster_ejection_buffer_size                    8 # number of packets in ejection buffer
-gpgpu_n_ldst_response_buffer_size                    2 # number of response packets in ld/st unit ejection buffer
-gpgpu_shmem_size                   16384 # Size of shared memory per shader core (default 16kB)
-gpgpu_shmem_size                   49152 # Size of shared memory per shader core (default 16kB)
-gpgpu_shmem_size_PrefL1                16384 # Size of shared memory per shader core (default 16kB)
-gpgpu_shmem_size_PrefShared                16384 # Size of shared memory per shader core (default 16kB)
-gpgpu_shmem_num_banks                   32 # Number of banks in the shared memory in each shader core (default 16)
-gpgpu_shmem_limited_broadcast                    0 # Limit shared memory to do one broadcast per cycle (default on)
-gpgpu_shmem_warp_parts                    1 # Number of portions a warp is divided into for shared memory bank conflict check 
-gpgpu_warpdistro_shader                   -1 # Specify which shader core to collect the warp size distribution from
-gpgpu_warp_issue_shader                    0 # Specify which shader core to collect the warp issue distribution from
-gpgpu_local_mem_map                    1 # Mapping from local memory space address to simulated GPU physical address space (default = enabled)
-gpgpu_num_reg_banks                   16 # Number of register banks (default = 8)
-gpgpu_reg_bank_use_warp_id                    0 # Use warp ID in mapping registers to banks (default = off)
-gpgpu_operand_collector_num_units_sp                    6 # number of collector units (default = 4)
-gpgpu_operand_collector_num_units_sfu                    8 # number of collector units (default = 4)
-gpgpu_operand_collector_num_units_mem                    2 # number of collector units (default = 2)
-gpgpu_operand_collector_num_units_gen                    0 # number of collector units (default = 0)
-gpgpu_operand_collector_num_in_ports_sp                    2 # number of collector unit in ports (default = 1)
-gpgpu_operand_collector_num_in_ports_sfu                    1 # number of collector unit in ports (default = 1)
-gpgpu_operand_collector_num_in_ports_mem                    1 # number of collector unit in ports (default = 1)
-gpgpu_operand_collector_num_in_ports_gen                    0 # number of collector unit in ports (default = 0)
-gpgpu_operand_collector_num_out_ports_sp                    2 # number of collector unit in ports (default = 1)
-gpgpu_operand_collector_num_out_ports_sfu                    1 # number of collector unit in ports (default = 1)
-gpgpu_operand_collector_num_out_ports_mem                    1 # number of collector unit in ports (default = 1)
-gpgpu_operand_collector_num_out_ports_gen                    0 # number of collector unit in ports (default = 0)
-gpgpu_coalesce_arch                   13 # Coalescing arch (default = 13, anything else is off for now)
-gpgpu_num_sched_per_core                    2 # Number of warp schedulers per core
-gpgpu_max_insn_issue_per_warp                    1 # Max number of instructions that can be issued per warp in one cycle by scheduler
-gpgpu_simt_core_sim_order                    1 # Select the simulation order of cores in a cluster (0=Fix, 1=Round-Robin)
-gpgpu_pipeline_widths        2,1,1,2,1,1,2 # Pipeline widths ID_OC_SP,ID_OC_SFU,ID_OC_MEM,OC_EX_SP,OC_EX_SFU,OC_EX_MEM,EX_WB
-gpgpu_num_sp_units                     2 # Number of SP units (default=1)
-gpgpu_num_sfu_units                    1 # Number of SF units (default=1)
-gpgpu_num_mem_units                    1 # Number if ldst units (default=1) WARNING: not hooked up to anything
-gpgpu_scheduler                      lrr # Scheduler configuration: < lrr | gto | two_level_active > If two_level_active:<num_active_warps>:<inner_prioritization>:<outer_prioritization>For complete list of prioritization values see shader.h enum scheduler_prioritization_typeDefault: gto
-gpgpu_dram_scheduler                    1 # 0 = fifo, 1 = FR-FCFS (defaul)
-gpgpu_dram_partition_queues              8:8:8:8 # i2$:$2d:d2$:$2i
-l2_ideal                               0 # Use a ideal L2 cache that always hit
-gpgpu_cache:dl2     64:128:8,L:B:m:W:L,A:32:4,4:0,32 # unified banked L2 data cache config  {<nsets>:<bsize>:<assoc>,<rep>:<wr>:<alloc>:<wr_alloc>,<mshr>:<N>:<merge>,<mq>}
-gpgpu_cache:dl2_texture_only                    0 # L2 cache used for texture only
-gpgpu_n_mem                            6 # number of memory modules (e.g. memory controllers) in gpu
-gpgpu_n_sub_partition_per_mchannel                    2 # number of memory subpartition in each memory module
-gpgpu_n_mem_per_ctrlr                    2 # number of memory chips per memory controller
-gpgpu_memlatency_stat                   14 # track and display latency statistics 0x2 enables MC, 0x4 enables queue logs
-gpgpu_frfcfs_dram_sched_queue_size                   16 # 0 = unlimited (default); # entries per chip
-gpgpu_dram_return_queue_size                  116 # 0 = unlimited (default); # entries per chip
-gpgpu_dram_buswidth                    4 # default = 4 bytes (8 bytes per cycle at DDR)
-gpgpu_dram_burst_length                    8 # Burst length of each DRAM request (default = 4 data bus cycle)
-dram_data_command_freq_ratio                    4 # Frequency ratio between DRAM data bus and command bus (default = 2 times, i.e. DDR)
-gpgpu_dram_timing_opt nbk=16:CCD=2:RRD=6:RCD=12:RAS=28:RP=12:RC=40: CL=12:WL=4:CDLR=5:WR=12:nbkgrp=4:CCDL=3:RTPL=2 # DRAM timing parameters = {nbk:tCCD:tRRD:tRCD:tRAS:tRP:tRC:CL:WL:tCDLR:tWR:nbkgrp:tCCDL:tRTPL}
-rop_latency                          120 # ROP queue latency (default 85)
-dram_latency                         100 # DRAM latency (default 30)
-gpgpu_mem_addr_mapping dramid@8;00000000.00000000.00000000.00000000.0000RRRR.RRRRRRRR.BBBCCCCB.CCSSSSSS # mapping memory address to dram model {dramid@<start bit>;<memory address map>}
-gpgpu_mem_addr_test                    0 # run sweep test to check address mapping for aliased address
-gpgpu_mem_address_mask                    1 # 0 = old addressing mask, 1 = new addressing mask, 2 = new add. mask + flipped bank sel and chip sel bits
-gpuwattch_xml_file  gpuwattch_gtx480.xml # GPUWattch XML file
-power_simulation_enabled                    0 # Turn on power simulator (1=On, 0=Off)
-power_per_cycle_dump                    0 # Dump detailed power output each cycle
-power_trace_enabled                    0 # produce a file for the power trace (1=On, 0=Off)
-power_trace_zlevel                     6 # Compression level of the power trace output log (0=no comp, 9=highest)
-steady_power_levels_enabled                    0 # produce a file for the steady power levels (1=On, 0=Off)
-steady_state_definition                  8:4 # allowed deviation:number of samples
-gpgpu_max_cycle                        0 # terminates gpu simulation early (0 = no limit)
-gpgpu_max_insn                         0 # terminates gpu simulation early (0 = no limit)
-gpgpu_max_cta                          0 # terminates gpu simulation early (0 = no limit)
-gpgpu_runtime_stat                   500 # display runtime statistics such as dram utilization {<freq>:<flag>}
-liveness_message_freq                    1 # Minimum number of seconds between simulation liveness messages (0 = always print)
-gpgpu_flush_l1_cache                    0 # Flush L1 cache at the end of each kernel call
-gpgpu_flush_l2_cache                    0 # Flush L2 cache at the end of each kernel call
-gpgpu_deadlock_detect                    1 # Stop the simulation at deadlock (1=on (default), 0=off)
-gpgpu_ptx_instruction_classification                    0 # if enabled will classify ptx instruction types per kernel (Max 255 kernels now)
-gpgpu_ptx_sim_mode                     0 # Select between Performance (default) or Functional simulation (1)
-gpgpu_clock_domains 700.0:700.0:700.0:924.0 # Clock Domain Frequencies in MhZ {<Core Clock>:<ICNT Clock>:<L2 Clock>:<DRAM Clock>}
-gpgpu_max_concurrent_kernel                    8 # maximum kernels that can run concurrently on GPU
-gpgpu_cflog_interval                    0 # Interval between each snapshot in control flow logger
-visualizer_enabled                     0 # Turn on visualizer output (1=On, 0=Off)
-visualizer_outputfile                 NULL # Specifies the output log file for visualizer
-visualizer_zlevel                      6 # Compression level of the visualizer output log (0=no comp, 9=highest)
-trace_enabled                          0 # Turn on traces
-trace_components                    none # comma seperated list of traces to enable. Complete list found in trace_streams.tup. Default none
-trace_sampling_core                    0 # The core which is printed using CORE_DPRINTF. Default 0
-trace_sampling_memory_partition                   -1 # The memory partition which is printed using MEMPART_DPRINTF. Default -1 (i.e. all)
-enable_ptx_file_line_stats                    1 # Turn on PTX source line statistic profiling. (1 = On)
-ptx_line_stats_filename gpgpu_inst_stats.txt # Output file for PTX source line statistics.
-save_embedded_ptx                      0 # saves ptx files embedded in binary as <n>.ptx
-keep                                   0 # keep intermediate files created by GPGPU-Sim when interfacing with external programs
-gpgpu_ptx_save_converted_ptxplus                    0 # Saved converted ptxplus to a file
-ptx_opcode_latency_int         4,13,4,5,145 # Opcode latencies for integers <ADD,MAX,MUL,MAD,DIV>Default 1,1,19,25,145
-ptx_opcode_latency_fp          4,13,4,5,39 # Opcode latencies for single precision floating points <ADD,MAX,MUL,MAD,DIV>Default 1,1,1,1,30
-ptx_opcode_latency_dp         8,19,8,8,330 # Opcode latencies for double precision floating points <ADD,MAX,MUL,MAD,DIV>Default 8,8,8,8,335
-ptx_opcode_initiation_int            1,2,2,1,8 # Opcode initiation intervals for integers <ADD,MAX,MUL,MAD,DIV>Default 1,1,4,4,32
-ptx_opcode_initiation_fp            1,2,1,1,4 # Opcode initiation intervals for single precision floating points <ADD,MAX,MUL,MAD,DIV>Default 1,1,1,1,5
-ptx_opcode_initiation_dp         8,16,8,8,130 # Opcode initiation intervals for double precision floating points <ADD,MAX,MUL,MAD,DIV>Default 8,8,8,8,130
DRAM Timing Options:
nbk                                    16 # number of banks
CCD                                     2 # column to column delay
RRD                                     6 # minimal delay between activation of rows in different banks
RCD                                    12 # row to column delay
RAS                                    28 # time needed to activate row
RP                                     12 # time needed to precharge (deactivate) row
RC                                     40 # row cycle time
CDLR                                    5 # switching from write to read (changes tWTR)
WR                                     12 # last data-in to row precharge
CL                                     12 # CAS latency
WL                                      4 # Write latency
nbkgrp                                  4 # number of bank groups
CCDL                                    3 # column to column delay between accesses to different bank groups
RTPL                                    2 # read to precharge delay between accesses to different bank groups
Total number of memory sub partition = 12
addr_dec_mask[CHIP]  = 0000000000000000 	high:64 low:0
addr_dec_mask[BK]    = 000000000000e100 	high:16 low:8
addr_dec_mask[ROW]   = 000000000fff0000 	high:28 low:16
addr_dec_mask[COL]   = 0000000000001eff 	high:13 low:0
addr_dec_mask[BURST] = 000000000000003f 	high:6 low:0
sub_partition_id_mask = 0000000000000100
GPGPU-Sim uArch: clock freqs: 700000000.000000:700000000.000000:700000000.000000:924000000.000000
GPGPU-Sim uArch: clock periods: 0.00000000142857142857:0.00000000142857142857:0.00000000142857142857:0.00000000108225108225
*** Initializing Memory Statistics ***
GPGPU-Sim uArch: interconnect node map (shaderID+MemID to icntID)
GPGPU-Sim uArch: Memory nodes ID start from index: 15
GPGPU-Sim uArch:    0   1   2   3   4
GPGPU-Sim uArch:    5   6   7   8   9
GPGPU-Sim uArch:   10  11  12  13  14
GPGPU-Sim uArch:   15  16  17  18  19
GPGPU-Sim uArch:   20  21  22  23  24
GPGPU-Sim uArch:   25  26
GPGPU-Sim uArch: interconnect node reverse map (icntID to shaderID+MemID)
GPGPU-Sim uArch: Memory nodes start from ID: 15
GPGPU-Sim uArch:    0   1   2   3   4
GPGPU-Sim uArch:    5   6   7   8   9
GPGPU-Sim uArch:   10  11  12  13  14
GPGPU-Sim uArch:   15  16  17  18  19
GPGPU-Sim uArch:   20  21  22  23  24
GPGPU-Sim uArch:   25  26
316bcbff5f8f022bb22b20bb4721e93e  /sciclone/data10/hwang07/adwait/applications/benchmarks/CUDA/RAY/gpgpu_ptx_sim__RAY
GPGPU-Sim uArch: performance model initialization complete.
GPGPU-Sim PTX: __cudaRegisterFatBinary, fat_cubin_handle = 1, filename=rayTracing.cu
self exe links to: /sciclone/data10/hwang07/adwait/applications/benchmarks/CUDA/RAY/gpgpu_ptx_sim__RAY
Running md5sum using "md5sum /sciclone/data10/hwang07/adwait/applications/benchmarks/CUDA/RAY/gpgpu_ptx_sim__RAY "
Parsing file _cuobjdump_complete_output_jXQWiF
######### cuobjdump parser ########
## Adding new section ELF
Adding arch: sm_20
Adding identifier: rayTracing.cu
## Adding new section PTX
Adding ptx filename: _cuobjdump_1.ptx
Adding arch: sm_20
Adding identifier: rayTracing.cu
Done parsing!!!
GPGPU-Sim PTX: __cudaRegisterFunction _Z6renderPjP4Nodejjff : hostFun 0x0x40ce13, fat_cubin_handle = 1
GPGPU-Sim PTX: allocating stack frame region for .param "__cudaretf__Zmi6float3S_" from 0x0 to 0xc
GPGPU-Sim PTX: allocating stack frame region for .param "__cudaparmf1__Zmi6float3S_" from 0xc to 0x18
GPGPU-Sim PTX: allocating stack frame region for .param "__cudaparmf2__Zmi6float3S_" from 0x18 to 0x24
GPGPU-Sim PTX: allocating stack frame region for .param "__cudaretf__Z9normalize6float3" from 0x0 to 0xc
GPGPU-Sim PTX: allocating stack frame region for .param "__cudaparmf1__Z9normalize6float3" from 0xc to 0x18
GPGPU-Sim PTX: allocating stack frame region for .param "__cudaretf__Z18intersectionSphere5Rayon6float3f" from 0x0 to 0x4
GPGPU-Sim PTX: allocating stack frame region for .param "__cudaparmf1__Z18intersectionSphere5Rayon6float3f" from 0x4 to 0x1c
GPGPU-Sim PTX: allocating stack frame region for .param "__cudaparmf2__Z18intersectionSphere5Rayon6float3f" from 0x1c to 0x28
GPGPU-Sim PTX: allocating stack frame region for .param "__cudaparmf3__Z18intersectionSphere5Rayon6float3f" from 0x28 to 0x2c
GPGPU-Sim PTX: allocating stack frame region for .param "__cudaretf__Z16intersectionPlan5Rayon6float3S0_" from 0x0 to 0x4
GPGPU-Sim PTX: allocating stack frame region for .param "__cudaparmf1__Z16intersectionPlan5Rayon6float3S0_" from 0x4 to 0x1c
GPGPU-Sim PTX: allocating stack frame region for .param "__cudaparmf2__Z16intersectionPlan5Rayon6float3S0_" from 0x1c to 0x28
GPGPU-Sim PTX: allocating stack frame region for .param "__cudaparmf3__Z16intersectionPlan5Rayon6float3S0_" from 0x28 to 0x34
GPGPU-Sim PTX: allocating stack frame region for .param "__cudaretf__Z10getNormale6float3S_" from 0x0 to 0xc
GPGPU-Sim PTX: allocating stack frame region for .param "__cudaparmf1__Z10getNormale6float3S_" from 0xc to 0x18
GPGPU-Sim PTX: allocating stack frame region for .param "__cudaparmf2__Z10getNormale6float3S_" from 0x18 to 0x24
GPGPU-Sim PTX: allocating stack frame region for .param "__cudaretf__Z11getNormaleP6float3" from 0x0 to 0xc
GPGPU-Sim PTX: allocating stack frame region for .param "__cudaparmf1__Z11getNormaleP6float3" from 0xc to 0x18
GPGPU-Sim PTX: allocating stack frame region for .param "__cudaretf__Z14rgbaFloatToInt6float4" from 0x0 to 0x4
GPGPU-Sim PTX: allocating stack frame region for .param "__cudaparmf1__Z14rgbaFloatToInt6float4" from 0x4 to 0x14
GPGPU-Sim PTX: allocating stack frame region for .param "__cudaretf__Z12notShadowRayP4Node6float3S1_f" from 0x0 to 0x4
GPGPU-Sim PTX: allocating stack frame region for .param "__cudaparmf1__Z12notShadowRayP4Node6float3S1_f" from 0x4 to 0xc
GPGPU-Sim PTX: allocating stack frame region for .param "__cudaparmf2__Z12notShadowRayP4Node6float3S1_f" from 0xc to 0x18
GPGPU-Sim PTX: allocating stack frame region for .param "__cudaparmf3__Z12notShadowRayP4Node6float3S1_f" from 0x18 to 0x24
GPGPU-Sim PTX: allocating stack frame region for .param "__cudaparmf4__Z12notShadowRayP4Node6float3S1_f" from 0x24 to 0x28
GPGPU-Sim PTX: allocating stack frame region for .param "__cudaretf__Z15float2int_pow20f" from 0x0 to 0x4
GPGPU-Sim PTX: allocating stack frame region for .param "__cudaparmf1__Z15float2int_pow20f" from 0x4 to 0x8
GPGPU-Sim PTX: allocating stack frame region for .param "__cudaretf__Z15float2int_pow50f" from 0x0 to 0x4
GPGPU-Sim PTX: allocating stack frame region for .param "__cudaparmf1__Z15float2int_pow50f" from 0x4 to 0x8
GPGPU-Sim PTX: allocating stack frame region for .param "__cudaparmf1__ZN4dim3C1Ejjj" from 0x0 to 0x8
GPGPU-Sim PTX: allocating stack frame region for .param "__cudaparmf2__ZN4dim3C1Ejjj" from 0x8 to 0xc
GPGPU-Sim PTX: allocating stack frame region for .param "__cudaparmf3__ZN4dim3C1Ejjj" from 0xc to 0x10
GPGPU-Sim PTX: allocating stack frame region for .param "__cudaparmf4__ZN4dim3C1Ejjj" from 0x10 to 0x14
GPGPU-Sim PTX: instruction assembly for function '_Zmi6float3S_'...   done.
GPGPU-Sim PTX: finding reconvergence points for '_Zmi6float3S_'...
GPGPU-Sim PTX: Finding dominators for '_Zmi6float3S_'...
GPGPU-Sim PTX: Finding immediate dominators for '_Zmi6float3S_'...
GPGPU-Sim PTX: Finding postdominators for '_Zmi6float3S_'...
GPGPU-Sim PTX: Finding immediate postdominators for '_Zmi6float3S_'...
GPGPU-Sim PTX: pre-decoding instructions for '_Zmi6float3S_'...
GPGPU-Sim PTX: reconvergence points for _Zmi6float3S_...
GPGPU-Sim PTX: ... end of reconvergence points for _Zmi6float3S_
GPGPU-Sim PTX: ... done pre-decoding instructions for '_Zmi6float3S_'.
GPGPU-Sim PTX: instruction assembly for function '_Z9normalize6float3'...   done.
GPGPU-Sim PTX: finding reconvergence points for '_Z9normalize6float3'...
GPGPU-Sim PTX: Finding dominators for '_Z9normalize6float3'...
GPGPU-Sim PTX: Finding immediate dominators for '_Z9normalize6float3'...
GPGPU-Sim PTX: Finding postdominators for '_Z9normalize6float3'...
GPGPU-Sim PTX: Finding immediate postdominators for '_Z9normalize6float3'...
GPGPU-Sim PTX: pre-decoding instructions for '_Z9normalize6float3'...
GPGPU-Sim PTX: reconvergence points for _Z9normalize6float3...
GPGPU-Sim PTX: ... end of reconvergence points for _Z9normalize6float3
GPGPU-Sim PTX: ... done pre-decoding instructions for '_Z9normalize6float3'.
GPGPU-Sim PTX: instruction assembly for function '_Z18intersectionSphere5Rayon6float3f'...   done.
GPGPU-Sim PTX: finding reconvergence points for '_Z18intersectionSphere5Rayon6float3f'...
GPGPU-Sim PTX: Finding dominators for '_Z18intersectionSphere5Rayon6float3f'...
GPGPU-Sim PTX: Finding immediate dominators for '_Z18intersectionSphere5Rayon6float3f'...
GPGPU-Sim PTX: Finding postdominators for '_Z18intersectionSphere5Rayon6float3f'...
GPGPU-Sim PTX: Finding immediate postdominators for '_Z18intersectionSphere5Rayon6float3f'...
GPGPU-Sim PTX: pre-decoding instructions for '_Z18intersectionSphere5Rayon6float3f'...
GPGPU-Sim PTX: reconvergence points for _Z18intersectionSphere5Rayon6float3f...
GPGPU-Sim PTX:  1 (potential) branch divergence @  PC=0x250 (_1.ptx:173) @%p2 bra $Lt_2_3074;
GPGPU-Sim PTX:    immediate post dominator      @  PC=0x2c0 (_1.ptx:193) mov.f32 %f39, %f32;
GPGPU-Sim PTX:  2 (potential) branch divergence @  PC=0x260 (_1.ptx:175) bra.uni $Lt_2_2818;
GPGPU-Sim PTX:    immediate post dominator      @  PC=0x2c0 (_1.ptx:193) mov.f32 %f39, %f32;
GPGPU-Sim PTX:  3 (potential) branch divergence @  PC=0x280 (_1.ptx:180) @!%p3 bra $Lt_2_3586;
GPGPU-Sim PTX:    immediate post dominator      @  PC=0x2c0 (_1.ptx:193) mov.f32 %f39, %f32;
GPGPU-Sim PTX:  4 (potential) branch divergence @  PC=0x290 (_1.ptx:182) bra.uni $Lt_2_3330;
GPGPU-Sim PTX:    immediate post dominator      @  PC=0x2c0 (_1.ptx:193) mov.f32 %f39, %f32;
GPGPU-Sim PTX: ... end of reconvergence points for _Z18intersectionSphere5Rayon6float3f
GPGPU-Sim PTX: ... done pre-decoding instructions for '_Z18intersectionSphere5Rayon6float3f'.
GPGPU-Sim PTX: instruction assembly for function '_Z16intersectionPlan5Rayon6float3S0_'...   done.
GPGPU-Sim PTX: finding reconvergence points for '_Z16intersectionPlan5Rayon6float3S0_'...
GPGPU-Sim PTX: Finding dominators for '_Z16intersectionPlan5Rayon6float3S0_'...
GPGPU-Sim PTX: Finding immediate dominators for '_Z16intersectionPlan5Rayon6float3S0_'...
GPGPU-Sim PTX: Finding postdominators for '_Z16intersectionPlan5Rayon6float3S0_'...
GPGPU-Sim PTX: Finding immediate postdominators for '_Z16intersectionPlan5Rayon6float3S0_'...
GPGPU-Sim PTX: pre-decoding instructions for '_Z16intersectionPlan5Rayon6float3S0_'...
GPGPU-Sim PTX: reconvergence points for _Z16intersectionPlan5Rayon6float3S0_...
GPGPU-Sim PTX:  1 (potential) branch divergence @  PC=0x320 (_1.ptx:214) @!%p1 bra $Lt_3_2050;
GPGPU-Sim PTX:    immediate post dominator      @  PC=0x368 (_1.ptx:227) mov.f32 %f14, %f9;
GPGPU-Sim PTX:  2 (potential) branch divergence @  PC=0x330 (_1.ptx:216) bra.uni $Lt_3_1794;
GPGPU-Sim PTX:    immediate post dominator      @  PC=0x368 (_1.ptx:227) mov.f32 %f14, %f9;
GPGPU-Sim PTX: ... end of reconvergence points for _Z16intersectionPlan5Rayon6float3S0_
GPGPU-Sim PTX: ... done pre-decoding instructions for '_Z16intersectionPlan5Rayon6float3S0_'.
GPGPU-Sim PTX: instruction assembly for function '_Z10getNormale6float3S_'...   done.
GPGPU-Sim PTX: finding reconvergence points for '_Z10getNormale6float3S_'...
GPGPU-Sim PTX: Finding dominators for '_Z10getNormale6float3S_'...
GPGPU-Sim PTX: Finding immediate dominators for '_Z10getNormale6float3S_'...
GPGPU-Sim PTX: Finding postdominators for '_Z10getNormale6float3S_'...
GPGPU-Sim PTX: Finding immediate postdominators for '_Z10getNormale6float3S_'...
GPGPU-Sim PTX: pre-decoding instructions for '_Z10getNormale6float3S_'...
GPGPU-Sim PTX: reconvergence points for _Z10getNormale6float3S_...
GPGPU-Sim PTX: ... end of reconvergence points for _Z10getNormale6float3S_
GPGPU-Sim PTX: ... done pre-decoding instructions for '_Z10getNormale6float3S_'.
GPGPU-Sim PTX: instruction assembly for function '_Z11getNormaleP6float3'...   done.
GPGPU-Sim PTX: finding reconvergence points for '_Z11getNormaleP6float3'...
GPGPU-Sim PTX: Finding dominators for '_Z11getNormaleP6float3'...
GPGPU-Sim PTX: Finding immediate dominators for '_Z11getNormaleP6float3'...
GPGPU-Sim PTX: Finding postdominators for '_Z11getNormaleP6float3'...
GPGPU-Sim PTX: Finding immediate postdominators for '_Z11getNormaleP6float3'...
GPGPU-Sim PTX: pre-decoding instructions for '_Z11getNormaleP6float3'...
GPGPU-Sim PTX: reconvergence points for _Z11getNormaleP6float3...
GPGPU-Sim PTX: ... end of reconvergence points for _Z11getNormaleP6float3
GPGPU-Sim PTX: ... done pre-decoding instructions for '_Z11getNormaleP6float3'.
GPGPU-Sim PTX: instruction assembly for function '_Z14rgbaFloatToInt6float4'...   done.
GPGPU-Sim PTX: finding reconvergence points for '_Z14rgbaFloatToInt6float4'...
GPGPU-Sim PTX: Finding dominators for '_Z14rgbaFloatToInt6float4'...
GPGPU-Sim PTX: Finding immediate dominators for '_Z14rgbaFloatToInt6float4'...
GPGPU-Sim PTX: Finding postdominators for '_Z14rgbaFloatToInt6float4'...
GPGPU-Sim PTX: Finding immediate postdominators for '_Z14rgbaFloatToInt6float4'...
GPGPU-Sim PTX: pre-decoding instructions for '_Z14rgbaFloatToInt6float4'...
GPGPU-Sim PTX: reconvergence points for _Z14rgbaFloatToInt6float4...
GPGPU-Sim PTX: ... end of reconvergence points for _Z14rgbaFloatToInt6float4
GPGPU-Sim PTX: ... done pre-decoding instructions for '_Z14rgbaFloatToInt6float4'.
GPGPU-Sim PTX: allocating global region for "cnode" from 0x100 to 0x1a0 (global memory space)
GPGPU-Sim PTX: instruction assembly for function '_Z12notShadowRayP4Node6float3S1_f'...   done.
GPGPU-Sim PTX: finding reconvergence points for '_Z12notShadowRayP4Node6float3S1_f'...
GPGPU-Sim PTX: Finding dominators for '_Z12notShadowRayP4Node6float3S1_f'...
GPGPU-Sim PTX: Finding immediate dominators for '_Z12notShadowRayP4Node6float3S1_f'...
GPGPU-Sim PTX: Finding postdominators for '_Z12notShadowRayP4Node6float3S1_f'...
GPGPU-Sim PTX: Finding immediate postdominators for '_Z12notShadowRayP4Node6float3S1_f'...
GPGPU-Sim PTX: pre-decoding instructions for '_Z12notShadowRayP4Node6float3S1_f'...
GPGPU-Sim PTX: reconvergence points for _Z12notShadowRayP4Node6float3S1_f...
GPGPU-Sim PTX:  1 (potential) branch divergence @  PC=0x638 (_1.ptx:364) @%p1 bra $Lt_7_8450;
GPGPU-Sim PTX:    immediate post dominator      @  PC=0x828 (_1.ptx:441) mov.f32 %f58, 0f00000000;    // 0
GPGPU-Sim PTX:  2 (potential) branch divergence @  PC=0x658 (_1.ptx:369) @!%p2 bra $Lt_7_8962;
GPGPU-Sim PTX:    immediate post dominator      @  PC=0x6b8 (_1.ptx:385) mov.f32 %f28, %f20;
GPGPU-Sim PTX:  3 (potential) branch divergence @  PC=0x668 (_1.ptx:371) bra.uni $Lt_7_8706;
GPGPU-Sim PTX:    immediate post dominator      @  PC=0x6b8 (_1.ptx:385) mov.f32 %f28, %f20;
GPGPU-Sim PTX:  4 (potential) branch divergence @  PC=0x6c0 (_1.ptx:386) bra.uni $Lt_7_8194;
GPGPU-Sim PTX:    immediate post dominator      @  PC=0x828 (_1.ptx:441) mov.f32 %f58, 0f00000000;    // 0
GPGPU-Sim PTX:  5 (potential) branch divergence @  PC=0x7b0 (_1.ptx:418) @%p5 bra $Lt_7_9474;
GPGPU-Sim PTX:    immediate post dominator      @  PC=0x820 (_1.ptx:438) mov.f32 %f28, %f51;
GPGPU-Sim PTX:  6 (potential) branch divergence @  PC=0x7c0 (_1.ptx:420) bra.uni $Lt_7_9730;
GPGPU-Sim PTX:    immediate post dominator      @  PC=0x820 (_1.ptx:438) mov.f32 %f28, %f51;
GPGPU-Sim PTX:  7 (potential) branch divergence @  PC=0x7e0 (_1.ptx:425) @!%p6 bra $Lt_7_9986;
GPGPU-Sim PTX:    immediate post dominator      @  PC=0x820 (_1.ptx:438) mov.f32 %f28, %f51;
GPGPU-Sim PTX:  8 (potential) branch divergence @  PC=0x7f0 (_1.ptx:427) bra.uni $Lt_7_9730;
GPGPU-Sim PTX:    immediate post dominator      @  PC=0x820 (_1.ptx:438) mov.f32 %f28, %f51;
GPGPU-Sim PTX:  9 (potential) branch divergence @  PC=0x838 (_1.ptx:443) @!%p7 bra $Lt_7_10242;
GPGPU-Sim PTX:    immediate post dominator      @  PC=0x8e8 (_1.ptx:468) add.s32 %r1, %r1, 1;
GPGPU-Sim PTX: 10 (potential) branch divergence @  PC=0x8d8 (_1.ptx:463) @!%p8 bra $Lt_7_10242;
GPGPU-Sim PTX:    immediate post dominator      @  PC=0x8e8 (_1.ptx:468) add.s32 %r1, %r1, 1;
GPGPU-Sim PTX: 11 (potential) branch divergence @  PC=0x908 (_1.ptx:472) @%p9 bra $Lt_7_10754;
GPGPU-Sim PTX:    immediate post dominator      @  PC=0x960 (_1.ptx:486) selp.s32 %r10, 1, 0, %p11;
GPGPU-Sim PTX: 12 (potential) branch divergence @  PC=0x930 (_1.ptx:477) @%p10 bra $L_7_7170;
GPGPU-Sim PTX:    immediate post dominator      @  PC=0x960 (_1.ptx:486) selp.s32 %r10, 1, 0, %p11;
GPGPU-Sim PTX: 13 (potential) branch divergence @  PC=0x938 (_1.ptx:478) bra.uni $L_7_7938;
GPGPU-Sim PTX:    immediate post dominator      @  PC=0x960 (_1.ptx:486) selp.s32 %r10, 1, 0, %p11;
GPGPU-Sim PTX: ... end of reconvergence points for _Z12notShadowRayP4Node6float3S1_f
GPGPU-Sim PTX: ... done pre-decoding instructions for '_Z12notShadowRayP4Node6float3S1_f'.
GPGPU-Sim PTX: instruction assembly for function '_Z15float2int_pow20f'...   done.
GPGPU-Sim PTX: finding reconvergence points for '_Z15float2int_pow20f'...
GPGPU-Sim PTX: Finding dominators for '_Z15float2int_pow20f'...
GPGPU-Sim PTX: Finding immediate dominators for '_Z15float2int_pow20f'...
GPGPU-Sim PTX: Finding postdominators for '_Z15float2int_pow20f'...
GPGPU-Sim PTX: Finding immediate postdominators for '_Z15float2int_pow20f'...
GPGPU-Sim PTX: pre-decoding instructions for '_Z15float2int_pow20f'...
GPGPU-Sim PTX: reconvergence points for _Z15float2int_pow20f...
GPGPU-Sim PTX: ... end of reconvergence points for _Z15float2int_pow20f
GPGPU-Sim PTX: ... done pre-decoding instructions for '_Z15float2int_pow20f'.
GPGPU-Sim PTX: instruction assembly for function '_Z15float2int_pow50f'...   done.
GPGPU-Sim PTX: finding reconvergence points for '_Z15float2int_pow50f'...
GPGPU-Sim PTX: Finding dominators for '_Z15float2int_pow50f'...
GPGPU-Sim PTX: Finding immediate dominators for '_Z15float2int_pow50f'...
GPGPU-Sim PTX: Finding postdominators for '_Z15float2int_pow50f'...
GPGPU-Sim PTX: Finding immediate postdominators for '_Z15float2int_pow50f'...
GPGPU-Sim PTX: pre-decoding instructions for '_Z15float2int_pow50f'...
GPGPU-Sim PTX: reconvergence points for _Z15float2int_pow50f...
GPGPU-Sim PTX: ... end of reconvergence points for _Z15float2int_pow50f
GPGPU-Sim PTX: ... done pre-decoding instructions for '_Z15float2int_pow50f'.
GPGPU-Sim PTX: allocating constant region for "MView" from 0x200 to 0x230 (global memory space) 1
GPGPU-Sim PTX: allocating stack frame region for .local "__cuda___cuda_local_var_35463_9_non_const_pile_32240" from 0x0 to 0x50
GPGPU-Sim PTX: instruction assembly for function '_Z6renderPjP4Nodejjff'...   done.
GPGPU-Sim PTX: finding reconvergence points for '_Z6renderPjP4Nodejjff'...
GPGPU-Sim PTX: Finding dominators for '_Z6renderPjP4Nodejjff'...
GPGPU-Sim PTX: Finding immediate dominators for '_Z6renderPjP4Nodejjff'...
GPGPU-Sim PTX: Finding postdominators for '_Z6renderPjP4Nodejjff'...
GPGPU-Sim PTX: Finding immediate postdominators for '_Z6renderPjP4Nodejjff'...
GPGPU-Sim PTX: pre-decoding instructions for '_Z6renderPjP4Nodejjff'...
GPGPU-Sim PTX: reconvergence points for _Z6renderPjP4Nodejjff...
GPGPU-Sim PTX:  1 (potential) branch divergence @  PC=0xdb0 (_1.ptx:663) @%p1 bra $Lt_10_44034;
GPGPU-Sim PTX:    immediate post dominator      @  PC=0x2370 (_1.ptx:1495) exit;
GPGPU-Sim PTX:  2 (potential) branch divergence @  PC=0x1028 (_1.ptx:751) @%p2 bra $Lt_10_45570;
GPGPU-Sim PTX:    immediate post dominator      @  PC=0x11b8 (_1.ptx:815) mov.f32 %f108, 0f00000000;   // 0
GPGPU-Sim PTX:  3 (potential) branch divergence @  PC=0x1048 (_1.ptx:756) @!%p3 bra $Lt_10_46082;
GPGPU-Sim PTX:    immediate post dominator      @  PC=0x1090 (_1.ptx:769) mov.f32 %f87, %f82;
GPGPU-Sim PTX:  4 (potential) branch divergence @  PC=0x1058 (_1.ptx:758) bra.uni $Lt_10_45826;
GPGPU-Sim PTX:    immediate post dominator      @  PC=0x1090 (_1.ptx:769) mov.f32 %f87, %f82;
GPGPU-Sim PTX:  5 (potential) branch divergence @  PC=0x1098 (_1.ptx:770) bra.uni $Lt_10_45314;
GPGPU-Sim PTX:    immediate post dominator      @  PC=0x11b8 (_1.ptx:815) mov.f32 %f108, 0f00000000;   // 0
GPGPU-Sim PTX:  6 (potential) branch divergence @  PC=0x1140 (_1.ptx:793) @%p6 bra $Lt_10_46594;
GPGPU-Sim PTX:    immediate post dominator      @  PC=0x11b0 (_1.ptx:813) mov.f32 %f87, %f101;
GPGPU-Sim PTX:  7 (potential) branch divergence @  PC=0x1150 (_1.ptx:795) bra.uni $Lt_10_46850;
GPGPU-Sim PTX:    immediate post dominator      @  PC=0x11b0 (_1.ptx:813) mov.f32 %f87, %f101;
GPGPU-Sim PTX:  8 (potential) branch divergence @  PC=0x1170 (_1.ptx:800) @!%p7 bra $Lt_10_47106;
GPGPU-Sim PTX:    immediate post dominator      @  PC=0x11b0 (_1.ptx:813) mov.f32 %f87, %f101;
GPGPU-Sim PTX:  9 (potential) branch divergence @  PC=0x1180 (_1.ptx:802) bra.uni $Lt_10_46850;
GPGPU-Sim PTX:    immediate post dominator      @  PC=0x11b0 (_1.ptx:813) mov.f32 %f87, %f101;
GPGPU-Sim PTX: 10 (potential) branch divergence @  PC=0x11f8 (_1.ptx:823) @%p8 bra $Lt_10_47362;
GPGPU-Sim PTX:    immediate post dominator      @  PC=0x1210 (_1.ptx:829) add.s32 %r25, %r25, 1;
GPGPU-Sim PTX: 11 (potential) branch divergence @  PC=0x1230 (_1.ptx:833) @%p9 bra $Lt_10_45058;
GPGPU-Sim PTX:    immediate post dominator      @  PC=0x1238 (_1.ptx:834) mov.f32 %f109, 0f00000000;   // 0
GPGPU-Sim PTX: 12 (potential) branch divergence @  PC=0x1280 (_1.ptx:843) @%p10 bra $Lt_10_48130;
GPGPU-Sim PTX:    immediate post dominator      @  PC=0x2140 (_1.ptx:1416) add.s32 %r23, %r23, 1;
GPGPU-Sim PTX: 13 (potential) branch divergence @  PC=0x1330 (_1.ptx:868) @%p11 bra $Lt_10_48898;
GPGPU-Sim PTX:    immediate post dominator      @  PC=0x13b8 (_1.ptx:888) sub.f32 %f136, %f21, %f119;
GPGPU-Sim PTX: 14 (potential) branch divergence @  PC=0x1350 (_1.ptx:873) bra.uni $Lt_10_48642;
GPGPU-Sim PTX:    immediate post dominator      @  PC=0x13b8 (_1.ptx:888) sub.f32 %f136, %f21, %f119;
GPGPU-Sim PTX: 15 (potential) branch divergence @  PC=0x1430 (_1.ptx:903) @!%p12 bra $Lt_10_49410;
GPGPU-Sim PTX:    immediate post dominator      @  PC=0x1470 (_1.ptx:915) mov.f32 %f153, 0f3d4ccccd;   // 0.05
GPGPU-Sim PTX: 16 (potential) branch divergence @  PC=0x1450 (_1.ptx:908) bra.uni $Lt_10_49154;
GPGPU-Sim PTX:    immediate post dominator      @  PC=0x1470 (_1.ptx:915) mov.f32 %f153, 0f3d4ccccd;   // 0.05
GPGPU-Sim PTX: 17 (potential) branch divergence @  PC=0x1578 (_1.ptx:949) @!%p13 bra $Lt_10_58114;
GPGPU-Sim PTX:    immediate post dominator      @  PC=0x2080 (_1.ptx:1388) add.f32 %f399, %f126, %f126;
GPGPU-Sim PTX: 18 (potential) branch divergence @  PC=0x15c0 (_1.ptx:961) @%p14 bra $Lt_10_49922;
GPGPU-Sim PTX:    immediate post dominator      @  PC=0x17b0 (_1.ptx:1039) mov.f32 %f221, 0f00000000;   // 0
GPGPU-Sim PTX: 19 (potential) branch divergence @  PC=0x15e0 (_1.ptx:966) @!%p15 bra $Lt_10_50434;
GPGPU-Sim PTX:    immediate post dominator      @  PC=0x1638 (_1.ptx:982) mov.f32 %f190, %f183;
GPGPU-Sim PTX: 20 (potential) branch divergence @  PC=0x15f0 (_1.ptx:968) bra.uni $Lt_10_50178;
GPGPU-Sim PTX:    immediate post dominator      @  PC=0x1638 (_1.ptx:982) mov.f32 %f190, %f183;
GPGPU-Sim PTX: 21 (potential) branch divergence @  PC=0x1640 (_1.ptx:983) bra.uni $Lt_10_49666;
GPGPU-Sim PTX:    immediate post dominator      @  PC=0x17b0 (_1.ptx:1039) mov.f32 %f221, 0f00000000;   // 0
GPGPU-Sim PTX: 22 (potential) branch divergence @  PC=0x1738 (_1.ptx:1016) @%p18 bra $Lt_10_50946;
GPGPU-Sim PTX:    immediate post dominator      @  PC=0x17a8 (_1.ptx:1036) mov.f32 %f190, %f214;
GPGPU-Sim PTX: 23 (potential) branch divergence @  PC=0x1748 (_1.ptx:1018) bra.uni $Lt_10_51202;
GPGPU-Sim PTX:    immediate post dominator      @  PC=0x17a8 (_1.ptx:1036) mov.f32 %f190, %f214;
GPGPU-Sim PTX: 24 (potential) branch divergence @  PC=0x1768 (_1.ptx:1023) @!%p19 bra $Lt_10_51458;
GPGPU-Sim PTX:    immediate post dominator      @  PC=0x17a8 (_1.ptx:1036) mov.f32 %f190, %f214;
GPGPU-Sim PTX: 25 (potential) branch divergence @  PC=0x1778 (_1.ptx:1025) bra.uni $Lt_10_51202;
GPGPU-Sim PTX:    immediate post dominator      @  PC=0x17a8 (_1.ptx:1036) mov.f32 %f190, %f214;
GPGPU-Sim PTX: 26 (potential) branch divergence @  PC=0x17c0 (_1.ptx:1041) @!%p20 bra $Lt_10_58370;
GPGPU-Sim PTX:    immediate post dominator      @  PC=0x1828 (_1.ptx:1057) add.s32 %r50, %r50, 1;
GPGPU-Sim PTX: 27 (potential) branch divergence @  PC=0x1818 (_1.ptx:1052) @!%p21 bra $Lt_10_58370;
GPGPU-Sim PTX:    immediate post dominator      @  PC=0x1828 (_1.ptx:1057) add.s32 %r50, %r50, 1;
GPGPU-Sim PTX: 28 (potential) branch divergence @  PC=0x1848 (_1.ptx:1061) @%p22 bra $Lt_10_58882;
GPGPU-Sim PTX:    immediate post dominator      @  PC=0x1880 (_1.ptx:1071) @!%p23 bra $Lt_10_58114;
GPGPU-Sim PTX: 29 (potential) branch divergence @  PC=0x1860 (_1.ptx:1064) @%p23 bra $L_10_42498;
GPGPU-Sim PTX:    immediate post dominator      @  PC=0x1880 (_1.ptx:1071) @!%p23 bra $Lt_10_58114;
GPGPU-Sim PTX: 30 (potential) branch divergence @  PC=0x1868 (_1.ptx:1065) bra.uni $L_10_43266;
GPGPU-Sim PTX:    immediate post dominator      @  PC=0x1880 (_1.ptx:1071) @!%p23 bra $Lt_10_58114;
GPGPU-Sim PTX: 31 (potential) branch divergence @  PC=0x1880 (_1.ptx:1071) @!%p23 bra $Lt_10_58114;
GPGPU-Sim PTX:    immediate post dominator      @  PC=0x2080 (_1.ptx:1388) add.f32 %f399, %f126, %f126;
GPGPU-Sim PTX: 32 (potential) branch divergence @  PC=0x19c8 (_1.ptx:1115) @!%p24 bra $Lt_10_51714;
GPGPU-Sim PTX:    immediate post dominator      @  PC=0x2040 (_1.ptx:1375) mov.f32 %f394, 0f3f4ccccd;   // 0.8
GPGPU-Sim PTX: 33 (potential) branch divergence @  PC=0x19d8 (_1.ptx:1118) bra.uni $LDWendi___isnanf_192_1;
GPGPU-Sim PTX:    immediate post dominator      @  PC=0x2040 (_1.ptx:1375) mov.f32 %f394, 0f3f4ccccd;   // 0.8
GPGPU-Sim PTX: 34 (potential) branch divergence @  PC=0x19f8 (_1.ptx:1124) @!%p25 bra $Lt_10_7682;
GPGPU-Sim PTX:    immediate post dominator      @  PC=0x2040 (_1.ptx:1375) mov.f32 %f394, 0f3f4ccccd;   // 0.8
GPGPU-Sim PTX: 35 (potential) branch divergence @  PC=0x1a00 (_1.ptx:1125) bra.uni $Lt_10_7938;
GPGPU-Sim PTX:    immediate post dominator      @  PC=0x1a20 (_1.ptx:1133) mov.f32 %f272, 0f7f800000;   // ((1.0F)/(0.0F))
GPGPU-Sim PTX: 36 (potential) branch divergence @  PC=0x1a18 (_1.ptx:1130) bra.uni $LDWendi___isnanf_192_1;
GPGPU-Sim PTX:    immediate post dominator      @  PC=0x2040 (_1.ptx:1375) mov.f32 %f394, 0f3f4ccccd;   // 0.8
GPGPU-Sim PTX: 37 (potential) branch divergence @  PC=0x1a30 (_1.ptx:1135) @!%p26 bra $Lt_10_52226;
GPGPU-Sim PTX:    immediate post dominator      @  PC=0x2040 (_1.ptx:1375) mov.f32 %f394, 0f3f4ccccd;   // 0.8
GPGPU-Sim PTX: 38 (potential) branch divergence @  PC=0x1a40 (_1.ptx:1138) bra.uni $LDWendi___isnanf_192_1;
GPGPU-Sim PTX:    immediate post dominator      @  PC=0x2040 (_1.ptx:1375) mov.f32 %f394, 0f3f4ccccd;   // 0.8
GPGPU-Sim PTX: 39 (potential) branch divergence @  PC=0x1a58 (_1.ptx:1142) @!%p27 bra $Lt_10_52738;
GPGPU-Sim PTX:    immediate post dominator      @  PC=0x2040 (_1.ptx:1375) mov.f32 %f394, 0f3f4ccccd;   // 0.8
GPGPU-Sim PTX: 40 (potential) branch divergence @  PC=0x1ab8 (_1.ptx:1155) bra.uni $LDWendi___isnanf_192_1;
GPGPU-Sim PTX:    immediate post dominator      @  PC=0x2040 (_1.ptx:1375) mov.f32 %f394, 0f3f4ccccd;   // 0.8
GPGPU-Sim PTX: 41 (potential) branch divergence @  PC=0x1ad0 (_1.ptx:1159) @!%p29 bra $Lt_10_53250;
GPGPU-Sim PTX:    immediate post dominator      @  PC=0x2040 (_1.ptx:1375) mov.f32 %f394, 0f3f4ccccd;   // 0.8
GPGPU-Sim PTX: 42 (potential) branch divergence @  PC=0x1b20 (_1.ptx:1170) @!%p30 bra $Lt_10_53762;
GPGPU-Sim PTX:    immediate post dominator      @  PC=0x1b40 (_1.ptx:1177) mov.f32 %f268, %f284;
GPGPU-Sim PTX: 43 (potential) branch divergence @  PC=0x1b48 (_1.ptx:1178) bra.uni $LDWendi___isnanf_192_1;
GPGPU-Sim PTX:    immediate post dominator      @  PC=0x2040 (_1.ptx:1375) mov.f32 %f394, 0f3f4ccccd;   // 0.8
GPGPU-Sim PTX: 44 (potential) branch divergence @  PC=0x1b60 (_1.ptx:1183) @!%p31 bra $Lt_10_59394;
GPGPU-Sim PTX:    immediate post dominator      @  PC=0x2040 (_1.ptx:1375) mov.f32 %f394, 0f3f4ccccd;   // 0.8
GPGPU-Sim PTX: 45 (potential) branch divergence @  PC=0x1b88 (_1.ptx:1188) @!%p32 bra $Lt_10_59394;
GPGPU-Sim PTX:    immediate post dominator      @  PC=0x2040 (_1.ptx:1375) mov.f32 %f394, 0f3f4ccccd;   // 0.8
GPGPU-Sim PTX: 46 (potential) branch divergence @  PC=0x1ba0 (_1.ptx:1192) bra.uni $LDWendi___isnanf_192_1;
GPGPU-Sim PTX:    immediate post dominator      @  PC=0x2040 (_1.ptx:1375) mov.f32 %f394, 0f3f4ccccd;   // 0.8
GPGPU-Sim PTX: 47 (potential) branch divergence @  PC=0x1bd8 (_1.ptx:1202) @%p33 bra $Lt_10_54530;
GPGPU-Sim PTX:    immediate post dominator      @  PC=0x1c20 (_1.ptx:1216) sub.s32 %r64, %r64, 127;
GPGPU-Sim PTX: 48 (potential) branch divergence @  PC=0x1c10 (_1.ptx:1211) bra.uni $Lt_10_54274;
GPGPU-Sim PTX:    immediate post dominator      @  PC=0x1c20 (_1.ptx:1216) sub.s32 %r64, %r64, 127;
GPGPU-Sim PTX: 49 (potential) branch divergence @  PC=0x1c58 (_1.ptx:1224) @!%p34 bra $Lt_10_54786;
GPGPU-Sim PTX:    immediate post dominator      @  PC=0x1c78 (_1.ptx:1232) mov.f32 %f302, 0fbf800000;   // -1
GPGPU-Sim PTX: 50 (potential) branch divergence @  PC=0x1eb0 (_1.ptx:1312) @%p35 bra $Lt_10_55298;
GPGPU-Sim PTX:    immediate post dominator      @  PC=0x1ed8 (_1.ptx:1321) mov.f32 %f367, %f365;
GPGPU-Sim PTX: 51 (potential) branch divergence @  PC=0x1f98 (_1.ptx:1346) @!%p38 bra $Lt_10_55810;
GPGPU-Sim PTX:    immediate post dominator      @  PC=0x1fa8 (_1.ptx:1351) mov.f32 %f284, %f386;
GPGPU-Sim PTX: 52 (potential) branch divergence @  PC=0x2018 (_1.ptx:1365) @%p39 bra $Lt_10_56322;
GPGPU-Sim PTX:    immediate post dominator      @  PC=0x2038 (_1.ptx:1372) mov.f32 %f268, %f284;
GPGPU-Sim PTX: 53 (potential) branch divergence @  PC=0x2158 (_1.ptx:1419) @%p40 bra $L_10_42242;
GPGPU-Sim PTX:    immediate post dominator      @  PC=0x2170 (_1.ptx:1424) sub.s32 %r86, %r24, 1;
GPGPU-Sim PTX: 54 (potential) branch divergence @  PC=0x2168 (_1.ptx:1421) @%p41 bra $L_10_41474;
GPGPU-Sim PTX:    immediate post dominator      @  PC=0x2170 (_1.ptx:1424) sub.s32 %r86, %r24, 1;
GPGPU-Sim PTX: 55 (potential) branch divergence @  PC=0x2190 (_1.ptx:1428) @%p42 bra $Lt_10_56834;
GPGPU-Sim PTX:    immediate post dominator      @  PC=0x2288 (_1.ptx:1464) ld.global.u32 %r92, [%rd4+0];
GPGPU-Sim PTX: 56 (potential) branch divergence @  PC=0x2280 (_1.ptx:1461) @%p43 bra $Lt_10_57346;
GPGPU-Sim PTX:    immediate post dominator      @  PC=0x2288 (_1.ptx:1464) ld.global.u32 %r92, [%rd4+0];
GPGPU-Sim PTX: ... end of reconvergence points for _Z6renderPjP4Nodejjff
GPGPU-Sim PTX: ... done pre-decoding instructions for '_Z6renderPjP4Nodejjff'.
GPGPU-Sim PTX: instruction assembly for function '_ZN4dim3C1Ejjj'...   done.
GPGPU-Sim PTX: finding reconvergence points for '_ZN4dim3C1Ejjj'...
GPGPU-Sim PTX: Finding dominators for '_ZN4dim3C1Ejjj'...
GPGPU-Sim PTX: Finding immediate dominators for '_ZN4dim3C1Ejjj'...
GPGPU-Sim PTX: Finding postdominators for '_ZN4dim3C1Ejjj'...
GPGPU-Sim PTX: Finding immediate postdominators for '_ZN4dim3C1Ejjj'...
GPGPU-Sim PTX: pre-decoding instructions for '_ZN4dim3C1Ejjj'...
GPGPU-Sim PTX: reconvergence points for _ZN4dim3C1Ejjj...
GPGPU-Sim PTX: ... end of reconvergence points for _ZN4dim3C1Ejjj
GPGPU-Sim PTX: ... done pre-decoding instructions for '_ZN4dim3C1Ejjj'.
GPGPU-Sim PTX: finished parsing EMBEDDED .ptx file _1.ptx
Adding _cuobjdump_1.ptx with cubin handle 1
GPGPU-Sim PTX: extracting embedded .ptx to temporary file "_ptx_sIQglQ"
Running: cat _ptx_sIQglQ | sed 's/.version 1.5/.version 1.4/' | sed 's/, texmode_independent//' | sed 's/\(\.extern \.const\[1\] .b8 \w\+\)\[\]/\1\[1\]/' | sed 's/const\[.\]/const\[0\]/g' > _ptx2_NLwPu2
GPGPU-Sim PTX: generating ptxinfo using "$CUDA_INSTALL_PATH/bin/ptxas --gpu-name=sm_20 -v _ptx2_NLwPu2 --output-file  /dev/null 2> _ptx_sIQglQinfo"
GPGPU-Sim PTX: Kernel '_Z6renderPjP4Nodejjff' : regs=45, lmem=4, smem=0, cmem=180
GPGPU-Sim PTX: removing ptxinfo using "rm -f _ptx_sIQglQ _ptx2_NLwPu2 _ptx_sIQglQinfo"
GPGPU-Sim PTX: loading globals with explicit initializers... 
GPGPU-Sim PTX: finished loading globals (0 bytes total).
GPGPU-Sim PTX: loading constants with explicit initializers...  done.
GPGPU-Sim PTX: __cudaRegisterVar: hostVar = 0x62fda0; deviceAddress = MView; deviceName = MView
GPGPU-Sim PTX: __cudaRegisterVar: Registering const memory space of 48 bytes
GPGPU-Sim PTX registering constant MView (48 bytes) to name mapping
GPGPU-Sim PTX: __cudaRegisterVar: hostVar = 0x62fde0; deviceAddress = cnode; deviceName = cnode
GPGPU-Sim PTX: __cudaRegisterVar: Registering const memory space of 160 bytes
GPGPU-Sim PTX registering constant cnode (160 bytes) to name mapping
GPGPU-Sim PTX: cudaMemcpyToSymbol: symbol = 0x62fde0
GPGPU-Sim PTX: starting gpgpu_ptx_sim_memcpy_symbol with hostVar 0x0x62fde0
GPGPU-Sim PTX: gpgpu_ptx_sim_memcpy_symbol: Found PTX symbol w/ hostVar=0x62fde0
GPGPU-Sim PTX: gpgpu_ptx_sim_memcpy_symbol: copying const memory 160 bytes  to  symbol cnode+0 @0x100 ...
GPGPU-Sim PTX: cudaMemcpyToSymbol: symbol = 0x62fda0
GPGPU-Sim PTX: starting gpgpu_ptx_sim_memcpy_symbol with hostVar 0x0x62fda0
GPGPU-Sim PTX: gpgpu_ptx_sim_memcpy_symbol: Found PTX symbol w/ hostVar=0x62fda0
GPGPU-Sim PTX: gpgpu_ptx_sim_memcpy_symbol: copying const memory 48 bytes  to  symbol MView+0 @0x200 ...

GPGPU-Sim PTX: cudaLaunch for 0x0x40ce13 (mode=performance simulation) on stream 0
GPGPU-Sim PTX: pushing kernel '_Z6renderPjP4Nodejjff' to stream 0, gridDim= (16,32,1) blockDim = (16,8,1) 
kernel '_Z6renderPjP4Nodejjff' transfer to GPU hardware scheduler
GPGPU-Sim uArch: Shader 1 bind to kernel 1 '_Z6renderPjP4Nodejjff'
GPGPU-Sim uArch: CTA/core = 5, limited by: regs
GPGPU-Sim uArch: core:  1, cta: 0 initialized @(1,0)
GPGPU-Sim uArch: Shader 2 bind to kernel 1 '_Z6renderPjP4Nodejjff'
GPGPU-Sim uArch: core:  2, cta: 0 initialized @(1,0)
GPGPU-Sim uArch: Shader 3 bind to kernel 1 '_Z6renderPjP4Nodejjff'
GPGPU-Sim uArch: core:  3, cta: 0 initialized @(1,0)
GPGPU-Sim uArch: Shader 4 bind to kernel 1 '_Z6renderPjP4Nodejjff'
GPGPU-Sim uArch: core:  4, cta: 0 initialized @(1,0)
GPGPU-Sim uArch: Shader 5 bind to kernel 1 '_Z6renderPjP4Nodejjff'
GPGPU-Sim uArch: core:  5, cta: 0 initialized @(1,0)
GPGPU-Sim uArch: Shader 6 bind to kernel 1 '_Z6renderPjP4Nodejjff'
GPGPU-Sim uArch: core:  6, cta: 0 initialized @(1,0)
GPGPU-Sim uArch: Shader 7 bind to kernel 1 '_Z6renderPjP4Nodejjff'
GPGPU-Sim uArch: core:  7, cta: 0 initialized @(1,0)
GPGPU-Sim uArch: Shader 8 bind to kernel 1 '_Z6renderPjP4Nodejjff'
GPGPU-Sim uArch: core:  8, cta: 0 initialized @(1,0)
GPGPU-Sim uArch: Shader 9 bind to kernel 1 '_Z6renderPjP4Nodejjff'
GPGPU-Sim uArch: core:  9, cta: 0 initialized @(1,0)
GPGPU-Sim uArch: Shader 10 bind to kernel 1 '_Z6renderPjP4Nodejjff'
GPGPU-Sim uArch: core: 10, cta: 0 initialized @(1,0)
GPGPU-Sim uArch: Shader 11 bind to kernel 1 '_Z6renderPjP4Nodejjff'
GPGPU-Sim uArch: core: 11, cta: 0 initialized @(1,0)
GPGPU-Sim uArch: Shader 12 bind to kernel 1 '_Z6renderPjP4Nodejjff'
GPGPU-Sim uArch: core: 12, cta: 0 initialized @(1,0)
GPGPU-Sim uArch: Shader 13 bind to kernel 1 '_Z6renderPjP4Nodejjff'
GPGPU-Sim uArch: core: 13, cta: 0 initialized @(1,0)
GPGPU-Sim uArch: Shader 14 bind to kernel 1 '_Z6renderPjP4Nodejjff'
GPGPU-Sim uArch: core: 14, cta: 0 initialized @(1,0)
GPGPU-Sim uArch: Shader 0 bind to kernel 1 '_Z6renderPjP4Nodejjff'
GPGPU-Sim uArch: core:  0, cta: 0 initialized @(1,0)
GPGPU-Sim uArch: core:  1, cta: 1 initialized @(2,0)
GPGPU-Sim uArch: core:  2, cta: 1 initialized @(2,0)
GPGPU-Sim uArch: core:  3, cta: 1 initialized @(2,0)
GPGPU-Sim uArch: core:  4, cta: 1 initialized @(2,0)
GPGPU-Sim uArch: core:  5, cta: 1 initialized @(2,0)
GPGPU-Sim uArch: core:  6, cta: 1 initialized @(2,0)
GPGPU-Sim uArch: core:  7, cta: 1 initialized @(2,0)
GPGPU-Sim uArch: core:  8, cta: 1 initialized @(2,0)
GPGPU-Sim uArch: core:  9, cta: 1 initialized @(2,0)
GPGPU-Sim uArch: core: 10, cta: 1 initialized @(2,0)
GPGPU-Sim uArch: core: 11, cta: 1 initialized @(2,0)
GPGPU-Sim uArch: core: 12, cta: 1 initialized @(2,0)
GPGPU-Sim uArch: core: 13, cta: 1 initialized @(2,0)
GPGPU-Sim uArch: core: 14, cta: 1 initialized @(2,0)
GPGPU-Sim uArch: core:  0, cta: 1 initialized @(2,0)
GPGPU-Sim uArch: core:  1, cta: 2 initialized @(3,0)
GPGPU-Sim uArch: core:  2, cta: 2 initialized @(3,0)
GPGPU-Sim uArch: core:  3, cta: 2 initialized @(3,0)
GPGPU-Sim uArch: core:  4, cta: 2 initialized @(3,0)
GPGPU-Sim uArch: core:  5, cta: 2 initialized @(3,0)
GPGPU-Sim uArch: core:  6, cta: 2 initialized @(3,0)
GPGPU-Sim uArch: core:  7, cta: 2 initialized @(3,0)
GPGPU-Sim uArch: core:  8, cta: 2 initialized @(3,0)
GPGPU-Sim uArch: core:  9, cta: 2 initialized @(3,0)
GPGPU-Sim uArch: core: 10, cta: 2 initialized @(3,0)
GPGPU-Sim uArch: core: 11, cta: 2 initialized @(3,0)
GPGPU-Sim uArch: core: 12, cta: 2 initialized @(3,0)
GPGPU-Sim uArch: core: 13, cta: 2 initialized @(3,0)
GPGPU-Sim uArch: core: 14, cta: 2 initialized @(3,0)
GPGPU-Sim uArch: core:  0, cta: 2 initialized @(3,0)
GPGPU-Sim uArch: core:  1, cta: 3 initialized @(4,0)
GPGPU-Sim uArch: core:  2, cta: 3 initialized @(4,0)
GPGPU-Sim uArch: core:  3, cta: 3 initialized @(4,0)
GPGPU-Sim uArch: core:  4, cta: 3 initialized @(4,0)
GPGPU-Sim uArch: core:  5, cta: 3 initialized @(4,0)
GPGPU-Sim uArch: core:  6, cta: 3 initialized @(4,0)
GPGPU-Sim uArch: core:  7, cta: 3 initialized @(4,0)
GPGPU-Sim uArch: core:  8, cta: 3 initialized @(4,0)
GPGPU-Sim uArch: core:  9, cta: 3 initialized @(4,0)
GPGPU-Sim uArch: core: 10, cta: 3 initialized @(4,0)
GPGPU-Sim uArch: core: 11, cta: 3 initialized @(4,0)
GPGPU-Sim uArch: core: 12, cta: 3 initialized @(4,0)
GPGPU-Sim uArch: core: 13, cta: 3 initialized @(4,0)
GPGPU-Sim uArch: core: 14, cta: 3 initialized @(4,0)
GPGPU-Sim uArch: core:  0, cta: 3 initialized @(4,0)
GPGPU-Sim uArch: core:  1, cta: 4 initialized @(5,0)
GPGPU-Sim uArch: core:  2, cta: 4 initialized @(5,0)
GPGPU-Sim uArch: core:  3, cta: 4 initialized @(5,0)
GPGPU-Sim uArch: core:  4, cta: 4 initialized @(5,0)
GPGPU-Sim uArch: core:  5, cta: 4 initialized @(5,0)
GPGPU-Sim uArch: core:  6, cta: 4 initialized @(5,0)
GPGPU-Sim uArch: core:  7, cta: 4 initialized @(5,0)
GPGPU-Sim uArch: core:  8, cta: 4 initialized @(5,0)
GPGPU-Sim uArch: core:  9, cta: 4 initialized @(5,0)
GPGPU-Sim uArch: core: 10, cta: 4 initialized @(5,0)
GPGPU-Sim uArch: core: 11, cta: 4 initialized @(5,0)
GPGPU-Sim uArch: core: 12, cta: 4 initialized @(5,0)
GPGPU-Sim uArch: core: 13, cta: 4 initialized @(5,0)
GPGPU-Sim uArch: core: 14, cta: 4 initialized @(5,0)
GPGPU-Sim uArch: core:  0, cta: 4 initialized @(5,0)
GPGPU-Sim uArch: cycles simulated: 500  inst.: 36416 (ipc=72.8) sim_rate=12138 (inst/sec) elapsed = 0:0:00:03 / Tue Mar 22 07:38:35 2016
GPGPU-Sim uArch: cycles simulated: 1000  inst.: 53856 (ipc=53.9) sim_rate=13464 (inst/sec) elapsed = 0:0:00:04 / Tue Mar 22 07:38:36 2016
GPGPU-Sim PTX: 100000 instructions simulated : ctaid=(7,3,0) tid=(15,5,0)
GPGPU-Sim uArch: cycles simulated: 3000  inst.: 122528 (ipc=40.8) sim_rate=24505 (inst/sec) elapsed = 0:0:00:05 / Tue Mar 22 07:38:37 2016
GPGPU-Sim uArch: cycles simulated: 5000  inst.: 193088 (ipc=38.6) sim_rate=32181 (inst/sec) elapsed = 0:0:00:06 / Tue Mar 22 07:38:38 2016
GPGPU-Sim PTX: 200000 instructions simulated : ctaid=(7,1,0) tid=(15,1,0)
GPGPU-Sim uArch: cycles simulated: 7000  inst.: 282528 (ipc=40.4) sim_rate=40361 (inst/sec) elapsed = 0:0:00:07 / Tue Mar 22 07:38:39 2016
GPGPU-Sim PTX: 300000 instructions simulated : ctaid=(6,3,0) tid=(15,3,0)
GPGPU-Sim PTX: 400000 instructions simulated : ctaid=(4,0,0) tid=(15,5,0)
GPGPU-Sim uArch: cycles simulated: 8500  inst.: 398528 (ipc=46.9) sim_rate=49816 (inst/sec) elapsed = 0:0:00:08 / Tue Mar 22 07:38:40 2016
GPGPU-Sim PTX: 500000 instructions simulated : ctaid=(15,0,0) tid=(15,7,0)
GPGPU-Sim uArch: cycles simulated: 10000  inst.: 563136 (ipc=56.3) sim_rate=62570 (inst/sec) elapsed = 0:0:00:09 / Tue Mar 22 07:38:41 2016
GPGPU-Sim PTX: 600000 instructions simulated : ctaid=(3,2,0) tid=(15,7,0)
GPGPU-Sim PTX: 700000 instructions simulated : ctaid=(4,4,0) tid=(15,3,0)
GPGPU-Sim PTX: 800000 instructions simulated : ctaid=(2,1,0) tid=(15,3,0)
GPGPU-Sim PTX: 900000 instructions simulated : ctaid=(7,0,0) tid=(15,1,0)
GPGPU-Sim PTX: 1000000 instructions simulated : ctaid=(12,1,0) tid=(15,7,0)
GPGPU-Sim uArch: cycles simulated: 11500  inst.: 988224 (ipc=85.9) sim_rate=98822 (inst/sec) elapsed = 0:0:00:10 / Tue Mar 22 07:38:42 2016
GPGPU-Sim PTX: 1100000 instructions simulated : ctaid=(0,1,0) tid=(15,7,0)
GPGPU-Sim PTX: 1200000 instructions simulated : ctaid=(11,0,0) tid=(15,1,0)
GPGPU-Sim uArch: cycles simulated: 12000  inst.: 1190560 (ipc=99.2) sim_rate=6043 (inst/sec) elapsed = 0:0:03:17 / Tue Mar 22 07:41:49 2016
GPGPU-Sim PTX: 1300000 instructions simulated : ctaid=(7,2,0) tid=(15,5,0)
GPGPU-Sim uArch: cycles simulated: 12500  inst.: 1376576 (ipc=110.1) sim_rate=4513 (inst/sec) elapsed = 0:0:05:05 / Tue Mar 22 07:43:37 2016
GPGPU-Sim PTX: 1400000 instructions simulated : ctaid=(2,3,0) tid=(15,1,0)
GPGPU-Sim PTX: 1500000 instructions simulated : ctaid=(4,4,0) tid=(15,7,0)
GPGPU-Sim PTX: 1600000 instructions simulated : ctaid=(7,2,0) tid=(15,1,0)
GPGPU-Sim PTX: 1700000 instructions simulated : ctaid=(3,2,0) tid=(15,7,0)
GPGPU-Sim PTX: 1800000 instructions simulated : ctaid=(6,3,0) tid=(15,5,0)
GPGPU-Sim PTX: 1900000 instructions simulated : ctaid=(13,0,0) tid=(15,5,0)
GPGPU-Sim uArch: cycles simulated: 14000  inst.: 1946688 (ipc=139.0) sim_rate=6361 (inst/sec) elapsed = 0:0:05:06 / Tue Mar 22 07:43:38 2016
GPGPU-Sim PTX: 2000000 instructions simulated : ctaid=(2,4,0) tid=(15,7,0)
GPGPU-Sim PTX: 2100000 instructions simulated : ctaid=(8,4,0) tid=(15,5,0)
GPGPU-Sim PTX: 2200000 instructions simulated : ctaid=(0,2,0) tid=(15,1,0)
GPGPU-Sim PTX: 2300000 instructions simulated : ctaid=(9,3,0) tid=(15,3,0)
GPGPU-Sim uArch: cycles simulated: 14500  inst.: 2341792 (ipc=161.5) sim_rate=7627 (inst/sec) elapsed = 0:0:05:07 / Tue Mar 22 07:43:39 2016
GPGPU-Sim PTX: 2400000 instructions simulated : ctaid=(4,4,0) tid=(15,7,0)
GPGPU-Sim PTX: 2500000 instructions simulated : ctaid=(10,2,0) tid=(15,3,0)
GPGPU-Sim PTX: 2600000 instructions simulated : ctaid=(11,2,0) tid=(15,5,0)
GPGPU-Sim PTX: 2700000 instructions simulated : ctaid=(0,0,0) tid=(15,1,0)
GPGPU-Sim PTX: 2800000 instructions simulated : ctaid=(7,3,0) tid=(15,3,0)
GPGPU-Sim PTX: 2900000 instructions simulated : ctaid=(5,0,0) tid=(15,1,0)
GPGPU-Sim PTX: 3000000 instructions simulated : ctaid=(8,4,0) tid=(15,7,0)
GPGPU-Sim uArch: cycles simulated: 15500  inst.: 2972768 (ipc=191.8) sim_rate=9651 (inst/sec) elapsed = 0:0:05:08 / Tue Mar 22 07:43:40 2016
GPGPU-Sim PTX: 3100000 instructions simulated : ctaid=(14,0,0) tid=(15,3,0)
GPGPU-Sim PTX: 3200000 instructions simulated : ctaid=(8,0,0) tid=(15,1,0)
GPGPU-Sim PTX: 3300000 instructions simulated : ctaid=(7,3,0) tid=(15,1,0)
GPGPU-Sim uArch: cycles simulated: 16500  inst.: 3303104 (ipc=200.2) sim_rate=10689 (inst/sec) elapsed = 0:0:05:09 / Tue Mar 22 07:43:41 2016
GPGPU-Sim PTX: 3400000 instructions simulated : ctaid=(7,2,0) tid=(15,1,0)
GPGPU-Sim PTX: 3500000 instructions simulated : ctaid=(7,4,0) tid=(15,5,0)
GPGPU-Sim PTX: 3600000 instructions simulated : ctaid=(0,4,0) tid=(15,7,0)
GPGPU-Sim uArch: cycles simulated: 17500  inst.: 3587424 (ipc=205.0) sim_rate=11572 (inst/sec) elapsed = 0:0:05:10 / Tue Mar 22 07:43:42 2016
GPGPU-Sim PTX: 3700000 instructions simulated : ctaid=(13,0,0) tid=(15,7,0)
GPGPU-Sim PTX: 3800000 instructions simulated : ctaid=(9,1,0) tid=(15,1,0)
GPGPU-Sim PTX: 3900000 instructions simulated : ctaid=(8,4,0) tid=(15,3,0)
GPGPU-Sim PTX: 4000000 instructions simulated : ctaid=(13,1,0) tid=(15,1,0)
GPGPU-Sim uArch: cycles simulated: 18500  inst.: 3916128 (ipc=211.7) sim_rate=12592 (inst/sec) elapsed = 0:0:05:11 / Tue Mar 22 07:43:43 2016
GPGPU-Sim PTX: 4100000 instructions simulated : ctaid=(1,2,0) tid=(15,7,0)
GPGPU-Sim PTX: 4200000 instructions simulated : ctaid=(6,3,0) tid=(15,7,0)
GPGPU-Sim PTX: 4300000 instructions simulated : ctaid=(5,0,0) tid=(15,1,0)
GPGPU-Sim PTX: 4400000 instructions simulated : ctaid=(3,4,0) tid=(15,1,0)
GPGPU-Sim uArch: cycles simulated: 20000  inst.: 4325344 (ipc=216.3) sim_rate=13863 (inst/sec) elapsed = 0:0:05:12 / Tue Mar 22 07:43:44 2016
GPGPU-Sim PTX: 4500000 instructions simulated : ctaid=(7,0,0) tid=(15,7,0)
GPGPU-Sim PTX: 4600000 instructions simulated : ctaid=(14,2,0) tid=(9,2,0)
GPGPU-Sim PTX: 4700000 instructions simulated : ctaid=(9,2,0) tid=(7,2,0)
GPGPU-Sim PTX: 4800000 instructions simulated : ctaid=(11,3,0) tid=(15,2,0)
GPGPU-Sim PTX: 4900000 instructions simulated : ctaid=(15,2,0) tid=(15,4,0)
GPGPU-Sim PTX: 5000000 instructions simulated : ctaid=(9,1,0) tid=(15,0,0)
GPGPU-Sim uArch: cycles simulated: 21000  inst.: 4907120 (ipc=233.7) sim_rate=15677 (inst/sec) elapsed = 0:0:05:13 / Tue Mar 22 07:43:45 2016
GPGPU-Sim PTX: 5100000 instructions simulated : ctaid=(6,2,0) tid=(15,2,0)
GPGPU-Sim PTX: 5200000 instructions simulated : ctaid=(0,0,0) tid=(15,2,0)
GPGPU-Sim PTX: 5300000 instructions simulated : ctaid=(14,1,0) tid=(15,4,0)
GPGPU-Sim PTX: 5400000 instructions simulated : ctaid=(3,1,0) tid=(15,6,0)
GPGPU-Sim uArch: cycles simulated: 21500  inst.: 5292912 (ipc=246.2) sim_rate=16856 (inst/sec) elapsed = 0:0:05:14 / Tue Mar 22 07:43:46 2016
GPGPU-Sim PTX: 5500000 instructions simulated : ctaid=(13,3,0) tid=(15,0,0)
GPGPU-Sim PTX: 5600000 instructions simulated : ctaid=(2,4,0) tid=(0,5,0)
GPGPU-Sim PTX: 5700000 instructions simulated : ctaid=(10,2,0) tid=(6,3,0)
GPGPU-Sim PTX: 5800000 instructions simulated : ctaid=(8,2,0) tid=(15,5,0)
GPGPU-Sim PTX: 5900000 instructions simulated : ctaid=(15,2,0) tid=(11,7,0)
GPGPU-Sim PTX: 6000000 instructions simulated : ctaid=(13,3,0) tid=(11,7,0)
GPGPU-Sim uArch: cycles simulated: 22500  inst.: 5849508 (ipc=260.0) sim_rate=18569 (inst/sec) elapsed = 0:0:05:15 / Tue Mar 22 07:43:47 2016
GPGPU-Sim PTX: 6100000 instructions simulated : ctaid=(13,3,0) tid=(11,1,0)
GPGPU-Sim PTX: 6200000 instructions simulated : ctaid=(4,0,0) tid=(11,5,0)
GPGPU-Sim uArch: cycles simulated: 23000  inst.: 6025508 (ipc=262.0) sim_rate=19068 (inst/sec) elapsed = 0:0:05:16 / Tue Mar 22 07:43:48 2016
GPGPU-Sim PTX: 6300000 instructions simulated : ctaid=(15,3,0) tid=(11,1,0)
GPGPU-Sim PTX: 6400000 instructions simulated : ctaid=(5,1,0) tid=(11,5,0)
GPGPU-Sim PTX: 6500000 instructions simulated : ctaid=(10,0,0) tid=(15,6,0)
GPGPU-Sim uArch: cycles simulated: 25000  inst.: 6386980 (ipc=255.5) sim_rate=20148 (inst/sec) elapsed = 0:0:05:17 / Tue Mar 22 07:43:49 2016
GPGPU-Sim PTX: 6600000 instructions simulated : ctaid=(8,0,0) tid=(11,3,0)
GPGPU-Sim PTX: 6700000 instructions simulated : ctaid=(15,1,0) tid=(11,5,0)
GPGPU-Sim PTX: 6800000 instructions simulated : ctaid=(8,4,0) tid=(11,3,0)
GPGPU-Sim PTX: 6900000 instructions simulated : ctaid=(13,3,0) tid=(11,5,0)
GPGPU-Sim uArch: cycles simulated: 26000  inst.: 6807812 (ipc=261.8) sim_rate=21408 (inst/sec) elapsed = 0:0:05:18 / Tue Mar 22 07:43:50 2016
GPGPU-Sim PTX: 7000000 instructions simulated : ctaid=(3,0,0) tid=(11,5,0)
GPGPU-Sim PTX: 7100000 instructions simulated : ctaid=(13,1,0) tid=(11,3,0)
GPGPU-Sim PTX: 7200000 instructions simulated : ctaid=(10,0,0) tid=(11,3,0)
GPGPU-Sim uArch: cycles simulated: 27000  inst.: 7079492 (ipc=262.2) sim_rate=22192 (inst/sec) elapsed = 0:0:05:19 / Tue Mar 22 07:43:51 2016
GPGPU-Sim PTX: 7300000 instructions simulated : ctaid=(1,4,0) tid=(11,3,0)
GPGPU-Sim PTX: 7400000 instructions simulated : ctaid=(10,4,0) tid=(11,7,0)
GPGPU-Sim PTX: 7500000 instructions simulated : ctaid=(3,4,0) tid=(11,5,0)
GPGPU-Sim PTX: 7600000 instructions simulated : ctaid=(13,0,0) tid=(11,3,0)
GPGPU-Sim uArch: cycles simulated: 28000  inst.: 7431684 (ipc=265.4) sim_rate=23224 (inst/sec) elapsed = 0:0:05:20 / Tue Mar 22 07:43:52 2016
GPGPU-Sim PTX: 7700000 instructions simulated : ctaid=(10,3,0) tid=(11,1,0)
GPGPU-Sim PTX: 7800000 instructions simulated : ctaid=(9,3,0) tid=(11,1,0)
GPGPU-Sim PTX: 7900000 instructions simulated : ctaid=(14,0,0) tid=(11,5,0)
GPGPU-Sim uArch: cycles simulated: 29000  inst.: 7769636 (ipc=267.9) sim_rate=24204 (inst/sec) elapsed = 0:0:05:21 / Tue Mar 22 07:43:53 2016
GPGPU-Sim PTX: 8000000 instructions simulated : ctaid=(11,3,0) tid=(11,5,0)
GPGPU-Sim PTX: 8100000 instructions simulated : ctaid=(13,1,0) tid=(11,3,0)
GPGPU-Sim PTX: 8200000 instructions simulated : ctaid=(2,1,0) tid=(11,7,0)
GPGPU-Sim PTX: 8300000 instructions simulated : ctaid=(10,0,0) tid=(11,7,0)
GPGPU-Sim PTX: 8400000 instructions simulated : ctaid=(4,3,0) tid=(11,3,0)
GPGPU-Sim PTX: 8500000 instructions simulated : ctaid=(5,4,0) tid=(11,3,0)
GPGPU-Sim PTX: 8600000 instructions simulated : ctaid=(2,4,0) tid=(4,5,0)
GPGPU-Sim uArch: cycles simulated: 30500  inst.: 8416227 (ipc=275.9) sim_rate=26137 (inst/sec) elapsed = 0:0:05:22 / Tue Mar 22 07:43:54 2016
GPGPU-Sim PTX: 8700000 instructions simulated : ctaid=(12,2,0) tid=(10,3,0)
GPGPU-Sim PTX: 8800000 instructions simulated : ctaid=(9,1,0) tid=(7,2,0)
GPGPU-Sim PTX: 8900000 instructions simulated : ctaid=(5,2,0) tid=(7,6,0)
GPGPU-Sim PTX: 9000000 instructions simulated : ctaid=(12,1,0) tid=(11,5,0)
GPGPU-Sim uArch: cycles simulated: 31000  inst.: 8803977 (ipc=284.0) sim_rate=27256 (inst/sec) elapsed = 0:0:05:23 / Tue Mar 22 07:43:55 2016
GPGPU-Sim PTX: 9100000 instructions simulated : ctaid=(14,3,0) tid=(9,7,0)
GPGPU-Sim PTX: 9200000 instructions simulated : ctaid=(0,4,0) tid=(15,2,0)
GPGPU-Sim PTX: 9300000 instructions simulated : ctaid=(13,1,0) tid=(13,6,0)
GPGPU-Sim PTX: 9400000 instructions simulated : ctaid=(10,2,0) tid=(7,7,0)
GPGPU-Sim uArch: cycles simulated: 31500  inst.: 9199144 (ipc=292.0) sim_rate=28392 (inst/sec) elapsed = 0:0:05:24 / Tue Mar 22 07:43:56 2016
GPGPU-Sim PTX: 9500000 instructions simulated : ctaid=(14,0,0) tid=(5,7,0)
GPGPU-Sim PTX: 9600000 instructions simulated : ctaid=(14,3,0) tid=(15,2,0)
GPGPU-Sim PTX: 9700000 instructions simulated : ctaid=(0,2,0) tid=(12,5,0)
GPGPU-Sim PTX: 9800000 instructions simulated : ctaid=(6,1,0) tid=(10,3,0)
GPGPU-Sim PTX: 9900000 instructions simulated : ctaid=(6,2,0) tid=(3,3,0)
GPGPU-Sim PTX: 10000000 instructions simulated : ctaid=(11,1,0) tid=(3,5,0)
GPGPU-Sim uArch: cycles simulated: 32500  inst.: 9775336 (ipc=300.8) sim_rate=30077 (inst/sec) elapsed = 0:0:05:25 / Tue Mar 22 07:43:57 2016
GPGPU-Sim PTX: 10100000 instructions simulated : ctaid=(6,2,0) tid=(11,6,0)
GPGPU-Sim PTX: 10200000 instructions simulated : ctaid=(9,2,0) tid=(7,3,0)
GPGPU-Sim PTX: 10300000 instructions simulated : ctaid=(12,2,0) tid=(4,6,0)
GPGPU-Sim uArch: cycles simulated: 34000  inst.: 10105491 (ipc=297.2) sim_rate=30998 (inst/sec) elapsed = 0:0:05:26 / Tue Mar 22 07:43:58 2016
GPGPU-Sim uArch: Shader 2 finished CTA #2 (34045,0), 4 CTAs running
GPGPU-Sim uArch: core:  2, cta: 2 initialized @(34046,0)
GPGPU-Sim PTX: 10400000 instructions simulated : ctaid=(5,4,0) tid=(5,0,0)
GPGPU-Sim uArch: Shader 0 finished CTA #3 (34174,0), 4 CTAs running
GPGPU-Sim uArch: core:  0, cta: 3 initialized @(34175,0)
GPGPU-Sim uArch: Shader 4 finished CTA #2 (34182,0), 4 CTAs running
GPGPU-Sim uArch: core:  4, cta: 2 initialized @(34183,0)
GPGPU-Sim uArch: Shader 0 finished CTA #4 (34188,0), 4 CTAs running
GPGPU-Sim uArch: core:  0, cta: 4 initialized @(34189,0)
GPGPU-Sim uArch: Shader 4 finished CTA #4 (34194,0), 4 CTAs running
GPGPU-Sim uArch: core:  4, cta: 4 initialized @(34195,0)
GPGPU-Sim uArch: Shader 2 finished CTA #3 (34202,0), 4 CTAs running
GPGPU-Sim uArch: core:  2, cta: 3 initialized @(34203,0)
GPGPU-Sim uArch: Shader 0 finished CTA #1 (34216,0), 4 CTAs running
GPGPU-Sim uArch: core:  0, cta: 1 initialized @(34217,0)
GPGPU-Sim uArch: Shader 2 finished CTA #1 (34221,0), 4 CTAs running
GPGPU-Sim uArch: core:  2, cta: 1 initialized @(34222,0)
GPGPU-Sim uArch: Shader 14 finished CTA #0 (34224,0), 4 CTAs running
GPGPU-Sim uArch: core: 14, cta: 0 initialized @(34225,0)
GPGPU-Sim uArch: Shader 4 finished CTA #1 (34232,0), 4 CTAs running
GPGPU-Sim uArch: core:  4, cta: 1 initialized @(34233,0)
GPGPU-Sim uArch: Shader 0 finished CTA #0 (34236,0), 4 CTAs running
GPGPU-Sim uArch: Shader 8 finished CTA #2 (34236,0), 4 CTAs running
GPGPU-Sim uArch: core:  8, cta: 2 initialized @(34237,0)
GPGPU-Sim uArch: core:  0, cta: 0 initialized @(34237,0)
GPGPU-Sim uArch: Shader 9 finished CTA #3 (34244,0), 4 CTAs running
GPGPU-Sim uArch: core:  9, cta: 3 initialized @(34245,0)
GPGPU-Sim uArch: Shader 0 finished CTA #2 (34248,0), 4 CTAs running
GPGPU-Sim uArch: core:  0, cta: 2 initialized @(34249,0)
GPGPU-Sim uArch: Shader 2 finished CTA #4 (34250,0), 4 CTAs running
GPGPU-Sim uArch: Shader 4 finished CTA #3 (34250,0), 4 CTAs running
GPGPU-Sim uArch: core:  2, cta: 4 initialized @(34251,0)
GPGPU-Sim uArch: core:  4, cta: 3 initialized @(34251,0)
GPGPU-Sim uArch: Shader 9 finished CTA #4 (34252,0), 4 CTAs running
GPGPU-Sim uArch: core:  9, cta: 4 initialized @(34253,0)
GPGPU-Sim uArch: Shader 8 finished CTA #3 (34258,0), 4 CTAs running
GPGPU-Sim uArch: core:  8, cta: 3 initialized @(34259,0)
GPGPU-Sim uArch: Shader 5 finished CTA #2 (34260,0), 4 CTAs running
GPGPU-Sim uArch: core:  5, cta: 2 initialized @(34261,0)
GPGPU-Sim uArch: Shader 3 finished CTA #0 (34262,0), 4 CTAs running
GPGPU-Sim uArch: core:  3, cta: 0 initialized @(34263,0)
GPGPU-Sim uArch: Shader 1 finished CTA #3 (34266,0), 4 CTAs running
GPGPU-Sim uArch: core:  1, cta: 3 initialized @(34267,0)
GPGPU-Sim uArch: Shader 2 finished CTA #0 (34268,0), 4 CTAs running
GPGPU-Sim uArch: Shader 8 finished CTA #4 (34268,0), 4 CTAs running
GPGPU-Sim uArch: core:  2, cta: 0 initialized @(34269,0)
GPGPU-Sim uArch: core:  8, cta: 4 initialized @(34269,0)
GPGPU-Sim uArch: Shader 6 finished CTA #3 (34276,0), 4 CTAs running
GPGPU-Sim uArch: core:  6, cta: 3 initialized @(34277,0)
GPGPU-Sim uArch: Shader 6 finished CTA #2 (34293,0), 4 CTAs running
GPGPU-Sim uArch: core:  6, cta: 2 initialized @(34294,0)
GPGPU-Sim uArch: Shader 5 finished CTA #4 (34298,0), 4 CTAs running
GPGPU-Sim uArch: core:  5, cta: 4 initialized @(34299,0)
GPGPU-Sim uArch: Shader 3 finished CTA #1 (34300,0), 4 CTAs running
GPGPU-Sim uArch: core:  3, cta: 1 initialized @(34301,0)
GPGPU-Sim uArch: Shader 1 finished CTA #1 (34308,0), 4 CTAs running
GPGPU-Sim uArch: core:  1, cta: 1 initialized @(34309,0)
GPGPU-Sim uArch: Shader 5 finished CTA #3 (34314,0), 4 CTAs running
GPGPU-Sim uArch: core:  5, cta: 3 initialized @(34315,0)
GPGPU-Sim uArch: Shader 1 finished CTA #2 (34316,0), 4 CTAs running
GPGPU-Sim uArch: Shader 3 finished CTA #2 (34316,0), 4 CTAs running
GPGPU-Sim uArch: core:  1, cta: 2 initialized @(34317,0)
GPGPU-Sim uArch: core:  3, cta: 2 initialized @(34317,0)
GPGPU-Sim uArch: Shader 6 finished CTA #4 (34324,0), 4 CTAs running
GPGPU-Sim uArch: core:  6, cta: 4 initialized @(34325,0)
GPGPU-Sim uArch: Shader 3 finished CTA #4 (34328,0), 4 CTAs running
GPGPU-Sim uArch: core:  3, cta: 4 initialized @(34329,0)
GPGPU-Sim uArch: Shader 3 finished CTA #3 (34336,0), 4 CTAs running
GPGPU-Sim uArch: core:  3, cta: 3 initialized @(34337,0)
GPGPU-Sim uArch: Shader 1 finished CTA #0 (34340,0), 4 CTAs running
GPGPU-Sim uArch: core:  1, cta: 0 initialized @(34341,0)
GPGPU-Sim uArch: Shader 7 finished CTA #3 (34344,0), 4 CTAs running
GPGPU-Sim uArch: core:  7, cta: 3 initialized @(34345,0)
GPGPU-Sim uArch: Shader 1 finished CTA #4 (34350,0), 4 CTAs running
GPGPU-Sim uArch: core:  1, cta: 4 initialized @(34351,0)
GPGPU-Sim uArch: Shader 7 finished CTA #4 (34362,0), 4 CTAs running
GPGPU-Sim uArch: core:  7, cta: 4 initialized @(34363,0)
GPGPU-Sim PTX: 10500000 instructions simulated : ctaid=(15,4,0) tid=(7,4,0)
GPGPU-Sim uArch: Shader 10 finished CTA #4 (34426,0), 4 CTAs running
GPGPU-Sim uArch: core: 10, cta: 4 initialized @(34427,0)
GPGPU-Sim uArch: cycles simulated: 34500  inst.: 10262700 (ipc=297.5) sim_rate=31384 (inst/sec) elapsed = 0:0:05:27 / Tue Mar 22 07:43:59 2016
GPGPU-Sim PTX: 10600000 instructions simulated : ctaid=(10,1,0) tid=(15,3,0)
GPGPU-Sim PTX: 10700000 instructions simulated : ctaid=(8,2,0) tid=(0,4,0)
GPGPU-Sim PTX: 10800000 instructions simulated : ctaid=(11,1,0) tid=(13,2,0)
GPGPU-Sim uArch: cycles simulated: 35500  inst.: 10534384 (ipc=296.7) sim_rate=32117 (inst/sec) elapsed = 0:0:05:28 / Tue Mar 22 07:44:00 2016
GPGPU-Sim PTX: 10900000 instructions simulated : ctaid=(11,5,0) tid=(14,7,0)
GPGPU-Sim PTX: 11000000 instructions simulated : ctaid=(3,0,0) tid=(9,0,0)
GPGPU-Sim uArch: cycles simulated: 36000  inst.: 10718187 (ipc=297.7) sim_rate=32578 (inst/sec) elapsed = 0:0:05:29 / Tue Mar 22 07:44:01 2016
GPGPU-Sim PTX: 11100000 instructions simulated : ctaid=(8,2,0) tid=(5,0,0)
GPGPU-Sim PTX: 11200000 instructions simulated : ctaid=(7,5,0) tid=(7,3,0)
GPGPU-Sim PTX: 11300000 instructions simulated : ctaid=(1,7,0) tid=(3,7,0)
GPGPU-Sim PTX: 11400000 instructions simulated : ctaid=(0,7,0) tid=(11,3,0)
GPGPU-Sim PTX: 11500000 instructions simulated : ctaid=(4,5,0) tid=(0,6,0)
GPGPU-Sim uArch: cycles simulated: 37000  inst.: 11208550 (ipc=302.9) sim_rate=33965 (inst/sec) elapsed = 0:0:05:30 / Tue Mar 22 07:44:02 2016
GPGPU-Sim PTX: 11600000 instructions simulated : ctaid=(11,0,0) tid=(5,1,0)
GPGPU-Sim PTX: 11700000 instructions simulated : ctaid=(6,0,0) tid=(5,4,0)
GPGPU-Sim PTX: 11800000 instructions simulated : ctaid=(8,6,0) tid=(8,1,0)
GPGPU-Sim uArch: cycles simulated: 37500  inst.: 11504982 (ipc=306.8) sim_rate=34758 (inst/sec) elapsed = 0:0:05:31 / Tue Mar 22 07:44:03 2016
GPGPU-Sim PTX: 11900000 instructions simulated : ctaid=(0,7,0) tid=(5,5,0)
GPGPU-Sim PTX: 12000000 instructions simulated : ctaid=(10,5,0) tid=(1,2,0)
GPGPU-Sim PTX: 12100000 instructions simulated : ctaid=(7,4,0) tid=(5,5,0)
GPGPU-Sim uArch: cycles simulated: 38000  inst.: 11789571 (ipc=310.3) sim_rate=35510 (inst/sec) elapsed = 0:0:05:32 / Tue Mar 22 07:44:04 2016
GPGPU-Sim PTX: 12200000 instructions simulated : ctaid=(0,7,0) tid=(4,0,0)
GPGPU-Sim PTX: 12300000 instructions simulated : ctaid=(5,5,0) tid=(6,0,0)
GPGPU-Sim PTX: 12400000 instructions simulated : ctaid=(7,6,0) tid=(1,3,0)
GPGPU-Sim PTX: 12500000 instructions simulated : ctaid=(7,3,0) tid=(5,5,0)
GPGPU-Sim PTX: 12600000 instructions simulated : ctaid=(6,6,0) tid=(0,5,0)
GPGPU-Sim uArch: cycles simulated: 39000  inst.: 12311832 (ipc=315.7) sim_rate=36972 (inst/sec) elapsed = 0:0:05:33 / Tue Mar 22 07:44:05 2016
GPGPU-Sim PTX: 12700000 instructions simulated : ctaid=(15,6,0) tid=(3,5,0)
GPGPU-Sim uArch: Shader 7 finished CTA #2 (39134,0), 4 CTAs running
GPGPU-Sim uArch: core:  7, cta: 2 initialized @(39135,0)
GPGPU-Sim uArch: Shader 14 finished CTA #2 (39189,0), 4 CTAs running
GPGPU-Sim uArch: core: 14, cta: 2 initialized @(39190,0)
GPGPU-Sim PTX: 12800000 instructions simulated : ctaid=(7,3,0) tid=(9,7,0)
GPGPU-Sim PTX: 12900000 instructions simulated : ctaid=(9,6,0) tid=(14,1,0)
GPGPU-Sim uArch: cycles simulated: 39500  inst.: 12567829 (ipc=318.2) sim_rate=37628 (inst/sec) elapsed = 0:0:05:34 / Tue Mar 22 07:44:06 2016
GPGPU-Sim PTX: 13000000 instructions simulated : ctaid=(4,1,0) tid=(9,4,0)
GPGPU-Sim PTX: 13100000 instructions simulated : ctaid=(14,5,0) tid=(12,6,0)
GPGPU-Sim PTX: 13200000 instructions simulated : ctaid=(15,5,0) tid=(9,2,0)
GPGPU-Sim PTX: 13300000 instructions simulated : ctaid=(8,4,0) tid=(14,5,0)
GPGPU-Sim PTX: 13400000 instructions simulated : ctaid=(5,5,0) tid=(0,4,0)
GPGPU-Sim uArch: cycles simulated: 40500  inst.: 13111378 (ipc=323.7) sim_rate=39138 (inst/sec) elapsed = 0:0:05:35 / Tue Mar 22 07:44:07 2016
GPGPU-Sim PTX: 13500000 instructions simulated : ctaid=(4,6,0) tid=(2,2,0)
GPGPU-Sim PTX: 13600000 instructions simulated : ctaid=(7,2,0) tid=(3,1,0)
GPGPU-Sim PTX: 13700000 instructions simulated : ctaid=(8,6,0) tid=(4,0,0)
GPGPU-Sim uArch: cycles simulated: 41000  inst.: 13374399 (ipc=326.2) sim_rate=39804 (inst/sec) elapsed = 0:0:05:36 / Tue Mar 22 07:44:08 2016
GPGPU-Sim PTX: 13800000 instructions simulated : ctaid=(8,2,0) tid=(1,0,0)
GPGPU-Sim PTX: 13900000 instructions simulated : ctaid=(11,0,0) tid=(11,7,0)
GPGPU-Sim PTX: 14000000 instructions simulated : ctaid=(13,5,0) tid=(10,5,0)
GPGPU-Sim PTX: 14100000 instructions simulated : ctaid=(6,3,0) tid=(12,1,0)
GPGPU-Sim PTX: 14200000 instructions simulated : ctaid=(2,5,0) tid=(9,4,0)
GPGPU-Sim uArch: cycles simulated: 42000  inst.: 13885721 (ipc=330.6) sim_rate=41203 (inst/sec) elapsed = 0:0:05:37 / Tue Mar 22 07:44:09 2016
GPGPU-Sim PTX: 14300000 instructions simulated : ctaid=(6,0,0) tid=(15,3,0)
GPGPU-Sim PTX: 14400000 instructions simulated : ctaid=(9,2,0) tid=(3,7,0)
GPGPU-Sim PTX: 14500000 instructions simulated : ctaid=(6,5,0) tid=(5,0,0)
GPGPU-Sim uArch: cycles simulated: 42500  inst.: 14141693 (ipc=332.7) sim_rate=41839 (inst/sec) elapsed = 0:0:05:38 / Tue Mar 22 07:44:10 2016
GPGPU-Sim PTX: 14600000 instructions simulated : ctaid=(2,6,0) tid=(7,1,0)
GPGPU-Sim PTX: 14700000 instructions simulated : ctaid=(7,3,0) tid=(4,7,0)
GPGPU-Sim PTX: 14800000 instructions simulated : ctaid=(12,6,0) tid=(14,1,0)
GPGPU-Sim PTX: 14900000 instructions simulated : ctaid=(6,6,0) tid=(13,6,0)
GPGPU-Sim PTX: 15000000 instructions simulated : ctaid=(9,2,0) tid=(1,1,0)
GPGPU-Sim uArch: cycles simulated: 43500  inst.: 14619836 (ipc=336.1) sim_rate=43126 (inst/sec) elapsed = 0:0:05:39 / Tue Mar 22 07:44:11 2016
GPGPU-Sim PTX: 15100000 instructions simulated : ctaid=(7,3,0) tid=(12,0,0)
GPGPU-Sim PTX: 15200000 instructions simulated : ctaid=(12,6,0) tid=(3,6,0)
GPGPU-Sim uArch: Shader 14 finished CTA #3 (43952,0), 4 CTAs running
GPGPU-Sim uArch: core: 14, cta: 3 initialized @(43953,0)
GPGPU-Sim PTX: 15300000 instructions simulated : ctaid=(11,0,0) tid=(14,1,0)
GPGPU-Sim PTX: 15400000 instructions simulated : ctaid=(6,5,0) tid=(1,7,0)
GPGPU-Sim PTX: 15500000 instructions simulated : ctaid=(9,3,0) tid=(1,5,0)
GPGPU-Sim uArch: cycles simulated: 44500  inst.: 15129345 (ipc=340.0) sim_rate=44498 (inst/sec) elapsed = 0:0:05:40 / Tue Mar 22 07:44:12 2016
GPGPU-Sim PTX: 15600000 instructions simulated : ctaid=(9,0,0) tid=(5,7,0)
GPGPU-Sim PTX: 15700000 instructions simulated : ctaid=(8,4,0) tid=(11,0,0)
GPGPU-Sim uArch: cycles simulated: 45000  inst.: 15363585 (ipc=341.4) sim_rate=45054 (inst/sec) elapsed = 0:0:05:41 / Tue Mar 22 07:44:13 2016
GPGPU-Sim PTX: 15800000 instructions simulated : ctaid=(2,7,0) tid=(4,4,0)
GPGPU-Sim uArch: Shader 13 finished CTA #2 (45218,0), 4 CTAs running
GPGPU-Sim uArch: core: 13, cta: 2 initialized @(45219,0)
GPGPU-Sim PTX: 15900000 instructions simulated : ctaid=(14,5,0) tid=(12,2,0)
GPGPU-Sim PTX: 16000000 instructions simulated : ctaid=(11,4,0) tid=(13,6,0)
GPGPU-Sim PTX: 16100000 instructions simulated : ctaid=(0,6,0) tid=(6,5,0)
GPGPU-Sim PTX: 16200000 instructions simulated : ctaid=(8,3,0) tid=(2,0,0)
GPGPU-Sim uArch: cycles simulated: 46000  inst.: 15811439 (ipc=343.7) sim_rate=46232 (inst/sec) elapsed = 0:0:05:42 / Tue Mar 22 07:44:14 2016
GPGPU-Sim PTX: 16300000 instructions simulated : ctaid=(7,5,0) tid=(4,0,0)
GPGPU-Sim PTX: 16400000 instructions simulated : ctaid=(14,4,0) tid=(12,2,0)
GPGPU-Sim PTX: 16500000 instructions simulated : ctaid=(0,7,0) tid=(2,2,0)
GPGPU-Sim PTX: 16600000 instructions simulated : ctaid=(7,1,0) tid=(13,4,0)
GPGPU-Sim uArch: cycles simulated: 47000  inst.: 16183570 (ipc=344.3) sim_rate=47182 (inst/sec) elapsed = 0:0:05:43 / Tue Mar 22 07:44:15 2016
GPGPU-Sim PTX: 16700000 instructions simulated : ctaid=(5,6,0) tid=(12,2,0)
GPGPU-Sim PTX: 16800000 instructions simulated : ctaid=(1,7,0) tid=(10,7,0)
GPGPU-Sim PTX: 16900000 instructions simulated : ctaid=(12,5,0) tid=(14,1,0)
GPGPU-Sim PTX: 17000000 instructions simulated : ctaid=(8,3,0) tid=(12,0,0)
GPGPU-Sim PTX: 17100000 instructions simulated : ctaid=(8,3,0) tid=(0,1,0)
GPGPU-Sim uArch: cycles simulated: 48000  inst.: 16666589 (ipc=347.2) sim_rate=48449 (inst/sec) elapsed = 0:0:05:44 / Tue Mar 22 07:44:16 2016
GPGPU-Sim PTX: 17200000 instructions simulated : ctaid=(14,6,0) tid=(12,1,0)
GPGPU-Sim uArch: Shader 5 finished CTA #2 (48183,0), 4 CTAs running
GPGPU-Sim uArch: core:  5, cta: 2 initialized @(48184,0)
GPGPU-Sim uArch: Shader 5 finished CTA #4 (48294,0), 4 CTAs running
GPGPU-Sim uArch: core:  5, cta: 4 initialized @(48295,0)
GPGPU-Sim PTX: 17300000 instructions simulated : ctaid=(3,6,0) tid=(8,4,0)
GPGPU-Sim uArch: Shader 5 finished CTA #1 (48361,0), 4 CTAs running
GPGPU-Sim uArch: core:  5, cta: 1 initialized @(48362,0)
GPGPU-Sim uArch: cycles simulated: 48500  inst.: 16911583 (ipc=348.7) sim_rate=49019 (inst/sec) elapsed = 0:0:05:45 / Tue Mar 22 07:44:17 2016
GPGPU-Sim PTX: 17400000 instructions simulated : ctaid=(5,1,0) tid=(12,1,0)
GPGPU-Sim PTX: 17500000 instructions simulated : ctaid=(11,5,0) tid=(6,6,0)
GPGPU-Sim PTX: 17600000 instructions simulated : ctaid=(8,1,0) tid=(1,6,0)
GPGPU-Sim PTX: 17700000 instructions simulated : ctaid=(3,6,0) tid=(9,0,0)
GPGPU-Sim PTX: 17800000 instructions simulated : ctaid=(11,5,0) tid=(8,4,0)
GPGPU-Sim uArch: cycles simulated: 49500  inst.: 17332888 (ipc=350.2) sim_rate=50095 (inst/sec) elapsed = 0:0:05:46 / Tue Mar 22 07:44:18 2016
GPGPU-Sim uArch: Shader 14 finished CTA #1 (49599,0), 4 CTAs running
GPGPU-Sim uArch: core: 14, cta: 1 initialized @(49600,0)
GPGPU-Sim uArch: Shader 14 finished CTA #0 (49608,0), 4 CTAs running
GPGPU-Sim uArch: core: 14, cta: 0 initialized @(49609,0)
GPGPU-Sim PTX: 17900000 instructions simulated : ctaid=(7,5,0) tid=(4,4,0)
GPGPU-Sim PTX: 18000000 instructions simulated : ctaid=(3,6,0) tid=(9,3,0)
GPGPU-Sim uArch: cycles simulated: 50000  inst.: 17519663 (ipc=350.4) sim_rate=50488 (inst/sec) elapsed = 0:0:05:47 / Tue Mar 22 07:44:19 2016
GPGPU-Sim uArch: Shader 7 finished CTA #3 (50157,0), 4 CTAs running
GPGPU-Sim uArch: core:  7, cta: 3 initialized @(50158,0)
GPGPU-Sim uArch: Shader 10 finished CTA #4 (50204,0), 4 CTAs running
GPGPU-Sim uArch: core: 10, cta: 4 initialized @(50205,0)
GPGPU-Sim PTX: 18100000 instructions simulated : ctaid=(9,4,0) tid=(3,7,0)
GPGPU-Sim uArch: Shader 7 finished CTA #4 (50318,0), 4 CTAs running
GPGPU-Sim uArch: core:  7, cta: 4 initialized @(50319,0)
GPGPU-Sim uArch: Shader 11 finished CTA #4 (50362,0), 4 CTAs running
GPGPU-Sim uArch: core: 11, cta: 4 initialized @(50363,0)
[...]
maxmrqlatency = 697 
maxdqlatency = 0 
maxmflatency = 1814 
averagemflatency = 291 
max_icnt2mem_latency = 1219 
max_icnt2sh_latency = 153862 
mrq_lat_table:12620 	1748 	1198 	2199 	4853 	3619 	4045 	3843 	152 	8 	0 	0 	0 	0 	0 	0 	0 	0 	0 	0 	0 	0 	0 	0 	0 	0 	0 	0 	0 	0 	0 	0 	
dq_lat_table:0 	0 	0 	0 	0 	0 	0 	0 	0 	0 	0 	0 	0 	0 	0 	0 	0 	0 	0 	0 	0 	0 	0 	0 	0 	0 	0 	0 	0 	0 	0 	0 	
mf_lat_table:0 	0 	0 	0 	0 	0 	0 	48442 	8750 	3355 	3151 	0 	0 	0 	0 	0 	0 	0 	0 	0 	0 	0 	0 	0 	0 	0 	0 	0 	0 	0 	0 	0 	
icnt2mem_lat_table:0 	0 	0 	19685 	12449 	13390 	30794 	1321 	2607 	1176 	5 	0 	0 	0 	0 	0 	0 	0 	0 	0 	0 	0 	0 	0 	
icnt2sh_lat_table:0 	0 	0 	5077 	3999 	1867 	234 	0 	0 	185 	490 	1021 	2162 	2742 	3300 	10842 	20795 	10984 	0 	0 	0 	0 	0 	0 	
mf_lat_pw_table:0 	0 	0 	0 	0 	0 	0 	246 	8 	11 	12 	0 	0 	0 	0 	0 	0 	0 	0 	0 	0 	0 	0 	0 	0 	0 	0 	0 	0 	0 	0 	0 	
maximum concurrent accesses to same row:
dram[0]:        36        64        64        64        46        48        32        32        32        46        32        32        32        32        32        34 
dram[1]:        64        64        64        64        46        42        32        37        32        32        32        32        32        32        32        32 
dram[2]:        64        64        64        64        64        64        56        54        32        32        32        32        33        32        32        32 
dram[3]:        64        64        64        64        64        64        52        52        32        32        32        32        32        32        32        32 
dram[4]:        64        64        64        64        64        64        56        56        34        34        32        32        32        32        32        32 
dram[5]:        64        64        64        64        64        64        56        54        32        32        32        32        32        32        32        32 
maximum service time to same row:
dram[0]:     16186     16066     22791     18033     17919     19879     18150     18020     23646     23869     24629     23706     24474     24496     24437     24475 
dram[1]:     13255     21304     18052     19127     17947     24450     18242     18230     23582     23851     24523     29030     24360     24428     24324     25366 
dram[2]:     24987     29196     18275     24477     17542     25846     18270     17938     24069     23972     23984     24067     31353     25024     24769     28134 
dram[3]:     21053     22092     21721     18143     26546     17901     18163     18041     23887     23890     23877     23920     25398     24907     33918     24614 
dram[4]:     23304     16732     19524     19066     18150     16094     20319     18402     23360     23318     24671     23628     24522     24547     25462     27272 
dram[5]:     16753     17952     18228     18510     18150     18030     18322     18289     23384     23128     24403     23485     24311     24311     24081     36138 
average row accesses per activate:
dram[0]:  5.704918  6.363636  9.272727  6.074074  5.333333  4.680555  6.280702  5.346667  4.987654  5.479452  5.578125  5.094594  5.594594  6.169491  6.288889  5.500000 
dram[1]:  5.064935  6.377358  6.921568  7.828571  4.505495  5.523077  4.500000  5.469697  3.704545  5.118421  4.604651  4.375000  5.147727  5.671875  5.655172  5.750000 
dram[2]:  8.305555  6.333333  6.914894  7.648649  5.607143  5.621212  4.333333  6.351852  5.436620  4.730769  5.812500  5.587302  8.166667  5.936508  6.170213  7.357143 
dram[3]:  8.967742  5.655172 11.320000  6.313725  6.282609  4.585366  6.034483  5.552239  5.765625  4.473118  5.295082  4.385542  8.621622  5.465754  6.837838  6.017857 
dram[4]:  6.145454  6.017857  7.972973  7.744186  4.566265  4.617284  5.414286  4.566667  4.705883  4.791209  5.793651  5.000000  4.897436  5.432433  7.720930  6.018868 
dram[5]:  6.381818  5.555555  6.773585  6.137255  4.534091  4.906667  4.906977  5.641791  4.406593  4.630435  4.092783  5.803571  5.591549  5.410959  5.202899  8.125000 
average row locality = 34285/6200 = 5.529839
number of total memory accesses made:
dram[0]:         0         0         0         0         0         0         0         0         0         0         0         0         0         0         0         0 
dram[1]:         0         0         0         0         0         0         0         0         0         0         0         0         0         0         0         0 
dram[2]:         0         0         0         0         0         0         0         0         0         0         0         0         0         0         0         0 
dram[3]:         0         0         0         0         0         0         0         0         0         0         0         0         0         0         0         0 
dram[4]:         0         0         0         0         0         0         0         0         0         0         0         0         0         0         0         0 
dram[5]:         0         0         0         0         0         0         0         0         0         0         0         0         0         0         0         0 
total accesses: 0
min_bank_accesses = 0!
min_chip_accesses = 0!
number of total read accesses:
dram[0]:       158       154       134       141       163       146       146       163       164       158       142       157       170       153       126       138 
dram[1]:       175       149       151       121       173       149       160       147       197       157       167       142       187       156       142       130 
dram[2]:       135       142       141       127       132       155       168       140       152       157       152       141       149       155       128       137 
dram[3]:       126       143       122       140       120       158       144       154       146       170       134       151       140       167       114       144 
dram[4]:       149       148       129       143       161       154       153       171       164       173       146       151       160       173       143       138 
dram[5]:       152       153       154       139       166       153       173       152       163       167       164       131       166       167       152       116 
total reads: 14424
bank skew: 197/114 = 1.73
chip skew: 2503/2273 = 1.10
number of total write accesses:
dram[0]:       190       196       172       187       237       191       212       238       240       242       215       220       244       211       157       181 
dram[1]:       215       189       202       153       237       210       236       214       292       232       229       208       266       207       186       169 
dram[2]:       164       181       184       156       182       216       235       203       234       212       220       211       194       219       162       172 
dram[3]:       152       185       161       182       169       218       206       218       223       246       189       213       179       232       139       193 
dram[4]:       189       189       166       190       218       220       226       240       236       263       219       224       222       229       189       181 
dram[5]:       199       197       205       174       233       215       249       226       238       259       233       194       231       228       207       144 
total reads: 19861
bank skew: 292/139 = 2.10
chip skew: 3445/3105 = 1.11
average mf latency per bank:
dram[0]:        516       426       570       497       475       499       621       509       526       490       562       539       496       531       614       507
dram[1]:        506       468       477       586       472       496       565       598       439       519       525       561       465       548       538       565
dram[2]:        558       533       561       629       624       532       564       654       545       556       558       574       587       524       595       543
dram[3]:        587       540       645       579       703       552       679       630       591       534       658       572       651       520       699       523
dram[4]:        478       448       610       511       484       489       581       519       510       462       537       536       492       482       475       518
dram[5]:        481       464       510       558       481       553       575       612       550       507       529       653       517       518       482       669
maximum mf latency per bank:
dram[0]:       1527      1254      1809      1384      1423      1366      1623      1451      1492      1278      1454      1288      1577      1205      1489      1265
dram[1]:       1388      1404      1483      1545      1381      1367      1461      1493      1433      1330      1403      1258      1442      1314      1418      1340
dram[2]:       1402      1424      1743      1680      1604      1560      1687      1586      1561      1493      1573      1526      1420      1561      1368      1397
dram[3]:       1461      1502      1789      1713      1666      1728      1753      1814      1787      1661      1732      1590      1664      1491      1566      1596
dram[4]:       1382      1375      1747      1701      1613      1519      1538      1510      1477      1512      1432      1448      1508      1357      1336      1309
dram[5]:       1618      1516      1744      1693      1648      1530      1714      1620      1591      1683      1509      1662      1422      1495      1510      1542

Number of Memory Banks Accessed per Memory Operation per Warp (from 0):
0	0	0	0	0	0	0	0	0	0	0	0	0	0	0	0	0	0	0	0	0	0	0	0	0	0	0	0	0	0	0	0	0	0	0	0	0	0	0	0	0	0	0	0	0	0	0	0	0	0	0	0	0	0	0	0	0	0	0	0	0	0	0	0	0	0	0	0	0	0	0	0	0	0	0	0	0	0	0	0	0	0	0	0	0	0	0	0	0	0	0	0	0	0	0	0	
Average # of Memory Banks Accessed per Memory Operation per Warp=-nan

position of mrq chosen
0	0	0	0	0	0	0	0	0	0	0	0	0	0	0	0	

average position of mrq chosen = -nan
Memory Partition 0: 
Cache L2_bank_000:
MSHR contents

Cache L2_bank_001:
MSHR contents

In Dram Latency Queue (total = 0): 
DRAM[0]: 16 bks, busW=4 BL=8 CL=12, tRRD=2 tCCD=6, tRCD=12 tRAS=28 tRP=12 tRC=40
n_cmd=203098 n_nop=190108 n_act=1010 n_pre=994 n_req=5746 n_rd=4826 n_write=6160 bw_util=0.1082
n_activity=58188 dram_eff=0.3776
bk0: 316a 195119i bk1: 308a 194129i bk2: 268a 194396i bk3: 282a 194141i bk4: 326a 192493i bk5: 292a 193484i bk6: 292a 193561i bk7: 326a 193056i bk8: 328a 193308i bk9: 316a 193749i bk10: 284a 193801i bk11: 314a 193004i bk12: 340a 192859i bk13: 306a 193383i bk14: 252a 195727i bk15: 276a 194851i 
dram_util_bins: 0 0 0 0 0 0 0 0 0 0
dram_eff_bins: 0 0 0 0 0 0 0 0 0 0
mrqq: max=16 avg=1.54821
Memory Partition 1: 
Cache L2_bank_002:
MSHR contents

Cache L2_bank_003:
MSHR contents

In Dram Latency Queue (total = 0): 
DRAM[1]: 16 bks, busW=4 BL=8 CL=12, tRRD=2 tCCD=6, tRCD=12 tRAS=28 tRP=12 tRC=40
n_cmd=203098 n_nop=189376 n_act=1162 n_pre=1146 n_req=5948 n_rd=5006 n_write=6408 bw_util=0.1124
n_activity=61157 dram_eff=0.3733
bk0: 350a 193197i bk1: 298a 194206i bk2: 302a 193430i bk3: 242a 195743i bk4: 346a 192050i bk5: 298a 193062i bk6: 320a 192595i bk7: 294a 193742i bk8: 394a 191234i bk9: 314a 193864i bk10: 334a 192580i bk11: 284a 193708i bk12: 374a 191828i bk13: 312a 193455i bk14: 284a 194835i bk15: 260a 194986i 
dram_util_bins: 0 0 0 0 0 0 0 0 0 0
dram_eff_bins: 0 0 0 0 0 0 0 0 0 0
mrqq: max=16 avg=1.54997
Memory Partition 2: 
Cache L2_bank_004:
MSHR contents

Cache L2_bank_005:
MSHR contents

In Dram Latency Queue (total = 0): 
DRAM[2]: 16 bks, busW=4 BL=8 CL=12, tRRD=2 tCCD=6, tRCD=12 tRAS=28 tRP=12 tRC=40
n_cmd=203098 n_nop=190895 n_act=910 n_pre=894 n_req=5456 n_rd=4622 n_write=5777 bw_util=0.1024
n_activity=56663 dram_eff=0.367
bk0: 270a 195818i bk1: 284a 195371i bk2: 282a 194602i bk3: 254a 195349i bk4: 264a 194137i bk5: 310a 193002i bk6: 336a 192264i bk7: 280a 194152i bk8: 304a 193496i bk9: 314a 193225i bk10: 304a 193477i bk11: 282a 194003i bk12: 298a 194240i bk13: 310a 193564i bk14: 256a 195673i bk15: 274a 195784i 
dram_util_bins: 0 0 0 0 0 0 0 0 0 0
dram_eff_bins: 0 0 0 0 0 0 0 0 0 0
mrqq: max=16 avg=1.42652
Memory Partition 3: 
Cache L2_bank_006:
MSHR contents

Cache L2_bank_007:
MSHR contents

In Dram Latency Queue (total = 0): 
DRAM[3]: 16 bks, busW=4 BL=8 CL=12, tRRD=2 tCCD=6, tRCD=12 tRAS=28 tRP=12 tRC=40
n_cmd=203098 n_nop=190988 n_act=922 n_pre=906 n_req=5378 n_rd=4546 n_write=5736 bw_util=0.1013
n_activity=56883 dram_eff=0.3615
bk0: 252a 196758i bk1: 286a 195404i bk2: 244a 196226i bk3: 280a 195185i bk4: 240a 195044i bk5: 316a 192921i bk6: 288a 194231i bk7: 308a 193698i bk8: 292a 194143i bk9: 340a 192581i bk10: 268a 194385i bk11: 302a 193012i bk12: 280a 194469i bk13: 334a 192953i bk14: 228a 196103i bk15: 288a 195089i 
dram_util_bins: 0 0 0 0 0 0 0 0 0 0
dram_eff_bins: 0 0 0 0 0 0 0 0 0 0
mrqq: max=16 avg=1.45107
Memory Partition 4: 
Cache L2_bank_008:
MSHR contents

Cache L2_bank_009:
MSHR contents

In Dram Latency Queue (total = 0): 
DRAM[4]: 16 bks, busW=4 BL=8 CL=12, tRRD=2 tCCD=6, tRCD=12 tRAS=28 tRP=12 tRC=40
n_cmd=203098 n_nop=189762 n_act=1077 n_pre=1061 n_req=5857 n_rd=4912 n_write=6286 bw_util=0.1103
n_activity=61305 dram_eff=0.3653
bk0: 298a 195207i bk1: 296a 194988i bk2: 258a 195167i bk3: 286a 194448i bk4: 322a 193023i bk5: 308a 192723i bk6: 306a 192906i bk7: 342a 192169i bk8: 328a 192838i bk9: 346a 192397i bk10: 292a 193575i bk11: 302a 193171i bk12: 320a 193089i bk13: 346a 192919i bk14: 286a 194693i bk15: 276a 194896i 
dram_util_bins: 0 0 0 0 0 0 0 0 0 0
dram_eff_bins: 0 0 0 0 0 0 0 0 0 0
mrqq: max=16 avg=1.46586
Memory Partition 5: 
Cache L2_bank_010:
MSHR contents

Cache L2_bank_011:
MSHR contents

In Dram Latency Queue (total = 0): 
DRAM[5]: 16 bks, busW=4 BL=8 CL=12, tRRD=2 tCCD=6, tRCD=12 tRAS=28 tRP=12 tRC=40
n_cmd=203098 n_nop=189584 n_act=1119 n_pre=1103 n_req=5900 n_rd=4936 n_write=6356 bw_util=0.1112
n_activity=61892 dram_eff=0.3649
bk0: 304a 194300i bk1: 306a 194759i bk2: 308a 194010i bk3: 278a 194093i bk4: 332a 191881i bk5: 306a 192285i bk6: 346a 192431i bk7: 304a 193026i bk8: 326a 193044i bk9: 334a 192579i bk10: 328a 192591i bk11: 262a 194340i bk12: 332a 193257i bk13: 334a 193142i bk14: 304a 193744i bk15: 232a 196103i 
dram_util_bins: 0 0 0 0 0 0 0 0 0 0
dram_eff_bins: 0 0 0 0 0 0 0 0 0 0
mrqq: max=16 avg=1.49355

========= L2 cache stats =========
L2_cache_bank[0]: Access = 6715, Miss = 1203, Miss_rate = 0.179, Pending_hits = 108, Reservation_fails = 1189
L2_cache_bank[1]: Access = 6755, Miss = 1210, Miss_rate = 0.179, Pending_hits = 100, Reservation_fails = 491
L2_cache_bank[2]: Access = 6804, Miss = 1352, Miss_rate = 0.199, Pending_hits = 101, Reservation_fails = 587
L2_cache_bank[3]: Access = 6641, Miss = 1151, Miss_rate = 0.173, Pending_hits = 83, Reservation_fails = 409
L2_cache_bank[4]: Access = 6721, Miss = 1157, Miss_rate = 0.172, Pending_hits = 110, Reservation_fails = 411
L2_cache_bank[5]: Access = 6811, Miss = 1154, Miss_rate = 0.169, Pending_hits = 96, Reservation_fails = 371
L2_cache_bank[6]: Access = 6812, Miss = 1046, Miss_rate = 0.154, Pending_hits = 81, Reservation_fails = 524
L2_cache_bank[7]: Access = 6962, Miss = 1227, Miss_rate = 0.176, Pending_hits = 92, Reservation_fails = 510
L2_cache_bank[8]: Access = 6908, Miss = 1205, Miss_rate = 0.174, Pending_hits = 112, Reservation_fails = 400
L2_cache_bank[9]: Access = 6675, Miss = 1251, Miss_rate = 0.187, Pending_hits = 101, Reservation_fails = 297
L2_cache_bank[10]: Access = 6886, Miss = 1290, Miss_rate = 0.187, Pending_hits = 111, Reservation_fails = 393
L2_cache_bank[11]: Access = 6737, Miss = 1178, Miss_rate = 0.175, Pending_hits = 102, Reservation_fails = 378
L2_total_cache_accesses = 81427
L2_total_cache_misses = 14424
L2_total_cache_miss_rate = 0.1771
L2_total_cache_pending_hits = 1197
L2_total_cache_reservation_fails = 5960
L2_total_cache_breakdown:
	L2_cache_stats_breakdown[GLOBAL_ACC_R][HIT] = 3593
	L2_cache_stats_breakdown[GLOBAL_ACC_R][HIT_RESERVED] = 11
	L2_cache_stats_breakdown[GLOBAL_ACC_R][MISS] = 146
	L2_cache_stats_breakdown[GLOBAL_ACC_R][RESERVATION_FAIL] = 220
	L2_cache_stats_breakdown[LOCAL_ACC_R][HIT] = 6810
	L2_cache_stats_breakdown[LOCAL_ACC_R][HIT_RESERVED] = 165
	L2_cache_stats_breakdown[LOCAL_ACC_R][MISS] = 422
	L2_cache_stats_breakdown[CONST_ACC_R][HIT] = 22
	L2_cache_stats_breakdown[CONST_ACC_R][HIT_RESERVED] = 6
	L2_cache_stats_breakdown[CONST_ACC_R][MISS] = 2
	L2_cache_stats_breakdown[CONST_ACC_R][RESERVATION_FAIL] = 332
	L2_cache_stats_breakdown[GLOBAL_ACC_W][HIT] = 5284
	L2_cache_stats_breakdown[GLOBAL_ACC_W][HIT_RESERVED] = 860
	L2_cache_stats_breakdown[GLOBAL_ACC_W][MISS] = 2048
	L2_cache_stats_breakdown[GLOBAL_ACC_W][RESERVATION_FAIL] = 1
	L2_cache_stats_breakdown[LOCAL_ACC_W][HIT] = 33956
	L2_cache_stats_breakdown[LOCAL_ACC_W][HIT_RESERVED] = 10
	L2_cache_stats_breakdown[LOCAL_ACC_W][MISS] = 10363
	L2_cache_stats_breakdown[LOCAL_ACC_W][RESERVATION_FAIL] = 128
	L2_cache_stats_breakdown[L1_WRBK_ACC][HIT] = 3675
	L2_cache_stats_breakdown[L1_WRBK_ACC][MISS] = 1392
	L2_cache_stats_breakdown[L1_WRBK_ACC][RESERVATION_FAIL] = 1
	L2_cache_stats_breakdown[INST_ACC_R][HIT] = 12466
	L2_cache_stats_breakdown[INST_ACC_R][HIT_RESERVED] = 145
	L2_cache_stats_breakdown[INST_ACC_R][MISS] = 51
	L2_cache_stats_breakdown[INST_ACC_R][RESERVATION_FAIL] = 5278
L2_cache_data_port_util = 0.136
L2_cache_fill_port_util = 0.031

icnt_total_pkts_mem_to_simt=171656
icnt_total_pkts_simt_to_mem=292083
LD_mem_lat_dist  0 0 0 0 0 0 0 0 0 0 0 0 0 0 0 0 0 0 0 0 0 0 0 0 0 0 0
ST_mem_lat_dist  0 0 0 0 0 0 0 0 0 0 0 0 0 0 0 0 0 0 0 0 0 0 0 0 0 0 0
----------------------------Interconnect-DETAILS--------------------------------
Class 0:
Packet latency average = 17.9561
	minimum = 6
	maximum = 802
Network latency average = 14.0574
	minimum = 6
	maximum = 797
Slowest packet = 7817
Flit latency average = 13.3942
	minimum = 6
	maximum = 719
Slowest flit = 24567
Fragmentation average = 0.203661
	minimum = 0
	maximum = 660
Injected packet rate average = 0.0379816
	minimum = 0.0318335 (at node 0)
	maximum = 0.0427718 (at node 22)
Accepted packet rate average = 0.0379816
	minimum = 0.0300202 (at node 0)
	maximum = 0.045248 (at node 22)
Injected flit rate average = 0.111629
	minimum = 0.0878314 (at node 19)
	maximum = 0.137551 (at node 7)
Accepted flit rate average= 0.111629
	minimum = 0.059761 (at node 4)
	maximum = 0.161449 (at node 22)
Injected packet length average = 2.93902
Accepted packet length average = 2.93902
Total in-flight flits = 0 (0 measured)
====== Overall Traffic Statistics ======
====== Traffic class 0 ======
Packet latency average = 17.9561 (1 samples)
	minimum = 6 (1 samples)
	maximum = 802 (1 samples)
Network latency average = 14.0574 (1 samples)
	minimum = 6 (1 samples)
	maximum = 797 (1 samples)
Flit latency average = 13.3942 (1 samples)
	minimum = 6 (1 samples)
	maximum = 719 (1 samples)
Fragmentation average = 0.203661 (1 samples)
	minimum = 0 (1 samples)
	maximum = 660 (1 samples)
Injected packet rate average = 0.0379816 (1 samples)
	minimum = 0.0318335 (1 samples)
	maximum = 0.0427718 (1 samples)
Accepted packet rate average = 0.0379816 (1 samples)
	minimum = 0.0300202 (1 samples)
	maximum = 0.045248 (1 samples)
Injected flit rate average = 0.111629 (1 samples)
	minimum = 0.0878314 (1 samples)
	maximum = 0.137551 (1 samples)
Accepted flit rate average = 0.111629 (1 samples)
	minimum = 0.059761 (1 samples)
	maximum = 0.161449 (1 samples)
Injected packet size average = 2.93902 (1 samples)
Accepted packet size average = 2.93902 (1 samples)
Hops average = 1 (1 samples)
----------------------------END-of-Interconnect-DETAILS-------------------------
GPGPU-Sim API: Stream Manager State


gpgpu_simulation_time = 0 days, 0 hrs, 7 min, 45 sec (465 sec)
gpgpu_simulation_rate = 134801 (inst/sec)
gpgpu_simulation_rate = 330 (cycle/sec)
GPGPU-Sim: detected inactive GPU simulation thread

checksum=75ef40cb5b8e
Kernel Time: 461877.218750 
