

        *** GPGPU-Sim Simulator Version 3.2.2  [build 0] ***


GPGPU-Sim PTX: simulation mode 0 (can change with PTX_SIM_MODE_FUNC environment variable:
               1=functional simulation only, 0=detailed performance simulator)
GPGPU-Sim: Configuration options:

-network_mode                           1 # Interconnection network mode
-inter_config_file   config_fermi_islip.icnt # Interconnection network config file
-gpgpu_ptx_use_cuobjdump                    1 # Use cuobjdump to extract ptx and sass from binaries
-gpgpu_experimental_lib_support                    0 # Try to extract code from cuda libraries [Broken because of unknown cudaGetExportTable]
-gpgpu_ptx_convert_to_ptxplus                    0 # Convert SASS (native ISA) to ptxplus and run ptxplus
-gpgpu_ptx_force_max_capability                   20 # Force maximum compute capability
-gpgpu_ptx_inst_debug_to_file                    0 # Dump executed instructions' debug information to file
-gpgpu_ptx_inst_debug_file       inst_debug.txt # Executed instructions' debug output file
-gpgpu_ptx_inst_debug_thread_uid                    1 # Thread UID for executed instructions' debug output
-gpgpu_simd_model                       1 # 1 = post-dominator
-gpgpu_shader_core_pipeline              1536:32 # shader core pipeline config, i.e., {<nthread>:<warpsize>}
-gpgpu_tex_cache:l1  4:128:24,L:R:m:N:L,F:128:4,128:2 # per-shader L1 texture cache  (READ-ONLY) config  {<nsets>:<bsize>:<assoc>,<rep>:<wr>:<alloc>:<wr_alloc>,<mshr>:<N>:<merge>,<mq>:<rf>}
-gpgpu_const_cache:l1 64:64:2,L:R:f:N:L,A:2:32,4 # per-shader L1 constant memory cache  (READ-ONLY) config  {<nsets>:<bsize>:<assoc>,<rep>:<wr>:<alloc>:<wr_alloc>,<mshr>:<N>:<merge>,<mq>} 
-gpgpu_cache:il1     4:128:4,L:R:f:N:L,A:2:32,4 # shader L1 instruction cache config  {<nsets>:<bsize>:<assoc>,<rep>:<wr>:<alloc>:<wr_alloc>,<mshr>:<N>:<merge>,<mq>} 
-gpgpu_cache:dl1     32:128:4,L:L:m:N:H,A:32:8,8:2,0,0:0:1:1:0:1,1:4:8:16:32:64,/sciclone/data10/hwang07/GPU_RESEARCH/swl/swl_outputs/RESULTS/ # per-shader L1 data cache config  {<nsets>:<bsize>:<assoc>,<rep>:<wr>:<alloc>:<wr_alloc>,<mshr>:<N>:<merge>,<mq> | none}
-gpgpu_cache:dl1PrefL1                 none # per-shader L1 data cache config  {<nsets>:<bsize>:<assoc>,<rep>:<wr>:<alloc>:<wr_alloc>,<mshr>:<N>:<merge>,<mq> | none}
-gpgpu_cache:dl1PreShared                 none # per-shader L1 data cache config  {<nsets>:<bsize>:<assoc>,<rep>:<wr>:<alloc>:<wr_alloc>,<mshr>:<N>:<merge>,<mq> | none}
-gmem_skip_L1D                          0 # global memory access skip L1D cache (implements -Xptxas -dlcm=cg, default=no skip)
-gpgpu_perfect_mem                      0 # enable perfect memory mode (no cache miss)
-n_regfile_gating_group                    4 # group of lanes that should be read/written together)
-gpgpu_clock_gated_reg_file                    0 # enable clock gated reg file for power calculations
-gpgpu_clock_gated_lanes                    0 # enable clock gated lanes for power calculations
-gpgpu_shader_registers                32768 # Number of registers per shader core. Limits number of concurrent CTAs. (default 8192)
-gpgpu_shader_cta                       8 # Maximum number of concurrent CTAs in shader (default 8)
-gpgpu_num_cta_barriers                   16 # Maximum number of named barriers per CTA (default 16)
-gpgpu_n_clusters                      15 # number of processing clusters
-gpgpu_n_cores_per_cluster                    1 # number of simd cores per cluster
-gpgpu_n_cluster_ejection_buffer_size                    8 # number of packets in ejection buffer
-gpgpu_n_ldst_response_buffer_size                    2 # number of response packets in ld/st unit ejection buffer
-gpgpu_shmem_size                   16384 # Size of shared memory per shader core (default 16kB)
-gpgpu_shmem_size                   49152 # Size of shared memory per shader core (default 16kB)
-gpgpu_shmem_size_PrefL1                16384 # Size of shared memory per shader core (default 16kB)
-gpgpu_shmem_size_PrefShared                16384 # Size of shared memory per shader core (default 16kB)
-gpgpu_shmem_num_banks                   32 # Number of banks in the shared memory in each shader core (default 16)
-gpgpu_shmem_limited_broadcast                    0 # Limit shared memory to do one broadcast per cycle (default on)
-gpgpu_shmem_warp_parts                    1 # Number of portions a warp is divided into for shared memory bank conflict check 
-gpgpu_warpdistro_shader                   -1 # Specify which shader core to collect the warp size distribution from
-gpgpu_warp_issue_shader                    0 # Specify which shader core to collect the warp issue distribution from
-gpgpu_local_mem_map                    1 # Mapping from local memory space address to simulated GPU physical address space (default = enabled)
-gpgpu_num_reg_banks                   16 # Number of register banks (default = 8)
-gpgpu_reg_bank_use_warp_id                    0 # Use warp ID in mapping registers to banks (default = off)
-gpgpu_operand_collector_num_units_sp                    6 # number of collector units (default = 4)
-gpgpu_operand_collector_num_units_sfu                    8 # number of collector units (default = 4)
-gpgpu_operand_collector_num_units_mem                    2 # number of collector units (default = 2)
-gpgpu_operand_collector_num_units_gen                    0 # number of collector units (default = 0)
-gpgpu_operand_collector_num_in_ports_sp                    2 # number of collector unit in ports (default = 1)
-gpgpu_operand_collector_num_in_ports_sfu                    1 # number of collector unit in ports (default = 1)
-gpgpu_operand_collector_num_in_ports_mem                    1 # number of collector unit in ports (default = 1)
-gpgpu_operand_collector_num_in_ports_gen                    0 # number of collector unit in ports (default = 0)
-gpgpu_operand_collector_num_out_ports_sp                    2 # number of collector unit in ports (default = 1)
-gpgpu_operand_collector_num_out_ports_sfu                    1 # number of collector unit in ports (default = 1)
-gpgpu_operand_collector_num_out_ports_mem                    1 # number of collector unit in ports (default = 1)
-gpgpu_operand_collector_num_out_ports_gen                    0 # number of collector unit in ports (default = 0)
-gpgpu_coalesce_arch                   13 # Coalescing arch (default = 13, anything else is off for now)
-gpgpu_num_sched_per_core                    2 # Number of warp schedulers per core
-gpgpu_max_insn_issue_per_warp                    1 # Max number of instructions that can be issued per warp in one cycle by scheduler
-gpgpu_simt_core_sim_order                    1 # Select the simulation order of cores in a cluster (0=Fix, 1=Round-Robin)
-gpgpu_pipeline_widths        2,1,1,2,1,1,2 # Pipeline widths ID_OC_SP,ID_OC_SFU,ID_OC_MEM,OC_EX_SP,OC_EX_SFU,OC_EX_MEM,EX_WB
-gpgpu_num_sp_units                     2 # Number of SP units (default=1)
-gpgpu_num_sfu_units                    1 # Number of SF units (default=1)
-gpgpu_num_mem_units                    1 # Number if ldst units (default=1) WARNING: not hooked up to anything
-gpgpu_scheduler     warp_limiting:2:48:0 # Scheduler configuration: < lrr | gto | two_level_active > If two_level_active:<num_active_warps>:<inner_prioritization>:<outer_prioritization>For complete list of prioritization values see shader.h enum scheduler_prioritization_typeDefault: gto
-gpgpu_dram_scheduler                    1 # 0 = fifo, 1 = FR-FCFS (defaul)
-gpgpu_dram_partition_queues              8:8:8:8 # i2$:$2d:d2$:$2i
-l2_ideal                               0 # Use a ideal L2 cache that always hit
-gpgpu_cache:dl2     64:128:8,L:B:m:W:L,A:32:4,4:0,32 # unified banked L2 data cache config  {<nsets>:<bsize>:<assoc>,<rep>:<wr>:<alloc>:<wr_alloc>,<mshr>:<N>:<merge>,<mq>}
-gpgpu_cache:dl2_texture_only                    0 # L2 cache used for texture only
-gpgpu_n_mem                            6 # number of memory modules (e.g. memory controllers) in gpu
-gpgpu_n_sub_partition_per_mchannel                    2 # number of memory subpartition in each memory module
-gpgpu_n_mem_per_ctrlr                    2 # number of memory chips per memory controller
-gpgpu_memlatency_stat                   14 # track and display latency statistics 0x2 enables MC, 0x4 enables queue logs
-gpgpu_frfcfs_dram_sched_queue_size                   16 # 0 = unlimited (default); # entries per chip
-gpgpu_dram_return_queue_size                  116 # 0 = unlimited (default); # entries per chip
-gpgpu_dram_buswidth                    4 # default = 4 bytes (8 bytes per cycle at DDR)
-gpgpu_dram_burst_length                    8 # Burst length of each DRAM request (default = 4 data bus cycle)
-dram_data_command_freq_ratio                    4 # Frequency ratio between DRAM data bus and command bus (default = 2 times, i.e. DDR)
-gpgpu_dram_timing_opt nbk=16:CCD=2:RRD=6:RCD=12:RAS=28:RP=12:RC=40: CL=12:WL=4:CDLR=5:WR=12:nbkgrp=4:CCDL=3:RTPL=2 # DRAM timing parameters = {nbk:tCCD:tRRD:tRCD:tRAS:tRP:tRC:CL:WL:tCDLR:tWR:nbkgrp:tCCDL:tRTPL}
-rop_latency                          120 # ROP queue latency (default 85)
-dram_latency                         100 # DRAM latency (default 30)
-gpgpu_mem_addr_mapping dramid@8;00000000.00000000.00000000.00000000.0000RRRR.RRRRRRRR.BBBCCCCB.CCSSSSSS # mapping memory address to dram model {dramid@<start bit>;<memory address map>}
-gpgpu_mem_addr_test                    0 # run sweep test to check address mapping for aliased address
-gpgpu_mem_address_mask                    1 # 0 = old addressing mask, 1 = new addressing mask, 2 = new add. mask + flipped bank sel and chip sel bits
-gpuwattch_xml_file  gpuwattch_gtx480.xml # GPUWattch XML file
-power_simulation_enabled                    0 # Turn on power simulator (1=On, 0=Off)
-power_per_cycle_dump                    0 # Dump detailed power output each cycle
-power_trace_enabled                    0 # produce a file for the power trace (1=On, 0=Off)
-power_trace_zlevel                     6 # Compression level of the power trace output log (0=no comp, 9=highest)
-steady_power_levels_enabled                    0 # produce a file for the steady power levels (1=On, 0=Off)
-steady_state_definition                  8:4 # allowed deviation:number of samples
-gpgpu_max_cycle                        0 # terminates gpu simulation early (0 = no limit)
-gpgpu_max_insn                         0 # terminates gpu simulation early (0 = no limit)
-gpgpu_max_cta                          0 # terminates gpu simulation early (0 = no limit)
-gpgpu_runtime_stat                   500 # display runtime statistics such as dram utilization {<freq>:<flag>}
-liveness_message_freq                    1 # Minimum number of seconds between simulation liveness messages (0 = always print)
-gpgpu_flush_l1_cache                    0 # Flush L1 cache at the end of each kernel call
-gpgpu_flush_l2_cache                    0 # Flush L2 cache at the end of each kernel call
-gpgpu_deadlock_detect                    1 # Stop the simulation at deadlock (1=on (default), 0=off)
-gpgpu_ptx_instruction_classification                    0 # if enabled will classify ptx instruction types per kernel (Max 255 kernels now)
-gpgpu_ptx_sim_mode                     0 # Select between Performance (default) or Functional simulation (1)
-gpgpu_clock_domains 700.0:700.0:700.0:924.0 # Clock Domain Frequencies in MhZ {<Core Clock>:<ICNT Clock>:<L2 Clock>:<DRAM Clock>}
-gpgpu_max_concurrent_kernel                    8 # maximum kernels that can run concurrently on GPU
-gpgpu_cflog_interval                    0 # Interval between each snapshot in control flow logger
-visualizer_enabled                     0 # Turn on visualizer output (1=On, 0=Off)
-visualizer_outputfile                 NULL # Specifies the output log file for visualizer
-visualizer_zlevel                      6 # Compression level of the visualizer output log (0=no comp, 9=highest)
-trace_enabled                          0 # Turn on traces
-trace_components                    none # comma seperated list of traces to enable. Complete list found in trace_streams.tup. Default none
-trace_sampling_core                    0 # The core which is printed using CORE_DPRINTF. Default 0
-trace_sampling_memory_partition                   -1 # The memory partition which is printed using MEMPART_DPRINTF. Default -1 (i.e. all)
-enable_ptx_file_line_stats                    1 # Turn on PTX source line statistic profiling. (1 = On)
-ptx_line_stats_filename gpgpu_inst_stats.txt # Output file for PTX source line statistics.
-save_embedded_ptx                      0 # saves ptx files embedded in binary as <n>.ptx
-keep                                   0 # keep intermediate files created by GPGPU-Sim when interfacing with external programs
-gpgpu_ptx_save_converted_ptxplus                    0 # Saved converted ptxplus to a file
-ptx_opcode_latency_int         4,13,4,5,145 # Opcode latencies for integers <ADD,MAX,MUL,MAD,DIV>Default 1,1,19,25,145
-ptx_opcode_latency_fp          4,13,4,5,39 # Opcode latencies for single precision floating points <ADD,MAX,MUL,MAD,DIV>Default 1,1,1,1,30
-ptx_opcode_latency_dp         8,19,8,8,330 # Opcode latencies for double precision floating points <ADD,MAX,MUL,MAD,DIV>Default 8,8,8,8,335
-ptx_opcode_initiation_int            1,2,2,1,8 # Opcode initiation intervals for integers <ADD,MAX,MUL,MAD,DIV>Default 1,1,4,4,32
-ptx_opcode_initiation_fp            1,2,1,1,4 # Opcode initiation intervals for single precision floating points <ADD,MAX,MUL,MAD,DIV>Default 1,1,1,1,5
-ptx_opcode_initiation_dp         8,16,8,8,130 # Opcode initiation intervals for double precision floating points <ADD,MAX,MUL,MAD,DIV>Default 8,8,8,8,130
DRAM Timing Options:
nbk                                    16 # number of banks
CCD                                     2 # column to column delay
RRD                                     6 # minimal delay between activation of rows in different banks
RCD                                    12 # row to column delay
RAS                                    28 # time needed to activate row
RP                                     12 # time needed to precharge (deactivate) row
RC                                     40 # row cycle time
CDLR                                    5 # switching from write to read (changes tWTR)
WR                                     12 # last data-in to row precharge
CL                                     12 # CAS latency
WL                                      4 # Write latency
nbkgrp                                  4 # number of bank groups
CCDL                                    3 # column to column delay between accesses to different bank groups
RTPL                                    2 # read to precharge delay between accesses to different bank groups
Total number of memory sub partition = 12
addr_dec_mask[CHIP]  = 0000000000000000 	high:64 low:0
addr_dec_mask[BK]    = 000000000000e100 	high:16 low:8
addr_dec_mask[ROW]   = 000000000fff0000 	high:28 low:16
addr_dec_mask[COL]   = 0000000000001eff 	high:13 low:0
addr_dec_mask[BURST] = 000000000000003f 	high:6 low:0
sub_partition_id_mask = 0000000000000100
GPGPU-Sim uArch: clock freqs: 700000000.000000:700000000.000000:700000000.000000:924000000.000000
GPGPU-Sim uArch: clock periods: 0.00000000142857142857:0.00000000142857142857:0.00000000142857142857:0.00000000108225108225
*** Initializing Memory Statistics ***
GPGPU-Sim uArch: interconnect node map (shaderID+MemID to icntID)
GPGPU-Sim uArch: Memory nodes ID start from index: 15
GPGPU-Sim uArch:    0   1   2   3   4
GPGPU-Sim uArch:    5   6   7   8   9
GPGPU-Sim uArch:   10  11  12  13  14
GPGPU-Sim uArch:   15  16  17  18  19
GPGPU-Sim uArch:   20  21  22  23  24
GPGPU-Sim uArch:   25  26
GPGPU-Sim uArch: interconnect node reverse map (icntID to shaderID+MemID)
GPGPU-Sim uArch: Memory nodes start from ID: 15
GPGPU-Sim uArch:    0   1   2   3   4
GPGPU-Sim uArch:    5   6   7   8   9
GPGPU-Sim uArch:   10  11  12  13  14
GPGPU-Sim uArch:   15  16  17  18  19
GPGPU-Sim uArch:   20  21  22  23  24
GPGPU-Sim uArch:   25  26
a694f6f961931330989587dbd586e872  /sciclone/data10/hwang07/adwait/applications/benchmarks/CUDA/KMN/gpgpu_ptx_sim__KMN
GPGPU-Sim uArch: performance model initialization complete.
GPGPU-Sim PTX: __cudaRegisterFatBinary, fat_cubin_handle = 1, filename=kmeans_cuda.cu
self exe links to: /sciclone/data10/hwang07/adwait/applications/benchmarks/CUDA/KMN/gpgpu_ptx_sim__KMN
Running md5sum using "md5sum /sciclone/data10/hwang07/adwait/applications/benchmarks/CUDA/KMN/gpgpu_ptx_sim__KMN "
Parsing file _cuobjdump_complete_output_23c4RQ
######### cuobjdump parser ########
## Adding new section ELF
Adding arch: sm_20
Adding identifier: kmeans_cuda.cu
## Adding new section PTX
Adding ptx filename: _cuobjdump_1.ptx
Adding arch: sm_20
Adding identifier: kmeans_cuda.cu
Done parsing!!!
GPGPU-Sim PTX: __cudaRegisterFunction _Z11kmeansPointPfiiiPiS_S_S0_ : hostFun 0x0x402a5e, fat_cubin_handle = 1
GPGPU-Sim PTX: instruction assembly for function '_Z14invert_mappingPfS_ii'...   done.
GPGPU-Sim PTX: finding reconvergence points for '_Z14invert_mappingPfS_ii'...
GPGPU-Sim PTX: Finding dominators for '_Z14invert_mappingPfS_ii'...
GPGPU-Sim PTX: Finding immediate dominators for '_Z14invert_mappingPfS_ii'...
GPGPU-Sim PTX: Finding postdominators for '_Z14invert_mappingPfS_ii'...
GPGPU-Sim PTX: Finding immediate postdominators for '_Z14invert_mappingPfS_ii'...
GPGPU-Sim PTX: pre-decoding instructions for '_Z14invert_mappingPfS_ii'...
GPGPU-Sim PTX: reconvergence points for _Z14invert_mappingPfS_ii...
GPGPU-Sim PTX:  1 (potential) branch divergence @  PC=0x038 (_1.ptx:70) @%p1 bra $Lt_0_2050;
GPGPU-Sim PTX:    immediate post dominator      @  PC=0x110 (_1.ptx:103) exit;
GPGPU-Sim PTX:  2 (potential) branch divergence @  PC=0x058 (_1.ptx:74) @%p2 bra $Lt_0_2562;
GPGPU-Sim PTX:    immediate post dominator      @  PC=0x110 (_1.ptx:103) exit;
GPGPU-Sim PTX:  3 (potential) branch divergence @  PC=0x108 (_1.ptx:99) @%p3 bra $Lt_0_3074;
GPGPU-Sim PTX:    immediate post dominator      @  PC=0x110 (_1.ptx:103) exit;
GPGPU-Sim PTX: ... end of reconvergence points for _Z14invert_mappingPfS_ii
GPGPU-Sim PTX: ... done pre-decoding instructions for '_Z14invert_mappingPfS_ii'.
GPGPU-Sim PTX: instruction assembly for function '_Z11kmeansPointPfiiiPiS_S_S0_'...   done.
GPGPU-Sim PTX: finding reconvergence points for '_Z11kmeansPointPfiiiPiS_S_S0_'...
GPGPU-Sim PTX: Finding dominators for '_Z11kmeansPointPfiiiPiS_S_S0_'...
GPGPU-Sim PTX: Finding immediate dominators for '_Z11kmeansPointPfiiiPiS_S_S0_'...
GPGPU-Sim PTX: Finding postdominators for '_Z11kmeansPointPfiiiPiS_S_S0_'...
GPGPU-Sim PTX: Finding immediate postdominators for '_Z11kmeansPointPfiiiPiS_S_S0_'...
GPGPU-Sim PTX: pre-decoding instructions for '_Z11kmeansPointPfiiiPiS_S_S0_'...
GPGPU-Sim PTX: reconvergence points for _Z11kmeansPointPfiiiPiS_S_S0_...
GPGPU-Sim PTX:  1 (potential) branch divergence @  PC=0x180 (_1.ptx:136) @!%p1 bra $Lt_1_4866;
GPGPU-Sim PTX:    immediate post dominator      @  PC=0x320 (_1.ptx:202) @!%p1 bra $Lt_1_7682;
GPGPU-Sim PTX:  2 (potential) branch divergence @  PC=0x1a0 (_1.ptx:140) @%p2 bra $Lt_1_8194;
GPGPU-Sim PTX:    immediate post dominator      @  PC=0x320 (_1.ptx:202) @!%p1 bra $Lt_1_7682;
GPGPU-Sim PTX:  3 (potential) branch divergence @  PC=0x1e8 (_1.ptx:151) @!%p3 bra $Lt_1_8450;
GPGPU-Sim PTX:    immediate post dominator      @  PC=0x2c8 (_1.ptx:185) setp.lt.f32 %p5, %f2, %f1;
GPGPU-Sim PTX:  4 (potential) branch divergence @  PC=0x2b0 (_1.ptx:180) @%p4 bra $Lt_1_6402;
GPGPU-Sim PTX:    immediate post dominator      @  PC=0x2b8 (_1.ptx:181) bra.uni $Lt_1_5890;
GPGPU-Sim PTX:  5 (potential) branch divergence @  PC=0x2b8 (_1.ptx:181) bra.uni $Lt_1_5890;
GPGPU-Sim PTX:    immediate post dominator      @  PC=0x2c8 (_1.ptx:185) setp.lt.f32 %p5, %f2, %f1;
GPGPU-Sim PTX:  6 (potential) branch divergence @  PC=0x2d0 (_1.ptx:186) @!%p5 bra $Lt_1_6914;
GPGPU-Sim PTX:    immediate post dominator      @  PC=0x2e8 (_1.ptx:192) add.s32 %r18, %r18, 1;
GPGPU-Sim PTX:  7 (potential) branch divergence @  PC=0x2f8 (_1.ptx:194) @%p6 bra $Lt_1_5634;
GPGPU-Sim PTX:    immediate post dominator      @  PC=0x300 (_1.ptx:195) bra.uni $Lt_1_4610;
GPGPU-Sim PTX:  8 (potential) branch divergence @  PC=0x300 (_1.ptx:195) bra.uni $Lt_1_4610;
GPGPU-Sim PTX:    immediate post dominator      @  PC=0x320 (_1.ptx:202) @!%p1 bra $Lt_1_7682;
GPGPU-Sim PTX:  9 (potential) branch divergence @  PC=0x310 (_1.ptx:198) bra.uni $Lt_1_4610;
GPGPU-Sim PTX:    immediate post dominator      @  PC=0x320 (_1.ptx:202) @!%p1 bra $Lt_1_7682;
GPGPU-Sim PTX: 10 (potential) branch divergence @  PC=0x320 (_1.ptx:202) @!%p1 bra $Lt_1_7682;
GPGPU-Sim PTX:    immediate post dominator      @  PC=0x350 (_1.ptx:211) exit;
GPGPU-Sim PTX: ... end of reconvergence points for _Z11kmeansPointPfiiiPiS_S_S0_
GPGPU-Sim PTX: ... done pre-decoding instructions for '_Z11kmeansPointPfiiiPiS_S_S0_'.
GPGPU-Sim PTX: allocating global region for "t_features" from 0x100 to 0x104 (global memory space)
GPGPU-Sim PTX: allocating global region for "t_features_flipped" from 0x104 to 0x108 (global memory space)
GPGPU-Sim PTX: allocating global region for "t_clusters" from 0x108 to 0x10c (global memory space)
GPGPU-Sim PTX: finished parsing EMBEDDED .ptx file _1.ptx
Adding _cuobjdump_1.ptx with cubin handle 1
GPGPU-Sim PTX: extracting embedded .ptx to temporary file "_ptx_QVfwTG"
Running: cat _ptx_QVfwTG | sed 's/.version 1.5/.version 1.4/' | sed 's/, texmode_independent//' | sed 's/\(\.extern \.const\[1\] .b8 \w\+\)\[\]/\1\[1\]/' | sed 's/const\[.\]/const\[0\]/g' > _ptx2_k3Fvkx
GPGPU-Sim PTX: generating ptxinfo using "$CUDA_INSTALL_PATH/bin/ptxas --gpu-name=sm_20 -v _ptx2_k3Fvkx --output-file  /dev/null 2> _ptx_QVfwTGinfo"
GPGPU-Sim PTX: Kernel '_Z11kmeansPointPfiiiPiS_S_S0_' : regs=15, lmem=0, smem=0, cmem=88
GPGPU-Sim PTX: Kernel '_Z14invert_mappingPfS_ii' : regs=10, lmem=0, smem=0, cmem=56
GPGPU-Sim PTX: removing ptxinfo using "rm -f _ptx_QVfwTG _ptx2_k3Fvkx _ptx_QVfwTGinfo"
GPGPU-Sim PTX: loading globals with explicit initializers... 
GPGPU-Sim PTX: finished loading globals (0 bytes total).
GPGPU-Sim PTX: loading constants with explicit initializers...  done.
GPGPU-Sim PTX: __cudaRegisterFunction _Z14invert_mappingPfS_ii : hostFun 0x0x4028ce, fat_cubin_handle = 1
GPGPU-Sim PTX: in __cudaRegisterTexture:
GPGPU-Sim PTX:   int dim = 1
GPGPU-Sim PTX:   int norm = 0
GPGPU-Sim PTX:   int ext = 0
GPGPU-Sim PTX:   Execution warning: Not finished implementing "void __cudaRegisterTexture(void**, const textureReference*, const void**, const char*, int, int, int)"
GPGPU-Sim PTX: in __cudaRegisterTexture:
GPGPU-Sim PTX:   int dim = 1
GPGPU-Sim PTX:   int norm = 0
GPGPU-Sim PTX:   int ext = 0
GPGPU-Sim PTX:   Execution warning: Not finished implementing "void __cudaRegisterTexture(void**, const textureReference*, const void**, const char*, int, int, int)"
GPGPU-Sim PTX: in __cudaRegisterTexture:
GPGPU-Sim PTX:   int dim = 1
GPGPU-Sim PTX:   int norm = 0
GPGPU-Sim PTX:   int ext = 0
GPGPU-Sim PTX:   Execution warning: Not finished implementing "void __cudaRegisterTexture(void**, const textureReference*, const void**, const char*, int, int, int)"

I/O completed

Number of objects: 28672
Number of features: 138

GPGPU-Sim PTX: cudaLaunch for 0x0x402a5e (mode=performance simulation) on stream 0
GPGPU-Sim PTX: pushing kernel '_Z11kmeansPointPfiiiPiS_S_S0_' to stream 0, gridDim= (11,11,1) blockDim = (256,1,1) 
kernel '_Z11kmeansPointPfiiiPiS_S_S0_' transfer to GPU hardware scheduler
GPGPU-Sim uArch: Shader 1 bind to kernel 1 '_Z11kmeansPointPfiiiPiS_S_S0_'
GPGPU-Sim uArch: CTA/core = 6, limited by: threads
GPGPU-Sim uArch: core:  1, cta: 0 initialized @(1,0)
GPGPU-Sim uArch: Shader 2 bind to kernel 1 '_Z11kmeansPointPfiiiPiS_S_S0_'
GPGPU-Sim uArch: core:  2, cta: 0 initialized @(1,0)
GPGPU-Sim uArch: Shader 3 bind to kernel 1 '_Z11kmeansPointPfiiiPiS_S_S0_'
GPGPU-Sim uArch: core:  3, cta: 0 initialized @(1,0)
GPGPU-Sim uArch: Shader 4 bind to kernel 1 '_Z11kmeansPointPfiiiPiS_S_S0_'
GPGPU-Sim uArch: core:  4, cta: 0 initialized @(1,0)
GPGPU-Sim uArch: Shader 5 bind to kernel 1 '_Z11kmeansPointPfiiiPiS_S_S0_'
GPGPU-Sim uArch: core:  5, cta: 0 initialized @(1,0)
GPGPU-Sim uArch: Shader 6 bind to kernel 1 '_Z11kmeansPointPfiiiPiS_S_S0_'
GPGPU-Sim uArch: core:  6, cta: 0 initialized @(1,0)
GPGPU-Sim uArch: Shader 7 bind to kernel 1 '_Z11kmeansPointPfiiiPiS_S_S0_'
GPGPU-Sim uArch: core:  7, cta: 0 initialized @(1,0)
GPGPU-Sim uArch: Shader 8 bind to kernel 1 '_Z11kmeansPointPfiiiPiS_S_S0_'
GPGPU-Sim uArch: core:  8, cta: 0 initialized @(1,0)
GPGPU-Sim uArch: Shader 9 bind to kernel 1 '_Z11kmeansPointPfiiiPiS_S_S0_'
GPGPU-Sim uArch: core:  9, cta: 0 initialized @(1,0)
GPGPU-Sim uArch: Shader 10 bind to kernel 1 '_Z11kmeansPointPfiiiPiS_S_S0_'
GPGPU-Sim uArch: core: 10, cta: 0 initialized @(1,0)
GPGPU-Sim uArch: Shader 11 bind to kernel 1 '_Z11kmeansPointPfiiiPiS_S_S0_'
GPGPU-Sim uArch: core: 11, cta: 0 initialized @(1,0)
GPGPU-Sim uArch: Shader 12 bind to kernel 1 '_Z11kmeansPointPfiiiPiS_S_S0_'
GPGPU-Sim uArch: core: 12, cta: 0 initialized @(1,0)
GPGPU-Sim uArch: Shader 13 bind to kernel 1 '_Z11kmeansPointPfiiiPiS_S_S0_'
GPGPU-Sim uArch: core: 13, cta: 0 initialized @(1,0)
GPGPU-Sim uArch: Shader 14 bind to kernel 1 '_Z11kmeansPointPfiiiPiS_S_S0_'
GPGPU-Sim uArch: core: 14, cta: 0 initialized @(1,0)
GPGPU-Sim uArch: Shader 0 bind to kernel 1 '_Z11kmeansPointPfiiiPiS_S_S0_'
GPGPU-Sim uArch: core:  0, cta: 0 initialized @(1,0)
GPGPU-Sim uArch: core:  1, cta: 1 initialized @(2,0)
GPGPU-Sim uArch: core:  2, cta: 1 initialized @(2,0)
GPGPU-Sim uArch: core:  3, cta: 1 initialized @(2,0)
GPGPU-Sim uArch: core:  4, cta: 1 initialized @(2,0)
GPGPU-Sim uArch: core:  5, cta: 1 initialized @(2,0)
GPGPU-Sim uArch: core:  6, cta: 1 initialized @(2,0)
GPGPU-Sim uArch: core:  7, cta: 1 initialized @(2,0)
GPGPU-Sim uArch: core:  8, cta: 1 initialized @(2,0)
GPGPU-Sim uArch: core:  9, cta: 1 initialized @(2,0)
GPGPU-Sim uArch: core: 10, cta: 1 initialized @(2,0)
GPGPU-Sim uArch: core: 11, cta: 1 initialized @(2,0)
GPGPU-Sim uArch: core: 12, cta: 1 initialized @(2,0)
GPGPU-Sim uArch: core: 13, cta: 1 initialized @(2,0)
GPGPU-Sim uArch: core: 14, cta: 1 initialized @(2,0)
GPGPU-Sim uArch: core:  0, cta: 1 initialized @(2,0)
GPGPU-Sim uArch: core:  1, cta: 2 initialized @(3,0)
GPGPU-Sim uArch: core:  2, cta: 2 initialized @(3,0)
GPGPU-Sim uArch: core:  3, cta: 2 initialized @(3,0)
GPGPU-Sim uArch: core:  4, cta: 2 initialized @(3,0)
GPGPU-Sim uArch: core:  5, cta: 2 initialized @(3,0)
GPGPU-Sim uArch: core:  6, cta: 2 initialized @(3,0)
GPGPU-Sim uArch: core:  7, cta: 2 initialized @(3,0)
GPGPU-Sim uArch: core:  8, cta: 2 initialized @(3,0)
GPGPU-Sim uArch: core:  9, cta: 2 initialized @(3,0)
GPGPU-Sim uArch: core: 10, cta: 2 initialized @(3,0)
GPGPU-Sim uArch: core: 11, cta: 2 initialized @(3,0)
GPGPU-Sim uArch: core: 12, cta: 2 initialized @(3,0)
GPGPU-Sim uArch: core: 13, cta: 2 initialized @(3,0)
GPGPU-Sim uArch: core: 14, cta: 2 initialized @(3,0)
GPGPU-Sim uArch: core:  0, cta: 2 initialized @(3,0)
GPGPU-Sim uArch: core:  1, cta: 3 initialized @(4,0)
GPGPU-Sim uArch: core:  2, cta: 3 initialized @(4,0)
GPGPU-Sim uArch: core:  3, cta: 3 initialized @(4,0)
GPGPU-Sim uArch: core:  4, cta: 3 initialized @(4,0)
GPGPU-Sim uArch: core:  5, cta: 3 initialized @(4,0)
GPGPU-Sim uArch: core:  6, cta: 3 initialized @(4,0)
GPGPU-Sim uArch: core:  7, cta: 3 initialized @(4,0)
GPGPU-Sim uArch: core:  8, cta: 3 initialized @(4,0)
GPGPU-Sim uArch: core:  9, cta: 3 initialized @(4,0)
GPGPU-Sim uArch: core: 10, cta: 3 initialized @(4,0)
GPGPU-Sim uArch: core: 11, cta: 3 initialized @(4,0)
GPGPU-Sim uArch: core: 12, cta: 3 initialized @(4,0)
GPGPU-Sim uArch: core: 13, cta: 3 initialized @(4,0)
GPGPU-Sim uArch: core: 14, cta: 3 initialized @(4,0)
GPGPU-Sim uArch: core:  0, cta: 3 initialized @(4,0)
GPGPU-Sim uArch: core:  1, cta: 4 initialized @(5,0)
GPGPU-Sim uArch: core:  2, cta: 4 initialized @(5,0)
GPGPU-Sim uArch: core:  3, cta: 4 initialized @(5,0)
GPGPU-Sim uArch: core:  4, cta: 4 initialized @(5,0)
GPGPU-Sim uArch: core:  5, cta: 4 initialized @(5,0)
GPGPU-Sim uArch: core:  6, cta: 4 initialized @(5,0)
GPGPU-Sim uArch: core:  7, cta: 4 initialized @(5,0)
GPGPU-Sim uArch: core:  8, cta: 4 initialized @(5,0)
GPGPU-Sim uArch: core:  9, cta: 4 initialized @(5,0)
GPGPU-Sim uArch: core: 10, cta: 4 initialized @(5,0)
GPGPU-Sim uArch: core: 11, cta: 4 initialized @(5,0)
GPGPU-Sim uArch: core: 12, cta: 4 initialized @(5,0)
GPGPU-Sim uArch: core: 13, cta: 4 initialized @(5,0)
GPGPU-Sim uArch: core: 14, cta: 4 initialized @(5,0)
GPGPU-Sim uArch: core:  0, cta: 4 initialized @(5,0)
GPGPU-Sim uArch: core:  1, cta: 5 initialized @(6,0)
GPGPU-Sim uArch: core:  2, cta: 5 initialized @(6,0)
GPGPU-Sim uArch: core:  3, cta: 5 initialized @(6,0)
GPGPU-Sim uArch: core:  4, cta: 5 initialized @(6,0)
GPGPU-Sim uArch: core:  5, cta: 5 initialized @(6,0)
GPGPU-Sim uArch: core:  6, cta: 5 initialized @(6,0)
GPGPU-Sim uArch: core:  7, cta: 5 initialized @(6,0)
GPGPU-Sim uArch: core:  8, cta: 5 initialized @(6,0)
GPGPU-Sim uArch: core:  9, cta: 5 initialized @(6,0)
GPGPU-Sim uArch: core: 10, cta: 5 initialized @(6,0)
GPGPU-Sim uArch: core: 11, cta: 5 initialized @(6,0)
GPGPU-Sim uArch: core: 12, cta: 5 initialized @(6,0)
GPGPU-Sim uArch: core: 13, cta: 5 initialized @(6,0)
GPGPU-Sim uArch: core: 14, cta: 5 initialized @(6,0)
GPGPU-Sim uArch: core:  0, cta: 5 initialized @(6,0)
GPGPU-Sim PTX: 100000 instructions simulated : ctaid=(0,8,0) tid=(31,0,0)
GPGPU-Sim uArch: cycles simulated: 500  inst.: 149600 (ipc=299.2) sim_rate=49866 (inst/sec) elapsed = 0:0:00:03 / Tue Mar 22 07:00:27 2016
GPGPU-Sim PTX: 200000 instructions simulated : ctaid=(9,4,0) tid=(159,0,0)
GPGPU-Sim PTX: 300000 instructions simulated : ctaid=(9,0,0) tid=(31,0,0)
GPGPU-Sim PTX: 400000 instructions simulated : ctaid=(7,1,0) tid=(63,0,0)
GPGPU-Sim PTX: 500000 instructions simulated : ctaid=(4,4,0) tid=(63,0,0)
GPGPU-Sim PTX: 600000 instructions simulated : ctaid=(10,5,0) tid=(127,0,0)
GPGPU-Sim uArch: cycles simulated: 1500  inst.: 615712 (ipc=410.5) sim_rate=153928 (inst/sec) elapsed = 0:0:00:04 / Tue Mar 22 07:00:28 2016
GPGPU-Sim PTX: 700000 instructions simulated : ctaid=(5,4,0) tid=(223,0,0)
GPGPU-Sim PTX: 800000 instructions simulated : ctaid=(4,2,0) tid=(159,0,0)
GPGPU-Sim PTX: 900000 instructions simulated : ctaid=(10,4,0) tid=(63,0,0)
GPGPU-Sim uArch: cycles simulated: 2500  inst.: 855648 (ipc=342.3) sim_rate=171129 (inst/sec) elapsed = 0:0:00:05 / Tue Mar 22 07:00:29 2016
GPGPU-Sim uArch: cycles simulated: 4500  inst.: 863488 (ipc=191.9) sim_rate=143914 (inst/sec) elapsed = 0:0:00:06 / Tue Mar 22 07:00:30 2016
GPGPU-Sim uArch: cycles simulated: 6500  inst.: 901056 (ipc=138.6) sim_rate=128722 (inst/sec) elapsed = 0:0:00:07 / Tue Mar 22 07:00:31 2016
GPGPU-Sim uArch: cycles simulated: 8000  inst.: 916864 (ipc=114.6) sim_rate=114608 (inst/sec) elapsed = 0:0:00:08 / Tue Mar 22 07:00:32 2016
GPGPU-Sim PTX: 1000000 instructions simulated : ctaid=(7,2,0) tid=(159,0,0)
GPGPU-Sim uArch: cycles simulated: 10000  inst.: 944064 (ipc=94.4) sim_rate=104896 (inst/sec) elapsed = 0:0:00:09 / Tue Mar 22 07:00:33 2016
GPGPU-Sim uArch: cycles simulated: 12000  inst.: 972992 (ipc=81.1) sim_rate=97299 (inst/sec) elapsed = 0:0:00:10 / Tue Mar 22 07:00:34 2016
GPGPU-Sim uArch: cycles simulated: 13500  inst.: 999616 (ipc=74.0) sim_rate=90874 (inst/sec) elapsed = 0:0:00:11 / Tue Mar 22 07:00:35 2016
GPGPU-Sim uArch: cycles simulated: 15500  inst.: 1027328 (ipc=66.3) sim_rate=85610 (inst/sec) elapsed = 0:0:00:12 / Tue Mar 22 07:00:36 2016
GPGPU-Sim PTX: 1100000 instructions simulated : ctaid=(0,0,0) tid=(159,0,0)
GPGPU-Sim uArch: cycles simulated: 17000  inst.: 1052320 (ipc=61.9) sim_rate=80947 (inst/sec) elapsed = 0:0:00:13 / Tue Mar 22 07:00:37 2016
GPGPU-Sim uArch: cycles simulated: 19000  inst.: 1079968 (ipc=56.8) sim_rate=77140 (inst/sec) elapsed = 0:0:00:14 / Tue Mar 22 07:00:38 2016
GPGPU-Sim uArch: cycles simulated: 20500  inst.: 1106272 (ipc=54.0) sim_rate=73751 (inst/sec) elapsed = 0:0:00:15 / Tue Mar 22 07:00:39 2016
GPGPU-Sim PTX: 1200000 instructions simulated : ctaid=(3,1,0) tid=(95,0,0)
GPGPU-Sim uArch: cycles simulated: 22000  inst.: 1129248 (ipc=51.3) sim_rate=70578 (inst/sec) elapsed = 0:0:00:16 / Tue Mar 22 07:00:40 2016
GPGPU-Sim uArch: cycles simulated: 24000  inst.: 1167264 (ipc=48.6) sim_rate=68662 (inst/sec) elapsed = 0:0:00:17 / Tue Mar 22 07:00:41 2016
GPGPU-Sim uArch: cycles simulated: 25500  inst.: 1187488 (ipc=46.6) sim_rate=65971 (inst/sec) elapsed = 0:0:00:18 / Tue Mar 22 07:00:42 2016
GPGPU-Sim uArch: cycles simulated: 27000  inst.: 1220000 (ipc=45.2) sim_rate=64210 (inst/sec) elapsed = 0:0:00:19 / Tue Mar 22 07:00:43 2016
GPGPU-Sim PTX: 1300000 instructions simulated : ctaid=(8,0,0) tid=(95,0,0)
GPGPU-Sim uArch: cycles simulated: 29000  inst.: 1248480 (ipc=43.1) sim_rate=62424 (inst/sec) elapsed = 0:0:00:20 / Tue Mar 22 07:00:44 2016
GPGPU-Sim uArch: cycles simulated: 30500  inst.: 1279808 (ipc=42.0) sim_rate=60943 (inst/sec) elapsed = 0:0:00:21 / Tue Mar 22 07:00:45 2016
GPGPU-Sim uArch: cycles simulated: 32500  inst.: 1312800 (ipc=40.4) sim_rate=59672 (inst/sec) elapsed = 0:0:00:22 / Tue Mar 22 07:00:46 2016
GPGPU-Sim PTX: 1400000 instructions simulated : ctaid=(7,2,0) tid=(31,0,0)
GPGPU-Sim uArch: cycles simulated: 34000  inst.: 1336672 (ipc=39.3) sim_rate=58116 (inst/sec) elapsed = 0:0:00:23 / Tue Mar 22 07:00:47 2016
GPGPU-Sim uArch: cycles simulated: 35500  inst.: 1368320 (ipc=38.5) sim_rate=57013 (inst/sec) elapsed = 0:0:00:24 / Tue Mar 22 07:00:48 2016
GPGPU-Sim uArch: cycles simulated: 37500  inst.: 1400512 (ipc=37.3) sim_rate=56020 (inst/sec) elapsed = 0:0:00:25 / Tue Mar 22 07:00:49 2016
GPGPU-Sim PTX: 1500000 instructions simulated : ctaid=(4,1,0) tid=(31,0,0)
GPGPU-Sim uArch: cycles simulated: 39000  inst.: 1432992 (ipc=36.7) sim_rate=55115 (inst/sec) elapsed = 0:0:00:26 / Tue Mar 22 07:00:50 2016
GPGPU-Sim uArch: cycles simulated: 41000  inst.: 1469248 (ipc=35.8) sim_rate=54416 (inst/sec) elapsed = 0:0:00:27 / Tue Mar 22 07:00:51 2016
GPGPU-Sim uArch: cycles simulated: 42500  inst.: 1493376 (ipc=35.1) sim_rate=53334 (inst/sec) elapsed = 0:0:00:28 / Tue Mar 22 07:00:52 2016
GPGPU-Sim uArch: cycles simulated: 44000  inst.: 1522816 (ipc=34.6) sim_rate=52510 (inst/sec) elapsed = 0:0:00:29 / Tue Mar 22 07:00:53 2016
GPGPU-Sim PTX: 1600000 instructions simulated : ctaid=(0,2,0) tid=(95,0,0)
GPGPU-Sim uArch: cycles simulated: 46000  inst.: 1554912 (ipc=33.8) sim_rate=51830 (inst/sec) elapsed = 0:0:00:30 / Tue Mar 22 07:00:54 2016
GPGPU-Sim uArch: cycles simulated: 47500  inst.: 1580128 (ipc=33.3) sim_rate=50971 (inst/sec) elapsed = 0:0:00:31 / Tue Mar 22 07:00:55 2016
GPGPU-Sim uArch: cycles simulated: 49000  inst.: 1603584 (ipc=32.7) sim_rate=50112 (inst/sec) elapsed = 0:0:00:32 / Tue Mar 22 07:00:56 2016
GPGPU-Sim PTX: 1700000 instructions simulated : ctaid=(2,1,0) tid=(223,0,0)
GPGPU-Sim uArch: cycles simulated: 51000  inst.: 1639808 (ipc=32.2) sim_rate=49691 (inst/sec) elapsed = 0:0:00:33 / Tue Mar 22 07:00:57 2016
GPGPU-Sim uArch: cycles simulated: 52500  inst.: 1664000 (ipc=31.7) sim_rate=48941 (inst/sec) elapsed = 0:0:00:34 / Tue Mar 22 07:00:58 2016
GPGPU-Sim uArch: cycles simulated: 54500  inst.: 1700000 (ipc=31.2) sim_rate=48571 (inst/sec) elapsed = 0:0:00:35 / Tue Mar 22 07:00:59 2016
GPGPU-Sim PTX: 1800000 instructions simulated : ctaid=(10,0,0) tid=(95,0,0)
GPGPU-Sim uArch: cycles simulated: 56000  inst.: 1730336 (ipc=30.9) sim_rate=48064 (inst/sec) elapsed = 0:0:00:36 / Tue Mar 22 07:01:00 2016
GPGPU-Sim uArch: cycles simulated: 57500  inst.: 1756192 (ipc=30.5) sim_rate=47464 (inst/sec) elapsed = 0:0:00:37 / Tue Mar 22 07:01:01 2016
GPGPU-Sim uArch: cycles simulated: 59500  inst.: 1790176 (ipc=30.1) sim_rate=47109 (inst/sec) elapsed = 0:0:00:38 / Tue Mar 22 07:01:02 2016
GPGPU-Sim uArch: cycles simulated: 61000  inst.: 1819328 (ipc=29.8) sim_rate=46649 (inst/sec) elapsed = 0:0:00:39 / Tue Mar 22 07:01:03 2016
GPGPU-Sim PTX: 1900000 instructions simulated : ctaid=(1,0,0) tid=(223,0,0)
GPGPU-Sim uArch: cycles simulated: 62500  inst.: 1843680 (ipc=29.5) sim_rate=46092 (inst/sec) elapsed = 0:0:00:40 / Tue Mar 22 07:01:04 2016
GPGPU-Sim uArch: cycles simulated: 64500  inst.: 1877728 (ipc=29.1) sim_rate=45798 (inst/sec) elapsed = 0:0:00:41 / Tue Mar 22 07:01:05 2016
GPGPU-Sim uArch: cycles simulated: 66000  inst.: 1911712 (ipc=29.0) sim_rate=45516 (inst/sec) elapsed = 0:0:00:42 / Tue Mar 22 07:01:06 2016
GPGPU-Sim PTX: 2000000 instructions simulated : ctaid=(1,0,0) tid=(95,0,0)
GPGPU-Sim uArch: cycles simulated: 67500  inst.: 1937248 (ipc=28.7) sim_rate=45052 (inst/sec) elapsed = 0:0:00:43 / Tue Mar 22 07:01:07 2016
GPGPU-Sim uArch: cycles simulated: 69500  inst.: 1969344 (ipc=28.3) sim_rate=44757 (inst/sec) elapsed = 0:0:00:44 / Tue Mar 22 07:01:08 2016
GPGPU-Sim uArch: cycles simulated: 71000  inst.: 1996096 (ipc=28.1) sim_rate=44357 (inst/sec) elapsed = 0:0:00:45 / Tue Mar 22 07:01:09 2016
GPGPU-Sim uArch: cycles simulated: 72500  inst.: 2020064 (ipc=27.9) sim_rate=43914 (inst/sec) elapsed = 0:0:00:46 / Tue Mar 22 07:01:10 2016
GPGPU-Sim PTX: 2100000 instructions simulated : ctaid=(0,1,0) tid=(159,0,0)
GPGPU-Sim uArch: cycles simulated: 74500  inst.: 2057888 (ipc=27.6) sim_rate=43784 (inst/sec) elapsed = 0:0:00:47 / Tue Mar 22 07:01:11 2016
GPGPU-Sim uArch: cycles simulated: 76000  inst.: 2087296 (ipc=27.5) sim_rate=43485 (inst/sec) elapsed = 0:0:00:48 / Tue Mar 22 07:01:12 2016
GPGPU-Sim uArch: cycles simulated: 77500  inst.: 2110592 (ipc=27.2) sim_rate=43073 (inst/sec) elapsed = 0:0:00:49 / Tue Mar 22 07:01:13 2016
GPGPU-Sim PTX: 2200000 instructions simulated : ctaid=(8,0,0) tid=(95,0,0)
GPGPU-Sim uArch: cycles simulated: 79500  inst.: 2145408 (ipc=27.0) sim_rate=42908 (inst/sec) elapsed = 0:0:00:50 / Tue Mar 22 07:01:14 2016
GPGPU-Sim uArch: cycles simulated: 81000  inst.: 2175168 (ipc=26.9) sim_rate=42650 (inst/sec) elapsed = 0:0:00:51 / Tue Mar 22 07:01:15 2016
GPGPU-Sim uArch: cycles simulated: 83000  inst.: 2208480 (ipc=26.6) sim_rate=42470 (inst/sec) elapsed = 0:0:00:52 / Tue Mar 22 07:01:16 2016
GPGPU-Sim PTX: 2300000 instructions simulated : ctaid=(3,1,0) tid=(31,0,0)
GPGPU-Sim uArch: cycles simulated: 84500  inst.: 2239296 (ipc=26.5) sim_rate=42250 (inst/sec) elapsed = 0:0:00:53 / Tue Mar 22 07:01:17 2016
GPGPU-Sim uArch: cycles simulated: 86000  inst.: 2262912 (ipc=26.3) sim_rate=41905 (inst/sec) elapsed = 0:0:00:54 / Tue Mar 22 07:01:18 2016
GPGPU-Sim uArch: cycles simulated: 88000  inst.: 2304416 (ipc=26.2) sim_rate=41898 (inst/sec) elapsed = 0:0:00:55 / Tue Mar 22 07:01:19 2016
GPGPU-Sim uArch: cycles simulated: 89500  inst.: 2325664 (ipc=26.0) sim_rate=41529 (inst/sec) elapsed = 0:0:00:56 / Tue Mar 22 07:01:20 2016
GPGPU-Sim PTX: 2400000 instructions simulated : ctaid=(6,2,0) tid=(31,0,0)
GPGPU-Sim uArch: cycles simulated: 91000  inst.: 2358336 (ipc=25.9) sim_rate=41374 (inst/sec) elapsed = 0:0:00:57 / Tue Mar 22 07:01:21 2016
GPGPU-Sim uArch: cycles simulated: 93000  inst.: 2391584 (ipc=25.7) sim_rate=41234 (inst/sec) elapsed = 0:0:00:58 / Tue Mar 22 07:01:22 2016
GPGPU-Sim uArch: cycles simulated: 94500  inst.: 2421312 (ipc=25.6) sim_rate=41039 (inst/sec) elapsed = 0:0:00:59 / Tue Mar 22 07:01:23 2016
GPGPU-Sim PTX: 2500000 instructions simulated : ctaid=(2,0,0) tid=(159,0,0)
GPGPU-Sim uArch: cycles simulated: 96000  inst.: 2445792 (ipc=25.5) sim_rate=40763 (inst/sec) elapsed = 0:0:01:00 / Tue Mar 22 07:01:24 2016
GPGPU-Sim uArch: cycles simulated: 98000  inst.: 2483968 (ipc=25.3) sim_rate=40720 (inst/sec) elapsed = 0:0:01:01 / Tue Mar 22 07:01:25 2016
GPGPU-Sim uArch: cycles simulated: 99500  inst.: 2510432 (ipc=25.2) sim_rate=40490 (inst/sec) elapsed = 0:0:01:02 / Tue Mar 22 07:01:26 2016
GPGPU-Sim PTX: 2600000 instructions simulated : ctaid=(3,2,0) tid=(31,0,0)
GPGPU-Sim uArch: cycles simulated: 101000  inst.: 2537504 (ipc=25.1) sim_rate=40277 (inst/sec) elapsed = 0:0:01:03 / Tue Mar 22 07:01:27 2016
GPGPU-Sim uArch: cycles simulated: 103000  inst.: 2576160 (ipc=25.0) sim_rate=40252 (inst/sec) elapsed = 0:0:01:04 / Tue Mar 22 07:01:28 2016
GPGPU-Sim uArch: cycles simulated: 104500  inst.: 2599840 (ipc=24.9) sim_rate=39997 (inst/sec) elapsed = 0:0:01:05 / Tue Mar 22 07:01:29 2016
GPGPU-Sim uArch: cycles simulated: 106000  inst.: 2623552 (ipc=24.8) sim_rate=39750 (inst/sec) elapsed = 0:0:01:06 / Tue Mar 22 07:01:30 2016
GPGPU-Sim PTX: 2700000 instructions simulated : ctaid=(5,0,0) tid=(95,0,0)
GPGPU-Sim uArch: cycles simulated: 108000  inst.: 2659904 (ipc=24.6) sim_rate=39700 (inst/sec) elapsed = 0:0:01:07 / Tue Mar 22 07:01:31 2016
GPGPU-Sim uArch: cycles simulated: 109500  inst.: 2686976 (ipc=24.5) sim_rate=39514 (inst/sec) elapsed = 0:0:01:08 / Tue Mar 22 07:01:32 2016
GPGPU-Sim uArch: cycles simulated: 111000  inst.: 2712192 (ipc=24.4) sim_rate=39307 (inst/sec) elapsed = 0:0:01:09 / Tue Mar 22 07:01:33 2016
GPGPU-Sim PTX: 2800000 instructions simulated : ctaid=(6,0,0) tid=(95,0,0)
GPGPU-Sim uArch: cycles simulated: 113000  inst.: 2745440 (ipc=24.3) sim_rate=39220 (inst/sec) elapsed = 0:0:01:10 / Tue Mar 22 07:01:34 2016
GPGPU-Sim uArch: cycles simulated: 114500  inst.: 2775296 (ipc=24.2) sim_rate=39088 (inst/sec) elapsed = 0:0:01:11 / Tue Mar 22 07:01:35 2016
GPGPU-Sim uArch: cycles simulated: 116000  inst.: 2799072 (ipc=24.1) sim_rate=38876 (inst/sec) elapsed = 0:0:01:12 / Tue Mar 22 07:01:36 2016
GPGPU-Sim uArch: cycles simulated: 117500  inst.: 2825664 (ipc=24.0) sim_rate=38707 (inst/sec) elapsed = 0:0:01:13 / Tue Mar 22 07:01:37 2016
GPGPU-Sim PTX: 2900000 instructions simulated : ctaid=(2,0,0) tid=(63,0,0)
GPGPU-Sim uArch: cycles simulated: 119500  inst.: 2863872 (ipc=24.0) sim_rate=38700 (inst/sec) elapsed = 0:0:01:14 / Tue Mar 22 07:01:38 2016
GPGPU-Sim uArch: cycles simulated: 121000  inst.: 2889472 (ipc=23.9) sim_rate=38526 (inst/sec) elapsed = 0:0:01:15 / Tue Mar 22 07:01:39 2016
GPGPU-Sim uArch: cycles simulated: 123000  inst.: 2923744 (ipc=23.8) sim_rate=38470 (inst/sec) elapsed = 0:0:01:16 / Tue Mar 22 07:01:40 2016
GPGPU-Sim PTX: 3000000 instructions simulated : ctaid=(6,0,0) tid=(95,0,0)
GPGPU-Sim uArch: cycles simulated: 124500  inst.: 2952096 (ipc=23.7) sim_rate=38338 (inst/sec) elapsed = 0:0:01:17 / Tue Mar 22 07:01:41 2016
GPGPU-Sim uArch: cycles simulated: 126000  inst.: 2973696 (ipc=23.6) sim_rate=38124 (inst/sec) elapsed = 0:0:01:18 / Tue Mar 22 07:01:42 2016
GPGPU-Sim uArch: cycles simulated: 128000  inst.: 3011168 (ipc=23.5) sim_rate=38116 (inst/sec) elapsed = 0:0:01:19 / Tue Mar 22 07:01:43 2016
GPGPU-Sim PTX: 3100000 instructions simulated : ctaid=(0,1,0) tid=(223,0,0)
GPGPU-Sim uArch: cycles simulated: 129500  inst.: 3033888 (ipc=23.4) sim_rate=37923 (inst/sec) elapsed = 0:0:01:20 / Tue Mar 22 07:01:44 2016
GPGPU-Sim uArch: cycles simulated: 131500  inst.: 3062976 (ipc=23.3) sim_rate=37814 (inst/sec) elapsed = 0:0:01:21 / Tue Mar 22 07:01:45 2016
GPGPU-Sim uArch: cycles simulated: 133000  inst.: 3092416 (ipc=23.3) sim_rate=37712 (inst/sec) elapsed = 0:0:01:22 / Tue Mar 22 07:01:46 2016
GPGPU-Sim uArch: cycles simulated: 134500  inst.: 3120864 (ipc=23.2) sim_rate=37600 (inst/sec) elapsed = 0:0:01:23 / Tue Mar 22 07:01:47 2016
GPGPU-Sim PTX: 3200000 instructions simulated : ctaid=(2,1,0) tid=(31,0,0)
GPGPU-Sim uArch: cycles simulated: 136000  inst.: 3142016 (ipc=23.1) sim_rate=37404 (inst/sec) elapsed = 0:0:01:24 / Tue Mar 22 07:01:48 2016
GPGPU-Sim uArch: cycles simulated: 138000  inst.: 3179488 (ipc=23.0) sim_rate=37405 (inst/sec) elapsed = 0:0:01:25 / Tue Mar 22 07:01:49 2016
GPGPU-Sim uArch: cycles simulated: 139500  inst.: 3206400 (ipc=23.0) sim_rate=37283 (inst/sec) elapsed = 0:0:01:26 / Tue Mar 22 07:01:50 2016
GPGPU-Sim PTX: 3300000 instructions simulated : ctaid=(3,1,0) tid=(223,0,0)
GPGPU-Sim uArch: cycles simulated: 141000  inst.: 3230848 (ipc=22.9) sim_rate=37136 (inst/sec) elapsed = 0:0:01:27 / Tue Mar 22 07:01:51 2016
GPGPU-Sim uArch: cycles simulated: 143000  inst.: 3256896 (ipc=22.8) sim_rate=37010 (inst/sec) elapsed = 0:0:01:28 / Tue Mar 22 07:01:52 2016
GPGPU-Sim uArch: cycles simulated: 144500  inst.: 3284480 (ipc=22.7) sim_rate=36904 (inst/sec) elapsed = 0:0:01:29 / Tue Mar 22 07:01:53 2016
GPGPU-Sim uArch: cycles simulated: 146000  inst.: 3313664 (ipc=22.7) sim_rate=36818 (inst/sec) elapsed = 0:0:01:30 / Tue Mar 22 07:01:54 2016
GPGPU-Sim PTX: 3400000 instructions simulated : ctaid=(9,1,0) tid=(31,0,0)
GPGPU-Sim uArch: cycles simulated: 148000  inst.: 3351072 (ipc=22.6) sim_rate=36824 (inst/sec) elapsed = 0:0:01:31 / Tue Mar 22 07:01:55 2016
GPGPU-Sim uArch: cycles simulated: 149500  inst.: 3374400 (ipc=22.6) sim_rate=36678 (inst/sec) elapsed = 0:0:01:32 / Tue Mar 22 07:01:56 2016
GPGPU-Sim uArch: cycles simulated: 151000  inst.: 3400576 (ipc=22.5) sim_rate=36565 (inst/sec) elapsed = 0:0:01:33 / Tue Mar 22 07:01:57 2016
GPGPU-Sim PTX: 3500000 instructions simulated : ctaid=(8,1,0) tid=(95,0,0)
GPGPU-Sim uArch: cycles simulated: 153000  inst.: 3429120 (ipc=22.4) sim_rate=36480 (inst/sec) elapsed = 0:0:01:34 / Tue Mar 22 07:01:58 2016
GPGPU-Sim uArch: cycles simulated: 154500  inst.: 3457376 (ipc=22.4) sim_rate=36393 (inst/sec) elapsed = 0:0:01:35 / Tue Mar 22 07:01:59 2016
GPGPU-Sim uArch: cycles simulated: 156000  inst.: 3482784 (ipc=22.3) sim_rate=36279 (inst/sec) elapsed = 0:0:01:36 / Tue Mar 22 07:02:00 2016
GPGPU-Sim uArch: cycles simulated: 158000  inst.: 3520064 (ipc=22.3) sim_rate=36289 (inst/sec) elapsed = 0:0:01:37 / Tue Mar 22 07:02:01 2016
GPGPU-Sim PTX: 3600000 instructions simulated : ctaid=(1,0,0) tid=(31,0,0)
GPGPU-Sim uArch: cycles simulated: 159500  inst.: 3543392 (ipc=22.2) sim_rate=36157 (inst/sec) elapsed = 0:0:01:38 / Tue Mar 22 07:02:02 2016
GPGPU-Sim uArch: cycles simulated: 161000  inst.: 3567424 (ipc=22.2) sim_rate=36034 (inst/sec) elapsed = 0:0:01:39 / Tue Mar 22 07:02:03 2016
GPGPU-Sim uArch: cycles simulated: 163000  inst.: 3606080 (ipc=22.1) sim_rate=36060 (inst/sec) elapsed = 0:0:01:40 / Tue Mar 22 07:02:04 2016
GPGPU-Sim PTX: 3700000 instructions simulated : ctaid=(5,2,0) tid=(31,0,0)
GPGPU-Sim uArch: cycles simulated: 164500  inst.: 3631456 (ipc=22.1) sim_rate=35955 (inst/sec) elapsed = 0:0:01:41 / Tue Mar 22 07:02:05 2016
GPGPU-Sim uArch: cycles simulated: 166000  inst.: 3656896 (ipc=22.0) sim_rate=35851 (inst/sec) elapsed = 0:0:01:42 / Tue Mar 22 07:02:06 2016
GPGPU-Sim uArch: cycles simulated: 167500  inst.: 3684064 (ipc=22.0) sim_rate=35767 (inst/sec) elapsed = 0:0:01:43 / Tue Mar 22 07:02:07 2016
GPGPU-Sim uArch: cycles simulated: 169500  inst.: 3715264 (ipc=21.9) sim_rate=35723 (inst/sec) elapsed = 0:0:01:44 / Tue Mar 22 07:02:08 2016
GPGPU-Sim PTX: 3800000 instructions simulated : ctaid=(7,0,0) tid=(159,0,0)
GPGPU-Sim uArch: cycles simulated: 171000  inst.: 3741568 (ipc=21.9) sim_rate=35633 (inst/sec) elapsed = 0:0:01:45 / Tue Mar 22 07:02:09 2016
GPGPU-Sim uArch: cycles simulated: 172500  inst.: 3765856 (ipc=21.8) sim_rate=35526 (inst/sec) elapsed = 0:0:01:46 / Tue Mar 22 07:02:10 2016
GPGPU-Sim uArch: cycles simulated: 174500  inst.: 3803104 (ipc=21.8) sim_rate=35543 (inst/sec) elapsed = 0:0:01:47 / Tue Mar 22 07:02:11 2016
GPGPU-Sim PTX: 3900000 instructions simulated : ctaid=(2,0,0) tid=(223,0,0)
GPGPU-Sim uArch: cycles simulated: 176000  inst.: 3831712 (ipc=21.8) sim_rate=35478 (inst/sec) elapsed = 0:0:01:48 / Tue Mar 22 07:02:12 2016
GPGPU-Sim uArch: cycles simulated: 177500  inst.: 3851008 (ipc=21.7) sim_rate=35330 (inst/sec) elapsed = 0:0:01:49 / Tue Mar 22 07:02:13 2016
GPGPU-Sim uArch: cycles simulated: 179500  inst.: 3894944 (ipc=21.7) sim_rate=35408 (inst/sec) elapsed = 0:0:01:50 / Tue Mar 22 07:02:14 2016
GPGPU-Sim uArch: cycles simulated: 181000  inst.: 3919584 (ipc=21.7) sim_rate=35311 (inst/sec) elapsed = 0:0:01:51 / Tue Mar 22 07:02:15 2016
GPGPU-Sim PTX: 4000000 instructions simulated : ctaid=(5,1,0) tid=(95,0,0)
GPGPU-Sim uArch: cycles simulated: 182500  inst.: 3944096 (ipc=21.6) sim_rate=35215 (inst/sec) elapsed = 0:0:01:52 / Tue Mar 22 07:02:16 2016
GPGPU-Sim uArch: cycles simulated: 184500  inst.: 3979776 (ipc=21.6) sim_rate=35219 (inst/sec) elapsed = 0:0:01:53 / Tue Mar 22 07:02:17 2016
GPGPU-Sim uArch: cycles simulated: 186000  inst.: 4002080 (ipc=21.5) sim_rate=35105 (inst/sec) elapsed = 0:0:01:54 / Tue Mar 22 07:02:18 2016
GPGPU-Sim PTX: 4100000 instructions simulated : ctaid=(5,2,0) tid=(31,0,0)
GPGPU-Sim uArch: cycles simulated: 187500  inst.: 4029152 (ipc=21.5) sim_rate=35036 (inst/sec) elapsed = 0:0:01:55 / Tue Mar 22 07:02:19 2016
GPGPU-Sim uArch: cycles simulated: 189500  inst.: 4059424 (ipc=21.4) sim_rate=34995 (inst/sec) elapsed = 0:0:01:56 / Tue Mar 22 07:02:20 2016
GPGPU-Sim uArch: cycles simulated: 191000  inst.: 4094624 (ipc=21.4) sim_rate=34996 (inst/sec) elapsed = 0:0:01:57 / Tue Mar 22 07:02:21 2016
GPGPU-Sim uArch: cycles simulated: 192500  inst.: 4119392 (ipc=21.4) sim_rate=34910 (inst/sec) elapsed = 0:0:01:58 / Tue Mar 22 07:02:22 2016
GPGPU-Sim PTX: 4200000 instructions simulated : ctaid=(1,1,0) tid=(159,0,0)
GPGPU-Sim uArch: cycles simulated: 194000  inst.: 4145664 (ipc=21.4) sim_rate=34837 (inst/sec) elapsed = 0:0:01:59 / Tue Mar 22 07:02:23 2016
GPGPU-Sim uArch: cycles simulated: 196000  inst.: 4181248 (ipc=21.3) sim_rate=34843 (inst/sec) elapsed = 0:0:02:00 / Tue Mar 22 07:02:24 2016
GPGPU-Sim uArch: cycles simulated: 197500  inst.: 4202272 (ipc=21.3) sim_rate=34729 (inst/sec) elapsed = 0:0:02:01 / Tue Mar 22 07:02:25 2016
GPGPU-Sim PTX: 4300000 instructions simulated : ctaid=(1,1,0) tid=(31,0,0)
GPGPU-Sim uArch: cycles simulated: 199000  inst.: 4231104 (ipc=21.3) sim_rate=34681 (inst/sec) elapsed = 0:0:02:02 / Tue Mar 22 07:02:26 2016
GPGPU-Sim uArch: cycles simulated: 201000  inst.: 4267264 (ipc=21.2) sim_rate=34693 (inst/sec) elapsed = 0:0:02:03 / Tue Mar 22 07:02:27 2016
GPGPU-Sim uArch: cycles simulated: 202500  inst.: 4290336 (ipc=21.2) sim_rate=34599 (inst/sec) elapsed = 0:0:02:04 / Tue Mar 22 07:02:28 2016
GPGPU-Sim uArch: cycles simulated: 204000  inst.: 4317952 (ipc=21.2) sim_rate=34543 (inst/sec) elapsed = 0:0:02:05 / Tue Mar 22 07:02:29 2016
GPGPU-Sim PTX: 4400000 instructions simulated : ctaid=(5,0,0) tid=(223,0,0)
GPGPU-Sim uArch: cycles simulated: 205500  inst.: 4342624 (ipc=21.1) sim_rate=34465 (inst/sec) elapsed = 0:0:02:06 / Tue Mar 22 07:02:30 2016
GPGPU-Sim uArch: cycles simulated: 207500  inst.: 4383296 (ipc=21.1) sim_rate=34514 (inst/sec) elapsed = 0:0:02:07 / Tue Mar 22 07:02:31 2016
GPGPU-Sim uArch: cycles simulated: 209000  inst.: 4410336 (ipc=21.1) sim_rate=34455 (inst/sec) elapsed = 0:0:02:08 / Tue Mar 22 07:02:32 2016
GPGPU-Sim PTX: 4500000 instructions simulated : ctaid=(5,2,0) tid=(223,0,0)
GPGPU-Sim uArch: cycles simulated: 210500  inst.: 4436032 (ipc=21.1) sim_rate=34387 (inst/sec) elapsed = 0:0:02:09 / Tue Mar 22 07:02:33 2016
GPGPU-Sim uArch: cycles simulated: 212500  inst.: 4469408 (ipc=21.0) sim_rate=34380 (inst/sec) elapsed = 0:0:02:10 / Tue Mar 22 07:02:34 2016
GPGPU-Sim uArch: cycles simulated: 214000  inst.: 4496096 (ipc=21.0) sim_rate=34321 (inst/sec) elapsed = 0:0:02:11 / Tue Mar 22 07:02:35 2016
GPGPU-Sim PTX: 4600000 instructions simulated : ctaid=(3,1,0) tid=(95,0,0)
GPGPU-Sim uArch: cycles simulated: 215500  inst.: 4530112 (ipc=21.0) sim_rate=34319 (inst/sec) elapsed = 0:0:02:12 / Tue Mar 22 07:02:36 2016
GPGPU-Sim uArch: cycles simulated: 217000  inst.: 4551104 (ipc=21.0) sim_rate=34218 (inst/sec) elapsed = 0:0:02:13 / Tue Mar 22 07:02:37 2016
GPGPU-Sim uArch: cycles simulated: 219000  inst.: 4587104 (ipc=20.9) sim_rate=34232 (inst/sec) elapsed = 0:0:02:14 / Tue Mar 22 07:02:38 2016
GPGPU-Sim uArch: cycles simulated: 220500  inst.: 4612320 (ipc=20.9) sim_rate=34165 (inst/sec) elapsed = 0:0:02:15 / Tue Mar 22 07:02:39 2016
GPGPU-Sim PTX: 4700000 instructions simulated : ctaid=(6,1,0) tid=(31,0,0)
GPGPU-Sim uArch: cycles simulated: 222000  inst.: 4645184 (ipc=20.9) sim_rate=34155 (inst/sec) elapsed = 0:0:02:16 / Tue Mar 22 07:02:40 2016
GPGPU-Sim uArch: cycles simulated: 224000  inst.: 4680256 (ipc=20.9) sim_rate=34162 (inst/sec) elapsed = 0:0:02:17 / Tue Mar 22 07:02:41 2016
GPGPU-Sim uArch: cycles simulated: 225500  inst.: 4708672 (ipc=20.9) sim_rate=34120 (inst/sec) elapsed = 0:0:02:18 / Tue Mar 22 07:02:42 2016
GPGPU-Sim PTX: 4800000 instructions simulated : ctaid=(5,0,0) tid=(31,0,0)
GPGPU-Sim uArch: cycles simulated: 227000  inst.: 4733632 (ipc=20.9) sim_rate=34054 (inst/sec) elapsed = 0:0:02:19 / Tue Mar 22 07:02:43 2016
GPGPU-Sim uArch: cycles simulated: 229000  inst.: 4767584 (ipc=20.8) sim_rate=34054 (inst/sec) elapsed = 0:0:02:20 / Tue Mar 22 07:02:44 2016
GPGPU-Sim uArch: cycles simulated: 230500  inst.: 4793504 (ipc=20.8) sim_rate=33996 (inst/sec) elapsed = 0:0:02:21 / Tue Mar 22 07:02:45 2016
GPGPU-Sim uArch: cycles simulated: 232000  inst.: 4823008 (ipc=20.8) sim_rate=33964 (inst/sec) elapsed = 0:0:02:22 / Tue Mar 22 07:02:46 2016
GPGPU-Sim PTX: 4900000 instructions simulated : ctaid=(5,1,0) tid=(31,0,0)
GPGPU-Sim uArch: cycles simulated: 233500  inst.: 4855104 (ipc=20.8) sim_rate=33951 (inst/sec) elapsed = 0:0:02:23 / Tue Mar 22 07:02:47 2016
GPGPU-Sim uArch: cycles simulated: 235500  inst.: 4890560 (ipc=20.8) sim_rate=33962 (inst/sec) elapsed = 0:0:02:24 / Tue Mar 22 07:02:48 2016
GPGPU-Sim uArch: cycles simulated: 237000  inst.: 4915488 (ipc=20.7) sim_rate=33899 (inst/sec) elapsed = 0:0:02:25 / Tue Mar 22 07:02:49 2016
GPGPU-Sim PTX: 5000000 instructions simulated : ctaid=(3,1,0) tid=(31,0,0)
GPGPU-Sim uArch: cycles simulated: 238500  inst.: 4945120 (ipc=20.7) sim_rate=33870 (inst/sec) elapsed = 0:0:02:26 / Tue Mar 22 07:02:50 2016
GPGPU-Sim uArch: cycles simulated: 240500  inst.: 4981152 (ipc=20.7) sim_rate=33885 (inst/sec) elapsed = 0:0:02:27 / Tue Mar 22 07:02:51 2016
GPGPU-Sim uArch: cycles simulated: 242000  inst.: 5005152 (ipc=20.7) sim_rate=33818 (inst/sec) elapsed = 0:0:02:28 / Tue Mar 22 07:02:52 2016
GPGPU-Sim PTX: 5100000 instructions simulated : ctaid=(7,0,0) tid=(31,0,0)
GPGPU-Sim uArch: cycles simulated: 243500  inst.: 5037184 (ipc=20.7) sim_rate=33806 (inst/sec) elapsed = 0:0:02:29 / Tue Mar 22 07:02:53 2016
GPGPU-Sim uArch: cycles simulated: 245500  inst.: 5073632 (ipc=20.7) sim_rate=33824 (inst/sec) elapsed = 0:0:02:30 / Tue Mar 22 07:02:54 2016
GPGPU-Sim uArch: cycles simulated: 247000  inst.: 5096384 (ipc=20.6) sim_rate=33750 (inst/sec) elapsed = 0:0:02:31 / Tue Mar 22 07:02:55 2016
GPGPU-Sim uArch: cycles simulated: 248500  inst.: 5122624 (ipc=20.6) sim_rate=33701 (inst/sec) elapsed = 0:0:02:32 / Tue Mar 22 07:02:56 2016
GPGPU-Sim PTX: 5200000 instructions simulated : ctaid=(2,2,0) tid=(95,0,0)
GPGPU-Sim uArch: cycles simulated: 250500  inst.: 5159232 (ipc=20.6) sim_rate=33720 (inst/sec) elapsed = 0:0:02:33 / Tue Mar 22 07:02:57 2016
GPGPU-Sim uArch: cycles simulated: 252000  inst.: 5185920 (ipc=20.6) sim_rate=33674 (inst/sec) elapsed = 0:0:02:34 / Tue Mar 22 07:02:58 2016
GPGPU-Sim uArch: cycles simulated: 254000  inst.: 5221536 (ipc=20.6) sim_rate=33687 (inst/sec) elapsed = 0:0:02:35 / Tue Mar 22 07:02:59 2016
GPGPU-Sim PTX: 5300000 instructions simulated : ctaid=(5,2,0) tid=(95,0,0)
GPGPU-Sim uArch: cycles simulated: 255500  inst.: 5243488 (ipc=20.5) sim_rate=33612 (inst/sec) elapsed = 0:0:02:36 / Tue Mar 22 07:03:00 2016
GPGPU-Sim uArch: cycles simulated: 257000  inst.: 5271904 (ipc=20.5) sim_rate=33579 (inst/sec) elapsed = 0:0:02:37 / Tue Mar 22 07:03:01 2016
GPGPU-Sim uArch: cycles simulated: 259000  inst.: 5314336 (ipc=20.5) sim_rate=33635 (inst/sec) elapsed = 0:0:02:38 / Tue Mar 22 07:03:02 2016
GPGPU-Sim PTX: 5400000 instructions simulated : ctaid=(1,0,0) tid=(95,0,0)
GPGPU-Sim uArch: cycles simulated: 260500  inst.: 5341152 (ipc=20.5) sim_rate=33592 (inst/sec) elapsed = 0:0:02:39 / Tue Mar 22 07:03:03 2016
GPGPU-Sim uArch: cycles simulated: 262000  inst.: 5368576 (ipc=20.5) sim_rate=33553 (inst/sec) elapsed = 0:0:02:40 / Tue Mar 22 07:03:04 2016
GPGPU-Sim uArch: cycles simulated: 264000  inst.: 5404160 (ipc=20.5) sim_rate=33566 (inst/sec) elapsed = 0:0:02:41 / Tue Mar 22 07:03:05 2016
GPGPU-Sim PTX: 5500000 instructions simulated : ctaid=(5,1,0) tid=(223,0,0)
GPGPU-Sim uArch: cycles simulated: 265500  inst.: 5437600 (ipc=20.5) sim_rate=33565 (inst/sec) elapsed = 0:0:02:42 / Tue Mar 22 07:03:06 2016
GPGPU-Sim uArch: cycles simulated: 267500  inst.: 5472768 (ipc=20.5) sim_rate=33575 (inst/sec) elapsed = 0:0:02:43 / Tue Mar 22 07:03:07 2016
GPGPU-Sim uArch: cycles simulated: 269000  inst.: 5501696 (ipc=20.5) sim_rate=33546 (inst/sec) elapsed = 0:0:02:44 / Tue Mar 22 07:03:08 2016
GPGPU-Sim PTX: 5600000 instructions simulated : ctaid=(0,1,0) tid=(223,0,0)
GPGPU-Sim uArch: cycles simulated: 270500  inst.: 5534880 (ipc=20.5) sim_rate=33544 (inst/sec) elapsed = 0:0:02:45 / Tue Mar 22 07:03:09 2016
GPGPU-Sim uArch: cycles simulated: 272500  inst.: 5570976 (ipc=20.4) sim_rate=33560 (inst/sec) elapsed = 0:0:02:46 / Tue Mar 22 07:03:10 2016
GPGPU-Sim uArch: cycles simulated: 274000  inst.: 5595968 (ipc=20.4) sim_rate=33508 (inst/sec) elapsed = 0:0:02:47 / Tue Mar 22 07:03:11 2016
GPGPU-Sim PTX: 5700000 instructions simulated : ctaid=(0,0,0) tid=(223,0,0)
GPGPU-Sim uArch: cycles simulated: 276000  inst.: 5636320 (ipc=20.4) sim_rate=33549 (inst/sec) elapsed = 0:0:02:48 / Tue Mar 22 07:03:12 2016
GPGPU-Sim uArch: cycles simulated: 277500  inst.: 5662112 (ipc=20.4) sim_rate=33503 (inst/sec) elapsed = 0:0:02:49 / Tue Mar 22 07:03:13 2016
GPGPU-Sim uArch: cycles simulated: 279000  inst.: 5684320 (ipc=20.4) sim_rate=33437 (inst/sec) elapsed = 0:0:02:50 / Tue Mar 22 07:03:14 2016
GPGPU-Sim uArch: cycles simulated: 281000  inst.: 5720960 (ipc=20.4) sim_rate=33455 (inst/sec) elapsed = 0:0:02:51 / Tue Mar 22 07:03:15 2016
GPGPU-Sim PTX: 5800000 instructions simulated : ctaid=(3,0,0) tid=(31,0,0)
GPGPU-Sim uArch: cycles simulated: 282500  inst.: 5747200 (ipc=20.3) sim_rate=33413 (inst/sec) elapsed = 0:0:02:52 / Tue Mar 22 07:03:16 2016
GPGPU-Sim uArch: cycles simulated: 284500  inst.: 5778336 (ipc=20.3) sim_rate=33400 (inst/sec) elapsed = 0:0:02:53 / Tue Mar 22 07:03:17 2016
GPGPU-Sim uArch: cycles simulated: 286000  inst.: 5807744 (ipc=20.3) sim_rate=33377 (inst/sec) elapsed = 0:0:02:54 / Tue Mar 22 07:03:18 2016
GPGPU-Sim PTX: 5900000 instructions simulated : ctaid=(0,1,0) tid=(159,0,0)
GPGPU-Sim uArch: cycles simulated: 287500  inst.: 5836256 (ipc=20.3) sim_rate=33350 (inst/sec) elapsed = 0:0:02:55 / Tue Mar 22 07:03:19 2016
GPGPU-Sim uArch: cycles simulated: 289500  inst.: 5868480 (ipc=20.3) sim_rate=33343 (inst/sec) elapsed = 0:0:02:56 / Tue Mar 22 07:03:20 2016
GPGPU-Sim uArch: cycles simulated: 291000  inst.: 5891424 (ipc=20.2) sim_rate=33284 (inst/sec) elapsed = 0:0:02:57 / Tue Mar 22 07:03:21 2016
GPGPU-Sim PTX: 6000000 instructions simulated : ctaid=(1,1,0) tid=(223,0,0)
GPGPU-Sim uArch: cycles simulated: 293000  inst.: 5928864 (ipc=20.2) sim_rate=33308 (inst/sec) elapsed = 0:0:02:58 / Tue Mar 22 07:03:22 2016
GPGPU-Sim uArch: cycles simulated: 294500  inst.: 5959840 (ipc=20.2) sim_rate=33295 (inst/sec) elapsed = 0:0:02:59 / Tue Mar 22 07:03:23 2016
GPGPU-Sim uArch: cycles simulated: 296000  inst.: 5988224 (ipc=20.2) sim_rate=33267 (inst/sec) elapsed = 0:0:03:00 / Tue Mar 22 07:03:24 2016
GPGPU-Sim PTX: 6100000 instructions simulated : ctaid=(1,1,0) tid=(95,0,0)
GPGPU-Sim uArch: cycles simulated: 298000  inst.: 6024352 (ipc=20.2) sim_rate=33283 (inst/sec) elapsed = 0:0:03:01 / Tue Mar 22 07:03:25 2016
GPGPU-Sim uArch: cycles simulated: 299500  inst.: 6050400 (ipc=20.2) sim_rate=33243 (inst/sec) elapsed = 0:0:03:02 / Tue Mar 22 07:03:26 2016
GPGPU-Sim uArch: cycles simulated: 301500  inst.: 6090176 (ipc=20.2) sim_rate=33279 (inst/sec) elapsed = 0:0:03:03 / Tue Mar 22 07:03:27 2016
GPGPU-Sim uArch: cycles simulated: 303000  inst.: 6112160 (ipc=20.2) sim_rate=33218 (inst/sec) elapsed = 0:0:03:04 / Tue Mar 22 07:03:28 2016
GPGPU-Sim PTX: 6200000 instructions simulated : ctaid=(6,0,0) tid=(159,0,0)
GPGPU-Sim uArch: cycles simulated: 305000  inst.: 6142240 (ipc=20.1) sim_rate=33201 (inst/sec) elapsed = 0:0:03:05 / Tue Mar 22 07:03:29 2016
GPGPU-Sim uArch: cycles simulated: 306500  inst.: 6169376 (ipc=20.1) sim_rate=33168 (inst/sec) elapsed = 0:0:03:06 / Tue Mar 22 07:03:30 2016
GPGPU-Sim uArch: cycles simulated: 308500  inst.: 6202848 (ipc=20.1) sim_rate=33170 (inst/sec) elapsed = 0:0:03:07 / Tue Mar 22 07:03:31 2016
GPGPU-Sim PTX: 6300000 instructions simulated : ctaid=(2,0,0) tid=(159,0,0)
GPGPU-Sim uArch: cycles simulated: 310000  inst.: 6230368 (ipc=20.1) sim_rate=33140 (inst/sec) elapsed = 0:0:03:08 / Tue Mar 22 07:03:32 2016
GPGPU-Sim uArch: cycles simulated: 312000  inst.: 6258272 (ipc=20.1) sim_rate=33112 (inst/sec) elapsed = 0:0:03:09 / Tue Mar 22 07:03:33 2016
GPGPU-Sim uArch: cycles simulated: 313500  inst.: 6284416 (ipc=20.0) sim_rate=33075 (inst/sec) elapsed = 0:0:03:10 / Tue Mar 22 07:03:34 2016
GPGPU-Sim uArch: cycles simulated: 315000  inst.: 6306016 (ipc=20.0) sim_rate=33015 (inst/sec) elapsed = 0:0:03:11 / Tue Mar 22 07:03:35 2016
GPGPU-Sim PTX: 6400000 instructions simulated : ctaid=(0,1,0) tid=(31,0,0)
GPGPU-Sim uArch: cycles simulated: 317000  inst.: 6334240 (ipc=20.0) sim_rate=32990 (inst/sec) elapsed = 0:0:03:12 / Tue Mar 22 07:03:36 2016
GPGPU-Sim uArch: cycles simulated: 318500  inst.: 6359424 (ipc=20.0) sim_rate=32950 (inst/sec) elapsed = 0:0:03:13 / Tue Mar 22 07:03:37 2016
GPGPU-Sim uArch: cycles simulated: 320500  inst.: 6386592 (ipc=19.9) sim_rate=32920 (inst/sec) elapsed = 0:0:03:14 / Tue Mar 22 07:03:38 2016
GPGPU-Sim uArch: cycles simulated: 322000  inst.: 6414912 (ipc=19.9) sim_rate=32896 (inst/sec) elapsed = 0:0:03:15 / Tue Mar 22 07:03:39 2016
GPGPU-Sim PTX: 6500000 instructions simulated : ctaid=(0,2,0) tid=(223,0,0)
GPGPU-Sim uArch: cycles simulated: 324000  inst.: 6446176 (ipc=19.9) sim_rate=32888 (inst/sec) elapsed = 0:0:03:16 / Tue Mar 22 07:03:40 2016
GPGPU-Sim uArch: cycles simulated: 325500  inst.: 6475584 (ipc=19.9) sim_rate=32870 (inst/sec) elapsed = 0:0:03:17 / Tue Mar 22 07:03:41 2016
GPGPU-Sim uArch: cycles simulated: 327500  inst.: 6503872 (ipc=19.9) sim_rate=32847 (inst/sec) elapsed = 0:0:03:18 / Tue Mar 22 07:03:42 2016
GPGPU-Sim PTX: 6600000 instructions simulated : ctaid=(1,1,0) tid=(159,0,0)
GPGPU-Sim uArch: cycles simulated: 329000  inst.: 6527968 (ipc=19.8) sim_rate=32803 (inst/sec) elapsed = 0:0:03:19 / Tue Mar 22 07:03:43 2016
GPGPU-Sim uArch: cycles simulated: 331000  inst.: 6560192 (ipc=19.8) sim_rate=32800 (inst/sec) elapsed = 0:0:03:20 / Tue Mar 22 07:03:44 2016
GPGPU-Sim uArch: cycles simulated: 332500  inst.: 6584480 (ipc=19.8) sim_rate=32758 (inst/sec) elapsed = 0:0:03:21 / Tue Mar 22 07:03:45 2016
GPGPU-Sim uArch: cycles simulated: 334000  inst.: 6612352 (ipc=19.8) sim_rate=32734 (inst/sec) elapsed = 0:0:03:22 / Tue Mar 22 07:03:46 2016
GPGPU-Sim PTX: 6700000 instructions simulated : ctaid=(1,0,0) tid=(159,0,0)
GPGPU-Sim uArch: cycles simulated: 336000  inst.: 6639680 (ipc=19.8) sim_rate=32707 (inst/sec) elapsed = 0:0:03:23 / Tue Mar 22 07:03:47 2016
GPGPU-Sim uArch: cycles simulated: 337500  inst.: 6668000 (ipc=19.8) sim_rate=32686 (inst/sec) elapsed = 0:0:03:24 / Tue Mar 22 07:03:48 2016
GPGPU-Sim uArch: cycles simulated: 339500  inst.: 6704960 (ipc=19.7) sim_rate=32707 (inst/sec) elapsed = 0:0:03:25 / Tue Mar 22 07:03:49 2016
GPGPU-Sim PTX: 6800000 instructions simulated : ctaid=(10,0,0) tid=(223,0,0)
GPGPU-Sim uArch: cycles simulated: 341000  inst.: 6730432 (ipc=19.7) sim_rate=32672 (inst/sec) elapsed = 0:0:03:26 / Tue Mar 22 07:03:50 2016
GPGPU-Sim uArch: cycles simulated: 343000  inst.: 6770112 (ipc=19.7) sim_rate=32705 (inst/sec) elapsed = 0:0:03:27 / Tue Mar 22 07:03:51 2016
GPGPU-Sim uArch: cycles simulated: 344500  inst.: 6792416 (ipc=19.7) sim_rate=32655 (inst/sec) elapsed = 0:0:03:28 / Tue Mar 22 07:03:52 2016
GPGPU-Sim PTX: 6900000 instructions simulated : ctaid=(7,1,0) tid=(31,0,0)
GPGPU-Sim uArch: cycles simulated: 346500  inst.: 6826752 (ipc=19.7) sim_rate=32663 (inst/sec) elapsed = 0:0:03:29 / Tue Mar 22 07:03:53 2016
GPGPU-Sim uArch: cycles simulated: 348000  inst.: 6850624 (ipc=19.7) sim_rate=32622 (inst/sec) elapsed = 0:0:03:30 / Tue Mar 22 07:03:54 2016
GPGPU-Sim uArch: cycles simulated: 349500  inst.: 6878784 (ipc=19.7) sim_rate=32600 (inst/sec) elapsed = 0:0:03:31 / Tue Mar 22 07:03:55 2016
GPGPU-Sim uArch: cycles simulated: 351500  inst.: 6912096 (ipc=19.7) sim_rate=32604 (inst/sec) elapsed = 0:0:03:32 / Tue Mar 22 07:03:56 2016
GPGPU-Sim PTX: 7000000 instructions simulated : ctaid=(1,2,0) tid=(223,0,0)
GPGPU-Sim uArch: cycles simulated: 353000  inst.: 6939456 (ipc=19.7) sim_rate=32579 (inst/sec) elapsed = 0:0:03:33 / Tue Mar 22 07:03:57 2016
GPGPU-Sim uArch: cycles simulated: 355000  inst.: 6970112 (ipc=19.6) sim_rate=32570 (inst/sec) elapsed = 0:0:03:34 / Tue Mar 22 07:03:58 2016
GPGPU-Sim uArch: cycles simulated: 356500  inst.: 6996704 (ipc=19.6) sim_rate=32542 (inst/sec) elapsed = 0:0:03:35 / Tue Mar 22 07:03:59 2016
GPGPU-Sim PTX: 7100000 instructions simulated : ctaid=(0,1,0) tid=(63,0,0)
GPGPU-Sim uArch: cycles simulated: 358500  inst.: 7030784 (ipc=19.6) sim_rate=32549 (inst/sec) elapsed = 0:0:03:36 / Tue Mar 22 07:04:00 2016
GPGPU-Sim uArch: cycles simulated: 360000  inst.: 7053632 (ipc=19.6) sim_rate=32505 (inst/sec) elapsed = 0:0:03:37 / Tue Mar 22 07:04:01 2016
GPGPU-Sim uArch: cycles simulated: 362000  inst.: 7095104 (ipc=19.6) sim_rate=32546 (inst/sec) elapsed = 0:0:03:38 / Tue Mar 22 07:04:02 2016
GPGPU-Sim uArch: cycles simulated: 363500  inst.: 7114464 (ipc=19.6) sim_rate=32486 (inst/sec) elapsed = 0:0:03:39 / Tue Mar 22 07:04:03 2016
GPGPU-Sim PTX: 7200000 instructions simulated : ctaid=(6,0,0) tid=(95,0,0)
GPGPU-Sim uArch: cycles simulated: 365000  inst.: 7142624 (ipc=19.6) sim_rate=32466 (inst/sec) elapsed = 0:0:03:40 / Tue Mar 22 07:04:04 2016
GPGPU-Sim uArch: cycles simulated: 367000  inst.: 7176512 (ipc=19.6) sim_rate=32472 (inst/sec) elapsed = 0:0:03:41 / Tue Mar 22 07:04:05 2016
GPGPU-Sim uArch: cycles simulated: 368500  inst.: 7201664 (ipc=19.5) sim_rate=32439 (inst/sec) elapsed = 0:0:03:42 / Tue Mar 22 07:04:06 2016
GPGPU-Sim PTX: 7300000 instructions simulated : ctaid=(10,0,0) tid=(95,0,0)
GPGPU-Sim uArch: cycles simulated: 370500  inst.: 7237696 (ipc=19.5) sim_rate=32456 (inst/sec) elapsed = 0:0:03:43 / Tue Mar 22 07:04:07 2016
GPGPU-Sim uArch: cycles simulated: 372000  inst.: 7262944 (ipc=19.5) sim_rate=32423 (inst/sec) elapsed = 0:0:03:44 / Tue Mar 22 07:04:08 2016
GPGPU-Sim uArch: cycles simulated: 374000  inst.: 7293216 (ipc=19.5) sim_rate=32414 (inst/sec) elapsed = 0:0:03:45 / Tue Mar 22 07:04:09 2016
GPGPU-Sim uArch: cycles simulated: 375500  inst.: 7320480 (ipc=19.5) sim_rate=32391 (inst/sec) elapsed = 0:0:03:46 / Tue Mar 22 07:04:10 2016
GPGPU-Sim PTX: 7400000 instructions simulated : ctaid=(3,0,0) tid=(159,0,0)
GPGPU-Sim uArch: cycles simulated: 377500  inst.: 7356096 (ipc=19.5) sim_rate=32405 (inst/sec) elapsed = 0:0:03:47 / Tue Mar 22 07:04:11 2016
GPGPU-Sim uArch: cycles simulated: 379000  inst.: 7382336 (ipc=19.5) sim_rate=32378 (inst/sec) elapsed = 0:0:03:48 / Tue Mar 22 07:04:12 2016
GPGPU-Sim uArch: cycles simulated: 380500  inst.: 7405440 (ipc=19.5) sim_rate=32338 (inst/sec) elapsed = 0:0:03:49 / Tue Mar 22 07:04:13 2016
GPGPU-Sim PTX: 7500000 instructions simulated : ctaid=(6,1,0) tid=(31,0,0)
GPGPU-Sim uArch: cycles simulated: 382500  inst.: 7436384 (ipc=19.4) sim_rate=32332 (inst/sec) elapsed = 0:0:03:50 / Tue Mar 22 07:04:14 2016
GPGPU-Sim uArch: cycles simulated: 384000  inst.: 7464768 (ipc=19.4) sim_rate=32315 (inst/sec) elapsed = 0:0:03:51 / Tue Mar 22 07:04:15 2016
GPGPU-Sim uArch: cycles simulated: 386000  inst.: 7499008 (ipc=19.4) sim_rate=32323 (inst/sec) elapsed = 0:0:03:52 / Tue Mar 22 07:04:16 2016
GPGPU-Sim PTX: 7600000 instructions simulated : ctaid=(9,1,0) tid=(31,0,0)
GPGPU-Sim uArch: cycles simulated: 387500  inst.: 7526112 (ipc=19.4) sim_rate=32300 (inst/sec) elapsed = 0:0:03:53 / Tue Mar 22 07:04:17 2016
GPGPU-Sim uArch: cycles simulated: 389500  inst.: 7560256 (ipc=19.4) sim_rate=32308 (inst/sec) elapsed = 0:0:03:54 / Tue Mar 22 07:04:18 2016
GPGPU-Sim uArch: cycles simulated: 391000  inst.: 7590880 (ipc=19.4) sim_rate=32301 (inst/sec) elapsed = 0:0:03:55 / Tue Mar 22 07:04:19 2016
GPGPU-Sim PTX: 7700000 instructions simulated : ctaid=(5,0,0) tid=(31,0,0)
GPGPU-Sim uArch: cycles simulated: 393000  inst.: 7621120 (ipc=19.4) sim_rate=32292 (inst/sec) elapsed = 0:0:03:56 / Tue Mar 22 07:04:20 2016
GPGPU-Sim uArch: cycles simulated: 394500  inst.: 7650624 (ipc=19.4) sim_rate=32281 (inst/sec) elapsed = 0:0:03:57 / Tue Mar 22 07:04:21 2016
GPGPU-Sim uArch: cycles simulated: 396000  inst.: 7678912 (ipc=19.4) sim_rate=32264 (inst/sec) elapsed = 0:0:03:58 / Tue Mar 22 07:04:22 2016
GPGPU-Sim uArch: cycles simulated: 398000  inst.: 7714112 (ipc=19.4) sim_rate=32276 (inst/sec) elapsed = 0:0:03:59 / Tue Mar 22 07:04:23 2016
GPGPU-Sim PTX: 7800000 instructions simulated : ctaid=(2,1,0) tid=(159,0,0)
GPGPU-Sim uArch: cycles simulated: 399500  inst.: 7737952 (ipc=19.4) sim_rate=32241 (inst/sec) elapsed = 0:0:04:00 / Tue Mar 22 07:04:24 2016
GPGPU-Sim uArch: cycles simulated: 401500  inst.: 7772992 (ipc=19.4) sim_rate=32253 (inst/sec) elapsed = 0:0:04:01 / Tue Mar 22 07:04:25 2016
GPGPU-Sim uArch: cycles simulated: 403000  inst.: 7797344 (ipc=19.3) sim_rate=32220 (inst/sec) elapsed = 0:0:04:02 / Tue Mar 22 07:04:26 2016
GPGPU-Sim PTX: 7900000 instructions simulated : ctaid=(3,1,0) tid=(95,0,0)
GPGPU-Sim uArch: cycles simulated: 405000  inst.: 7828800 (ipc=19.3) sim_rate=32217 (inst/sec) elapsed = 0:0:04:03 / Tue Mar 22 07:04:27 2016
GPGPU-Sim uArch: cycles simulated: 406500  inst.: 7856352 (ipc=19.3) sim_rate=32198 (inst/sec) elapsed = 0:0:04:04 / Tue Mar 22 07:04:28 2016
GPGPU-Sim uArch: cycles simulated: 408500  inst.: 7890912 (ipc=19.3) sim_rate=32207 (inst/sec) elapsed = 0:0:04:05 / Tue Mar 22 07:04:29 2016
GPGPU-Sim PTX: 8000000 instructions simulated : ctaid=(3,1,0) tid=(159,0,0)
GPGPU-Sim uArch: cycles simulated: 410000  inst.: 7920704 (ipc=19.3) sim_rate=32197 (inst/sec) elapsed = 0:0:04:06 / Tue Mar 22 07:04:30 2016
GPGPU-Sim uArch: cycles simulated: 411500  inst.: 7942496 (ipc=19.3) sim_rate=32155 (inst/sec) elapsed = 0:0:04:07 / Tue Mar 22 07:04:31 2016
GPGPU-Sim uArch: cycles simulated: 413500  inst.: 7980832 (ipc=19.3) sim_rate=32180 (inst/sec) elapsed = 0:0:04:08 / Tue Mar 22 07:04:32 2016
GPGPU-Sim uArch: cycles simulated: 415000  inst.: 8006880 (ipc=19.3) sim_rate=32156 (inst/sec) elapsed = 0:0:04:09 / Tue Mar 22 07:04:33 2016
GPGPU-Sim PTX: 8100000 instructions simulated : ctaid=(7,1,0) tid=(95,0,0)
GPGPU-Sim uArch: cycles simulated: 417000  inst.: 8040864 (ipc=19.3) sim_rate=32163 (inst/sec) elapsed = 0:0:04:10 / Tue Mar 22 07:04:34 2016
GPGPU-Sim uArch: cycles simulated: 418500  inst.: 8067936 (ipc=19.3) sim_rate=32143 (inst/sec) elapsed = 0:0:04:11 / Tue Mar 22 07:04:35 2016
GPGPU-Sim uArch: cycles simulated: 420500  inst.: 8094592 (ipc=19.2) sim_rate=32121 (inst/sec) elapsed = 0:0:04:12 / Tue Mar 22 07:04:36 2016
GPGPU-Sim PTX: 8200000 instructions simulated : ctaid=(0,2,0) tid=(159,0,0)
GPGPU-Sim uArch: cycles simulated: 422000  inst.: 8126944 (ipc=19.3) sim_rate=32122 (inst/sec) elapsed = 0:0:04:13 / Tue Mar 22 07:04:37 2016
GPGPU-Sim uArch: cycles simulated: 423500  inst.: 8151264 (ipc=19.2) sim_rate=32091 (inst/sec) elapsed = 0:0:04:14 / Tue Mar 22 07:04:38 2016
GPGPU-Sim uArch: cycles simulated: 425500  inst.: 8184992 (ipc=19.2) sim_rate=32098 (inst/sec) elapsed = 0:0:04:15 / Tue Mar 22 07:04:39 2016
GPGPU-Sim uArch: cycles simulated: 427000  inst.: 8207136 (ipc=19.2) sim_rate=32059 (inst/sec) elapsed = 0:0:04:16 / Tue Mar 22 07:04:40 2016
GPGPU-Sim PTX: 8300000 instructions simulated : ctaid=(5,0,0) tid=(31,0,0)
GPGPU-Sim uArch: cycles simulated: 429000  inst.: 8243584 (ipc=19.2) sim_rate=32076 (inst/sec) elapsed = 0:0:04:17 / Tue Mar 22 07:04:41 2016
GPGPU-Sim uArch: cycles simulated: 430500  inst.: 8266144 (ipc=19.2) sim_rate=32039 (inst/sec) elapsed = 0:0:04:18 / Tue Mar 22 07:04:42 2016
GPGPU-Sim uArch: cycles simulated: 432500  inst.: 8300000 (ipc=19.2) sim_rate=32046 (inst/sec) elapsed = 0:0:04:19 / Tue Mar 22 07:04:43 2016
GPGPU-Sim PTX: 8400000 instructions simulated : ctaid=(4,0,0) tid=(95,0,0)
GPGPU-Sim uArch: cycles simulated: 434000  inst.: 8329472 (ipc=19.2) sim_rate=32036 (inst/sec) elapsed = 0:0:04:20 / Tue Mar 22 07:04:44 2016
GPGPU-Sim uArch: cycles simulated: 436000  inst.: 8367264 (ipc=19.2) sim_rate=32058 (inst/sec) elapsed = 0:0:04:21 / Tue Mar 22 07:04:45 2016
GPGPU-Sim uArch: cycles simulated: 437500  inst.: 8389792 (ipc=19.2) sim_rate=32022 (inst/sec) elapsed = 0:0:04:22 / Tue Mar 22 07:04:46 2016
GPGPU-Sim PTX: 8500000 instructions simulated : ctaid=(0,0,0) tid=(95,0,0)
GPGPU-Sim uArch: cycles simulated: 439500  inst.: 8427840 (ipc=19.2) sim_rate=32045 (inst/sec) elapsed = 0:0:04:23 / Tue Mar 22 07:04:47 2016
GPGPU-Sim uArch: cycles simulated: 441000  inst.: 8454912 (ipc=19.2) sim_rate=32026 (inst/sec) elapsed = 0:0:04:24 / Tue Mar 22 07:04:48 2016
GPGPU-Sim uArch: cycles simulated: 443000  inst.: 8486048 (ipc=19.2) sim_rate=32022 (inst/sec) elapsed = 0:0:04:25 / Tue Mar 22 07:04:49 2016
GPGPU-Sim uArch: cycles simulated: 444500  inst.: 8508864 (ipc=19.1) sim_rate=31988 (inst/sec) elapsed = 0:0:04:26 / Tue Mar 22 07:04:50 2016
GPGPU-Sim PTX: 8600000 instructions simulated : ctaid=(6,2,0) tid=(223,0,0)
GPGPU-Sim uArch: cycles simulated: 446500  inst.: 8541504 (ipc=19.1) sim_rate=31990 (inst/sec) elapsed = 0:0:04:27 / Tue Mar 22 07:04:51 2016
GPGPU-Sim uArch: cycles simulated: 448000  inst.: 8566816 (ipc=19.1) sim_rate=31965 (inst/sec) elapsed = 0:0:04:28 / Tue Mar 22 07:04:52 2016
GPGPU-Sim uArch: cycles simulated: 450000  inst.: 8595456 (ipc=19.1) sim_rate=31953 (inst/sec) elapsed = 0:0:04:29 / Tue Mar 22 07:04:53 2016
GPGPU-Sim uArch: cycles simulated: 451500  inst.: 8618848 (ipc=19.1) sim_rate=31921 (inst/sec) elapsed = 0:0:04:30 / Tue Mar 22 07:04:54 2016
GPGPU-Sim PTX: 8700000 instructions simulated : ctaid=(2,0,0) tid=(31,0,0)
GPGPU-Sim uArch: cycles simulated: 453500  inst.: 8651488 (ipc=19.1) sim_rate=31924 (inst/sec) elapsed = 0:0:04:31 / Tue Mar 22 07:04:55 2016
GPGPU-Sim uArch: cycles simulated: 455000  inst.: 8672096 (ipc=19.1) sim_rate=31882 (inst/sec) elapsed = 0:0:04:32 / Tue Mar 22 07:04:56 2016
GPGPU-Sim uArch: cycles simulated: 457000  inst.: 8706496 (ipc=19.1) sim_rate=31891 (inst/sec) elapsed = 0:0:04:33 / Tue Mar 22 07:04:57 2016
GPGPU-Sim PTX: 8800000 instructions simulated : ctaid=(10,1,0) tid=(95,0,0)
GPGPU-Sim uArch: cycles simulated: 458500  inst.: 8731680 (ipc=19.0) sim_rate=31867 (inst/sec) elapsed = 0:0:04:34 / Tue Mar 22 07:04:58 2016
GPGPU-Sim uArch: cycles simulated: 460500  inst.: 8759168 (ipc=19.0) sim_rate=31851 (inst/sec) elapsed = 0:0:04:35 / Tue Mar 22 07:04:59 2016
GPGPU-Sim uArch: cycles simulated: 462000  inst.: 8783680 (ipc=19.0) sim_rate=31824 (inst/sec) elapsed = 0:0:04:36 / Tue Mar 22 07:05:00 2016
GPGPU-Sim uArch: cycles simulated: 464000  inst.: 8816064 (ipc=19.0) sim_rate=31826 (inst/sec) elapsed = 0:0:04:37 / Tue Mar 22 07:05:01 2016
GPGPU-Sim PTX: 8900000 instructions simulated : ctaid=(10,0,0) tid=(95,0,0)
GPGPU-Sim uArch: cycles simulated: 465500  inst.: 8838304 (ipc=19.0) sim_rate=31792 (inst/sec) elapsed = 0:0:04:38 / Tue Mar 22 07:05:02 2016
GPGPU-Sim uArch: cycles simulated: 467500  inst.: 8871264 (ipc=19.0) sim_rate=31796 (inst/sec) elapsed = 0:0:04:39 / Tue Mar 22 07:05:03 2016
GPGPU-Sim uArch: cycles simulated: 469500  inst.: 8903392 (ipc=19.0) sim_rate=31797 (inst/sec) elapsed = 0:0:04:40 / Tue Mar 22 07:05:04 2016
GPGPU-Sim PTX: 9000000 instructions simulated : ctaid=(2,1,0) tid=(127,0,0)
GPGPU-Sim uArch: cycles simulated: 471000  inst.: 8931136 (ipc=19.0) sim_rate=31783 (inst/sec) elapsed = 0:0:04:41 / Tue Mar 22 07:05:05 2016
GPGPU-Sim uArch: cycles simulated: 473000  inst.: 8961760 (ipc=18.9) sim_rate=31779 (inst/sec) elapsed = 0:0:04:42 / Tue Mar 22 07:05:06 2016
GPGPU-Sim uArch: cycles simulated: 474500  inst.: 8986336 (ipc=18.9) sim_rate=31753 (inst/sec) elapsed = 0:0:04:43 / Tue Mar 22 07:05:07 2016
GPGPU-Sim PTX: 9100000 instructions simulated : ctaid=(6,1,0) tid=(31,0,0)
GPGPU-Sim uArch: cycles simulated: 476500  inst.: 9026688 (ipc=18.9) sim_rate=31784 (inst/sec) elapsed = 0:0:04:44 / Tue Mar 22 07:05:08 2016
GPGPU-Sim uArch: cycles simulated: 478000  inst.: 9047008 (ipc=18.9) sim_rate=31743 (inst/sec) elapsed = 0:0:04:45 / Tue Mar 22 07:05:09 2016
GPGPU-Sim uArch: cycles simulated: 480000  inst.: 9081024 (ipc=18.9) sim_rate=31751 (inst/sec) elapsed = 0:0:04:46 / Tue Mar 22 07:05:10 2016
GPGPU-Sim uArch: cycles simulated: 481500  inst.: 9100448 (ipc=18.9) sim_rate=31708 (inst/sec) elapsed = 0:0:04:47 / Tue Mar 22 07:05:11 2016
GPGPU-Sim PTX: 9200000 instructions simulated : ctaid=(7,0,0) tid=(223,0,0)
GPGPU-Sim uArch: cycles simulated: 483500  inst.: 9135360 (ipc=18.9) sim_rate=31720 (inst/sec) elapsed = 0:0:04:48 / Tue Mar 22 07:05:12 2016
GPGPU-Sim uArch: cycles simulated: 485000  inst.: 9159232 (ipc=18.9) sim_rate=31692 (inst/sec) elapsed = 0:0:04:49 / Tue Mar 22 07:05:13 2016
GPGPU-Sim uArch: cycles simulated: 487000  inst.: 9194400 (ipc=18.9) sim_rate=31704 (inst/sec) elapsed = 0:0:04:50 / Tue Mar 22 07:05:14 2016
GPGPU-Sim uArch: cycles simulated: 488500  inst.: 9216032 (ipc=18.9) sim_rate=31670 (inst/sec) elapsed = 0:0:04:51 / Tue Mar 22 07:05:15 2016
GPGPU-Sim PTX: 9300000 instructions simulated : ctaid=(6,0,0) tid=(223,0,0)
GPGPU-Sim uArch: cycles simulated: 490500  inst.: 9248704 (ipc=18.9) sim_rate=31673 (inst/sec) elapsed = 0:0:04:52 / Tue Mar 22 07:05:16 2016
GPGPU-Sim uArch: cycles simulated: 492500  inst.: 9277376 (ipc=18.8) sim_rate=31663 (inst/sec) elapsed = 0:0:04:53 / Tue Mar 22 07:05:17 2016
GPGPU-Sim uArch: cycles simulated: 494000  inst.: 9303424 (ipc=18.8) sim_rate=31644 (inst/sec) elapsed = 0:0:04:54 / Tue Mar 22 07:05:18 2016
GPGPU-Sim PTX: 9400000 instructions simulated : ctaid=(2,2,0) tid=(31,0,0)
GPGPU-Sim uArch: cycles simulated: 496000  inst.: 9334656 (ipc=18.8) sim_rate=31642 (inst/sec) elapsed = 0:0:04:55 / Tue Mar 22 07:05:19 2016
GPGPU-Sim uArch: cycles simulated: 497500  inst.: 9360160 (ipc=18.8) sim_rate=31622 (inst/sec) elapsed = 0:0:04:56 / Tue Mar 22 07:05:20 2016
GPGPU-Sim uArch: cycles simulated: 499500  inst.: 9396128 (ipc=18.8) sim_rate=31636 (inst/sec) elapsed = 0:0:04:57 / Tue Mar 22 07:05:21 2016
GPGPU-Sim PTX: 9500000 instructions simulated : ctaid=(1,1,0) tid=(31,0,0)
GPGPU-Sim uArch: cycles simulated: 501000  inst.: 9423968 (ipc=18.8) sim_rate=31624 (inst/sec) elapsed = 0:0:04:58 / Tue Mar 22 07:05:22 2016
GPGPU-Sim uArch: cycles simulated: 503000  inst.: 9456864 (ipc=18.8) sim_rate=31628 (inst/sec) elapsed = 0:0:04:59 / Tue Mar 22 07:05:23 2016
GPGPU-Sim uArch: cycles simulated: 504500  inst.: 9479872 (ipc=18.8) sim_rate=31599 (inst/sec) elapsed = 0:0:05:00 / Tue Mar 22 07:05:24 2016
GPGPU-Sim uArch: cycles simulated: 506500  inst.: 9518720 (ipc=18.8) sim_rate=31623 (inst/sec) elapsed = 0:0:05:01 / Tue Mar 22 07:05:25 2016
GPGPU-Sim PTX: 9600000 instructions simulated : ctaid=(6,1,0) tid=(223,0,0)
GPGPU-Sim uArch: cycles simulated: 508000  inst.: 9541408 (ipc=18.8) sim_rate=31594 (inst/sec) elapsed = 0:0:05:02 / Tue Mar 22 07:05:26 2016
GPGPU-Sim uArch: cycles simulated: 510000  inst.: 9577952 (ipc=18.8) sim_rate=31610 (inst/sec) elapsed = 0:0:05:03 / Tue Mar 22 07:05:27 2016
GPGPU-Sim uArch: cycles simulated: 511500  inst.: 9599840 (ipc=18.8) sim_rate=31578 (inst/sec) elapsed = 0:0:05:04 / Tue Mar 22 07:05:28 2016
GPGPU-Sim PTX: 9700000 instructions simulated : ctaid=(5,0,0) tid=(31,0,0)
GPGPU-Sim uArch: cycles simulated: 513500  inst.: 9635616 (ipc=18.8) sim_rate=31592 (inst/sec) elapsed = 0:0:05:05 / Tue Mar 22 07:05:29 2016
[...]
dram[5]:  1.220243  1.217595  1.217488  1.213377  1.216049  1.217754  1.216396  1.215347  1.218603  1.222443  1.221729  1.220105  1.214093  1.217080  1.217691  1.217841 
average row locality = 2789598/2303882 = 1.210825
number of total memory accesses made:
dram[0]:         0         0         0         0         0         0         0         0         0         0         0         0         0         0         0         0 
dram[1]:         0         0         0         0         0         0         0         0         0         0         0         0         0         0         0         0 
dram[2]:         0         0         0         0         0         0         0         0         0         0         0         0         0         0         0         0 
dram[3]:         0         0         0         0         0         0         0         0         0         0         0         0         0         0         0         0 
dram[4]:         0         0         0         0         0         0         0         0         0         0         0         0         0         0         0         0 
dram[5]:         0         0         0         0         0         0         0         0         0         0         0         0         0         0         0         0 
total accesses: 0
min_bank_accesses = 0!
min_chip_accesses = 0!
number of total read accesses:
dram[0]:     28586     28491     28431     28173     28757     28799     29920     29690     29832     29304     29039     28600     28424     28029     28620     28197 
dram[1]:     28728     28765     28224     28338     28712     28987     29609     29559     29736     29576     28916     28759     28285     28321     28424     28531 
dram[2]:     28783     29226     28734     29091     28834     29589     30128     30844     29788     30170     29119     29817     28755     29226     28789     29612 
dram[3]:     28964     28749     28144     28449     29113     29183     29630     30330     29989     29535     29016     29265     28717     28332     28326     28996 
dram[4]:     28658     28952     28371     28701     28901     29548     29921     30422     29511     30009     29006     29547     28463     28624     28407     28970 
dram[5]:     28918     28972     28488     27955     29156     29220     29927     29601     30119     29588     29429     28498     28737     28665     28721     28196 
total reads: 2787806
bank skew: 30844/27955 = 1.10
chip skew: 470505/460892 = 1.02
number of total write accesses:
dram[0]:        64        64         0         0         0         0         0         0         0         0         0         0        20        20        64        64 
dram[1]:        64        64         0         0         0         0         0         0         0         0         0         0        20        20        64        64 
dram[2]:        64        64         0         0         0         0         0         0         0         0         0         0        20        24        64        64 
dram[3]:        64        64         0         0         0         0         0         0         0         0         0         0        20        24        64        64 
dram[4]:        64        64         0         0         0         0         0         0         0         0         0         0        20        24        64        64 
dram[5]:        64        64         0         0         0         0         0         0         0         0         0         0        20        24        64        64 
total reads: 1792
min_bank_accesses = 0!
chip skew: 300/296 = 1.01
average mf latency per bank:
dram[0]:       4264      4424      5256      5616      4269      4427      4209      4326      4174      4408      4259      4452      4264      4481      4313      4508
dram[1]:       4355      4421      5586      5611      4414      4444      4345      4404      4297      4431      4382      4441      4408      4484      4446      4477
dram[2]:       4195      4297      5244      5445      4260      4292      4081      4200      4152      4207      4205      4264      4200      4305      4227      4252
dram[3]:       4304      4398      5542      5576      4366      4387      4307      4288      4274      4331      4336      4387      4355      4467      4441      4392
dram[4]:       4399      4193      5580      5041      4392      4156      4322      4067      4324      4132      4357      4151      4408      4241      4434      4212
dram[5]:       4323      3790      5492      3905      4326      3793      4261      3755      4223      3807      4240      3849      4330      3819      4357      3909
maximum mf latency per bank:
dram[0]:       1038      1036      1026      1066      1190      1052      1110      1046      1065      1054      1044      1064      1085       995      1006      1058
dram[1]:       1064       996      1014      1068      1010      1042      1018      1049      1133      1042      1084      1067      1022      1040      1047      1063
dram[2]:       1072      1113      1075      1065      1067      1078      1048      1020      1063      1139      1023      1067      1099      1066      1065      1180
dram[3]:       1080      1068      1084      1103      1096      1032      1055      1057      1070      1055      1042      1136      1068      1030      1073      1078
dram[4]:       1051      1012      1019      1071      1124      1022      1046      1017      1119      1060      1066      1048      1007      1017      1037      1071
dram[5]:       1012       964      1002       973      1067       940      1037      1014      1041       972      1046       987      1043       898      1004       971

Number of Memory Banks Accessed per Memory Operation per Warp (from 0):
0	0	0	0	0	0	0	0	0	0	0	0	0	0	0	0	0	0	0	0	0	0	0	0	0	0	0	0	0	0	0	0	0	0	0	0	0	0	0	0	0	0	0	0	0	0	0	0	0	0	0	0	0	0	0	0	0	0	0	0	0	0	0	0	0	0	0	0	0	0	0	0	0	0	0	0	0	0	0	0	0	0	0	0	0	0	0	0	0	0	0	0	0	0	0	0	
Average # of Memory Banks Accessed per Memory Operation per Warp=-nan

position of mrq chosen
0	0	0	0	0	0	0	0	0	0	0	0	0	0	0	0	

average position of mrq chosen = -nan
Memory Partition 0: 
Cache L2_bank_000:
MSHR contents

Cache L2_bank_001:
MSHR contents

In Dram Latency Queue (total = 0): 
DRAM[0]: 16 bks, busW=4 BL=8 CL=12, tRRD=2 tCCD=6, tRCD=12 tRAS=28 tRP=12 tRC=40
n_cmd=35865051 n_nop=34180077 n_act=381307 n_pre=381291 n_req=461188 n_rd=921784 n_write=592 bw_util=0.05144
n_activity=14099362 dram_eff=0.1308
bk0: 57172a 35123752i bk1: 56982a 35128066i bk2: 56862a 35127908i bk3: 56346a 35140695i bk4: 57514a 35118838i bk5: 57598a 35121745i bk6: 59840a 35088937i bk7: 59380a 35100315i bk8: 59664a 35093292i bk9: 58608a 35107256i bk10: 58078a 35111482i bk11: 57200a 35125886i bk12: 56848a 35127799i bk13: 56058a 35138916i bk14: 57240a 35117887i bk15: 56394a 35131067i 
dram_util_bins: 0 0 0 0 0 0 0 0 0 0
dram_eff_bins: 0 0 0 0 0 0 0 0 0 0
mrqq: max=16 avg=0.0123356
Memory Partition 1: 
Cache L2_bank_002:
MSHR contents

Cache L2_bank_003:
MSHR contents

In Dram Latency Queue (total = 0): 
DRAM[1]: 16 bks, busW=4 BL=8 CL=12, tRRD=2 tCCD=6, tRCD=12 tRAS=28 tRP=12 tRC=40
n_cmd=35865051 n_nop=34178761 n_act=381387 n_pre=381371 n_req=461766 n_rd=922940 n_write=592 bw_util=0.0515
n_activity=14153743 dram_eff=0.1305
bk0: 57456a 35124396i bk1: 57530a 35123744i bk2: 56448a 35136531i bk3: 56676a 35140250i bk4: 57424a 35122793i bk5: 57974a 35117851i bk6: 59218a 35100376i bk7: 59118a 35100810i bk8: 59472a 35097274i bk9: 59152a 35100842i bk10: 57832a 35116510i bk11: 57518a 35124957i bk12: 56570a 35131671i bk13: 56642a 35132173i bk14: 56848a 35126671i bk15: 57062a 35125358i 
dram_util_bins: 0 0 0 0 0 0 0 0 0 0
dram_eff_bins: 0 0 0 0 0 0 0 0 0 0
mrqq: max=16 avg=0.010541
Memory Partition 2: 
Cache L2_bank_004:
MSHR contents

Cache L2_bank_005:
MSHR contents

In Dram Latency Queue (total = 0): 
DRAM[2]: 16 bks, busW=4 BL=8 CL=12, tRRD=2 tCCD=6, tRCD=12 tRAS=28 tRP=12 tRC=40
n_cmd=35865051 n_nop=34144437 n_act=389510 n_pre=389494 n_req=470805 n_rd=941010 n_write=600 bw_util=0.05251
n_activity=14202130 dram_eff=0.1326
bk0: 57566a 35115613i bk1: 58452a 35107815i bk2: 57468a 35119024i bk3: 58182a 35112895i bk4: 57668a 35114153i bk5: 59178a 35099499i bk6: 60256a 35082830i bk7: 61688a 35063635i bk8: 59576a 35091343i bk9: 60340a 35080972i bk10: 58238a 35106955i bk11: 59634a 35092068i bk12: 57510a 35114533i bk13: 58452a 35104111i bk14: 57578a 35113432i bk15: 59224a 35091799i 
dram_util_bins: 0 0 0 0 0 0 0 0 0 0
dram_eff_bins: 0 0 0 0 0 0 0 0 0 0
mrqq: max=16 avg=0.0137485
Memory Partition 3: 
Cache L2_bank_006:
MSHR contents

Cache L2_bank_007:
MSHR contents

In Dram Latency Queue (total = 0): 
DRAM[3]: 16 bks, busW=4 BL=8 CL=12, tRRD=2 tCCD=6, tRCD=12 tRAS=28 tRP=12 tRC=40
n_cmd=35865051 n_nop=34167111 n_act=383940 n_pre=383924 n_req=465038 n_rd=929476 n_write=600 bw_util=0.05187
n_activity=14133697 dram_eff=0.1316
bk0: 57928a 35114239i bk1: 57498a 35123607i bk2: 56288a 35137017i bk3: 56898a 35133285i bk4: 58226a 35112858i bk5: 58366a 35116195i bk6: 59260a 35099026i bk7: 60660a 35080569i bk8: 59978a 35088052i bk9: 59070a 35101815i bk10: 58032a 35114545i bk11: 58530a 35108657i bk12: 57434a 35118246i bk13: 56664a 35130779i bk14: 56652a 35127897i bk15: 57992a 35115591i 
dram_util_bins: 0 0 0 0 0 0 0 0 0 0
dram_eff_bins: 0 0 0 0 0 0 0 0 0 0
mrqq: max=16 avg=0.0112081
Memory Partition 4: 
Cache L2_bank_008:
MSHR contents

Cache L2_bank_009:
MSHR contents

In Dram Latency Queue (total = 0): 
DRAM[4]: 16 bks, busW=4 BL=8 CL=12, tRRD=2 tCCD=6, tRCD=12 tRAS=28 tRP=12 tRC=40
n_cmd=35865051 n_nop=34159833 n_act=386306 n_pre=386290 n_req=466311 n_rd=932022 n_write=600 bw_util=0.05201
n_activity=14129268 dram_eff=0.132
bk0: 57316a 35119812i bk1: 57904a 35114589i bk2: 56742a 35130518i bk3: 57402a 35122831i bk4: 57802a 35114172i bk5: 59096a 35102095i bk6: 59842a 35088165i bk7: 60844a 35072876i bk8: 59022a 35094366i bk9: 60018a 35085175i bk10: 58012a 35110347i bk11: 59094a 35097392i bk12: 56926a 35122669i bk13: 57248a 35118190i bk14: 56814a 35123463i bk15: 57940a 35109548i 
dram_util_bins: 0 0 0 0 0 0 0 0 0 0
dram_eff_bins: 0 0 0 0 0 0 0 0 0 0
mrqq: max=16 avg=0.0124356
Memory Partition 5: 
Cache L2_bank_010:
MSHR contents

Cache L2_bank_011:
MSHR contents
MSHR: tag=0x81e4b380, atomic=0 1 entries : 0x7f79eb9153f0 :  mf: uid=395067651, sid09:w15, part=5, addr=0x81e4b380, load , size=128, unknown  status = IN_PARTITION_DRAM (27170492), 

In Dram Latency Queue (total = 0): 
DRAM[5]: 16 bks, busW=4 BL=8 CL=12, tRRD=2 tCCD=6, tRCD=12 tRAS=28 tRP=12 tRC=40
n_cmd=35865051 n_nop=34173221 n_act=381433 n_pre=381417 n_req=464490 n_rd=928380 n_write=600 bw_util=0.0518
n_activity=14061480 dram_eff=0.1321
bk0: 57836a 35122556i bk1: 57944a 35121830i bk2: 56976a 35133664i bk3: 55910a 35148955i bk4: 58312a 35116519i bk5: 58440a 35116722i bk6: 59854a 35092756i bk7: 59202a 35102522i bk8: 60238a 35089909i bk9: 59176a 35106518i bk10: 58858a 35106574i bk11: 56996a 35133284i bk12: 57474a 35122488i bk13: 57330a 35128517i bk14: 57442a 35124281i bk15: 56392a 35139049i 
dram_util_bins: 0 0 0 0 0 0 0 0 0 0
dram_eff_bins: 0 0 0 0 0 0 0 0 0 0
mrqq: max=16 avg=0.0104778

========= L2 cache stats =========
L2_cache_bank[0]: Access = 2819132, Miss = 231609, Miss_rate = 0.082, Pending_hits = 14, Reservation_fails = 1947
L2_cache_bank[1]: Access = 2824490, Miss = 229283, Miss_rate = 0.081, Pending_hits = 4, Reservation_fails = 1580
L2_cache_bank[2]: Access = 2830609, Miss = 230634, Miss_rate = 0.081, Pending_hits = 17, Reservation_fails = 214
L2_cache_bank[3]: Access = 2834596, Miss = 230836, Miss_rate = 0.081, Pending_hits = 6, Reservation_fails = 0
L2_cache_bank[4]: Access = 2828043, Miss = 232930, Miss_rate = 0.082, Pending_hits = 10, Reservation_fails = 975
L2_cache_bank[5]: Access = 2838189, Miss = 237575, Miss_rate = 0.084, Pending_hits = 3, Reservation_fails = 1635
L2_cache_bank[6]: Access = 2830557, Miss = 231899, Miss_rate = 0.082, Pending_hits = 7, Reservation_fails = 0
L2_cache_bank[7]: Access = 2824160, Miss = 232839, Miss_rate = 0.082, Pending_hits = 6, Reservation_fails = 0
L2_cache_bank[8]: Access = 2832553, Miss = 231238, Miss_rate = 0.082, Pending_hits = 7, Reservation_fails = 202
L2_cache_bank[9]: Access = 2810537, Miss = 234773, Miss_rate = 0.084, Pending_hits = 1, Reservation_fails = 279
L2_cache_bank[10]: Access = 2831200, Miss = 233495, Miss_rate = 0.082, Pending_hits = 8, Reservation_fails = 0
L2_cache_bank[11]: Access = 2745909, Miss = 230695, Miss_rate = 0.084, Pending_hits = 0, Reservation_fails = 0
L2_total_cache_accesses = 33849975
L2_total_cache_misses = 2787806
L2_total_cache_miss_rate = 0.0824
L2_total_cache_pending_hits = 83
L2_total_cache_reservation_fails = 6832
L2_total_cache_breakdown:
	L2_cache_stats_breakdown[GLOBAL_ACC_R][HIT] = 31062021
	L2_cache_stats_breakdown[GLOBAL_ACC_R][HIT_RESERVED] = 68
	L2_cache_stats_breakdown[GLOBAL_ACC_R][MISS] = 2786004
	L2_cache_stats_breakdown[GLOBAL_ACC_R][RESERVATION_FAIL] = 6410
	L2_cache_stats_breakdown[CONST_ACC_R][HIT] = 11
	L2_cache_stats_breakdown[CONST_ACC_R][HIT_RESERVED] = 3
	L2_cache_stats_breakdown[CONST_ACC_R][MISS] = 1
	L2_cache_stats_breakdown[CONST_ACC_R][RESERVATION_FAIL] = 94
	L2_cache_stats_breakdown[GLOBAL_ACC_W][MISS] = 1792
	L2_cache_stats_breakdown[INST_ACC_R][HIT] = 54
	L2_cache_stats_breakdown[INST_ACC_R][HIT_RESERVED] = 12
	L2_cache_stats_breakdown[INST_ACC_R][MISS] = 9
	L2_cache_stats_breakdown[INST_ACC_R][RESERVATION_FAIL] = 328
L2_cache_data_port_util = 0.381
L2_cache_fill_port_util = 0.034

icnt_total_pkts_mem_to_simt=169242677
icnt_total_pkts_simt_to_mem=33857143
LD_mem_lat_dist  0 0 0 0 0 0 0 0 0 0 0 0 0 0 0 0 0 0 0 0 0 0 0 0 0 0 0
ST_mem_lat_dist  0 0 0 0 0 0 0 0 0 0 0 0 0 0 0 0 0 0 0 0 0 0 0 0 0 0 0
----------------------------Interconnect-DETAILS--------------------------------
Class 0:
Packet latency average = 44.1066
	minimum = 6
	maximum = 597
Network latency average = 32.2587
	minimum = 6
	maximum = 559
Slowest packet = 34293422
Flit latency average = 19.9228
	minimum = 6
	maximum = 559
Slowest flit = 126142110
Fragmentation average = 0.000130557
	minimum = 0
	maximum = 357
Injected packet rate average = 0.0923029
	minimum = 0.0772062 (at node 13)
	maximum = 0.104491 (at node 20)
Accepted packet rate average = 0.0923029
	minimum = 0.0772062 (at node 13)
	maximum = 0.104491 (at node 20)
Injected flit rate average = 0.276909
	minimum = 0.0772227 (at node 13)
	maximum = 0.522431 (at node 20)
Accepted flit rate average= 0.276909
	minimum = 0.101112 (at node 26)
	maximum = 0.447734 (at node 7)
Injected packet length average = 3
Accepted packet length average = 3
Total in-flight flits = 0 (0 measured)
====== Overall Traffic Statistics ======
====== Traffic class 0 ======
Packet latency average = 44.0349 (2 samples)
	minimum = 6 (2 samples)
	maximum = 586.5 (2 samples)
Network latency average = 32.212 (2 samples)
	minimum = 6 (2 samples)
	maximum = 548.5 (2 samples)
Flit latency average = 19.9084 (2 samples)
	minimum = 6 (2 samples)
	maximum = 548.5 (2 samples)
Fragmentation average = 0.000116997 (2 samples)
	minimum = 0 (2 samples)
	maximum = 399 (2 samples)
Injected packet rate average = 0.0922841 (2 samples)
	minimum = 0.0772562 (2 samples)
	maximum = 0.104458 (2 samples)
Accepted packet rate average = 0.0922841 (2 samples)
	minimum = 0.0772562 (2 samples)
	maximum = 0.104458 (2 samples)
Injected flit rate average = 0.276852 (2 samples)
	minimum = 0.0772727 (2 samples)
	maximum = 0.52227 (2 samples)
Accepted flit rate average = 0.276852 (2 samples)
	minimum = 0.101085 (2 samples)
	maximum = 0.447381 (2 samples)
Injected packet size average = 3 (2 samples)
Accepted packet size average = 3 (2 samples)
Hops average = 1 (2 samples)
----------------------------END-of-Interconnect-DETAILS-------------------------


gpgpu_simulation_time = 0 days, 3 hrs, 36 min, 51 sec (13011 sec)
gpgpu_simulation_rate = 37036 (inst/sec)
gpgpu_simulation_rate = 2088 (cycle/sec)
GPGPU-Sim API: Stream Manager State
GPGPU-Sim: detected inactive GPU simulation thread
iterated 2 times

================= Centroid Coordinates =================
0: 1.23 613.61 527.61 0.00 0.00 0.01 0.00 0.00 0.00 0.00 0.03 0.01 0.00 0.00 0.00 8.15 11.06 0.00 0.00 0.00 0.00 0.99 0.01 0.22 139.44 193.37 0.83 0.02 0.06 0.01 0.00 0.00 0.00 0.00 1.00 1.23 613.61 527.61 0.00 0.00 0.01 0.00 0.00 0.00 0.00 0.03 0.01 0.00 0.00 0.00 8.15 11.06 0.00 0.00 0.00 0.00 0.99 0.01 0.22 139.44 193.37 0.83 0.02 0.06 0.01 0.00 0.00 0.00 0.00 1.23 613.61 527.61 0.00 0.00 0.01 0.00 0.00 0.00 0.00 0.03 0.01 0.00 0.00 0.00 8.15 11.06 0.00 0.00 0.00 0.00 0.99 0.01 0.22 139.44 193.37 0.83 0.02 0.06 0.01 0.00 0.00 0.00 0.00 1.00 1.23 613.61 527.61 0.00 0.00 0.01 0.00 0.00 0.00 0.00 0.03 0.01 0.00 0.00 0.00 8.15 11.06 0.00 0.00 0.00 0.00 0.99 0.01 0.22 139.44 193.37 0.83 0.02 0.06 0.01 0.00 0.00 0.00 0.00

1: 1.45 15177.44 214.67 0.00 0.00 0.01 0.00 0.00 0.00 0.00 0.00 0.02 0.01 0.02 0.00 4.59 5.07 0.00 0.01 0.00 0.00 0.98 0.03 0.25 129.85 98.10 0.52 0.05 0.20 0.01 0.00 0.00 0.00 0.00 1.00 1.45 15177.44 214.67 0.00 0.00 0.01 0.00 0.00 0.00 0.00 0.00 0.02 0.01 0.02 0.00 4.59 5.07 0.00 0.01 0.00 0.00 0.98 0.03 0.25 129.85 98.10 0.52 0.05 0.20 0.01 0.00 0.00 0.00 0.00 1.45 15177.44 214.67 0.00 0.00 0.01 0.00 0.00 0.00 0.00 0.00 0.02 0.01 0.02 0.00 4.59 5.07 0.00 0.01 0.00 0.00 0.98 0.03 0.25 129.85 98.10 0.52 0.05 0.20 0.01 0.00 0.00 0.00 0.00 1.00 1.45 15177.44 214.67 0.00 0.00 0.01 0.00 0.00 0.00 0.00 0.00 0.02 0.01 0.02 0.00 4.59 5.07 0.00 0.01 0.00 0.00 0.98 0.03 0.25 129.85 98.10 0.52 0.05 0.20 0.01 0.00 0.00 0.00 0.00

2: 3.74 600.16 40.36 0.01 0.00 0.00 0.00 0.00 0.00 0.00 0.00 0.00 0.00 0.00 0.00 338.62 287.90 0.24 0.24 0.03 0.03 0.75 0.04 0.03 240.64 180.98 0.72 0.05 0.58 0.00 0.24 0.24 0.03 0.03 1.00 3.74 600.16 40.36 0.01 0.00 0.00 0.00 0.00 0.00 0.00 0.00 0.00 0.00 0.00 0.00 338.62 287.90 0.24 0.24 0.03 0.03 0.75 0.04 0.03 240.64 180.98 0.72 0.05 0.58 0.00 0.24 0.24 0.03 0.03 3.74 600.16 40.36 0.01 0.00 0.00 0.00 0.00 0.00 0.00 0.00 0.00 0.00 0.00 0.00 338.62 287.90 0.24 0.24 0.03 0.03 0.75 0.04 0.03 240.64 180.98 0.72 0.05 0.58 0.00 0.24 0.24 0.03 0.03 1.00 3.74 600.16 40.36 0.01 0.00 0.00 0.00 0.00 0.00 0.00 0.00 0.00 0.00 0.00 0.00 338.62 287.90 0.24 0.24 0.03 0.03 0.75 0.04 0.03 240.64 180.98 0.72 0.05 0.58 0.00 0.24 0.24 0.03 0.03

3: 21.48 303.12 20528.08 0.00 0.00 0.03 0.00 0.16 0.00 0.00 0.17 0.01 0.00 0.00 0.00 7.59 11.10 0.00 0.01 0.00 0.00 1.00 0.00 0.13 130.51 246.12 0.99 0.00 0.06 0.02 0.00 0.00 0.00 0.00 1.00 21.48 303.12 20528.08 0.00 0.00 0.03 0.00 0.16 0.00 0.00 0.17 0.01 0.00 0.00 0.00 7.59 11.10 0.00 0.01 0.00 0.00 1.00 0.00 0.13 130.51 246.12 0.99 0.00 0.06 0.02 0.00 0.00 0.00 0.00 21.48 303.12 20528.08 0.00 0.00 0.03 0.00 0.16 0.00 0.00 0.17 0.01 0.00 0.00 0.00 7.59 11.10 0.00 0.01 0.00 0.00 1.00 0.00 0.13 130.51 246.12 0.99 0.00 0.06 0.02 0.00 0.00 0.00 0.00 1.00 21.48 303.12 20528.08 0.00 0.00 0.03 0.00 0.16 0.00 0.00 0.17 0.01 0.00 0.00 0.00 7.59 11.10 0.00 0.01 0.00 0.00 1.00 0.00 0.13 130.51 246.12 0.99 0.00 0.06 0.02 0.00 0.00 0.00 0.00

4: 0.31 264.14 2561.85 0.00 0.00 0.06 0.00 0.00 0.00 0.00 0.00 0.00 0.00 0.01 0.00 9.81 13.92 0.00 0.00 0.00 0.00 1.00 0.00 0.10 132.64 245.89 0.99 0.00 0.05 0.02 0.00 0.00 0.00 0.00 1.00 0.31 264.14 2561.85 0.00 0.00 0.06 0.00 0.00 0.00 0.00 0.00 0.00 0.00 0.01 0.00 9.81 13.92 0.00 0.00 0.00 0.00 1.00 0.00 0.10 132.64 245.89 0.99 0.00 0.05 0.02 0.00 0.00 0.00 0.00 0.31 264.14 2561.85 0.00 0.00 0.06 0.00 0.00 0.00 0.00 0.00 0.00 0.00 0.01 0.00 9.81 13.92 0.00 0.00 0.00 0.00 1.00 0.00 0.10 132.64 245.89 0.99 0.00 0.05 0.02 0.00 0.00 0.00 0.00 1.00 0.31 264.14 2561.85 0.00 0.00 0.06 0.00 0.00 0.00 0.00 0.00 0.00 0.00 0.01 0.00 9.81 13.92 0.00 0.00 0.00 0.00 1.00 0.00 0.10 132.64 245.89 0.99 0.00 0.05 0.02 0.00 0.00 0.00 0.00

Number of Iteration: 1
Time for I/O: 0.00000sec
Time for Entire Clustering: 0.00000sec
Root Mean Squared Error: 55443.000
