

        *** GPGPU-Sim Simulator Version 3.2.2  [build 0] ***


GPGPU-Sim PTX: simulation mode 0 (can change with PTX_SIM_MODE_FUNC environment variable:
               1=functional simulation only, 0=detailed performance simulator)
GPGPU-Sim: Configuration options:

-network_mode                           1 # Interconnection network mode
-inter_config_file   config_fermi_islip.icnt # Interconnection network config file
-gpgpu_ptx_use_cuobjdump                    1 # Use cuobjdump to extract ptx and sass from binaries
-gpgpu_experimental_lib_support                    0 # Try to extract code from cuda libraries [Broken because of unknown cudaGetExportTable]
-gpgpu_ptx_convert_to_ptxplus                    0 # Convert SASS (native ISA) to ptxplus and run ptxplus
-gpgpu_ptx_force_max_capability                   20 # Force maximum compute capability
-gpgpu_ptx_inst_debug_to_file                    0 # Dump executed instructions' debug information to file
-gpgpu_ptx_inst_debug_file       inst_debug.txt # Executed instructions' debug output file
-gpgpu_ptx_inst_debug_thread_uid                    1 # Thread UID for executed instructions' debug output
-gpgpu_simd_model                       1 # 1 = post-dominator
-gpgpu_shader_core_pipeline              1536:32 # shader core pipeline config, i.e., {<nthread>:<warpsize>}
-gpgpu_tex_cache:l1  4:128:24,L:R:m:N:L,F:128:4,128:2 # per-shader L1 texture cache  (READ-ONLY) config  {<nsets>:<bsize>:<assoc>,<rep>:<wr>:<alloc>:<wr_alloc>,<mshr>:<N>:<merge>,<mq>:<rf>}
-gpgpu_const_cache:l1 64:64:2,L:R:f:N:L,A:2:32,4 # per-shader L1 constant memory cache  (READ-ONLY) config  {<nsets>:<bsize>:<assoc>,<rep>:<wr>:<alloc>:<wr_alloc>,<mshr>:<N>:<merge>,<mq>} 
-gpgpu_cache:il1     4:128:4,L:R:f:N:L,A:2:32,4 # shader L1 instruction cache config  {<nsets>:<bsize>:<assoc>,<rep>:<wr>:<alloc>:<wr_alloc>,<mshr>:<N>:<merge>,<mq>} 
-gpgpu_cache:dl1     32:128:4,L:L:m:N:H,A:32:8,8:2,0,1:0:1:1:0:1,1:4:8:16:32:64,/sciclone/data10/hwang07/GPU_RESEARCH/swl/swl_outputs/RESULTS/swl2/ # per-shader L1 data cache config  {<nsets>:<bsize>:<assoc>,<rep>:<wr>:<alloc>:<wr_alloc>,<mshr>:<N>:<merge>,<mq> | none}
-gpgpu_cache:dl1PrefL1                 none # per-shader L1 data cache config  {<nsets>:<bsize>:<assoc>,<rep>:<wr>:<alloc>:<wr_alloc>,<mshr>:<N>:<merge>,<mq> | none}
-gpgpu_cache:dl1PreShared                 none # per-shader L1 data cache config  {<nsets>:<bsize>:<assoc>,<rep>:<wr>:<alloc>:<wr_alloc>,<mshr>:<N>:<merge>,<mq> | none}
-gmem_skip_L1D                          0 # global memory access skip L1D cache (implements -Xptxas -dlcm=cg, default=no skip)
-gpgpu_perfect_mem                      0 # enable perfect memory mode (no cache miss)
-n_regfile_gating_group                    4 # group of lanes that should be read/written together)
-gpgpu_clock_gated_reg_file                    0 # enable clock gated reg file for power calculations
-gpgpu_clock_gated_lanes                    0 # enable clock gated lanes for power calculations
-gpgpu_shader_registers                32768 # Number of registers per shader core. Limits number of concurrent CTAs. (default 8192)
-gpgpu_shader_cta                       8 # Maximum number of concurrent CTAs in shader (default 8)
-gpgpu_num_cta_barriers                   16 # Maximum number of named barriers per CTA (default 16)
-gpgpu_n_clusters                      15 # number of processing clusters
-gpgpu_n_cores_per_cluster                    1 # number of simd cores per cluster
-gpgpu_n_cluster_ejection_buffer_size                    8 # number of packets in ejection buffer
-gpgpu_n_ldst_response_buffer_size                    2 # number of response packets in ld/st unit ejection buffer
-gpgpu_shmem_size                   16384 # Size of shared memory per shader core (default 16kB)
-gpgpu_shmem_size                   49152 # Size of shared memory per shader core (default 16kB)
-gpgpu_shmem_size_PrefL1                16384 # Size of shared memory per shader core (default 16kB)
-gpgpu_shmem_size_PrefShared                16384 # Size of shared memory per shader core (default 16kB)
-gpgpu_shmem_num_banks                   32 # Number of banks in the shared memory in each shader core (default 16)
-gpgpu_shmem_limited_broadcast                    0 # Limit shared memory to do one broadcast per cycle (default on)
-gpgpu_shmem_warp_parts                    1 # Number of portions a warp is divided into for shared memory bank conflict check 
-gpgpu_warpdistro_shader                   -1 # Specify which shader core to collect the warp size distribution from
-gpgpu_warp_issue_shader                    0 # Specify which shader core to collect the warp issue distribution from
-gpgpu_local_mem_map                    1 # Mapping from local memory space address to simulated GPU physical address space (default = enabled)
-gpgpu_num_reg_banks                   16 # Number of register banks (default = 8)
-gpgpu_reg_bank_use_warp_id                    0 # Use warp ID in mapping registers to banks (default = off)
-gpgpu_operand_collector_num_units_sp                    6 # number of collector units (default = 4)
-gpgpu_operand_collector_num_units_sfu                    8 # number of collector units (default = 4)
-gpgpu_operand_collector_num_units_mem                    2 # number of collector units (default = 2)
-gpgpu_operand_collector_num_units_gen                    0 # number of collector units (default = 0)
-gpgpu_operand_collector_num_in_ports_sp                    2 # number of collector unit in ports (default = 1)
-gpgpu_operand_collector_num_in_ports_sfu                    1 # number of collector unit in ports (default = 1)
-gpgpu_operand_collector_num_in_ports_mem                    1 # number of collector unit in ports (default = 1)
-gpgpu_operand_collector_num_in_ports_gen                    0 # number of collector unit in ports (default = 0)
-gpgpu_operand_collector_num_out_ports_sp                    2 # number of collector unit in ports (default = 1)
-gpgpu_operand_collector_num_out_ports_sfu                    1 # number of collector unit in ports (default = 1)
-gpgpu_operand_collector_num_out_ports_mem                    1 # number of collector unit in ports (default = 1)
-gpgpu_operand_collector_num_out_ports_gen                    0 # number of collector unit in ports (default = 0)
-gpgpu_coalesce_arch                   13 # Coalescing arch (default = 13, anything else is off for now)
-gpgpu_num_sched_per_core                    2 # Number of warp schedulers per core
-gpgpu_max_insn_issue_per_warp                    1 # Max number of instructions that can be issued per warp in one cycle by scheduler
-gpgpu_simt_core_sim_order                    1 # Select the simulation order of cores in a cluster (0=Fix, 1=Round-Robin)
-gpgpu_pipeline_widths        2,1,1,2,1,1,2 # Pipeline widths ID_OC_SP,ID_OC_SFU,ID_OC_MEM,OC_EX_SP,OC_EX_SFU,OC_EX_MEM,EX_WB
-gpgpu_num_sp_units                     2 # Number of SP units (default=1)
-gpgpu_num_sfu_units                    1 # Number of SF units (default=1)
-gpgpu_num_mem_units                    1 # Number if ldst units (default=1) WARNING: not hooked up to anything
-gpgpu_scheduler        warp_limiting:2:2 # Scheduler configuration: < lrr | gto | two_level_active > If two_level_active:<num_active_warps>:<inner_prioritization>:<outer_prioritization>For complete list of prioritization values see shader.h enum scheduler_prioritization_typeDefault: gto
-gpgpu_dram_scheduler                    1 # 0 = fifo, 1 = FR-FCFS (defaul)
-gpgpu_dram_partition_queues              8:8:8:8 # i2$:$2d:d2$:$2i
-l2_ideal                               0 # Use a ideal L2 cache that always hit
-gpgpu_cache:dl2     64:128:8,L:B:m:W:L,A:32:4,4:0,32 # unified banked L2 data cache config  {<nsets>:<bsize>:<assoc>,<rep>:<wr>:<alloc>:<wr_alloc>,<mshr>:<N>:<merge>,<mq>}
-gpgpu_cache:dl2_texture_only                    0 # L2 cache used for texture only
-gpgpu_n_mem                            6 # number of memory modules (e.g. memory controllers) in gpu
-gpgpu_n_sub_partition_per_mchannel                    2 # number of memory subpartition in each memory module
-gpgpu_n_mem_per_ctrlr                    2 # number of memory chips per memory controller
-gpgpu_memlatency_stat                   14 # track and display latency statistics 0x2 enables MC, 0x4 enables queue logs
-gpgpu_frfcfs_dram_sched_queue_size                   16 # 0 = unlimited (default); # entries per chip
-gpgpu_dram_return_queue_size                  116 # 0 = unlimited (default); # entries per chip
-gpgpu_dram_buswidth                    4 # default = 4 bytes (8 bytes per cycle at DDR)
-gpgpu_dram_burst_length                    8 # Burst length of each DRAM request (default = 4 data bus cycle)
-dram_data_command_freq_ratio                    4 # Frequency ratio between DRAM data bus and command bus (default = 2 times, i.e. DDR)
-gpgpu_dram_timing_opt nbk=16:CCD=2:RRD=6:RCD=12:RAS=28:RP=12:RC=40: CL=12:WL=4:CDLR=5:WR=12:nbkgrp=4:CCDL=3:RTPL=2 # DRAM timing parameters = {nbk:tCCD:tRRD:tRCD:tRAS:tRP:tRC:CL:WL:tCDLR:tWR:nbkgrp:tCCDL:tRTPL}
-rop_latency                          120 # ROP queue latency (default 85)
-dram_latency                         100 # DRAM latency (default 30)
-gpgpu_mem_addr_mapping dramid@8;00000000.00000000.00000000.00000000.0000RRRR.RRRRRRRR.BBBCCCCB.CCSSSSSS # mapping memory address to dram model {dramid@<start bit>;<memory address map>}
-gpgpu_mem_addr_test                    0 # run sweep test to check address mapping for aliased address
-gpgpu_mem_address_mask                    1 # 0 = old addressing mask, 1 = new addressing mask, 2 = new add. mask + flipped bank sel and chip sel bits
-gpuwattch_xml_file  gpuwattch_gtx480.xml # GPUWattch XML file
-power_simulation_enabled                    0 # Turn on power simulator (1=On, 0=Off)
-power_per_cycle_dump                    0 # Dump detailed power output each cycle
-power_trace_enabled                    0 # produce a file for the power trace (1=On, 0=Off)
-power_trace_zlevel                     6 # Compression level of the power trace output log (0=no comp, 9=highest)
-steady_power_levels_enabled                    0 # produce a file for the steady power levels (1=On, 0=Off)
-steady_state_definition                  8:4 # allowed deviation:number of samples
-gpgpu_max_cycle                        0 # terminates gpu simulation early (0 = no limit)
-gpgpu_max_insn                         0 # terminates gpu simulation early (0 = no limit)
-gpgpu_max_cta                          0 # terminates gpu simulation early (0 = no limit)
-gpgpu_runtime_stat                   500 # display runtime statistics such as dram utilization {<freq>:<flag>}
-liveness_message_freq                    1 # Minimum number of seconds between simulation liveness messages (0 = always print)
-gpgpu_flush_l1_cache                    0 # Flush L1 cache at the end of each kernel call
-gpgpu_flush_l2_cache                    0 # Flush L2 cache at the end of each kernel call
-gpgpu_deadlock_detect                    1 # Stop the simulation at deadlock (1=on (default), 0=off)
-gpgpu_ptx_instruction_classification                    0 # if enabled will classify ptx instruction types per kernel (Max 255 kernels now)
-gpgpu_ptx_sim_mode                     0 # Select between Performance (default) or Functional simulation (1)
-gpgpu_clock_domains 700.0:700.0:700.0:924.0 # Clock Domain Frequencies in MhZ {<Core Clock>:<ICNT Clock>:<L2 Clock>:<DRAM Clock>}
-gpgpu_max_concurrent_kernel                    8 # maximum kernels that can run concurrently on GPU
-gpgpu_cflog_interval                    0 # Interval between each snapshot in control flow logger
-visualizer_enabled                     0 # Turn on visualizer output (1=On, 0=Off)
-visualizer_outputfile                 NULL # Specifies the output log file for visualizer
-visualizer_zlevel                      6 # Compression level of the visualizer output log (0=no comp, 9=highest)
-trace_enabled                          0 # Turn on traces
-trace_components                    none # comma seperated list of traces to enable. Complete list found in trace_streams.tup. Default none
-trace_sampling_core                    0 # The core which is printed using CORE_DPRINTF. Default 0
-trace_sampling_memory_partition                   -1 # The memory partition which is printed using MEMPART_DPRINTF. Default -1 (i.e. all)
-enable_ptx_file_line_stats                    1 # Turn on PTX source line statistic profiling. (1 = On)
-ptx_line_stats_filename gpgpu_inst_stats.txt # Output file for PTX source line statistics.
-save_embedded_ptx                      0 # saves ptx files embedded in binary as <n>.ptx
-keep                                   0 # keep intermediate files created by GPGPU-Sim when interfacing with external programs
-gpgpu_ptx_save_converted_ptxplus                    0 # Saved converted ptxplus to a file
-ptx_opcode_latency_int         4,13,4,5,145 # Opcode latencies for integers <ADD,MAX,MUL,MAD,DIV>Default 1,1,19,25,145
-ptx_opcode_latency_fp          4,13,4,5,39 # Opcode latencies for single precision floating points <ADD,MAX,MUL,MAD,DIV>Default 1,1,1,1,30
-ptx_opcode_latency_dp         8,19,8,8,330 # Opcode latencies for double precision floating points <ADD,MAX,MUL,MAD,DIV>Default 8,8,8,8,335
-ptx_opcode_initiation_int            1,2,2,1,8 # Opcode initiation intervals for integers <ADD,MAX,MUL,MAD,DIV>Default 1,1,4,4,32
-ptx_opcode_initiation_fp            1,2,1,1,4 # Opcode initiation intervals for single precision floating points <ADD,MAX,MUL,MAD,DIV>Default 1,1,1,1,5
-ptx_opcode_initiation_dp         8,16,8,8,130 # Opcode initiation intervals for double precision floating points <ADD,MAX,MUL,MAD,DIV>Default 8,8,8,8,130
DRAM Timing Options:
nbk                                    16 # number of banks
CCD                                     2 # column to column delay
RRD                                     6 # minimal delay between activation of rows in different banks
RCD                                    12 # row to column delay
RAS                                    28 # time needed to activate row
RP                                     12 # time needed to precharge (deactivate) row
RC                                     40 # row cycle time
CDLR                                    5 # switching from write to read (changes tWTR)
WR                                     12 # last data-in to row precharge
CL                                     12 # CAS latency
WL                                      4 # Write latency
nbkgrp                                  4 # number of bank groups
CCDL                                    3 # column to column delay between accesses to different bank groups
RTPL                                    2 # read to precharge delay between accesses to different bank groups
Total number of memory sub partition = 12
addr_dec_mask[CHIP]  = 0000000000000000 	high:64 low:0
addr_dec_mask[BK]    = 000000000000e100 	high:16 low:8
addr_dec_mask[ROW]   = 000000000fff0000 	high:28 low:16
addr_dec_mask[COL]   = 0000000000001eff 	high:13 low:0
addr_dec_mask[BURST] = 000000000000003f 	high:6 low:0
sub_partition_id_mask = 0000000000000100
GPGPU-Sim uArch: clock freqs: 700000000.000000:700000000.000000:700000000.000000:924000000.000000
GPGPU-Sim uArch: clock periods: 0.00000000142857142857:0.00000000142857142857:0.00000000142857142857:0.00000000108225108225
*** Initializing Memory Statistics ***
GPGPU-Sim uArch: interconnect node map (shaderID+MemID to icntID)
GPGPU-Sim uArch: Memory nodes ID start from index: 15
GPGPU-Sim uArch:    0   1   2   3   4
GPGPU-Sim uArch:    5   6   7   8   9
GPGPU-Sim uArch:   10  11  12  13  14
GPGPU-Sim uArch:   15  16  17  18  19
GPGPU-Sim uArch:   20  21  22  23  24
GPGPU-Sim uArch:   25  26
GPGPU-Sim uArch: interconnect node reverse map (icntID to shaderID+MemID)
GPGPU-Sim uArch: Memory nodes start from ID: 15
GPGPU-Sim uArch:    0   1   2   3   4
GPGPU-Sim uArch:    5   6   7   8   9
GPGPU-Sim uArch:   10  11  12  13  14
GPGPU-Sim uArch:   15  16  17  18  19
GPGPU-Sim uArch:   20  21  22  23  24
GPGPU-Sim uArch:   25  26
a5bfea9a69faaeaeb73abbaec6868abd  /sciclone/data10/hwang07/adwait/applications/benchmarks/rodinia/cuda/streamcluster/gpgpu_ptx_sim__streamcluster
GPGPU-Sim uArch: performance model initialization complete.
GPGPU-Sim PTX: __cudaRegisterFatBinary, fat_cubin_handle = 1, filename=streamcluster_cuda.cu
self exe links to: /sciclone/data10/hwang07/adwait/applications/benchmarks/rodinia/cuda/streamcluster/gpgpu_ptx_sim__streamcluster
Running md5sum using "md5sum /sciclone/data10/hwang07/adwait/applications/benchmarks/rodinia/cuda/streamcluster/gpgpu_ptx_sim__streamcluster "
Parsing file _cuobjdump_complete_output_uNgKIy
######### cuobjdump parser ########
## Adding new section ELF
Adding arch: sm_20
Adding identifier: streamcluster_cuda.cu
## Adding new section PTX
Adding ptx filename: _cuobjdump_1.ptx
Adding arch: sm_20
Adding identifier: streamcluster_cuda.cu
Done parsing!!!
GPGPU-Sim PTX: __cudaRegisterFunction _Z12pgain_kerneliilP5PointiPfS1_PiPb : hostFun 0x0x404fe3, fat_cubin_handle = 1
GPGPU-Sim PTX: allocating shared region for "coord_s" from 0x0 to 0x0 (shared memory space)
GPGPU-Sim PTX: instruction assembly for function '_Z12pgain_kerneliilP5PointiPfS1_PiPb'...   done.
GPGPU-Sim PTX: finding reconvergence points for '_Z12pgain_kerneliilP5PointiPfS1_PiPb'...
GPGPU-Sim PTX: Finding dominators for '_Z12pgain_kerneliilP5PointiPfS1_PiPb'...
GPGPU-Sim PTX: Finding immediate dominators for '_Z12pgain_kerneliilP5PointiPfS1_PiPb'...
GPGPU-Sim PTX: Finding postdominators for '_Z12pgain_kerneliilP5PointiPfS1_PiPb'...
GPGPU-Sim PTX: Finding immediate postdominators for '_Z12pgain_kerneliilP5PointiPfS1_PiPb'...
GPGPU-Sim PTX: pre-decoding instructions for '_Z12pgain_kerneliilP5PointiPfS1_PiPb'...
GPGPU-Sim PTX: reconvergence points for _Z12pgain_kerneliilP5PointiPfS1_PiPb...
GPGPU-Sim PTX:  1 (potential) branch divergence @  PC=0x030 (_1.ptx:76) @%p2 bra $Lt_0_3842;
GPGPU-Sim PTX:    immediate post dominator      @  PC=0x0e0 (_1.ptx:103) mov.u64 %rd1, coord_s;
GPGPU-Sim PTX:  2 (potential) branch divergence @  PC=0x038 (_1.ptx:77) @!%p1 bra $Lt_0_4354;
GPGPU-Sim PTX:    immediate post dominator      @  PC=0x0d8 (_1.ptx:101) mov.u64 %rd1, coord_s;
GPGPU-Sim PTX:  3 (potential) branch divergence @  PC=0x0d0 (_1.ptx:99) @%p3 bra $Lt_0_4866;
GPGPU-Sim PTX:    immediate post dominator      @  PC=0x0d8 (_1.ptx:101) mov.u64 %rd1, coord_s;
GPGPU-Sim PTX:  4 (potential) branch divergence @  PC=0x110 (_1.ptx:110) @!%p1 bra $Lt_0_7170;
GPGPU-Sim PTX:    immediate post dominator      @  PC=0x218 (_1.ptx:149) ld.param.u64 %rd15, [__cudaparm__Z12pgain_kerneliilP5PointiPfS1_PiPb_p];
GPGPU-Sim PTX:  5 (potential) branch divergence @  PC=0x1d8 (_1.ptx:138) @%p4 bra $Lt_0_5890;
GPGPU-Sim PTX:    immediate post dominator      @  PC=0x1e0 (_1.ptx:139) bra.uni $Lt_0_5378;
GPGPU-Sim PTX:  6 (potential) branch divergence @  PC=0x1e0 (_1.ptx:139) bra.uni $Lt_0_5378;
GPGPU-Sim PTX:    immediate post dominator      @  PC=0x218 (_1.ptx:149) ld.param.u64 %rd15, [__cudaparm__Z12pgain_kerneliilP5PointiPfS1_PiPb_p];
GPGPU-Sim PTX:  7 (potential) branch divergence @  PC=0x288 (_1.ptx:164) @!%p5 bra $Lt_0_6658;
GPGPU-Sim PTX:    immediate post dominator      @  PC=0x358 (_1.ptx:197) exit;
GPGPU-Sim PTX:  8 (potential) branch divergence @  PC=0x2e8 (_1.ptx:178) bra.uni $Lt_0_6402;
GPGPU-Sim PTX:    immediate post dominator      @  PC=0x358 (_1.ptx:197) exit;
GPGPU-Sim PTX: ... end of reconvergence points for _Z12pgain_kerneliilP5PointiPfS1_PiPb
GPGPU-Sim PTX: ... done pre-decoding instructions for '_Z12pgain_kerneliilP5PointiPfS1_PiPb'.
GPGPU-Sim PTX: finished parsing EMBEDDED .ptx file _1.ptx
Adding _cuobjdump_1.ptx with cubin handle 1
GPGPU-Sim PTX: extracting embedded .ptx to temporary file "_ptx_9Qjtij"
Running: cat _ptx_9Qjtij | sed 's/.version 1.5/.version 1.4/' | sed 's/, texmode_independent//' | sed 's/\(\.extern \.const\[1\] .b8 \w\+\)\[\]/\1\[1\]/' | sed 's/const\[.\]/const\[0\]/g' > _ptx2_fMrLF5
GPGPU-Sim PTX: generating ptxinfo using "$CUDA_INSTALL_PATH/bin/ptxas --gpu-name=sm_20 -v _ptx2_fMrLF5 --output-file  /dev/null 2> _ptx_9Qjtijinfo"
GPGPU-Sim PTX: Kernel '_Z12pgain_kerneliilP5PointiPfS1_PiPb' : regs=12, lmem=0, smem=0, cmem=96
GPGPU-Sim PTX: removing ptxinfo using "rm -f _ptx_9Qjtij _ptx2_fMrLF5 _ptx_9Qjtijinfo"
GPGPU-Sim PTX: loading globals with explicit initializers... 
GPGPU-Sim PTX: finished loading globals (0 bytes total).
GPGPU-Sim PTX: loading constants with explicit initializers...  done.
PARSEC Benchmark Suite

GPGPU-Sim PTX: cudaLaunch for 0x0x404fe3 (mode=performance simulation) on stream 0
GPGPU-Sim PTX: pushing kernel '_Z12pgain_kerneliilP5PointiPfS1_PiPb' to stream 0, gridDim= (128,1,1) blockDim = (512,1,1) 
kernel '_Z12pgain_kerneliilP5PointiPfS1_PiPb' transfer to GPU hardware scheduler
GPGPU-Sim uArch: Shader 1 bind to kernel 1 '_Z12pgain_kerneliilP5PointiPfS1_PiPb'
GPGPU-Sim uArch: CTA/core = 3, limited by: threads
GPGPU-Sim uArch: core:  1, cta: 0 initialized @(1,0)
GPGPU-Sim uArch: Shader 2 bind to kernel 1 '_Z12pgain_kerneliilP5PointiPfS1_PiPb'
GPGPU-Sim uArch: core:  2, cta: 0 initialized @(1,0)
GPGPU-Sim uArch: Shader 3 bind to kernel 1 '_Z12pgain_kerneliilP5PointiPfS1_PiPb'
GPGPU-Sim uArch: core:  3, cta: 0 initialized @(1,0)
GPGPU-Sim uArch: Shader 4 bind to kernel 1 '_Z12pgain_kerneliilP5PointiPfS1_PiPb'
GPGPU-Sim uArch: core:  4, cta: 0 initialized @(1,0)
GPGPU-Sim uArch: Shader 5 bind to kernel 1 '_Z12pgain_kerneliilP5PointiPfS1_PiPb'
GPGPU-Sim uArch: core:  5, cta: 0 initialized @(1,0)
GPGPU-Sim uArch: Shader 6 bind to kernel 1 '_Z12pgain_kerneliilP5PointiPfS1_PiPb'
GPGPU-Sim uArch: core:  6, cta: 0 initialized @(1,0)
GPGPU-Sim uArch: Shader 7 bind to kernel 1 '_Z12pgain_kerneliilP5PointiPfS1_PiPb'
GPGPU-Sim uArch: core:  7, cta: 0 initialized @(1,0)
GPGPU-Sim uArch: Shader 8 bind to kernel 1 '_Z12pgain_kerneliilP5PointiPfS1_PiPb'
GPGPU-Sim uArch: core:  8, cta: 0 initialized @(1,0)
GPGPU-Sim uArch: Shader 9 bind to kernel 1 '_Z12pgain_kerneliilP5PointiPfS1_PiPb'
GPGPU-Sim uArch: core:  9, cta: 0 initialized @(1,0)
GPGPU-Sim uArch: Shader 10 bind to kernel 1 '_Z12pgain_kerneliilP5PointiPfS1_PiPb'
GPGPU-Sim uArch: core: 10, cta: 0 initialized @(1,0)
GPGPU-Sim uArch: Shader 11 bind to kernel 1 '_Z12pgain_kerneliilP5PointiPfS1_PiPb'
GPGPU-Sim uArch: core: 11, cta: 0 initialized @(1,0)
GPGPU-Sim uArch: Shader 12 bind to kernel 1 '_Z12pgain_kerneliilP5PointiPfS1_PiPb'
GPGPU-Sim uArch: core: 12, cta: 0 initialized @(1,0)
GPGPU-Sim uArch: Shader 13 bind to kernel 1 '_Z12pgain_kerneliilP5PointiPfS1_PiPb'
GPGPU-Sim uArch: core: 13, cta: 0 initialized @(1,0)
GPGPU-Sim uArch: Shader 14 bind to kernel 1 '_Z12pgain_kerneliilP5PointiPfS1_PiPb'
GPGPU-Sim uArch: core: 14, cta: 0 initialized @(1,0)
GPGPU-Sim uArch: Shader 0 bind to kernel 1 '_Z12pgain_kerneliilP5PointiPfS1_PiPb'
GPGPU-Sim uArch: core:  0, cta: 0 initialized @(1,0)
GPGPU-Sim uArch: core:  1, cta: 1 initialized @(2,0)
GPGPU-Sim uArch: core:  2, cta: 1 initialized @(2,0)
GPGPU-Sim uArch: core:  3, cta: 1 initialized @(2,0)
GPGPU-Sim uArch: core:  4, cta: 1 initialized @(2,0)
GPGPU-Sim uArch: core:  5, cta: 1 initialized @(2,0)
GPGPU-Sim uArch: core:  6, cta: 1 initialized @(2,0)
GPGPU-Sim uArch: core:  7, cta: 1 initialized @(2,0)
GPGPU-Sim uArch: core:  8, cta: 1 initialized @(2,0)
GPGPU-Sim uArch: core:  9, cta: 1 initialized @(2,0)
GPGPU-Sim uArch: core: 10, cta: 1 initialized @(2,0)
GPGPU-Sim uArch: core: 11, cta: 1 initialized @(2,0)
GPGPU-Sim uArch: core: 12, cta: 1 initialized @(2,0)
GPGPU-Sim uArch: core: 13, cta: 1 initialized @(2,0)
GPGPU-Sim uArch: core: 14, cta: 1 initialized @(2,0)
GPGPU-Sim uArch: core:  0, cta: 1 initialized @(2,0)
GPGPU-Sim uArch: core:  1, cta: 2 initialized @(3,0)
GPGPU-Sim uArch: core:  2, cta: 2 initialized @(3,0)
GPGPU-Sim uArch: core:  3, cta: 2 initialized @(3,0)
GPGPU-Sim uArch: core:  4, cta: 2 initialized @(3,0)
GPGPU-Sim uArch: core:  5, cta: 2 initialized @(3,0)
GPGPU-Sim uArch: core:  6, cta: 2 initialized @(3,0)
GPGPU-Sim uArch: core:  7, cta: 2 initialized @(3,0)
GPGPU-Sim uArch: core:  8, cta: 2 initialized @(3,0)
GPGPU-Sim uArch: core:  9, cta: 2 initialized @(3,0)
GPGPU-Sim uArch: core: 10, cta: 2 initialized @(3,0)
GPGPU-Sim uArch: core: 11, cta: 2 initialized @(3,0)
GPGPU-Sim uArch: core: 12, cta: 2 initialized @(3,0)
GPGPU-Sim uArch: core: 13, cta: 2 initialized @(3,0)
GPGPU-Sim uArch: core: 14, cta: 2 initialized @(3,0)
GPGPU-Sim uArch: core:  0, cta: 2 initialized @(3,0)
GPGPU-Sim uArch: cycles simulated: 500  inst.: 1920 (ipc= 3.8) sim_rate=147 (inst/sec) elapsed = 0:0:00:13 / Tue Mar 22 12:44:22 2016
GPGPU-Sim uArch: cycles simulated: 1000  inst.: 59077 (ipc=59.1) sim_rate=3938 (inst/sec) elapsed = 0:0:00:15 / Tue Mar 22 12:44:24 2016
GPGPU-Sim PTX: 100000 instructions simulated : ctaid=(23,0,0) tid=(423,0,0)
GPGPU-Sim uArch: cycles simulated: 2500  inst.: 142020 (ipc=56.8) sim_rate=8876 (inst/sec) elapsed = 0:0:00:16 / Tue Mar 22 12:44:25 2016
GPGPU-Sim uArch: cycles simulated: 6000  inst.: 144330 (ipc=24.1) sim_rate=8490 (inst/sec) elapsed = 0:0:00:17 / Tue Mar 22 12:44:26 2016
GPGPU-Sim uArch: cycles simulated: 10000  inst.: 147100 (ipc=14.7) sim_rate=8172 (inst/sec) elapsed = 0:0:00:18 / Tue Mar 22 12:44:27 2016
GPGPU-Sim uArch: cycles simulated: 13500  inst.: 149580 (ipc=11.1) sim_rate=7872 (inst/sec) elapsed = 0:0:00:19 / Tue Mar 22 12:44:28 2016
GPGPU-Sim uArch: cycles simulated: 17500  inst.: 152310 (ipc= 8.7) sim_rate=7615 (inst/sec) elapsed = 0:0:00:20 / Tue Mar 22 12:44:29 2016
GPGPU-Sim uArch: cycles simulated: 21500  inst.: 155040 (ipc= 7.2) sim_rate=7382 (inst/sec) elapsed = 0:0:00:21 / Tue Mar 22 12:44:30 2016
GPGPU-Sim uArch: cycles simulated: 26000  inst.: 158190 (ipc= 6.1) sim_rate=7190 (inst/sec) elapsed = 0:0:00:22 / Tue Mar 22 12:44:31 2016
GPGPU-Sim uArch: cycles simulated: 29500  inst.: 160506 (ipc= 5.4) sim_rate=6978 (inst/sec) elapsed = 0:0:00:23 / Tue Mar 22 12:44:32 2016
GPGPU-Sim uArch: cycles simulated: 33500  inst.: 163306 (ipc= 4.9) sim_rate=6804 (inst/sec) elapsed = 0:0:00:24 / Tue Mar 22 12:44:33 2016
GPGPU-Sim uArch: cycles simulated: 37500  inst.: 166118 (ipc= 4.4) sim_rate=6644 (inst/sec) elapsed = 0:0:00:25 / Tue Mar 22 12:44:34 2016
GPGPU-Sim uArch: cycles simulated: 41500  inst.: 168900 (ipc= 4.1) sim_rate=6496 (inst/sec) elapsed = 0:0:00:26 / Tue Mar 22 12:44:35 2016
GPGPU-Sim uArch: cycles simulated: 45500  inst.: 171630 (ipc= 3.8) sim_rate=6356 (inst/sec) elapsed = 0:0:00:27 / Tue Mar 22 12:44:36 2016
GPGPU-Sim uArch: cycles simulated: 49500  inst.: 174360 (ipc= 3.5) sim_rate=6227 (inst/sec) elapsed = 0:0:00:28 / Tue Mar 22 12:44:37 2016
GPGPU-Sim uArch: cycles simulated: 54000  inst.: 177508 (ipc= 3.3) sim_rate=6120 (inst/sec) elapsed = 0:0:00:29 / Tue Mar 22 12:44:38 2016
GPGPU-Sim uArch: cycles simulated: 58000  inst.: 180240 (ipc= 3.1) sim_rate=6008 (inst/sec) elapsed = 0:0:00:30 / Tue Mar 22 12:44:39 2016
GPGPU-Sim uArch: cycles simulated: 62000  inst.: 182970 (ipc= 3.0) sim_rate=5902 (inst/sec) elapsed = 0:0:00:31 / Tue Mar 22 12:44:40 2016
GPGPU-Sim uArch: cycles simulated: 66000  inst.: 185700 (ipc= 2.8) sim_rate=5803 (inst/sec) elapsed = 0:0:00:32 / Tue Mar 22 12:44:41 2016
GPGPU-Sim uArch: cycles simulated: 70000  inst.: 188430 (ipc= 2.7) sim_rate=5710 (inst/sec) elapsed = 0:0:00:33 / Tue Mar 22 12:44:42 2016
GPGPU-Sim uArch: cycles simulated: 73500  inst.: 190920 (ipc= 2.6) sim_rate=5615 (inst/sec) elapsed = 0:0:00:34 / Tue Mar 22 12:44:43 2016
GPGPU-Sim uArch: cycles simulated: 77500  inst.: 193680 (ipc= 2.5) sim_rate=5533 (inst/sec) elapsed = 0:0:00:35 / Tue Mar 22 12:44:44 2016
GPGPU-Sim PTX: 200000 instructions simulated : ctaid=(14,0,0) tid=(91,0,0)
GPGPU-Sim uArch: cycles simulated: 80500  inst.: 277258 (ipc= 3.4) sim_rate=7701 (inst/sec) elapsed = 0:0:00:36 / Tue Mar 22 12:44:45 2016
GPGPU-Sim PTX: 300000 instructions simulated : ctaid=(6,0,0) tid=(59,0,0)
GPGPU-Sim PTX: 400000 instructions simulated : ctaid=(6,0,0) tid=(123,0,0)
GPGPU-Sim uArch: cycles simulated: 84000  inst.: 467594 (ipc= 5.6) sim_rate=12637 (inst/sec) elapsed = 0:0:00:37 / Tue Mar 22 12:44:46 2016
GPGPU-Sim PTX: 500000 instructions simulated : ctaid=(4,0,0) tid=(123,0,0)
GPGPU-Sim PTX: 600000 instructions simulated : ctaid=(11,0,0) tid=(123,0,0)
GPGPU-Sim uArch: cycles simulated: 87000  inst.: 633450 (ipc= 7.3) sim_rate=16669 (inst/sec) elapsed = 0:0:00:38 / Tue Mar 22 12:44:47 2016
GPGPU-Sim PTX: 700000 instructions simulated : ctaid=(9,0,0) tid=(27,0,0)
GPGPU-Sim uArch: cycles simulated: 90000  inst.: 789034 (ipc= 8.8) sim_rate=20231 (inst/sec) elapsed = 0:0:00:39 / Tue Mar 22 12:44:48 2016
GPGPU-Sim PTX: 800000 instructions simulated : ctaid=(12,0,0) tid=(91,0,0)
GPGPU-Sim PTX: 900000 instructions simulated : ctaid=(14,0,0) tid=(27,0,0)
GPGPU-Sim uArch: cycles simulated: 93000  inst.: 961770 (ipc=10.3) sim_rate=24044 (inst/sec) elapsed = 0:0:00:40 / Tue Mar 22 12:44:49 2016
GPGPU-Sim PTX: 1000000 instructions simulated : ctaid=(13,0,0) tid=(59,0,0)
GPGPU-Sim PTX: 1100000 instructions simulated : ctaid=(13,0,0) tid=(59,0,0)
GPGPU-Sim uArch: cycles simulated: 96500  inst.: 1151818 (ipc=11.9) sim_rate=28093 (inst/sec) elapsed = 0:0:00:41 / Tue Mar 22 12:44:50 2016
GPGPU-Sim PTX: 1200000 instructions simulated : ctaid=(2,0,0) tid=(59,0,0)
GPGPU-Sim PTX: 1300000 instructions simulated : ctaid=(14,0,0) tid=(91,0,0)
GPGPU-Sim uArch: cycles simulated: 99500  inst.: 1307370 (ipc=13.1) sim_rate=31127 (inst/sec) elapsed = 0:0:00:42 / Tue Mar 22 12:44:51 2016
GPGPU-Sim PTX: 1400000 instructions simulated : ctaid=(0,0,0) tid=(91,0,0)
GPGPU-Sim PTX: 1500000 instructions simulated : ctaid=(5,0,0) tid=(59,0,0)
GPGPU-Sim uArch: cycles simulated: 103000  inst.: 1497450 (ipc=14.5) sim_rate=34824 (inst/sec) elapsed = 0:0:00:43 / Tue Mar 22 12:44:52 2016
GPGPU-Sim PTX: 1600000 instructions simulated : ctaid=(6,0,0) tid=(59,0,0)
GPGPU-Sim uArch: cycles simulated: 106500  inst.: 1687530 (ipc=15.8) sim_rate=38352 (inst/sec) elapsed = 0:0:00:44 / Tue Mar 22 12:44:53 2016
GPGPU-Sim PTX: 1700000 instructions simulated : ctaid=(3,0,0) tid=(123,0,0)
GPGPU-Sim PTX: 1800000 instructions simulated : ctaid=(3,0,0) tid=(123,0,0)
GPGPU-Sim uArch: cycles simulated: 110000  inst.: 1877610 (ipc=17.1) sim_rate=41724 (inst/sec) elapsed = 0:0:00:45 / Tue Mar 22 12:44:54 2016
GPGPU-Sim PTX: 1900000 instructions simulated : ctaid=(7,0,0) tid=(91,0,0)
GPGPU-Sim PTX: 2000000 instructions simulated : ctaid=(8,0,0) tid=(91,0,0)
GPGPU-Sim PTX: 2100000 instructions simulated : ctaid=(8,0,0) tid=(91,0,0)
GPGPU-Sim uArch: cycles simulated: 114000  inst.: 2097258 (ipc=18.4) sim_rate=45592 (inst/sec) elapsed = 0:0:00:46 / Tue Mar 22 12:44:55 2016
GPGPU-Sim PTX: 2200000 instructions simulated : ctaid=(0,0,0) tid=(59,0,0)
GPGPU-Sim uArch: cycles simulated: 117500  inst.: 2285642 (ipc=19.5) sim_rate=48630 (inst/sec) elapsed = 0:0:00:47 / Tue Mar 22 12:44:56 2016
GPGPU-Sim PTX: 2300000 instructions simulated : ctaid=(7,0,0) tid=(59,0,0)
GPGPU-Sim PTX: 2400000 instructions simulated : ctaid=(4,0,0) tid=(123,0,0)
GPGPU-Sim uArch: cycles simulated: 121000  inst.: 2474090 (ipc=20.4) sim_rate=51543 (inst/sec) elapsed = 0:0:00:48 / Tue Mar 22 12:44:57 2016
GPGPU-Sim PTX: 2500000 instructions simulated : ctaid=(8,0,0) tid=(27,0,0)
GPGPU-Sim PTX: 2600000 instructions simulated : ctaid=(9,0,0) tid=(91,0,0)
GPGPU-Sim uArch: cycles simulated: 124000  inst.: 2637930 (ipc=21.3) sim_rate=53835 (inst/sec) elapsed = 0:0:00:49 / Tue Mar 22 12:44:58 2016
GPGPU-Sim PTX: 2700000 instructions simulated : ctaid=(14,0,0) tid=(27,0,0)
GPGPU-Sim PTX: 2800000 instructions simulated : ctaid=(10,0,0) tid=(123,0,0)
GPGPU-Sim uArch: cycles simulated: 127500  inst.: 2828010 (ipc=22.2) sim_rate=56560 (inst/sec) elapsed = 0:0:00:50 / Tue Mar 22 12:44:59 2016
GPGPU-Sim PTX: 2900000 instructions simulated : ctaid=(12,0,0) tid=(27,0,0)
GPGPU-Sim uArch: cycles simulated: 130500  inst.: 2988362 (ipc=22.9) sim_rate=58595 (inst/sec) elapsed = 0:0:00:51 / Tue Mar 22 12:45:00 2016
GPGPU-Sim PTX: 3000000 instructions simulated : ctaid=(5,0,0) tid=(59,0,0)
GPGPU-Sim PTX: 3100000 instructions simulated : ctaid=(6,0,0) tid=(123,0,0)
GPGPU-Sim uArch: cycles simulated: 133500  inst.: 3156074 (ipc=23.6) sim_rate=60693 (inst/sec) elapsed = 0:0:00:52 / Tue Mar 22 12:45:01 2016
GPGPU-Sim PTX: 3200000 instructions simulated : ctaid=(10,0,0) tid=(59,0,0)
GPGPU-Sim PTX: 3300000 instructions simulated : ctaid=(4,0,0) tid=(27,0,0)
GPGPU-Sim uArch: cycles simulated: 137000  inst.: 3345482 (ipc=24.4) sim_rate=63122 (inst/sec) elapsed = 0:0:00:53 / Tue Mar 22 12:45:02 2016
GPGPU-Sim PTX: 3400000 instructions simulated : ctaid=(8,0,0) tid=(123,0,0)
GPGPU-Sim PTX: 3500000 instructions simulated : ctaid=(6,0,0) tid=(91,0,0)
GPGPU-Sim uArch: cycles simulated: 140500  inst.: 3534538 (ipc=25.2) sim_rate=65454 (inst/sec) elapsed = 0:0:00:54 / Tue Mar 22 12:45:03 2016
GPGPU-Sim PTX: 3600000 instructions simulated : ctaid=(5,0,0) tid=(123,0,0)
GPGPU-Sim PTX: 3700000 instructions simulated : ctaid=(10,0,0) tid=(123,0,0)
GPGPU-Sim uArch: cycles simulated: 144000  inst.: 3723146 (ipc=25.9) sim_rate=67693 (inst/sec) elapsed = 0:0:00:55 / Tue Mar 22 12:45:04 2016
GPGPU-Sim PTX: 3800000 instructions simulated : ctaid=(4,0,0) tid=(123,0,0)
GPGPU-Sim PTX: 3900000 instructions simulated : ctaid=(6,0,0) tid=(27,0,0)
GPGPU-Sim uArch: cycles simulated: 147500  inst.: 3911530 (ipc=26.5) sim_rate=69848 (inst/sec) elapsed = 0:0:00:56 / Tue Mar 22 12:45:05 2016
GPGPU-Sim PTX: 4000000 instructions simulated : ctaid=(2,0,0) tid=(59,0,0)
GPGPU-Sim PTX: 4100000 instructions simulated : ctaid=(3,0,0) tid=(91,0,0)
GPGPU-Sim uArch: cycles simulated: 151000  inst.: 4099850 (ipc=27.2) sim_rate=71927 (inst/sec) elapsed = 0:0:00:57 / Tue Mar 22 12:45:06 2016
GPGPU-Sim PTX: 4200000 instructions simulated : ctaid=(13,0,0) tid=(91,0,0)
GPGPU-Sim uArch: cycles simulated: 154500  inst.: 4288330 (ipc=27.8) sim_rate=73936 (inst/sec) elapsed = 0:0:00:58 / Tue Mar 22 12:45:07 2016
GPGPU-Sim PTX: 4300000 instructions simulated : ctaid=(11,0,0) tid=(27,0,0)
GPGPU-Sim PTX: 4400000 instructions simulated : ctaid=(12,0,0) tid=(27,0,0)
GPGPU-Sim uArch: cycles simulated: 158000  inst.: 4477002 (ipc=28.3) sim_rate=75881 (inst/sec) elapsed = 0:0:00:59 / Tue Mar 22 12:45:08 2016
GPGPU-Sim PTX: 4500000 instructions simulated : ctaid=(0,0,0) tid=(91,0,0)
GPGPU-Sim PTX: 4600000 instructions simulated : ctaid=(10,0,0) tid=(59,0,0)
GPGPU-Sim uArch: cycles simulated: 161500  inst.: 4663530 (ipc=28.9) sim_rate=77725 (inst/sec) elapsed = 0:0:01:00 / Tue Mar 22 12:45:09 2016
GPGPU-Sim PTX: 4700000 instructions simulated : ctaid=(6,0,0) tid=(85,0,0)
GPGPU-Sim uArch: cycles simulated: 164500  inst.: 4755952 (ipc=28.9) sim_rate=77966 (inst/sec) elapsed = 0:0:01:01 / Tue Mar 22 12:45:10 2016
GPGPU-Sim PTX: 4800000 instructions simulated : ctaid=(5,0,0) tid=(240,0,0)
GPGPU-Sim PTX: 4900000 instructions simulated : ctaid=(1,0,0) tid=(176,0,0)
GPGPU-Sim uArch: cycles simulated: 167000  inst.: 4897856 (ipc=29.3) sim_rate=78997 (inst/sec) elapsed = 0:0:01:02 / Tue Mar 22 12:45:11 2016
GPGPU-Sim PTX: 5000000 instructions simulated : ctaid=(5,0,0) tid=(240,0,0)
GPGPU-Sim uArch: cycles simulated: 169500  inst.: 5037824 (ipc=29.7) sim_rate=79965 (inst/sec) elapsed = 0:0:01:03 / Tue Mar 22 12:45:12 2016
GPGPU-Sim PTX: 5100000 instructions simulated : ctaid=(10,0,0) tid=(208,0,0)
GPGPU-Sim uArch: cycles simulated: 172000  inst.: 5176064 (ipc=30.1) sim_rate=80876 (inst/sec) elapsed = 0:0:01:04 / Tue Mar 22 12:45:13 2016
GPGPU-Sim PTX: 5200000 instructions simulated : ctaid=(12,0,0) tid=(144,0,0)
GPGPU-Sim PTX: 5300000 instructions simulated : ctaid=(10,0,0) tid=(144,0,0)
GPGPU-Sim uArch: cycles simulated: 174500  inst.: 5314976 (ipc=30.5) sim_rate=81768 (inst/sec) elapsed = 0:0:01:05 / Tue Mar 22 12:45:14 2016
GPGPU-Sim PTX: 5400000 instructions simulated : ctaid=(12,0,0) tid=(240,0,0)
GPGPU-Sim uArch: cycles simulated: 177000  inst.: 5449888 (ipc=30.8) sim_rate=82574 (inst/sec) elapsed = 0:0:01:06 / Tue Mar 22 12:45:15 2016
GPGPU-Sim PTX: 5500000 instructions simulated : ctaid=(4,0,0) tid=(208,0,0)
GPGPU-Sim uArch: cycles simulated: 179500  inst.: 5583392 (ipc=31.1) sim_rate=83334 (inst/sec) elapsed = 0:0:01:07 / Tue Mar 22 12:45:16 2016
GPGPU-Sim PTX: 5600000 instructions simulated : ctaid=(6,0,0) tid=(144,0,0)
GPGPU-Sim PTX: 5700000 instructions simulated : ctaid=(14,0,0) tid=(208,0,0)
GPGPU-Sim uArch: cycles simulated: 182000  inst.: 5717088 (ipc=31.4) sim_rate=84074 (inst/sec) elapsed = 0:0:01:08 / Tue Mar 22 12:45:17 2016
GPGPU-Sim PTX: 5800000 instructions simulated : ctaid=(2,0,0) tid=(208,0,0)
GPGPU-Sim uArch: cycles simulated: 184500  inst.: 5852448 (ipc=31.7) sim_rate=84818 (inst/sec) elapsed = 0:0:01:09 / Tue Mar 22 12:45:18 2016
GPGPU-Sim PTX: 5900000 instructions simulated : ctaid=(13,0,0) tid=(208,0,0)
GPGPU-Sim uArch: cycles simulated: 186500  inst.: 5963680 (ipc=32.0) sim_rate=85195 (inst/sec) elapsed = 0:0:01:10 / Tue Mar 22 12:45:19 2016
GPGPU-Sim PTX: 6000000 instructions simulated : ctaid=(9,0,0) tid=(176,0,0)
GPGPU-Sim PTX: 6100000 instructions simulated : ctaid=(4,0,0) tid=(144,0,0)
GPGPU-Sim uArch: cycles simulated: 189000  inst.: 6097216 (ipc=32.3) sim_rate=85876 (inst/sec) elapsed = 0:0:01:11 / Tue Mar 22 12:45:20 2016
GPGPU-Sim PTX: 6200000 instructions simulated : ctaid=(2,0,0) tid=(176,0,0)
GPGPU-Sim uArch: cycles simulated: 191500  inst.: 6231936 (ipc=32.5) sim_rate=86554 (inst/sec) elapsed = 0:0:01:12 / Tue Mar 22 12:45:21 2016
GPGPU-Sim PTX: 6300000 instructions simulated : ctaid=(0,0,0) tid=(208,0,0)
GPGPU-Sim uArch: cycles simulated: 193500  inst.: 6343872 (ipc=32.8) sim_rate=86902 (inst/sec) elapsed = 0:0:01:13 / Tue Mar 22 12:45:22 2016
GPGPU-Sim PTX: 6400000 instructions simulated : ctaid=(9,0,0) tid=(144,0,0)
GPGPU-Sim uArch: cycles simulated: 195500  inst.: 6452672 (ipc=33.0) sim_rate=87198 (inst/sec) elapsed = 0:0:01:14 / Tue Mar 22 12:45:23 2016
GPGPU-Sim PTX: 6500000 instructions simulated : ctaid=(1,0,0) tid=(240,0,0)
GPGPU-Sim PTX: 6600000 instructions simulated : ctaid=(10,0,0) tid=(144,0,0)
GPGPU-Sim uArch: cycles simulated: 198500  inst.: 6611424 (ipc=33.3) sim_rate=88152 (inst/sec) elapsed = 0:0:01:15 / Tue Mar 22 12:45:24 2016
GPGPU-Sim PTX: 6700000 instructions simulated : ctaid=(9,0,0) tid=(208,0,0)
GPGPU-Sim uArch: cycles simulated: 201500  inst.: 6779776 (ipc=33.6) sim_rate=89207 (inst/sec) elapsed = 0:0:01:16 / Tue Mar 22 12:45:25 2016
GPGPU-Sim PTX: 6800000 instructions simulated : ctaid=(3,0,0) tid=(240,0,0)
GPGPU-Sim PTX: 6900000 instructions simulated : ctaid=(9,0,0) tid=(176,0,0)
GPGPU-Sim uArch: cycles simulated: 204500  inst.: 6936576 (ipc=33.9) sim_rate=90085 (inst/sec) elapsed = 0:0:01:17 / Tue Mar 22 12:45:26 2016
GPGPU-Sim PTX: 7000000 instructions simulated : ctaid=(3,0,0) tid=(144,0,0)
GPGPU-Sim PTX: 7100000 instructions simulated : ctaid=(10,0,0) tid=(144,0,0)
GPGPU-Sim uArch: cycles simulated: 207500  inst.: 7102272 (ipc=34.2) sim_rate=91054 (inst/sec) elapsed = 0:0:01:18 / Tue Mar 22 12:45:27 2016
GPGPU-Sim PTX: 7200000 instructions simulated : ctaid=(13,0,0) tid=(208,0,0)
GPGPU-Sim uArch: cycles simulated: 210500  inst.: 7264832 (ipc=34.5) sim_rate=91959 (inst/sec) elapsed = 0:0:01:19 / Tue Mar 22 12:45:28 2016
GPGPU-Sim PTX: 7300000 instructions simulated : ctaid=(7,0,0) tid=(208,0,0)
GPGPU-Sim PTX: 7400000 instructions simulated : ctaid=(12,0,0) tid=(176,0,0)
GPGPU-Sim uArch: cycles simulated: 213500  inst.: 7422880 (ipc=34.8) sim_rate=92786 (inst/sec) elapsed = 0:0:01:20 / Tue Mar 22 12:45:29 2016
GPGPU-Sim PTX: 7500000 instructions simulated : ctaid=(1,0,0) tid=(144,0,0)
GPGPU-Sim PTX: 7600000 instructions simulated : ctaid=(12,0,0) tid=(208,0,0)
GPGPU-Sim uArch: cycles simulated: 216500  inst.: 7592416 (ipc=35.1) sim_rate=93733 (inst/sec) elapsed = 0:0:01:21 / Tue Mar 22 12:45:30 2016
GPGPU-Sim PTX: 7700000 instructions simulated : ctaid=(14,0,0) tid=(144,0,0)
GPGPU-Sim uArch: cycles simulated: 219500  inst.: 7748672 (ipc=35.3) sim_rate=94496 (inst/sec) elapsed = 0:0:01:22 / Tue Mar 22 12:45:31 2016
GPGPU-Sim PTX: 7800000 instructions simulated : ctaid=(12,0,0) tid=(240,0,0)
GPGPU-Sim PTX: 7900000 instructions simulated : ctaid=(7,0,0) tid=(176,0,0)
GPGPU-Sim uArch: cycles simulated: 222500  inst.: 7911584 (ipc=35.6) sim_rate=95320 (inst/sec) elapsed = 0:0:01:23 / Tue Mar 22 12:45:32 2016
GPGPU-Sim PTX: 8000000 instructions simulated : ctaid=(6,0,0) tid=(144,0,0)
GPGPU-Sim uArch: cycles simulated: 225500  inst.: 8076992 (ipc=35.8) sim_rate=96154 (inst/sec) elapsed = 0:0:01:24 / Tue Mar 22 12:45:33 2016
GPGPU-Sim PTX: 8100000 instructions simulated : ctaid=(13,0,0) tid=(240,0,0)
GPGPU-Sim PTX: 8200000 instructions simulated : ctaid=(4,0,0) tid=(240,0,0)
GPGPU-Sim uArch: cycles simulated: 228500  inst.: 8234592 (ipc=36.0) sim_rate=96877 (inst/sec) elapsed = 0:0:01:25 / Tue Mar 22 12:45:34 2016
GPGPU-Sim PTX: 8300000 instructions simulated : ctaid=(6,0,0) tid=(208,0,0)
GPGPU-Sim PTX: 8400000 instructions simulated : ctaid=(12,0,0) tid=(240,0,0)
GPGPU-Sim uArch: cycles simulated: 231500  inst.: 8401280 (ipc=36.3) sim_rate=97689 (inst/sec) elapsed = 0:0:01:26 / Tue Mar 22 12:45:35 2016
GPGPU-Sim PTX: 8500000 instructions simulated : ctaid=(3,0,0) tid=(144,0,0)
GPGPU-Sim uArch: cycles simulated: 234500  inst.: 8560896 (ipc=36.5) sim_rate=98401 (inst/sec) elapsed = 0:0:01:27 / Tue Mar 22 12:45:36 2016
GPGPU-Sim PTX: 8600000 instructions simulated : ctaid=(5,0,0) tid=(208,0,0)
GPGPU-Sim PTX: 8700000 instructions simulated : ctaid=(5,0,0) tid=(176,0,0)
GPGPU-Sim uArch: cycles simulated: 237500  inst.: 8722464 (ipc=36.7) sim_rate=99118 (inst/sec) elapsed = 0:0:01:28 / Tue Mar 22 12:45:37 2016
GPGPU-Sim PTX: 8800000 instructions simulated : ctaid=(13,0,0) tid=(144,0,0)
GPGPU-Sim uArch: cycles simulated: 240500  inst.: 8888416 (ipc=37.0) sim_rate=99869 (inst/sec) elapsed = 0:0:01:29 / Tue Mar 22 12:45:38 2016
GPGPU-Sim PTX: 8900000 instructions simulated : ctaid=(9,0,0) tid=(144,0,0)
GPGPU-Sim PTX: 9000000 instructions simulated : ctaid=(2,0,0) tid=(240,0,0)
GPGPU-Sim uArch: cycles simulated: 243500  inst.: 9047360 (ipc=37.2) sim_rate=100526 (inst/sec) elapsed = 0:0:01:30 / Tue Mar 22 12:45:39 2016
GPGPU-Sim PTX: 9100000 instructions simulated : ctaid=(14,0,0) tid=(176,0,0)
GPGPU-Sim PTX: 9200000 instructions simulated : ctaid=(14,0,0) tid=(128,0,0)
GPGPU-Sim uArch: cycles simulated: 246500  inst.: 9210029 (ipc=37.4) sim_rate=101209 (inst/sec) elapsed = 0:0:01:31 / Tue Mar 22 12:45:40 2016
GPGPU-Sim PTX: 9300000 instructions simulated : ctaid=(5,0,0) tid=(316,0,0)
GPGPU-Sim uArch: cycles simulated: 249000  inst.: 9344520 (ipc=37.5) sim_rate=101570 (inst/sec) elapsed = 0:0:01:32 / Tue Mar 22 12:45:41 2016
GPGPU-Sim PTX: 9400000 instructions simulated : ctaid=(8,0,0) tid=(284,0,0)
GPGPU-Sim PTX: 9500000 instructions simulated : ctaid=(2,0,0) tid=(316,0,0)
GPGPU-Sim uArch: cycles simulated: 252000  inst.: 9510568 (ipc=37.7) sim_rate=102264 (inst/sec) elapsed = 0:0:01:33 / Tue Mar 22 12:45:42 2016
GPGPU-Sim PTX: 9600000 instructions simulated : ctaid=(3,0,0) tid=(348,0,0)
GPGPU-Sim PTX: 9700000 instructions simulated : ctaid=(8,0,0) tid=(380,0,0)
GPGPU-Sim uArch: cycles simulated: 255500  inst.: 9700232 (ipc=38.0) sim_rate=103193 (inst/sec) elapsed = 0:0:01:34 / Tue Mar 22 12:45:43 2016
GPGPU-Sim PTX: 9800000 instructions simulated : ctaid=(13,0,0) tid=(316,0,0)
GPGPU-Sim uArch: cycles simulated: 258500  inst.: 9864488 (ipc=38.2) sim_rate=103836 (inst/sec) elapsed = 0:0:01:35 / Tue Mar 22 12:45:44 2016
GPGPU-Sim PTX: 9900000 instructions simulated : ctaid=(4,0,0) tid=(316,0,0)
GPGPU-Sim PTX: 10000000 instructions simulated : ctaid=(8,0,0) tid=(380,0,0)
GPGPU-Sim uArch: cycles simulated: 261500  inst.: 10027560 (ipc=38.3) sim_rate=104453 (inst/sec) elapsed = 0:0:01:36 / Tue Mar 22 12:45:45 2016
GPGPU-Sim PTX: 10100000 instructions simulated : ctaid=(6,0,0) tid=(284,0,0)
GPGPU-Sim uArch: cycles simulated: 264500  inst.: 10186760 (ipc=38.5) sim_rate=105018 (inst/sec) elapsed = 0:0:01:37 / Tue Mar 22 12:45:46 2016
GPGPU-Sim PTX: 10200000 instructions simulated : ctaid=(12,0,0) tid=(348,0,0)
GPGPU-Sim PTX: 10300000 instructions simulated : ctaid=(7,0,0) tid=(284,0,0)
GPGPU-Sim uArch: cycles simulated: 268000  inst.: 10375752 (ipc=38.7) sim_rate=105875 (inst/sec) elapsed = 0:0:01:38 / Tue Mar 22 12:45:47 2016
GPGPU-Sim PTX: 10400000 instructions simulated : ctaid=(4,0,0) tid=(380,0,0)
GPGPU-Sim PTX: 10500000 instructions simulated : ctaid=(6,0,0) tid=(316,0,0)
GPGPU-Sim uArch: cycles simulated: 271000  inst.: 10540840 (ipc=38.9) sim_rate=106473 (inst/sec) elapsed = 0:0:01:39 / Tue Mar 22 12:45:48 2016
GPGPU-Sim PTX: 10600000 instructions simulated : ctaid=(5,0,0) tid=(348,0,0)
GPGPU-Sim PTX: 10700000 instructions simulated : ctaid=(11,0,0) tid=(284,0,0)
GPGPU-Sim uArch: cycles simulated: 274000  inst.: 10703720 (ipc=39.1) sim_rate=107037 (inst/sec) elapsed = 0:0:01:40 / Tue Mar 22 12:45:49 2016
GPGPU-Sim PTX: 10800000 instructions simulated : ctaid=(1,0,0) tid=(316,0,0)
GPGPU-Sim uArch: cycles simulated: 277000  inst.: 10862184 (ipc=39.2) sim_rate=107546 (inst/sec) elapsed = 0:0:01:41 / Tue Mar 22 12:45:50 2016
GPGPU-Sim PTX: 10900000 instructions simulated : ctaid=(4,0,0) tid=(380,0,0)
GPGPU-Sim PTX: 11000000 instructions simulated : ctaid=(0,0,0) tid=(284,0,0)
GPGPU-Sim uArch: cycles simulated: 280500  inst.: 11050760 (ipc=39.4) sim_rate=108340 (inst/sec) elapsed = 0:0:01:42 / Tue Mar 22 12:45:51 2016
GPGPU-Sim PTX: 11100000 instructions simulated : ctaid=(2,0,0) tid=(348,0,0)
GPGPU-Sim PTX: 11200000 instructions simulated : ctaid=(14,0,0) tid=(284,0,0)
GPGPU-Sim uArch: cycles simulated: 283500  inst.: 11216424 (ipc=39.6) sim_rate=108897 (inst/sec) elapsed = 0:0:01:43 / Tue Mar 22 12:45:52 2016
GPGPU-Sim PTX: 11300000 instructions simulated : ctaid=(4,0,0) tid=(284,0,0)
GPGPU-Sim uArch: cycles simulated: 286500  inst.: 11377672 (ipc=39.7) sim_rate=109400 (inst/sec) elapsed = 0:0:01:44 / Tue Mar 22 12:45:53 2016
GPGPU-Sim PTX: 11400000 instructions simulated : ctaid=(11,0,0) tid=(348,0,0)
GPGPU-Sim PTX: 11500000 instructions simulated : ctaid=(3,0,0) tid=(316,0,0)
GPGPU-Sim uArch: cycles simulated: 289500  inst.: 11537544 (ipc=39.9) sim_rate=109881 (inst/sec) elapsed = 0:0:01:45 / Tue Mar 22 12:45:54 2016
GPGPU-Sim PTX: 11600000 instructions simulated : ctaid=(3,0,0) tid=(380,0,0)
GPGPU-Sim PTX: 11700000 instructions simulated : ctaid=(7,0,0) tid=(316,0,0)
GPGPU-Sim uArch: cycles simulated: 293000  inst.: 11726184 (ipc=40.0) sim_rate=110624 (inst/sec) elapsed = 0:0:01:46 / Tue Mar 22 12:45:55 2016
GPGPU-Sim PTX: 11800000 instructions simulated : ctaid=(4,0,0) tid=(284,0,0)
GPGPU-Sim PTX: 11900000 instructions simulated : ctaid=(11,0,0) tid=(380,0,0)
GPGPU-Sim uArch: cycles simulated: 296000  inst.: 11891560 (ipc=40.2) sim_rate=111136 (inst/sec) elapsed = 0:0:01:47 / Tue Mar 22 12:45:56 2016
GPGPU-Sim PTX: 12000000 instructions simulated : ctaid=(9,0,0) tid=(284,0,0)
GPGPU-Sim uArch: cycles simulated: 299000  inst.: 12051592 (ipc=40.3) sim_rate=111588 (inst/sec) elapsed = 0:0:01:48 / Tue Mar 22 12:45:57 2016
GPGPU-Sim PTX: 12100000 instructions simulated : ctaid=(8,0,0) tid=(284,0,0)
GPGPU-Sim PTX: 12200000 instructions simulated : ctaid=(13,0,0) tid=(348,0,0)
GPGPU-Sim uArch: cycles simulated: 302500  inst.: 12241672 (ipc=40.5) sim_rate=112308 (inst/sec) elapsed = 0:0:01:49 / Tue Mar 22 12:45:58 2016
GPGPU-Sim PTX: 12300000 instructions simulated : ctaid=(14,0,0) tid=(316,0,0)
GPGPU-Sim PTX: 12400000 instructions simulated : ctaid=(2,0,0) tid=(316,0,0)
GPGPU-Sim uArch: cycles simulated: 305500  inst.: 12401576 (ipc=40.6) sim_rate=112741 (inst/sec) elapsed = 0:0:01:50 / Tue Mar 22 12:45:59 2016
GPGPU-Sim PTX: 12500000 instructions simulated : ctaid=(9,0,0) tid=(316,0,0)
GPGPU-Sim uArch: cycles simulated: 308500  inst.: 12566856 (ipc=40.7) sim_rate=113214 (inst/sec) elapsed = 0:0:01:51 / Tue Mar 22 12:46:00 2016
GPGPU-Sim PTX: 12600000 instructions simulated : ctaid=(11,0,0) tid=(316,0,0)
GPGPU-Sim PTX: 12700000 instructions simulated : ctaid=(4,0,0) tid=(316,0,0)
GPGPU-Sim uArch: cycles simulated: 311500  inst.: 12725544 (ipc=40.9) sim_rate=113620 (inst/sec) elapsed = 0:0:01:52 / Tue Mar 22 12:46:01 2016
GPGPU-Sim PTX: 12800000 instructions simulated : ctaid=(5,0,0) tid=(316,0,0)
GPGPU-Sim PTX: 12900000 instructions simulated : ctaid=(0,0,0) tid=(284,0,0)
GPGPU-Sim uArch: cycles simulated: 315000  inst.: 12915592 (ipc=41.0) sim_rate=114297 (inst/sec) elapsed = 0:0:01:53 / Tue Mar 22 12:46:02 2016
GPGPU-Sim PTX: 13000000 instructions simulated : ctaid=(9,0,0) tid=(348,0,0)
GPGPU-Sim uArch: cycles simulated: 318000  inst.: 13077288 (ipc=41.1) sim_rate=114713 (inst/sec) elapsed = 0:0:01:54 / Tue Mar 22 12:46:03 2016
GPGPU-Sim PTX: 13100000 instructions simulated : ctaid=(13,0,0) tid=(284,0,0)
GPGPU-Sim PTX: 13200000 instructions simulated : ctaid=(1,0,0) tid=(284,0,0)
GPGPU-Sim uArch: cycles simulated: 321000  inst.: 13242408 (ipc=41.3) sim_rate=115151 (inst/sec) elapsed = 0:0:01:55 / Tue Mar 22 12:46:04 2016
GPGPU-Sim PTX: 13300000 instructions simulated : ctaid=(14,0,0) tid=(348,0,0)
GPGPU-Sim PTX: 13400000 instructions simulated : ctaid=(3,0,0) tid=(380,0,0)
GPGPU-Sim uArch: cycles simulated: 324000  inst.: 13399752 (ipc=41.4) sim_rate=115515 (inst/sec) elapsed = 0:0:01:56 / Tue Mar 22 12:46:05 2016
GPGPU-Sim PTX: 13500000 instructions simulated : ctaid=(6,0,0) tid=(348,0,0)
GPGPU-Sim PTX: 13600000 instructions simulated : ctaid=(13,0,0) tid=(380,0,0)
GPGPU-Sim uArch: cycles simulated: 327500  inst.: 13589544 (ipc=41.5) sim_rate=116149 (inst/sec) elapsed = 0:0:01:57 / Tue Mar 22 12:46:06 2016
GPGPU-Sim PTX: 13700000 instructions simulated : ctaid=(11,0,0) tid=(380,0,0)
GPGPU-Sim uArch: cycles simulated: 330500  inst.: 13741497 (ipc=41.6) sim_rate=116453 (inst/sec) elapsed = 0:0:01:58 / Tue Mar 22 12:46:07 2016
GPGPU-Sim PTX: 13800000 instructions simulated : ctaid=(14,0,0) tid=(448,0,0)
GPGPU-Sim uArch: cycles simulated: 333000  inst.: 13882100 (ipc=41.7) sim_rate=116656 (inst/sec) elapsed = 0:0:01:59 / Tue Mar 22 12:46:08 2016
GPGPU-Sim PTX: 13900000 instructions simulated : ctaid=(7,0,0) tid=(422,0,0)
GPGPU-Sim PTX: 14000000 instructions simulated : ctaid=(10,0,0) tid=(454,0,0)
GPGPU-Sim uArch: cycles simulated: 336000  inst.: 14045332 (ipc=41.8) sim_rate=117044 (inst/sec) elapsed = 0:0:02:00 / Tue Mar 22 12:46:09 2016
GPGPU-Sim PTX: 14100000 instructions simulated : ctaid=(2,0,0) tid=(454,0,0)
GPGPU-Sim PTX: 14200000 instructions simulated : ctaid=(9,0,0) tid=(454,0,0)
GPGPU-Sim uArch: cycles simulated: 339500  inst.: 14231988 (ipc=41.9) sim_rate=117619 (inst/sec) elapsed = 0:0:02:01 / Tue Mar 22 12:46:10 2016
GPGPU-Sim PTX: 14300000 instructions simulated : ctaid=(9,0,0) tid=(486,0,0)
GPGPU-Sim PTX: 14400000 instructions simulated : ctaid=(2,0,0) tid=(390,0,0)
GPGPU-Sim uArch: cycles simulated: 342500  inst.: 14395636 (ipc=42.0) sim_rate=117997 (inst/sec) elapsed = 0:0:02:02 / Tue Mar 22 12:46:11 2016
GPGPU-Sim PTX: 14500000 instructions simulated : ctaid=(11,0,0) tid=(486,0,0)
GPGPU-Sim PTX: 14600000 instructions simulated : ctaid=(9,0,0) tid=(422,0,0)
GPGPU-Sim uArch: cycles simulated: 346000  inst.: 14585300 (ipc=42.2) sim_rate=118579 (inst/sec) elapsed = 0:0:02:03 / Tue Mar 22 12:46:12 2016
GPGPU-Sim PTX: 14700000 instructions simulated : ctaid=(12,0,0) tid=(454,0,0)
GPGPU-Sim uArch: cycles simulated: 349000  inst.: 14747668 (ipc=42.3) sim_rate=118932 (inst/sec) elapsed = 0:0:02:04 / Tue Mar 22 12:46:13 2016
GPGPU-Sim PTX: 14800000 instructions simulated : ctaid=(1,0,0) tid=(390,0,0)
GPGPU-Sim PTX: 14900000 instructions simulated : ctaid=(9,0,0) tid=(390,0,0)
GPGPU-Sim uArch: cycles simulated: 352000  inst.: 14909940 (ipc=42.4) sim_rate=119279 (inst/sec) elapsed = 0:0:02:05 / Tue Mar 22 12:46:14 2016
GPGPU-Sim PTX: 15000000 instructions simulated : ctaid=(2,0,0) tid=(486,0,0)
GPGPU-Sim uArch: cycles simulated: 355000  inst.: 15075540 (ipc=42.5) sim_rate=119647 (inst/sec) elapsed = 0:0:02:06 / Tue Mar 22 12:46:15 2016
GPGPU-Sim PTX: 15100000 instructions simulated : ctaid=(3,0,0) tid=(486,0,0)
GPGPU-Sim PTX: 15200000 instructions simulated : ctaid=(10,0,0) tid=(390,0,0)
GPGPU-Sim uArch: cycles simulated: 358500  inst.: 15265108 (ipc=42.6) sim_rate=120197 (inst/sec) elapsed = 0:0:02:07 / Tue Mar 22 12:46:16 2016
GPGPU-Sim PTX: 15300000 instructions simulated : ctaid=(8,0,0) tid=(422,0,0)
GPGPU-Sim PTX: 15400000 instructions simulated : ctaid=(6,0,0) tid=(422,0,0)
GPGPU-Sim uArch: cycles simulated: 361500  inst.: 15426036 (ipc=42.7) sim_rate=120515 (inst/sec) elapsed = 0:0:02:08 / Tue Mar 22 12:46:17 2016
GPGPU-Sim PTX: 15500000 instructions simulated : ctaid=(12,0,0) tid=(486,0,0)
GPGPU-Sim PTX: 15600000 instructions simulated : ctaid=(4,0,0) tid=(454,0,0)
GPGPU-Sim uArch: cycles simulated: 364500  inst.: 15587668 (ipc=42.8) sim_rate=120834 (inst/sec) elapsed = 0:0:02:09 / Tue Mar 22 12:46:18 2016
GPGPU-Sim PTX: 15700000 instructions simulated : ctaid=(1,0,0) tid=(422,0,0)
GPGPU-Sim uArch: cycles simulated: 367000  inst.: 15722100 (ipc=42.8) sim_rate=120939 (inst/sec) elapsed = 0:0:02:10 / Tue Mar 22 12:46:19 2016
GPGPU-Sim PTX: 15800000 instructions simulated : ctaid=(9,0,0) tid=(390,0,0)
GPGPU-Sim uArch: cycles simulated: 369500  inst.: 15859060 (ipc=42.9) sim_rate=121061 (inst/sec) elapsed = 0:0:02:11 / Tue Mar 22 12:46:20 2016
GPGPU-Sim PTX: 15900000 instructions simulated : ctaid=(6,0,0) tid=(422,0,0)
GPGPU-Sim PTX: 16000000 instructions simulated : ctaid=(3,0,0) tid=(486,0,0)
GPGPU-Sim uArch: cycles simulated: 372000  inst.: 15994804 (ipc=43.0) sim_rate=121172 (inst/sec) elapsed = 0:0:02:12 / Tue Mar 22 12:46:21 2016
GPGPU-Sim PTX: 16100000 instructions simulated : ctaid=(7,0,0) tid=(454,0,0)
GPGPU-Sim uArch: cycles simulated: 374500  inst.: 16129236 (ipc=43.1) sim_rate=121272 (inst/sec) elapsed = 0:0:02:13 / Tue Mar 22 12:46:22 2016
GPGPU-Sim PTX: 16200000 instructions simulated : ctaid=(1,0,0) tid=(422,0,0)
GPGPU-Sim PTX: 16300000 instructions simulated : ctaid=(8,0,0) tid=(486,0,0)
GPGPU-Sim uArch: cycles simulated: 377500  inst.: 16292532 (ipc=43.2) sim_rate=121586 (inst/sec) elapsed = 0:0:02:14 / Tue Mar 22 12:46:23 2016
GPGPU-Sim PTX: 16400000 instructions simulated : ctaid=(0,0,0) tid=(390,0,0)
GPGPU-Sim uArch: cycles simulated: 380000  inst.: 16428212 (ipc=43.2) sim_rate=121690 (inst/sec) elapsed = 0:0:02:15 / Tue Mar 22 12:46:24 2016
GPGPU-Sim PTX: 16500000 instructions simulated : ctaid=(9,0,0) tid=(486,0,0)
GPGPU-Sim PTX: 16600000 instructions simulated : ctaid=(10,0,0) tid=(390,0,0)
GPGPU-Sim uArch: cycles simulated: 383000  inst.: 16587860 (ipc=43.3) sim_rate=121969 (inst/sec) elapsed = 0:0:02:16 / Tue Mar 22 12:46:25 2016
GPGPU-Sim PTX: 16700000 instructions simulated : ctaid=(7,0,0) tid=(390,0,0)
GPGPU-Sim uArch: cycles simulated: 386000  inst.: 16749876 (ipc=43.4) sim_rate=122261 (inst/sec) elapsed = 0:0:02:17 / Tue Mar 22 12:46:26 2016
GPGPU-Sim PTX: 16800000 instructions simulated : ctaid=(3,0,0) tid=(422,0,0)
GPGPU-Sim uArch: cycles simulated: 388500  inst.: 16883764 (ipc=43.5) sim_rate=122346 (inst/sec) elapsed = 0:0:02:18 / Tue Mar 22 12:46:27 2016
GPGPU-Sim PTX: 16900000 instructions simulated : ctaid=(2,0,0) tid=(454,0,0)
GPGPU-Sim PTX: 17000000 instructions simulated : ctaid=(13,0,0) tid=(486,0,0)
GPGPU-Sim uArch: cycles simulated: 391500  inst.: 17051188 (ipc=43.6) sim_rate=122670 (inst/sec) elapsed = 0:0:02:19 / Tue Mar 22 12:46:28 2016
GPGPU-Sim PTX: 17100000 instructions simulated : ctaid=(11,0,0) tid=(422,0,0)
GPGPU-Sim uArch: cycles simulated: 394000  inst.: 17182900 (ipc=43.6) sim_rate=122735 (inst/sec) elapsed = 0:0:02:20 / Tue Mar 22 12:46:29 2016
GPGPU-Sim PTX: 17200000 instructions simulated : ctaid=(6,0,0) tid=(390,0,0)
GPGPU-Sim PTX: 17300000 instructions simulated : ctaid=(8,0,0) tid=(454,0,0)
GPGPU-Sim uArch: cycles simulated: 397000  inst.: 17348116 (ipc=43.7) sim_rate=123036 (inst/sec) elapsed = 0:0:02:21 / Tue Mar 22 12:46:30 2016
GPGPU-Sim PTX: 17400000 instructions simulated : ctaid=(6,0,0) tid=(454,0,0)
GPGPU-Sim PTX: 17500000 instructions simulated : ctaid=(5,0,0) tid=(422,0,0)
GPGPU-Sim uArch: cycles simulated: 400000  inst.: 17504820 (ipc=43.8) sim_rate=123273 (inst/sec) elapsed = 0:0:02:22 / Tue Mar 22 12:46:31 2016
GPGPU-Sim PTX: 17600000 instructions simulated : ctaid=(3,0,0) tid=(422,0,0)
GPGPU-Sim PTX: 17700000 instructions simulated : ctaid=(1,0,0) tid=(454,0,0)
GPGPU-Sim uArch: cycles simulated: 403500  inst.: 17694100 (ipc=43.9) sim_rate=123734 (inst/sec) elapsed = 0:0:02:23 / Tue Mar 22 12:46:32 2016
GPGPU-Sim PTX: 17800000 instructions simulated : ctaid=(0,0,0) tid=(390,0,0)
GPGPU-Sim uArch: cycles simulated: 406500  inst.: 17862196 (ipc=43.9) sim_rate=124043 (inst/sec) elapsed = 0:0:02:24 / Tue Mar 22 12:46:33 2016
GPGPU-Sim PTX: 17900000 instructions simulated : ctaid=(12,0,0) tid=(454,0,0)
GPGPU-Sim PTX: 18000000 instructions simulated : ctaid=(9,0,0) tid=(390,0,0)
GPGPU-Sim uArch: cycles simulated: 410000  inst.: 18050452 (ipc=44.0) sim_rate=124485 (inst/sec) elapsed = 0:0:02:25 / Tue Mar 22 12:46:34 2016
GPGPU-Sim PTX: 18100000 instructions simulated : ctaid=(8,0,0) tid=(486,0,0)
GPGPU-Sim PTX: 18200000 instructions simulated : ctaid=(0,0,0) tid=(422,0,0)
GPGPU-Sim uArch: cycles simulated: 413000  inst.: 18211373 (ipc=44.1) sim_rate=124735 (inst/sec) elapsed = 0:0:02:26 / Tue Mar 22 12:46:35 2016
GPGPU-Sim PTX: 18300000 instructions simulated : ctaid=(18,0,0) tid=(92,0,0)
GPGPU-Sim uArch: Shader 1 finished CTA #0 (414907,0), 2 CTAs running
GPGPU-Sim uArch: core:  1, cta: 0 initialized @(414908,0)
GPGPU-Sim uArch: Shader 2 finished CTA #0 (414961,0), 2 CTAs running
GPGPU-Sim uArch: core:  2, cta: 0 initialized @(414962,0)
GPGPU-Sim uArch: Shader 8 finished CTA #0 (415150,0), 2 CTAs running
GPGPU-Sim uArch: core:  8, cta: 0 initialized @(415151,0)
GPGPU-Sim uArch: Shader 4 finished CTA #0 (415154,0), 2 CTAs running
GPGPU-Sim uArch: core:  4, cta: 0 initialized @(415155,0)
GPGPU-Sim uArch: Shader 7 finished CTA #0 (415180,0), 2 CTAs running
GPGPU-Sim uArch: core:  7, cta: 0 initialized @(415181,0)
GPGPU-Sim uArch: Shader 5 finished CTA #0 (415182,0), 2 CTAs running
GPGPU-Sim uArch: core:  5, cta: 0 initialized @(415183,0)
GPGPU-Sim uArch: Shader 13 finished CTA #0 (415209,0), 2 CTAs running
GPGPU-Sim uArch: core: 13, cta: 0 initialized @(415210,0)
GPGPU-Sim uArch: Shader 14 finished CTA #0 (415295,0), 2 CTAs running
GPGPU-Sim uArch: core: 14, cta: 0 initialized @(415296,0)
GPGPU-Sim uArch: Shader 3 finished CTA #0 (415323,0), 2 CTAs running
GPGPU-Sim uArch: core:  3, cta: 0 initialized @(415324,0)
GPGPU-Sim uArch: Shader 10 finished CTA #0 (415354,0), 2 CTAs running
GPGPU-Sim uArch: core: 10, cta: 0 initialized @(415355,0)
GPGPU-Sim uArch: Shader 11 finished CTA #0 (415356,0), 2 CTAs running
GPGPU-Sim uArch: core: 11, cta: 0 initialized @(415357,0)
GPGPU-Sim uArch: Shader 9 finished CTA #0 (415416,0), 2 CTAs running
GPGPU-Sim uArch: core:  9, cta: 0 initialized @(415417,0)
GPGPU-Sim uArch: Shader 6 finished CTA #0 (415443,0), 2 CTAs running
GPGPU-Sim uArch: core:  6, cta: 0 initialized @(415444,0)
GPGPU-Sim uArch: Shader 0 finished CTA #0 (415476,0), 2 CTAs running
GPGPU-Sim uArch: core:  0, cta: 0 initialized @(415477,0)
GPGPU-Sim uArch: Shader 12 finished CTA #0 (415488,0), 2 CTAs running
GPGPU-Sim uArch: core: 12, cta: 0 initialized @(415489,0)
GPGPU-Sim uArch: cycles simulated: 415500  inst.: 18349061 (ipc=44.2) sim_rate=124823 (inst/sec) elapsed = 0:0:02:27 / Tue Mar 22 12:46:36 2016
GPGPU-Sim PTX: 18400000 instructions simulated : ctaid=(23,0,0) tid=(60,0,0)
GPGPU-Sim PTX: 18500000 instructions simulated : ctaid=(17,0,0) tid=(60,0,0)
GPGPU-Sim uArch: cycles simulated: 418000  inst.: 18483045 (ipc=44.2) sim_rate=124885 (inst/sec) elapsed = 0:0:02:28 / Tue Mar 22 12:46:37 2016
GPGPU-Sim PTX: 18600000 instructions simulated : ctaid=(21,0,0) tid=(92,0,0)
GPGPU-Sim uArch: cycles simulated: 421000  inst.: 18645157 (ipc=44.3) sim_rate=125135 (inst/sec) elapsed = 0:0:02:29 / Tue Mar 22 12:46:38 2016
GPGPU-Sim PTX: 18700000 instructions simulated : ctaid=(24,0,0) tid=(124,0,0)
GPGPU-Sim PTX: 18800000 instructions simulated : ctaid=(17,0,0) tid=(92,0,0)
GPGPU-Sim uArch: cycles simulated: 423500  inst.: 18781925 (ipc=44.3) sim_rate=125212 (inst/sec) elapsed = 0:0:02:30 / Tue Mar 22 12:46:39 2016
GPGPU-Sim PTX: 18900000 instructions simulated : ctaid=(15,0,0) tid=(124,0,0)
GPGPU-Sim uArch: cycles simulated: 426000  inst.: 18919301 (ipc=44.4) sim_rate=125293 (inst/sec) elapsed = 0:0:02:31 / Tue Mar 22 12:46:40 2016
GPGPU-Sim PTX: 19000000 instructions simulated : ctaid=(28,0,0) tid=(28,0,0)
GPGPU-Sim PTX: 19100000 instructions simulated : ctaid=(23,0,0) tid=(92,0,0)
GPGPU-Sim uArch: cycles simulated: 429000  inst.: 19081797 (ipc=44.5) sim_rate=125538 (inst/sec) elapsed = 0:0:02:32 / Tue Mar 22 12:46:41 2016
GPGPU-Sim PTX: 19200000 instructions simulated : ctaid=(27,0,0) tid=(92,0,0)
GPGPU-Sim uArch: cycles simulated: 431500  inst.: 19219333 (ipc=44.5) sim_rate=125616 (inst/sec) elapsed = 0:0:02:33 / Tue Mar 22 12:46:42 2016
GPGPU-Sim PTX: 19300000 instructions simulated : ctaid=(18,0,0) tid=(92,0,0)
GPGPU-Sim uArch: cycles simulated: 434000  inst.: 19354629 (ipc=44.6) sim_rate=125679 (inst/sec) elapsed = 0:0:02:34 / Tue Mar 22 12:46:43 2016
GPGPU-Sim PTX: 19400000 instructions simulated : ctaid=(22,0,0) tid=(124,0,0)
GPGPU-Sim PTX: 19500000 instructions simulated : ctaid=(19,0,0) tid=(28,0,0)
GPGPU-Sim uArch: cycles simulated: 437000  inst.: 19515109 (ipc=44.7) sim_rate=125903 (inst/sec) elapsed = 0:0:02:35 / Tue Mar 22 12:46:44 2016
GPGPU-Sim PTX: 19600000 instructions simulated : ctaid=(23,0,0) tid=(92,0,0)
GPGPU-Sim uArch: cycles simulated: 438500  inst.: 19599429 (ipc=44.7) sim_rate=125637 (inst/sec) elapsed = 0:0:02:36 / Tue Mar 22 12:46:45 2016
GPGPU-Sim PTX: 19700000 instructions simulated : ctaid=(29,0,0) tid=(28,0,0)
GPGPU-Sim uArch: cycles simulated: 440500  inst.: 19704933 (ipc=44.7) sim_rate=125509 (inst/sec) elapsed = 0:0:02:37 / Tue Mar 22 12:46:46 2016
GPGPU-Sim PTX: 19800000 instructions simulated : ctaid=(18,0,0) tid=(28,0,0)
GPGPU-Sim uArch: cycles simulated: 442500  inst.: 19812613 (ipc=44.8) sim_rate=125396 (inst/sec) elapsed = 0:0:02:38 / Tue Mar 22 12:46:47 2016
GPGPU-Sim PTX: 19900000 instructions simulated : ctaid=(16,0,0) tid=(92,0,0)
GPGPU-Sim uArch: cycles simulated: 444500  inst.: 19921093 (ipc=44.8) sim_rate=125289 (inst/sec) elapsed = 0:0:02:39 / Tue Mar 22 12:46:48 2016
GPGPU-Sim PTX: 20000000 instructions simulated : ctaid=(16,0,0) tid=(28,0,0)
GPGPU-Sim uArch: cycles simulated: 446500  inst.: 20031909 (ipc=44.9) sim_rate=125199 (inst/sec) elapsed = 0:0:02:40 / Tue Mar 22 12:46:49 2016
GPGPU-Sim PTX: 20100000 instructions simulated : ctaid=(20,0,0) tid=(124,0,0)
GPGPU-Sim uArch: cycles simulated: 448500  inst.: 20138629 (ipc=44.9) sim_rate=125084 (inst/sec) elapsed = 0:0:02:41 / Tue Mar 22 12:46:50 2016
GPGPU-Sim PTX: 20200000 instructions simulated : ctaid=(20,0,0) tid=(92,0,0)
GPGPU-Sim PTX: 20300000 instructions simulated : ctaid=(20,0,0) tid=(60,0,0)
GPGPU-Sim uArch: cycles simulated: 451500  inst.: 20299333 (ipc=45.0) sim_rate=125304 (inst/sec) elapsed = 0:0:02:42 / Tue Mar 22 12:46:51 2016
GPGPU-Sim PTX: 20400000 instructions simulated : ctaid=(19,0,0) tid=(28,0,0)
GPGPU-Sim uArch: cycles simulated: 454000  inst.: 20435301 (ipc=45.0) sim_rate=125369 (inst/sec) elapsed = 0:0:02:43 / Tue Mar 22 12:46:52 2016
GPGPU-Sim PTX: 20500000 instructions simulated : ctaid=(27,0,0) tid=(124,0,0)
GPGPU-Sim uArch: cycles simulated: 456500  inst.: 20572485 (ipc=45.1) sim_rate=125441 (inst/sec) elapsed = 0:0:02:44 / Tue Mar 22 12:46:53 2016
GPGPU-Sim PTX: 20600000 instructions simulated : ctaid=(26,0,0) tid=(92,0,0)
GPGPU-Sim PTX: 20700000 instructions simulated : ctaid=(17,0,0) tid=(92,0,0)
GPGPU-Sim uArch: cycles simulated: 459500  inst.: 20734085 (ipc=45.1) sim_rate=125661 (inst/sec) elapsed = 0:0:02:45 / Tue Mar 22 12:46:54 2016
GPGPU-Sim PTX: 20800000 instructions simulated : ctaid=(28,0,0) tid=(92,0,0)
GPGPU-Sim uArch: cycles simulated: 462000  inst.: 20869445 (ipc=45.2) sim_rate=125719 (inst/sec) elapsed = 0:0:02:46 / Tue Mar 22 12:46:55 2016
GPGPU-Sim PTX: 20900000 instructions simulated : ctaid=(25,0,0) tid=(28,0,0)
GPGPU-Sim PTX: 21000000 instructions simulated : ctaid=(24,0,0) tid=(28,0,0)
GPGPU-Sim uArch: cycles simulated: 465000  inst.: 21032165 (ipc=45.2) sim_rate=125941 (inst/sec) elapsed = 0:0:02:47 / Tue Mar 22 12:46:56 2016
GPGPU-Sim PTX: 21100000 instructions simulated : ctaid=(26,0,0) tid=(92,0,0)
GPGPU-Sim uArch: cycles simulated: 467500  inst.: 21166693 (ipc=45.3) sim_rate=125992 (inst/sec) elapsed = 0:0:02:48 / Tue Mar 22 12:46:57 2016
GPGPU-Sim PTX: 21200000 instructions simulated : ctaid=(20,0,0) tid=(28,0,0)
GPGPU-Sim PTX: 21300000 instructions simulated : ctaid=(28,0,0) tid=(92,0,0)
GPGPU-Sim uArch: cycles simulated: 470500  inst.: 21331493 (ipc=45.3) sim_rate=126221 (inst/sec) elapsed = 0:0:02:49 / Tue Mar 22 12:46:58 2016
GPGPU-Sim PTX: 21400000 instructions simulated : ctaid=(16,0,0) tid=(28,0,0)
GPGPU-Sim uArch: cycles simulated: 473000  inst.: 21464709 (ipc=45.4) sim_rate=126262 (inst/sec) elapsed = 0:0:02:50 / Tue Mar 22 12:46:59 2016
GPGPU-Sim PTX: 21500000 instructions simulated : ctaid=(18,0,0) tid=(60,0,0)
GPGPU-Sim PTX: 21600000 instructions simulated : ctaid=(29,0,0) tid=(92,0,0)
GPGPU-Sim uArch: cycles simulated: 476000  inst.: 21629573 (ipc=45.4) sim_rate=126488 (inst/sec) elapsed = 0:0:02:51 / Tue Mar 22 12:47:00 2016
GPGPU-Sim PTX: 21700000 instructions simulated : ctaid=(17,0,0) tid=(28,0,0)
GPGPU-Sim uArch: cycles simulated: 478500  inst.: 21765157 (ipc=45.5) sim_rate=126541 (inst/sec) elapsed = 0:0:02:52 / Tue Mar 22 12:47:01 2016
GPGPU-Sim PTX: 21800000 instructions simulated : ctaid=(24,0,0) tid=(92,0,0)
GPGPU-Sim PTX: 21900000 instructions simulated : ctaid=(24,0,0) tid=(28,0,0)
GPGPU-Sim uArch: cycles simulated: 481500  inst.: 21926949 (ipc=45.5) sim_rate=126745 (inst/sec) elapsed = 0:0:02:53 / Tue Mar 22 12:47:02 2016
GPGPU-Sim PTX: 22000000 instructions simulated : ctaid=(21,0,0) tid=(92,0,0)
GPGPU-Sim uArch: cycles simulated: 484000  inst.: 22064517 (ipc=45.6) sim_rate=126807 (inst/sec) elapsed = 0:0:02:54 / Tue Mar 22 12:47:03 2016
GPGPU-Sim PTX: 22100000 instructions simulated : ctaid=(20,0,0) tid=(124,0,0)
GPGPU-Sim PTX: 22200000 instructions simulated : ctaid=(24,0,0) tid=(60,0,0)
GPGPU-Sim uArch: cycles simulated: 487000  inst.: 22220773 (ipc=45.6) sim_rate=126975 (inst/sec) elapsed = 0:0:02:55 / Tue Mar 22 12:47:04 2016
GPGPU-Sim PTX: 22300000 instructions simulated : ctaid=(24,0,0) tid=(28,0,0)
GPGPU-Sim uArch: cycles simulated: 489500  inst.: 22358949 (ipc=45.7) sim_rate=127039 (inst/sec) elapsed = 0:0:02:56 / Tue Mar 22 12:47:05 2016
GPGPU-Sim PTX: 22400000 instructions simulated : ctaid=(28,0,0) tid=(60,0,0)
GPGPU-Sim PTX: 22500000 instructions simulated : ctaid=(16,0,0) tid=(60,0,0)
GPGPU-Sim uArch: cycles simulated: 492500  inst.: 22520389 (ipc=45.7) sim_rate=127233 (inst/sec) elapsed = 0:0:02:57 / Tue Mar 22 12:47:06 2016
GPGPU-Sim PTX: 22600000 instructions simulated : ctaid=(20,0,0) tid=(92,0,0)
GPGPU-Sim uArch: cycles simulated: 495000  inst.: 22653573 (ipc=45.8) sim_rate=127267 (inst/sec) elapsed = 0:0:02:58 / Tue Mar 22 12:47:07 2016
GPGPU-Sim PTX: 22700000 instructions simulated : ctaid=(24,0,0) tid=(60,0,0)
GPGPU-Sim PTX: 22800000 instructions simulated : ctaid=(24,0,0) tid=(26,0,0)
GPGPU-Sim uArch: cycles simulated: 498000  inst.: 22803726 (ipc=45.8) sim_rate=127395 (inst/sec) elapsed = 0:0:02:59 / Tue Mar 22 12:47:08 2016
GPGPU-Sim PTX: 22900000 instructions simulated : ctaid=(17,0,0) tid=(150,0,0)
GPGPU-Sim uArch: cycles simulated: 500000  inst.: 22913521 (ipc=45.8) sim_rate=127297 (inst/sec) elapsed = 0:0:03:00 / Tue Mar 22 12:47:09 2016
GPGPU-Sim PTX: 23000000 instructions simulated : ctaid=(19,0,0) tid=(246,0,0)
GPGPU-Sim PTX: 23100000 instructions simulated : ctaid=(23,0,0) tid=(246,0,0)
GPGPU-Sim uArch: cycles simulated: 503000  inst.: 23078545 (ipc=45.9) sim_rate=127505 (inst/sec) elapsed = 0:0:03:01 / Tue Mar 22 12:47:10 2016
GPGPU-Sim PTX: 23200000 instructions simulated : ctaid=(21,0,0) tid=(182,0,0)
GPGPU-Sim uArch: cycles simulated: 506000  inst.: 23239121 (ipc=45.9) sim_rate=127687 (inst/sec) elapsed = 0:0:03:02 / Tue Mar 22 12:47:11 2016
GPGPU-Sim PTX: 23300000 instructions simulated : ctaid=(15,0,0) tid=(214,0,0)
GPGPU-Sim PTX: 23400000 instructions simulated : ctaid=(16,0,0) tid=(246,0,0)
GPGPU-Sim uArch: cycles simulated: 509000  inst.: 23404529 (ipc=46.0) sim_rate=127893 (inst/sec) elapsed = 0:0:03:03 / Tue Mar 22 12:47:12 2016
GPGPU-Sim PTX: 23500000 instructions simulated : ctaid=(29,0,0) tid=(214,0,0)
GPGPU-Sim uArch: cycles simulated: 512000  inst.: 23565489 (ipc=46.0) sim_rate=128073 (inst/sec) elapsed = 0:0:03:04 / Tue Mar 22 12:47:13 2016
GPGPU-Sim PTX: 23600000 instructions simulated : ctaid=(21,0,0) tid=(214,0,0)
GPGPU-Sim PTX: 23700000 instructions simulated : ctaid=(28,0,0) tid=(182,0,0)
GPGPU-Sim uArch: cycles simulated: 514500  inst.: 23704049 (ipc=46.1) sim_rate=128129 (inst/sec) elapsed = 0:0:03:05 / Tue Mar 22 12:47:14 2016
GPGPU-Sim PTX: 23800000 instructions simulated : ctaid=(24,0,0) tid=(182,0,0)
GPGPU-Sim uArch: cycles simulated: 517500  inst.: 23866865 (ipc=46.1) sim_rate=128316 (inst/sec) elapsed = 0:0:03:06 / Tue Mar 22 12:47:15 2016
GPGPU-Sim PTX: 23900000 instructions simulated : ctaid=(23,0,0) tid=(246,0,0)
GPGPU-Sim PTX: 24000000 instructions simulated : ctaid=(19,0,0) tid=(150,0,0)
GPGPU-Sim uArch: cycles simulated: 520500  inst.: 24030801 (ipc=46.2) sim_rate=128506 (inst/sec) elapsed = 0:0:03:07 / Tue Mar 22 12:47:16 2016
GPGPU-Sim PTX: 24100000 instructions simulated : ctaid=(24,0,0) tid=(214,0,0)
GPGPU-Sim PTX: 24200000 instructions simulated : ctaid=(20,0,0) tid=(150,0,0)
GPGPU-Sim uArch: cycles simulated: 523500  inst.: 24191313 (ipc=46.2) sim_rate=128677 (inst/sec) elapsed = 0:0:03:08 / Tue Mar 22 12:47:17 2016
GPGPU-Sim PTX: 24300000 instructions simulated : ctaid=(18,0,0) tid=(150,0,0)
GPGPU-Sim uArch: cycles simulated: 526000  inst.: 24327729 (ipc=46.3) sim_rate=128718 (inst/sec) elapsed = 0:0:03:09 / Tue Mar 22 12:47:18 2016
GPGPU-Sim PTX: 24400000 instructions simulated : ctaid=(19,0,0) tid=(150,0,0)
GPGPU-Sim PTX: 24500000 instructions simulated : ctaid=(26,0,0) tid=(246,0,0)
GPGPU-Sim uArch: cycles simulated: 529000  inst.: 24490321 (ipc=46.3) sim_rate=128896 (inst/sec) elapsed = 0:0:03:10 / Tue Mar 22 12:47:19 2016
GPGPU-Sim PTX: 24600000 instructions simulated : ctaid=(27,0,0) tid=(214,0,0)
GPGPU-Sim uArch: cycles simulated: 532000  inst.: 24655569 (ipc=46.3) sim_rate=129086 (inst/sec) elapsed = 0:0:03:11 / Tue Mar 22 12:47:20 2016
GPGPU-Sim PTX: 24700000 instructions simulated : ctaid=(20,0,0) tid=(182,0,0)
GPGPU-Sim PTX: 24800000 instructions simulated : ctaid=(28,0,0) tid=(182,0,0)
GPGPU-Sim uArch: cycles simulated: 535000  inst.: 24814449 (ipc=46.4) sim_rate=129241 (inst/sec) elapsed = 0:0:03:12 / Tue Mar 22 12:47:21 2016
GPGPU-Sim PTX: 24900000 instructions simulated : ctaid=(22,0,0) tid=(150,0,0)
GPGPU-Sim PTX: 25000000 instructions simulated : ctaid=(29,0,0) tid=(214,0,0)
GPGPU-Sim uArch: cycles simulated: 538000  inst.: 24977585 (ipc=46.4) sim_rate=129417 (inst/sec) elapsed = 0:0:03:13 / Tue Mar 22 12:47:22 2016
GPGPU-Sim PTX: 25100000 instructions simulated : ctaid=(20,0,0) tid=(150,0,0)
GPGPU-Sim uArch: cycles simulated: 540500  inst.: 25112113 (ipc=46.5) sim_rate=129443 (inst/sec) elapsed = 0:0:03:14 / Tue Mar 22 12:47:23 2016
GPGPU-Sim PTX: 25200000 instructions simulated : ctaid=(27,0,0) tid=(182,0,0)
GPGPU-Sim PTX: 25300000 instructions simulated : ctaid=(28,0,0) tid=(246,0,0)
GPGPU-Sim uArch: cycles simulated: 543500  inst.: 25277649 (ipc=46.5) sim_rate=129628 (inst/sec) elapsed = 0:0:03:15 / Tue Mar 22 12:47:24 2016
GPGPU-Sim PTX: 25400000 instructions simulated : ctaid=(28,0,0) tid=(214,0,0)
GPGPU-Sim uArch: cycles simulated: 546500  inst.: 25438641 (ipc=46.5) sim_rate=129788 (inst/sec) elapsed = 0:0:03:16 / Tue Mar 22 12:47:25 2016
GPGPU-Sim PTX: 25500000 instructions simulated : ctaid=(29,0,0) tid=(182,0,0)
GPGPU-Sim uArch: cycles simulated: 549000  inst.: 25574993 (ipc=46.6) sim_rate=129822 (inst/sec) elapsed = 0:0:03:17 / Tue Mar 22 12:47:26 2016
GPGPU-Sim PTX: 25600000 instructions simulated : ctaid=(24,0,0) tid=(214,0,0)
GPGPU-Sim PTX: 25700000 instructions simulated : ctaid=(25,0,0) tid=(150,0,0)
GPGPU-Sim uArch: cycles simulated: 552000  inst.: 25733809 (ipc=46.6) sim_rate=129968 (inst/sec) elapsed = 0:0:03:18 / Tue Mar 22 12:47:27 2016
GPGPU-Sim PTX: 25800000 instructions simulated : ctaid=(28,0,0) tid=(246,0,0)
GPGPU-Sim PTX: 25900000 instructions simulated : ctaid=(29,0,0) tid=(246,0,0)
GPGPU-Sim uArch: cycles simulated: 555000  inst.: 25900721 (ipc=46.7) sim_rate=130154 (inst/sec) elapsed = 0:0:03:19 / Tue Mar 22 12:47:28 2016
GPGPU-Sim PTX: 26000000 instructions simulated : ctaid=(23,0,0) tid=(150,0,0)
GPGPU-Sim uArch: cycles simulated: 558000  inst.: 26061361 (ipc=46.7) sim_rate=130306 (inst/sec) elapsed = 0:0:03:20 / Tue Mar 22 12:47:29 2016
GPGPU-Sim PTX: 26100000 instructions simulated : ctaid=(15,0,0) tid=(246,0,0)
GPGPU-Sim PTX: 26200000 instructions simulated : ctaid=(16,0,0) tid=(182,0,0)
GPGPU-Sim uArch: cycles simulated: 560500  inst.: 26199217 (ipc=46.7) sim_rate=130344 (inst/sec) elapsed = 0:0:03:21 / Tue Mar 22 12:47:30 2016
GPGPU-Sim PTX: 26300000 instructions simulated : ctaid=(29,0,0) tid=(214,0,0)
GPGPU-Sim uArch: cycles simulated: 563500  inst.: 26355249 (ipc=46.8) sim_rate=130471 (inst/sec) elapsed = 0:0:03:22 / Tue Mar 22 12:47:31 2016
GPGPU-Sim PTX: 26400000 instructions simulated : ctaid=(24,0,0) tid=(150,0,0)
GPGPU-Sim PTX: 26500000 instructions simulated : ctaid=(23,0,0) tid=(150,0,0)
GPGPU-Sim uArch: cycles simulated: 566500  inst.: 26521777 (ipc=46.8) sim_rate=130649 (inst/sec) elapsed = 0:0:03:23 / Tue Mar 22 12:47:32 2016
GPGPU-Sim PTX: 26600000 instructions simulated : ctaid=(25,0,0) tid=(214,0,0)
GPGPU-Sim PTX: 26700000 instructions simulated : ctaid=(15,0,0) tid=(246,0,0)
GPGPU-Sim uArch: cycles simulated: 569500  inst.: 26683441 (ipc=46.9) sim_rate=130801 (inst/sec) elapsed = 0:0:03:24 / Tue Mar 22 12:47:33 2016
GPGPU-Sim PTX: 26800000 instructions simulated : ctaid=(16,0,0) tid=(214,0,0)
GPGPU-Sim uArch: cycles simulated: 572500  inst.: 26843473 (ipc=46.9) sim_rate=130943 (inst/sec) elapsed = 0:0:03:25 / Tue Mar 22 12:47:34 2016
GPGPU-Sim PTX: 26900000 instructions simulated : ctaid=(15,0,0) tid=(150,0,0)
GPGPU-Sim PTX: 27000000 instructions simulated : ctaid=(25,0,0) tid=(150,0,0)
GPGPU-Sim uArch: cycles simulated: 575000  inst.: 26978289 (ipc=46.9) sim_rate=130962 (inst/sec) elapsed = 0:0:03:26 / Tue Mar 22 12:47:35 2016
GPGPU-Sim PTX: 27100000 instructions simulated : ctaid=(23,0,0) tid=(246,0,0)
GPGPU-Sim uArch: cycles simulated: 578000  inst.: 27143825 (ipc=47.0) sim_rate=131129 (inst/sec) elapsed = 0:0:03:27 / Tue Mar 22 12:47:36 2016
GPGPU-Sim PTX: 27200000 instructions simulated : ctaid=(26,0,0) tid=(246,0,0)
GPGPU-Sim PTX: 27300000 instructions simulated : ctaid=(18,0,0) tid=(134,0,0)
GPGPU-Sim uArch: cycles simulated: 581000  inst.: 27302773 (ipc=47.0) sim_rate=131263 (inst/sec) elapsed = 0:0:03:28 / Tue Mar 22 12:47:37 2016
GPGPU-Sim PTX: 27400000 instructions simulated : ctaid=(28,0,0) tid=(302,0,0)
GPGPU-Sim uArch: cycles simulated: 583000  inst.: 27411787 (ipc=47.0) sim_rate=131156 (inst/sec) elapsed = 0:0:03:29 / Tue Mar 22 12:47:38 2016
GPGPU-Sim PTX: 27500000 instructions simulated : ctaid=(16,0,0) tid=(377,0,0)
GPGPU-Sim uArch: cycles simulated: 585500  inst.: 27550475 (ipc=47.1) sim_rate=131192 (inst/sec) elapsed = 0:0:03:30 / Tue Mar 22 12:47:39 2016
GPGPU-Sim PTX: 27600000 instructions simulated : ctaid=(18,0,0) tid=(313,0,0)
GPGPU-Sim PTX: 27700000 instructions simulated : ctaid=(27,0,0) tid=(345,0,0)
GPGPU-Sim uArch: cycles simulated: 588500  inst.: 27712299 (ipc=47.1) sim_rate=131337 (inst/sec) elapsed = 0:0:03:31 / Tue Mar 22 12:47:40 2016
GPGPU-Sim PTX: 27800000 instructions simulated : ctaid=(28,0,0) tid=(377,0,0)
GPGPU-Sim uArch: cycles simulated: 591000  inst.: 27851755 (ipc=47.1) sim_rate=131376 (inst/sec) elapsed = 0:0:03:32 / Tue Mar 22 12:47:41 2016
GPGPU-Sim PTX: 27900000 instructions simulated : ctaid=(15,0,0) tid=(281,0,0)
GPGPU-Sim PTX: 28000000 instructions simulated : ctaid=(17,0,0) tid=(345,0,0)
GPGPU-Sim uArch: cycles simulated: 593500  inst.: 27985099 (ipc=47.2) sim_rate=131385 (inst/sec) elapsed = 0:0:03:33 / Tue Mar 22 12:47:42 2016
GPGPU-Sim PTX: 28100000 instructions simulated : ctaid=(16,0,0) tid=(281,0,0)
GPGPU-Sim uArch: cycles simulated: 596000  inst.: 28121163 (ipc=47.2) sim_rate=131407 (inst/sec) elapsed = 0:0:03:34 / Tue Mar 22 12:47:43 2016
GPGPU-Sim PTX: 28200000 instructions simulated : ctaid=(17,0,0) tid=(313,0,0)
GPGPU-Sim PTX: 28300000 instructions simulated : ctaid=(22,0,0) tid=(377,0,0)
GPGPU-Sim uArch: cycles simulated: 599000  inst.: 28289131 (ipc=47.2) sim_rate=131577 (inst/sec) elapsed = 0:0:03:35 / Tue Mar 22 12:47:44 2016
GPGPU-Sim PTX: 28400000 instructions simulated : ctaid=(15,0,0) tid=(313,0,0)
GPGPU-Sim uArch: cycles simulated: 601000  inst.: 28394059 (ipc=47.2) sim_rate=131453 (inst/sec) elapsed = 0:0:03:36 / Tue Mar 22 12:47:45 2016
GPGPU-Sim PTX: 28500000 instructions simulated : ctaid=(28,0,0) tid=(281,0,0)
GPGPU-Sim uArch: cycles simulated: 603500  inst.: 28531115 (ipc=47.3) sim_rate=131479 (inst/sec) elapsed = 0:0:03:37 / Tue Mar 22 12:47:46 2016
GPGPU-Sim PTX: 28600000 instructions simulated : ctaid=(23,0,0) tid=(377,0,0)
GPGPU-Sim uArch: cycles simulated: 606000  inst.: 28669323 (ipc=47.3) sim_rate=131510 (inst/sec) elapsed = 0:0:03:38 / Tue Mar 22 12:47:47 2016
GPGPU-Sim PTX: 28700000 instructions simulated : ctaid=(20,0,0) tid=(313,0,0)
GPGPU-Sim PTX: 28800000 instructions simulated : ctaid=(15,0,0) tid=(377,0,0)
GPGPU-Sim uArch: cycles simulated: 609000  inst.: 28827627 (ipc=47.3) sim_rate=131633 (inst/sec) elapsed = 0:0:03:39 / Tue Mar 22 12:47:48 2016
GPGPU-Sim PTX: 28900000 instructions simulated : ctaid=(16,0,0) tid=(313,0,0)
GPGPU-Sim uArch: cycles simulated: 611500  inst.: 28963467 (ipc=47.4) sim_rate=131652 (inst/sec) elapsed = 0:0:03:40 / Tue Mar 22 12:47:49 2016
GPGPU-Sim PTX: 29000000 instructions simulated : ctaid=(17,0,0) tid=(345,0,0)
GPGPU-Sim PTX: 29100000 instructions simulated : ctaid=(26,0,0) tid=(281,0,0)
GPGPU-Sim uArch: cycles simulated: 614500  inst.: 29126123 (ipc=47.4) sim_rate=131792 (inst/sec) elapsed = 0:0:03:41 / Tue Mar 22 12:47:50 2016
GPGPU-Sim PTX: 29200000 instructions simulated : ctaid=(20,0,0) tid=(313,0,0)
GPGPU-Sim uArch: cycles simulated: 617000  inst.: 29262123 (ipc=47.4) sim_rate=131811 (inst/sec) elapsed = 0:0:03:42 / Tue Mar 22 12:47:51 2016
GPGPU-Sim PTX: 29300000 instructions simulated : ctaid=(15,0,0) tid=(345,0,0)
GPGPU-Sim PTX: 29400000 instructions simulated : ctaid=(21,0,0) tid=(377,0,0)
GPGPU-Sim uArch: cycles simulated: 619500  inst.: 29397259 (ipc=47.5) sim_rate=131826 (inst/sec) elapsed = 0:0:03:43 / Tue Mar 22 12:47:52 2016
GPGPU-Sim PTX: 29500000 instructions simulated : ctaid=(22,0,0) tid=(313,0,0)
GPGPU-Sim uArch: cycles simulated: 622500  inst.: 29565227 (ipc=47.5) sim_rate=131987 (inst/sec) elapsed = 0:0:03:44 / Tue Mar 22 12:47:53 2016
GPGPU-Sim PTX: 29600000 instructions simulated : ctaid=(17,0,0) tid=(281,0,0)
GPGPU-Sim PTX: 29700000 instructions simulated : ctaid=(16,0,0) tid=(377,0,0)
GPGPU-Sim uArch: cycles simulated: 625500  inst.: 29723467 (ipc=47.5) sim_rate=132104 (inst/sec) elapsed = 0:0:03:45 / Tue Mar 22 12:47:54 2016
GPGPU-Sim PTX: 29800000 instructions simulated : ctaid=(25,0,0) tid=(281,0,0)
GPGPU-Sim PTX: 29900000 instructions simulated : ctaid=(18,0,0) tid=(377,0,0)
GPGPU-Sim uArch: cycles simulated: 628500  inst.: 29887115 (ipc=47.6) sim_rate=132243 (inst/sec) elapsed = 0:0:03:46 / Tue Mar 22 12:47:55 2016
[...]
traffic_breakdown_coretomem[GLOBAL_ACC_W] = 4514512 {40:10327,72:1856,136:29175,}
traffic_breakdown_coretomem[INST_ACC_R] = 840 {8:105,}
traffic_breakdown_memtocore[CONST_ACC_R] = 1080 {72:15,}
traffic_breakdown_memtocore[GLOBAL_ACC_R] = 157117536 {136:1155276,}
traffic_breakdown_memtocore[GLOBAL_ACC_W] = 330864 {8:41358,}
traffic_breakdown_memtocore[INST_ACC_R] = 14280 {136:105,}
maxmrqlatency = 270 
maxdqlatency = 0 
maxmflatency = 900 
averagemflatency = 280 
max_icnt2mem_latency = 477 
max_icnt2sh_latency = 6769365 
mrq_lat_table:311150 	28710 	130592 	483348 	175782 	12274 	2738 	618 	9 	0 	0 	0 	0 	0 	0 	0 	0 	0 	0 	0 	0 	0 	0 	0 	0 	0 	0 	0 	0 	0 	0 	0 	
dq_lat_table:0 	0 	0 	0 	0 	0 	0 	0 	0 	0 	0 	0 	0 	0 	0 	0 	0 	0 	0 	0 	0 	0 	0 	0 	0 	0 	0 	0 	0 	0 	0 	0 	
mf_lat_table:0 	0 	0 	0 	0 	0 	0 	39036 	1150174 	7439 	0 	0 	0 	0 	0 	0 	0 	0 	0 	0 	0 	0 	0 	0 	0 	0 	0 	0 	0 	0 	0 	0 	
icnt2mem_lat_table:0 	0 	0 	1119971 	32138 	19129 	18250 	6342 	924 	0 	0 	0 	0 	0 	0 	0 	0 	0 	0 	0 	0 	0 	0 	0 	
icnt2sh_lat_table:0 	0 	0 	438447 	680810 	28744 	7206 	84 	0 	0 	0 	0 	0 	0 	0 	0 	0 	1814 	2747 	4488 	10996 	13473 	7840 	0 	
mf_lat_pw_table:0 	0 	0 	0 	0 	0 	0 	121 	13413 	3 	0 	0 	0 	0 	0 	0 	0 	0 	0 	0 	0 	0 	0 	0 	0 	0 	0 	0 	0 	0 	0 	0 	
maximum concurrent accesses to same row:
dram[0]:        18        20        32        28        32        32        32        32        32        32        26        24        32        24        24        36 
dram[1]:        30        28        36        28        32        32        32        32        32        32        26        24        32        24        24        37 
dram[2]:        16        24        32        36        32        32        32        32        24        32        24        32        32        28        30        26 
dram[3]:        28        32        28        36        32        32        32        32        24        32        24        32        32        28        30        26 
dram[4]:        18        16        40        36        32        32        32        32        32        24        24        24        32        24        32        34 
dram[5]:        32        28        40        36        32        32        32        32        32        24        24        24        32        24        32        34 
maximum service time to same row:
dram[0]:    243691    236047    660125    658332    491682    491822    328459    409744    331806    411175    493984    492277    659701    658268    326931    408850 
dram[1]:    167278    235920    494286    413680    491625    491725    328469    409741    331896    411338    494369    331238    659717    658266    326924    408829 
dram[2]:    238447    245675    741039    494544    491644    491987    409828    409760    331690    331839    492216    328075    740977    575319    408840    326875 
dram[3]:    167599    167916    492515    494716    491547    491997    250225    409758    331939    409656    492217    328084    740976    575319    408831    326874 
dram[4]:    240118    238883    660341    492482    491795    491865    409752    409756    331675    332071    331230    492037    659628    492723    332505    408829 
dram[5]:    167773    167598    660474    492482    491828    491847    409748    409755    331619    331910    331225    492035    659645    414250    332513    408829 
average row accesses per activate:
dram[0]:  7.065344  7.105047  5.205895  5.563492  7.361887  7.170496  5.657632  5.542618  7.395146  7.276622  5.124946  5.468635  6.087404  5.988872  5.563910  5.517241 
dram[1]:  7.050058  7.106933  6.033350  4.726855  7.389408  7.231707  5.630857  5.578997  7.450784  7.254424  5.162892  5.461078  6.019319  5.964736  5.558685  5.582273 
dram[2]:  7.023229  7.070135  6.027273  5.601034  6.577926  7.341991  5.547786  5.182086  7.306699  7.470478  5.020322  5.593204  5.982820  6.129333  5.442811  5.087162 
dram[3]:  7.094428  7.130230  6.001005  5.600751  7.258262  7.289570  4.812573  6.085934  7.324708  7.475173  5.043811  5.590566  6.050076  6.036169  5.506977  5.152307 
dram[4]:  7.194296  7.049476  5.596434  5.439781  7.348203  7.168580  5.606975  6.007067  7.416095  7.177536  5.552225  5.085371  5.149035  5.982820  5.540477  5.105649 
dram[5]:  7.236559  7.048340  5.595026  5.496542  7.339109  7.194664  5.571830  5.948052  7.434647  7.278628  5.548176  5.482886  6.053170  5.063997  5.577013  5.110056 
average row locality = 1145221/188815 = 6.065307
number of total memory accesses made:
dram[0]:         0         0         0         0         0         0         0         0         0         0         0         0         0         0         0         0 
dram[1]:         0         0         0         0         0         0         0         0         0         0         0         0         0         0         0         0 
dram[2]:         0         0         0         0         0         0         0         0         0         0         0         0         0         0         0         0 
dram[3]:         0         0         0         0         0         0         0         0         0         0         0         0         0         0         0         0 
dram[4]:         0         0         0         0         0         0         0         0         0         0         0         0         0         0         0         0 
dram[5]:         0         0         0         0         0         0         0         0         0         0         0         0         0         0         0         0 
total accesses: 0
min_bank_accesses = 0!
min_chip_accesses = 0!
number of total read accesses:
dram[0]:     11619     11616     12006     11572     11562     11562     11584     11584     11584     11584     11564     11562     11552     11552     11552     11552 
dram[1]:     11618     11616     11576     12002     11562     11562     11584     11584     11584     11584     11564     11562     11552     11552     11552     11552 
dram[2]:     11618     11616     11576     11572     11562     11572     11584     12009     11584     11593     11564     11562     11552     11560     11561     11560 
dram[3]:     11617     11616     11576     11572     11562     11582     12009     11584     11584     11593     11564     11562     11552     11561     11552     11552 
dram[4]:     11616     11616     11572     11572     11562     11564     11584     11584     11584     11584     11562     11562     11977     11552     11552     11552 
dram[5]:     11616     11616     11572     11572     11562     11564     11593     11592     11584     11584     11570     11562     11552     11977     11552     11552 
total reads: 1113711
bank skew: 12009/11552 = 1.04
chip skew: 185645/185595 = 1.00
number of total write accesses:
dram[0]:       491       491       358       345       298       298       314       316       300       306       290       294       288       288       288       288 
dram[1]:       494       480       364       354       298       298       314       316       300       306       290       294       288       288       288       288 
dram[2]:       476       481       358       347       298       300       316       314       304       300       294       290       288       288       288       288 
dram[3]:       479       484       366       352       298       300       316       314       304       300       294       290       288       288       288       288 
dram[4]:       492       495       354       352       298       300       314       316       304       302       292       292       288       288       288       288 
dram[5]:       498       486       351       350       298       300       314       316       304       302       292       292       288       288       288       288 
total reads: 31510
bank skew: 498/288 = 1.73
chip skew: 5263/5230 = 1.01
average mf latency per bank:
dram[0]:        285       282       405       284       286       284       287       286       284       284       286       284       284       284       285       285
dram[1]:        284       282       285       404       286       283       286       285       284       283       285       284       285       284       285       285
dram[2]:        282       283       284       285       284       288       286       407       284       287       284       286       284       288       286       288
dram[3]:        282       283       283       285       284       291       405       287       283       287       283       286       283       287       284       286
dram[4]:        283       283       285       286       285       286       287       287       285       285       286       286       405       285       286       286
dram[5]:        283       283       285       284       286       285       290       289       284       284       290       285       286       404       286       285
maximum mf latency per bank:
dram[0]:        710       675       771       778       743       729       734       689       691       640       709       684       718       691       797       734
dram[1]:        723       713       680       718       713       676       748       732       699       654       758       747       692       808       787       782
dram[2]:        741       698       664       640       733       699       780       748       624       590       634       652       754       694       738       750
dram[3]:        693       645       728       681       709       717       776       756       727       682       665       646       762       710       764       900
dram[4]:        686       656       632       734       700       721       750       751       647       735       753       711       761       778       710       765
dram[5]:        749       689       758       722       701       741       804       736       671       719       764       715       822       798       778       830

Number of Memory Banks Accessed per Memory Operation per Warp (from 0):
0	0	0	0	0	0	0	0	0	0	0	0	0	0	0	0	0	0	0	0	0	0	0	0	0	0	0	0	0	0	0	0	0	0	0	0	0	0	0	0	0	0	0	0	0	0	0	0	0	0	0	0	0	0	0	0	0	0	0	0	0	0	0	0	0	0	0	0	0	0	0	0	0	0	0	0	0	0	0	0	0	0	0	0	0	0	0	0	0	0	0	0	0	0	0	0	
Average # of Memory Banks Accessed per Memory Operation per Warp=-nan

position of mrq chosen
0	0	0	0	0	0	0	0	0	0	0	0	0	0	0	0	

average position of mrq chosen = -nan
Memory Partition 0: 
Cache L2_bank_000:
MSHR contents

Cache L2_bank_001:
MSHR contents

In Dram Latency Queue (total = 0): 
DRAM[0]: 16 bks, busW=4 BL=8 CL=12, tRRD=2 tCCD=6, tRCD=12 tRAS=28 tRP=12 tRC=40
n_cmd=8935561 n_nop=8491530 n_act=31368 n_pre=31352 n_req=190860 n_rd=371214 n_write=10097 bw_util=0.08535
n_activity=1937528 dram_eff=0.3936
bk0: 23238a 8816125i bk1: 23232a 8817195i bk2: 24012a 8800449i bk3: 23144a 8805825i bk4: 23124a 8819578i bk5: 23124a 8819290i bk6: 23168a 8806627i bk7: 23168a 8801189i bk8: 23168a 8821422i bk9: 23168a 8822743i bk10: 23128a 8804913i bk11: 23124a 8805117i bk12: 23104a 8810616i bk13: 23104a 8809827i bk14: 23104a 8804647i bk15: 23104a 8800142i 
dram_util_bins: 0 0 0 0 0 0 0 0 0 0
dram_eff_bins: 0 0 0 0 0 0 0 0 0 0
mrqq: max=16 avg=0.244855
Memory Partition 1: 
Cache L2_bank_002:
MSHR contents

Cache L2_bank_003:
MSHR contents

In Dram Latency Queue (total = 0): 
DRAM[1]: 16 bks, busW=4 BL=8 CL=12, tRRD=2 tCCD=6, tRCD=12 tRAS=28 tRP=12 tRC=40
n_cmd=8935561 n_nop=8491437 n_act=31408 n_pre=31392 n_req=190866 n_rd=371212 n_write=10112 bw_util=0.08535
n_activity=1929857 dram_eff=0.3952
bk0: 23236a 8816355i bk1: 23232a 8816548i bk2: 23152a 8811914i bk3: 24004a 8792418i bk4: 23124a 8817288i bk5: 23124a 8817703i bk6: 23168a 8807337i bk7: 23168a 8803959i bk8: 23168a 8821856i bk9: 23168a 8821752i bk10: 23128a 8804829i bk11: 23124a 8805517i bk12: 23104a 8809729i bk13: 23104a 8805512i bk14: 23104a 8805414i bk15: 23104a 8802121i 
dram_util_bins: 0 0 0 0 0 0 0 0 0 0
dram_eff_bins: 0 0 0 0 0 0 0 0 0 0
mrqq: max=16 avg=0.24944
Memory Partition 2: 
Cache L2_bank_004:
MSHR contents

Cache L2_bank_005:
MSHR contents

In Dram Latency Queue (total = 0): 
DRAM[2]: 16 bks, busW=4 BL=8 CL=12, tRRD=2 tCCD=6, tRCD=12 tRAS=28 tRP=12 tRC=40
n_cmd=8935561 n_nop=8491006 n_act=31602 n_pre=31586 n_req=190875 n_rd=371290 n_write=10077 bw_util=0.08536
n_activity=1953387 dram_eff=0.3905
bk0: 23236a 8814500i bk1: 23232a 8817817i bk2: 23152a 8813394i bk3: 23144a 8808851i bk4: 23124a 8815499i bk5: 23144a 8820170i bk6: 23168a 8806075i bk7: 24018a 8797926i bk8: 23168a 8821442i bk9: 23186a 8825286i bk10: 23128a 8803716i bk11: 23124a 8807458i bk12: 23104a 8808560i bk13: 23120a 8807535i bk14: 23122a 8805127i bk15: 23120a 8794038i 
dram_util_bins: 0 0 0 0 0 0 0 0 0 0
dram_eff_bins: 0 0 0 0 0 0 0 0 0 0
mrqq: max=16 avg=0.242456
Memory Partition 3: 
Cache L2_bank_006:
MSHR contents

Cache L2_bank_007:
MSHR contents

In Dram Latency Queue (total = 0): 
DRAM[3]: 16 bks, busW=4 BL=8 CL=12, tRRD=2 tCCD=6, tRCD=12 tRAS=28 tRP=12 tRC=40
n_cmd=8935561 n_nop=8491486 n_act=31354 n_pre=31338 n_req=190887 n_rd=371276 n_write=10107 bw_util=0.08536
n_activity=1926015 dram_eff=0.396
bk0: 23234a 8814831i bk1: 23232a 8817570i bk2: 23152a 8812218i bk3: 23144a 8809076i bk4: 23124a 8817070i bk5: 23164a 8818769i bk6: 24018a 8794332i bk7: 23168a 8806450i bk8: 23168a 8821277i bk9: 23186a 8824877i bk10: 23128a 8805412i bk11: 23124a 8807546i bk12: 23104a 8809220i bk13: 23122a 8807700i bk14: 23104a 8799480i bk15: 23104a 8798421i 
dram_util_bins: 0 0 0 0 0 0 0 0 0 0
dram_eff_bins: 0 0 0 0 0 0 0 0 0 0
mrqq: max=16 avg=0.245531
Memory Partition 4: 
Cache L2_bank_008:
MSHR contents

Cache L2_bank_009:
MSHR contents

In Dram Latency Queue (total = 0): 
DRAM[4]: 16 bks, busW=4 BL=8 CL=12, tRRD=2 tCCD=6, tRCD=12 tRAS=28 tRP=12 tRC=40
n_cmd=8935561 n_nop=8491010 n_act=31638 n_pre=31622 n_req=190858 n_rd=371190 n_write=10101 bw_util=0.08534
n_activity=1939598 dram_eff=0.3932
bk0: 23232a 8815946i bk1: 23232a 8817080i bk2: 23144a 8807557i bk3: 23144a 8805716i bk4: 23124a 8818626i bk5: 23128a 8817559i bk6: 23168a 8808107i bk7: 23168a 8807358i bk8: 23168a 8822342i bk9: 23168a 8822357i bk10: 23124a 8810547i bk11: 23124a 8803213i bk12: 23954a 8799114i bk13: 23104a 8806332i bk14: 23104a 8803228i bk15: 23104a 8795845i 
dram_util_bins: 0 0 0 0 0 0 0 0 0 0
dram_eff_bins: 0 0 0 0 0 0 0 0 0 0
mrqq: max=16 avg=0.243813
Memory Partition 5: 
Cache L2_bank_010:
MSHR contents

Cache L2_bank_011:
MSHR contents

In Dram Latency Queue (total = 0): 
DRAM[5]: 16 bks, busW=4 BL=8 CL=12, tRRD=2 tCCD=6, tRCD=12 tRAS=28 tRP=12 tRC=40
n_cmd=8935561 n_nop=8491350 n_act=31445 n_pre=31429 n_req=190875 n_rd=371240 n_write=10097 bw_util=0.08535
n_activity=1924162 dram_eff=0.3964
bk0: 23232a 8816160i bk1: 23232a 8816070i bk2: 23144a 8809299i bk3: 23144a 8806582i bk4: 23124a 8818385i bk5: 23128a 8815548i bk6: 23186a 8804925i bk7: 23184a 8806911i bk8: 23168a 8823186i bk9: 23168a 8821360i bk10: 23140a 8808123i bk11: 23124a 8806078i bk12: 23104a 8808415i bk13: 23954a 8795628i bk14: 23104a 8802971i bk15: 23104a 8796531i 
dram_util_bins: 0 0 0 0 0 0 0 0 0 0
dram_eff_bins: 0 0 0 0 0 0 0 0 0 0
mrqq: max=16 avg=0.24853

========= L2 cache stats =========
L2_cache_bank[0]: Access = 102548, Miss = 93023, Miss_rate = 0.907, Pending_hits = 1413, Reservation_fails = 47117
L2_cache_bank[1]: Access = 96645, Miss = 92584, Miss_rate = 0.958, Pending_hits = 113, Reservation_fails = 311
L2_cache_bank[2]: Access = 96782, Miss = 92592, Miss_rate = 0.957, Pending_hits = 137, Reservation_fails = 784
L2_cache_bank[3]: Access = 102615, Miss = 93014, Miss_rate = 0.906, Pending_hits = 1393, Reservation_fails = 46852
L2_cache_bank[4]: Access = 96924, Miss = 92601, Miss_rate = 0.955, Pending_hits = 121, Reservation_fails = 646
L2_cache_bank[5]: Access = 102986, Miss = 93044, Miss_rate = 0.903, Pending_hits = 1442, Reservation_fails = 46846
L2_cache_bank[6]: Access = 102447, Miss = 93016, Miss_rate = 0.908, Pending_hits = 1393, Reservation_fails = 46800
L2_cache_bank[7]: Access = 97145, Miss = 92622, Miss_rate = 0.953, Pending_hits = 152, Reservation_fails = 547
L2_cache_bank[8]: Access = 102526, Miss = 93009, Miss_rate = 0.907, Pending_hits = 1394, Reservation_fails = 46214
L2_cache_bank[9]: Access = 96706, Miss = 92586, Miss_rate = 0.957, Pending_hits = 130, Reservation_fails = 586
L2_cache_bank[10]: Access = 96888, Miss = 92601, Miss_rate = 0.956, Pending_hits = 162, Reservation_fails = 1055
L2_cache_bank[11]: Access = 102542, Miss = 93019, Miss_rate = 0.907, Pending_hits = 1409, Reservation_fails = 47060
L2_total_cache_accesses = 1196754
L2_total_cache_misses = 1113711
L2_total_cache_miss_rate = 0.9306
L2_total_cache_pending_hits = 9259
L2_total_cache_reservation_fails = 284818
L2_total_cache_breakdown:
	L2_cache_stats_breakdown[GLOBAL_ACC_R][HIT] = 34767
	L2_cache_stats_breakdown[GLOBAL_ACC_R][HIT_RESERVED] = 7830
	L2_cache_stats_breakdown[GLOBAL_ACC_R][MISS] = 1112679
	L2_cache_stats_breakdown[GLOBAL_ACC_R][RESERVATION_FAIL] = 283995
	L2_cache_stats_breakdown[CONST_ACC_R][HIT] = 11
	L2_cache_stats_breakdown[CONST_ACC_R][HIT_RESERVED] = 3
	L2_cache_stats_breakdown[CONST_ACC_R][MISS] = 1
	L2_cache_stats_breakdown[CONST_ACC_R][RESERVATION_FAIL] = 109
	L2_cache_stats_breakdown[GLOBAL_ACC_W][HIT] = 38929
	L2_cache_stats_breakdown[GLOBAL_ACC_W][HIT_RESERVED] = 1405
	L2_cache_stats_breakdown[GLOBAL_ACC_W][MISS] = 1024
	L2_cache_stats_breakdown[GLOBAL_ACC_W][RESERVATION_FAIL] = 4
	L2_cache_stats_breakdown[INST_ACC_R][HIT] = 77
	L2_cache_stats_breakdown[INST_ACC_R][HIT_RESERVED] = 21
	L2_cache_stats_breakdown[INST_ACC_R][MISS] = 7
	L2_cache_stats_breakdown[INST_ACC_R][RESERVATION_FAIL] = 710
L2_cache_data_port_util = 0.005
L2_cache_fill_port_util = 0.055

icnt_total_pkts_mem_to_simt=5818308
icnt_total_pkts_simt_to_mem=1327493
LD_mem_lat_dist  0 0 0 0 0 0 0 0 0 0 0 0 0 0 0 0 0 0 0 0 0 0 0 0 0 0 0
ST_mem_lat_dist  0 0 0 0 0 0 0 0 0 0 0 0 0 0 0 0 0 0 0 0 0 0 0 0 0 0 0
----------------------------Interconnect-DETAILS--------------------------------
Class 0:
Packet latency average = 11.3157
	minimum = 6
	maximum = 170
Network latency average = 10.0698
	minimum = 6
	maximum = 125
Slowest packet = 1410086
Flit latency average = 8.98362
	minimum = 6
	maximum = 121
Slowest flit = 4200411
Fragmentation average = 0
	minimum = 0
	maximum = 0
Injected packet rate average = 0.0126589
	minimum = 0.010662 (at node 0)
	maximum = 0.0155385 (at node 18)
Accepted packet rate average = 0.0126589
	minimum = 0.010662 (at node 0)
	maximum = 0.0155385 (at node 18)
Injected flit rate average = 0.0379071
	minimum = 0.0113015 (at node 10)
	maximum = 0.0766873 (at node 18)
Accepted flit rate average= 0.0379071
	minimum = 0.0146548 (at node 16)
	maximum = 0.0593096 (at node 1)
Injected packet length average = 2.99451
Accepted packet length average = 2.99451
Total in-flight flits = 0 (0 measured)
====== Overall Traffic Statistics ======
====== Traffic class 0 ======
Packet latency average = 12.0979 (2 samples)
	minimum = 6 (2 samples)
	maximum = 279.5 (2 samples)
Network latency average = 10.5535 (2 samples)
	minimum = 6 (2 samples)
	maximum = 250.5 (2 samples)
Flit latency average = 9.31526 (2 samples)
	minimum = 6 (2 samples)
	maximum = 248 (2 samples)
Fragmentation average = 0.00648888 (2 samples)
	minimum = 0 (2 samples)
	maximum = 136 (2 samples)
Injected packet rate average = 0.0130942 (2 samples)
	minimum = 0.0110214 (2 samples)
	maximum = 0.0160535 (2 samples)
Accepted packet rate average = 0.0130942 (2 samples)
	minimum = 0.0110214 (2 samples)
	maximum = 0.0160535 (2 samples)
Injected flit rate average = 0.039093 (2 samples)
	minimum = 0.0122267 (2 samples)
	maximum = 0.0782488 (2 samples)
Accepted flit rate average = 0.039093 (2 samples)
	minimum = 0.0158566 (2 samples)
	maximum = 0.0605418 (2 samples)
Injected packet size average = 2.98552 (2 samples)
Accepted packet size average = 2.98552 (2 samples)
Hops average = 1 (2 samples)
----------------------------END-of-Interconnect-DETAILS-------------------------
GPGPU-Sim API: Stream Manager State
