

        *** GPGPU-Sim Simulator Version 3.2.2  [build 0] ***


GPGPU-Sim PTX: simulation mode 0 (can change with PTX_SIM_MODE_FUNC environment variable:
               1=functional simulation only, 0=detailed performance simulator)
GPGPU-Sim: Configuration options:

-network_mode                           1 # Interconnection network mode
-inter_config_file   config_fermi_islip.icnt # Interconnection network config file
-gpgpu_ptx_use_cuobjdump                    1 # Use cuobjdump to extract ptx and sass from binaries
-gpgpu_experimental_lib_support                    0 # Try to extract code from cuda libraries [Broken because of unknown cudaGetExportTable]
-gpgpu_ptx_convert_to_ptxplus                    0 # Convert SASS (native ISA) to ptxplus and run ptxplus
-gpgpu_ptx_force_max_capability                   20 # Force maximum compute capability
-gpgpu_ptx_inst_debug_to_file                    0 # Dump executed instructions' debug information to file
-gpgpu_ptx_inst_debug_file       inst_debug.txt # Executed instructions' debug output file
-gpgpu_ptx_inst_debug_thread_uid                    1 # Thread UID for executed instructions' debug output
-gpgpu_simd_model                       1 # 1 = post-dominator
-gpgpu_shader_core_pipeline              1536:32 # shader core pipeline config, i.e., {<nthread>:<warpsize>}
-gpgpu_tex_cache:l1  4:128:24,L:R:m:N:L,F:128:4,128:2 # per-shader L1 texture cache  (READ-ONLY) config  {<nsets>:<bsize>:<assoc>,<rep>:<wr>:<alloc>:<wr_alloc>,<mshr>:<N>:<merge>,<mq>:<rf>}
-gpgpu_const_cache:l1 64:64:2,L:R:f:N:L,A:2:32,4 # per-shader L1 constant memory cache  (READ-ONLY) config  {<nsets>:<bsize>:<assoc>,<rep>:<wr>:<alloc>:<wr_alloc>,<mshr>:<N>:<merge>,<mq>} 
-gpgpu_cache:il1     4:128:4,L:R:f:N:L,A:2:32,4 # shader L1 instruction cache config  {<nsets>:<bsize>:<assoc>,<rep>:<wr>:<alloc>:<wr_alloc>,<mshr>:<N>:<merge>,<mq>} 
-gpgpu_cache:dl1     32:128:4,L:L:m:N:H,A:32:8,8:2,0,1:0:1:1:0:1,1:4:8:16:32:64,/sciclone/data10/hwang07/GPU_RESEARCH/swl/swl_outputs/RESULTS/swl2/ # per-shader L1 data cache config  {<nsets>:<bsize>:<assoc>,<rep>:<wr>:<alloc>:<wr_alloc>,<mshr>:<N>:<merge>,<mq> | none}
-gpgpu_cache:dl1PrefL1                 none # per-shader L1 data cache config  {<nsets>:<bsize>:<assoc>,<rep>:<wr>:<alloc>:<wr_alloc>,<mshr>:<N>:<merge>,<mq> | none}
-gpgpu_cache:dl1PreShared                 none # per-shader L1 data cache config  {<nsets>:<bsize>:<assoc>,<rep>:<wr>:<alloc>:<wr_alloc>,<mshr>:<N>:<merge>,<mq> | none}
-gmem_skip_L1D                          0 # global memory access skip L1D cache (implements -Xptxas -dlcm=cg, default=no skip)
-gpgpu_perfect_mem                      0 # enable perfect memory mode (no cache miss)
-n_regfile_gating_group                    4 # group of lanes that should be read/written together)
-gpgpu_clock_gated_reg_file                    0 # enable clock gated reg file for power calculations
-gpgpu_clock_gated_lanes                    0 # enable clock gated lanes for power calculations
-gpgpu_shader_registers                32768 # Number of registers per shader core. Limits number of concurrent CTAs. (default 8192)
-gpgpu_shader_cta                       8 # Maximum number of concurrent CTAs in shader (default 8)
-gpgpu_num_cta_barriers                   16 # Maximum number of named barriers per CTA (default 16)
-gpgpu_n_clusters                      15 # number of processing clusters
-gpgpu_n_cores_per_cluster                    1 # number of simd cores per cluster
-gpgpu_n_cluster_ejection_buffer_size                    8 # number of packets in ejection buffer
-gpgpu_n_ldst_response_buffer_size                    2 # number of response packets in ld/st unit ejection buffer
-gpgpu_shmem_size                   16384 # Size of shared memory per shader core (default 16kB)
-gpgpu_shmem_size                   49152 # Size of shared memory per shader core (default 16kB)
-gpgpu_shmem_size_PrefL1                16384 # Size of shared memory per shader core (default 16kB)
-gpgpu_shmem_size_PrefShared                16384 # Size of shared memory per shader core (default 16kB)
-gpgpu_shmem_num_banks                   32 # Number of banks in the shared memory in each shader core (default 16)
-gpgpu_shmem_limited_broadcast                    0 # Limit shared memory to do one broadcast per cycle (default on)
-gpgpu_shmem_warp_parts                    1 # Number of portions a warp is divided into for shared memory bank conflict check 
-gpgpu_warpdistro_shader                   -1 # Specify which shader core to collect the warp size distribution from
-gpgpu_warp_issue_shader                    0 # Specify which shader core to collect the warp issue distribution from
-gpgpu_local_mem_map                    1 # Mapping from local memory space address to simulated GPU physical address space (default = enabled)
-gpgpu_num_reg_banks                   16 # Number of register banks (default = 8)
-gpgpu_reg_bank_use_warp_id                    0 # Use warp ID in mapping registers to banks (default = off)
-gpgpu_operand_collector_num_units_sp                    6 # number of collector units (default = 4)
-gpgpu_operand_collector_num_units_sfu                    8 # number of collector units (default = 4)
-gpgpu_operand_collector_num_units_mem                    2 # number of collector units (default = 2)
-gpgpu_operand_collector_num_units_gen                    0 # number of collector units (default = 0)
-gpgpu_operand_collector_num_in_ports_sp                    2 # number of collector unit in ports (default = 1)
-gpgpu_operand_collector_num_in_ports_sfu                    1 # number of collector unit in ports (default = 1)
-gpgpu_operand_collector_num_in_ports_mem                    1 # number of collector unit in ports (default = 1)
-gpgpu_operand_collector_num_in_ports_gen                    0 # number of collector unit in ports (default = 0)
-gpgpu_operand_collector_num_out_ports_sp                    2 # number of collector unit in ports (default = 1)
-gpgpu_operand_collector_num_out_ports_sfu                    1 # number of collector unit in ports (default = 1)
-gpgpu_operand_collector_num_out_ports_mem                    1 # number of collector unit in ports (default = 1)
-gpgpu_operand_collector_num_out_ports_gen                    0 # number of collector unit in ports (default = 0)
-gpgpu_coalesce_arch                   13 # Coalescing arch (default = 13, anything else is off for now)
-gpgpu_num_sched_per_core                    2 # Number of warp schedulers per core
-gpgpu_max_insn_issue_per_warp                    1 # Max number of instructions that can be issued per warp in one cycle by scheduler
-gpgpu_simt_core_sim_order                    1 # Select the simulation order of cores in a cluster (0=Fix, 1=Round-Robin)
-gpgpu_pipeline_widths        2,1,1,2,1,1,2 # Pipeline widths ID_OC_SP,ID_OC_SFU,ID_OC_MEM,OC_EX_SP,OC_EX_SFU,OC_EX_MEM,EX_WB
-gpgpu_num_sp_units                     2 # Number of SP units (default=1)
-gpgpu_num_sfu_units                    1 # Number of SF units (default=1)
-gpgpu_num_mem_units                    1 # Number if ldst units (default=1) WARNING: not hooked up to anything
-gpgpu_scheduler        warp_limiting:2:2 # Scheduler configuration: < lrr | gto | two_level_active > If two_level_active:<num_active_warps>:<inner_prioritization>:<outer_prioritization>For complete list of prioritization values see shader.h enum scheduler_prioritization_typeDefault: gto
-gpgpu_dram_scheduler                    1 # 0 = fifo, 1 = FR-FCFS (defaul)
-gpgpu_dram_partition_queues              8:8:8:8 # i2$:$2d:d2$:$2i
-l2_ideal                               0 # Use a ideal L2 cache that always hit
-gpgpu_cache:dl2     64:128:8,L:B:m:W:L,A:32:4,4:0,32 # unified banked L2 data cache config  {<nsets>:<bsize>:<assoc>,<rep>:<wr>:<alloc>:<wr_alloc>,<mshr>:<N>:<merge>,<mq>}
-gpgpu_cache:dl2_texture_only                    0 # L2 cache used for texture only
-gpgpu_n_mem                            6 # number of memory modules (e.g. memory controllers) in gpu
-gpgpu_n_sub_partition_per_mchannel                    2 # number of memory subpartition in each memory module
-gpgpu_n_mem_per_ctrlr                    2 # number of memory chips per memory controller
-gpgpu_memlatency_stat                   14 # track and display latency statistics 0x2 enables MC, 0x4 enables queue logs
-gpgpu_frfcfs_dram_sched_queue_size                   16 # 0 = unlimited (default); # entries per chip
-gpgpu_dram_return_queue_size                  116 # 0 = unlimited (default); # entries per chip
-gpgpu_dram_buswidth                    4 # default = 4 bytes (8 bytes per cycle at DDR)
-gpgpu_dram_burst_length                    8 # Burst length of each DRAM request (default = 4 data bus cycle)
-dram_data_command_freq_ratio                    4 # Frequency ratio between DRAM data bus and command bus (default = 2 times, i.e. DDR)
-gpgpu_dram_timing_opt nbk=16:CCD=2:RRD=6:RCD=12:RAS=28:RP=12:RC=40: CL=12:WL=4:CDLR=5:WR=12:nbkgrp=4:CCDL=3:RTPL=2 # DRAM timing parameters = {nbk:tCCD:tRRD:tRCD:tRAS:tRP:tRC:CL:WL:tCDLR:tWR:nbkgrp:tCCDL:tRTPL}
-rop_latency                          120 # ROP queue latency (default 85)
-dram_latency                         100 # DRAM latency (default 30)
-gpgpu_mem_addr_mapping dramid@8;00000000.00000000.00000000.00000000.0000RRRR.RRRRRRRR.BBBCCCCB.CCSSSSSS # mapping memory address to dram model {dramid@<start bit>;<memory address map>}
-gpgpu_mem_addr_test                    0 # run sweep test to check address mapping for aliased address
-gpgpu_mem_address_mask                    1 # 0 = old addressing mask, 1 = new addressing mask, 2 = new add. mask + flipped bank sel and chip sel bits
-gpuwattch_xml_file  gpuwattch_gtx480.xml # GPUWattch XML file
-power_simulation_enabled                    0 # Turn on power simulator (1=On, 0=Off)
-power_per_cycle_dump                    0 # Dump detailed power output each cycle
-power_trace_enabled                    0 # produce a file for the power trace (1=On, 0=Off)
-power_trace_zlevel                     6 # Compression level of the power trace output log (0=no comp, 9=highest)
-steady_power_levels_enabled                    0 # produce a file for the steady power levels (1=On, 0=Off)
-steady_state_definition                  8:4 # allowed deviation:number of samples
-gpgpu_max_cycle                        0 # terminates gpu simulation early (0 = no limit)
-gpgpu_max_insn                         0 # terminates gpu simulation early (0 = no limit)
-gpgpu_max_cta                          0 # terminates gpu simulation early (0 = no limit)
-gpgpu_runtime_stat                   500 # display runtime statistics such as dram utilization {<freq>:<flag>}
-liveness_message_freq                    1 # Minimum number of seconds between simulation liveness messages (0 = always print)
-gpgpu_flush_l1_cache                    0 # Flush L1 cache at the end of each kernel call
-gpgpu_flush_l2_cache                    0 # Flush L2 cache at the end of each kernel call
-gpgpu_deadlock_detect                    1 # Stop the simulation at deadlock (1=on (default), 0=off)
-gpgpu_ptx_instruction_classification                    0 # if enabled will classify ptx instruction types per kernel (Max 255 kernels now)
-gpgpu_ptx_sim_mode                     0 # Select between Performance (default) or Functional simulation (1)
-gpgpu_clock_domains 700.0:700.0:700.0:924.0 # Clock Domain Frequencies in MhZ {<Core Clock>:<ICNT Clock>:<L2 Clock>:<DRAM Clock>}
-gpgpu_max_concurrent_kernel                    8 # maximum kernels that can run concurrently on GPU
-gpgpu_cflog_interval                    0 # Interval between each snapshot in control flow logger
-visualizer_enabled                     0 # Turn on visualizer output (1=On, 0=Off)
-visualizer_outputfile                 NULL # Specifies the output log file for visualizer
-visualizer_zlevel                      6 # Compression level of the visualizer output log (0=no comp, 9=highest)
-trace_enabled                          0 # Turn on traces
-trace_components                    none # comma seperated list of traces to enable. Complete list found in trace_streams.tup. Default none
-trace_sampling_core                    0 # The core which is printed using CORE_DPRINTF. Default 0
-trace_sampling_memory_partition                   -1 # The memory partition which is printed using MEMPART_DPRINTF. Default -1 (i.e. all)
-enable_ptx_file_line_stats                    1 # Turn on PTX source line statistic profiling. (1 = On)
-ptx_line_stats_filename gpgpu_inst_stats.txt # Output file for PTX source line statistics.
-save_embedded_ptx                      0 # saves ptx files embedded in binary as <n>.ptx
-keep                                   0 # keep intermediate files created by GPGPU-Sim when interfacing with external programs
-gpgpu_ptx_save_converted_ptxplus                    0 # Saved converted ptxplus to a file
-ptx_opcode_latency_int         4,13,4,5,145 # Opcode latencies for integers <ADD,MAX,MUL,MAD,DIV>Default 1,1,19,25,145
-ptx_opcode_latency_fp          4,13,4,5,39 # Opcode latencies for single precision floating points <ADD,MAX,MUL,MAD,DIV>Default 1,1,1,1,30
-ptx_opcode_latency_dp         8,19,8,8,330 # Opcode latencies for double precision floating points <ADD,MAX,MUL,MAD,DIV>Default 8,8,8,8,335
-ptx_opcode_initiation_int            1,2,2,1,8 # Opcode initiation intervals for integers <ADD,MAX,MUL,MAD,DIV>Default 1,1,4,4,32
-ptx_opcode_initiation_fp            1,2,1,1,4 # Opcode initiation intervals for single precision floating points <ADD,MAX,MUL,MAD,DIV>Default 1,1,1,1,5
-ptx_opcode_initiation_dp         8,16,8,8,130 # Opcode initiation intervals for double precision floating points <ADD,MAX,MUL,MAD,DIV>Default 8,8,8,8,130
DRAM Timing Options:
nbk                                    16 # number of banks
CCD                                     2 # column to column delay
RRD                                     6 # minimal delay between activation of rows in different banks
RCD                                    12 # row to column delay
RAS                                    28 # time needed to activate row
RP                                     12 # time needed to precharge (deactivate) row
RC                                     40 # row cycle time
CDLR                                    5 # switching from write to read (changes tWTR)
WR                                     12 # last data-in to row precharge
CL                                     12 # CAS latency
WL                                      4 # Write latency
nbkgrp                                  4 # number of bank groups
CCDL                                    3 # column to column delay between accesses to different bank groups
RTPL                                    2 # read to precharge delay between accesses to different bank groups
Total number of memory sub partition = 12
addr_dec_mask[CHIP]  = 0000000000000000 	high:64 low:0
addr_dec_mask[BK]    = 000000000000e100 	high:16 low:8
addr_dec_mask[ROW]   = 000000000fff0000 	high:28 low:16
addr_dec_mask[COL]   = 0000000000001eff 	high:13 low:0
addr_dec_mask[BURST] = 000000000000003f 	high:6 low:0
sub_partition_id_mask = 0000000000000100
GPGPU-Sim uArch: clock freqs: 700000000.000000:700000000.000000:700000000.000000:924000000.000000
GPGPU-Sim uArch: clock periods: 0.00000000142857142857:0.00000000142857142857:0.00000000142857142857:0.00000000108225108225
*** Initializing Memory Statistics ***
GPGPU-Sim uArch: interconnect node map (shaderID+MemID to icntID)
GPGPU-Sim uArch: Memory nodes ID start from index: 15
GPGPU-Sim uArch:    0   1   2   3   4
GPGPU-Sim uArch:    5   6   7   8   9
GPGPU-Sim uArch:   10  11  12  13  14
GPGPU-Sim uArch:   15  16  17  18  19
GPGPU-Sim uArch:   20  21  22  23  24
GPGPU-Sim uArch:   25  26
GPGPU-Sim uArch: interconnect node reverse map (icntID to shaderID+MemID)
GPGPU-Sim uArch: Memory nodes start from ID: 15
GPGPU-Sim uArch:    0   1   2   3   4
GPGPU-Sim uArch:    5   6   7   8   9
GPGPU-Sim uArch:   10  11  12  13  14
GPGPU-Sim uArch:   15  16  17  18  19
GPGPU-Sim uArch:   20  21  22  23  24
GPGPU-Sim uArch:   25  26
8ef9342edb8cdfc3e3546abba4d98120  /sciclone/data10/hwang07/adwait/applications/benchmarks/CUDA/NN/gpgpu_ptx_sim__NN
GPGPU-Sim uArch: performance model initialization complete.
GPGPU-Sim PTX: __cudaRegisterFatBinary, fat_cubin_handle = 1, filename=NN.cu
self exe links to: /sciclone/data10/hwang07/adwait/applications/benchmarks/CUDA/NN/gpgpu_ptx_sim__NN
Running md5sum using "md5sum /sciclone/data10/hwang07/adwait/applications/benchmarks/CUDA/NN/gpgpu_ptx_sim__NN "
Parsing file _cuobjdump_complete_output_B1exvZ
######### cuobjdump parser ########
## Adding new section ELF
Adding arch: sm_20
Adding identifier: NN.cu
## Adding new section PTX
Adding ptx filename: _cuobjdump_1.ptx
Adding arch: sm_20
Adding identifier: NN.cu
Done parsing!!!
GPGPU-Sim PTX: __cudaRegisterFunction _Z18executeFourthLayerPfS_S_ : hostFun 0x0x4028e3, fat_cubin_handle = 1
GPGPU-Sim PTX: allocating constant region for "kernelTemplate" from 0x100 to 0x164 (global memory space) 1
GPGPU-Sim PTX: instruction assembly for function '_Z17executeFirstLayerPfS_S_'...   done.
GPGPU-Sim PTX: finding reconvergence points for '_Z17executeFirstLayerPfS_S_'...
GPGPU-Sim PTX: Finding dominators for '_Z17executeFirstLayerPfS_S_'...
GPGPU-Sim PTX: Finding immediate dominators for '_Z17executeFirstLayerPfS_S_'...
GPGPU-Sim PTX: Finding postdominators for '_Z17executeFirstLayerPfS_S_'...
GPGPU-Sim PTX: Finding immediate postdominators for '_Z17executeFirstLayerPfS_S_'...
GPGPU-Sim PTX: pre-decoding instructions for '_Z17executeFirstLayerPfS_S_'...
GPGPU-Sim PTX: reconvergence points for _Z17executeFirstLayerPfS_S_...
GPGPU-Sim PTX:  1 (potential) branch divergence @  PC=0x100 (_1.ptx:100) @%p1 bra $Lt_0_4098;
GPGPU-Sim PTX:    immediate post dominator      @  PC=0x108 (_1.ptx:102) cvt.f64.f32 %fd1, %f1;
GPGPU-Sim PTX:  2 (potential) branch divergence @  PC=0x148 (_1.ptx:110) @!%p2 bra $Lt_0_4866;
GPGPU-Sim PTX:    immediate post dominator      @  PC=0x2a8 (_1.ptx:162) cvt.f64.f32 %fd5, %f29;
GPGPU-Sim PTX:  3 (potential) branch divergence @  PC=0x230 (_1.ptx:142) bra.uni $Lt_0_4610;
GPGPU-Sim PTX:    immediate post dominator      @  PC=0x2a8 (_1.ptx:162) cvt.f64.f32 %fd5, %f29;
GPGPU-Sim PTX: ... end of reconvergence points for _Z17executeFirstLayerPfS_S_
GPGPU-Sim PTX: ... done pre-decoding instructions for '_Z17executeFirstLayerPfS_S_'.
GPGPU-Sim PTX: allocating constant region for "kernelTemplate2" from 0x180 to 0x1e4 (global memory space) 2
GPGPU-Sim PTX: instruction assembly for function '_Z18executeSecondLayerPfS_S_'...   done.
GPGPU-Sim PTX: finding reconvergence points for '_Z18executeSecondLayerPfS_S_'...
GPGPU-Sim PTX: Finding dominators for '_Z18executeSecondLayerPfS_S_'...
GPGPU-Sim PTX: Finding immediate dominators for '_Z18executeSecondLayerPfS_S_'...
GPGPU-Sim PTX: Finding postdominators for '_Z18executeSecondLayerPfS_S_'...
GPGPU-Sim PTX: Finding immediate postdominators for '_Z18executeSecondLayerPfS_S_'...
GPGPU-Sim PTX: pre-decoding instructions for '_Z18executeSecondLayerPfS_S_'...
GPGPU-Sim PTX: reconvergence points for _Z18executeSecondLayerPfS_S_...
GPGPU-Sim PTX:  1 (potential) branch divergence @  PC=0x4a0 (_1.ptx:251) @%p1 bra $Lt_1_5634;
GPGPU-Sim PTX:    immediate post dominator      @  PC=0x4a8 (_1.ptx:253) cvt.f64.f32 %fd1, %f1;
GPGPU-Sim PTX:  2 (potential) branch divergence @  PC=0x4e8 (_1.ptx:261) @!%p2 bra $Lt_1_6402;
GPGPU-Sim PTX:    immediate post dominator      @  PC=0x648 (_1.ptx:313) cvt.f64.f32 %fd5, %f44;
GPGPU-Sim PTX:  3 (potential) branch divergence @  PC=0x5d0 (_1.ptx:293) bra.uni $Lt_1_6146;
GPGPU-Sim PTX:    immediate post dominator      @  PC=0x648 (_1.ptx:313) cvt.f64.f32 %fd5, %f44;
GPGPU-Sim PTX: ... end of reconvergence points for _Z18executeSecondLayerPfS_S_
GPGPU-Sim PTX: ... done pre-decoding instructions for '_Z18executeSecondLayerPfS_S_'.
GPGPU-Sim PTX: instruction assembly for function '_Z17executeThirdLayerPfS_S_'...   done.
GPGPU-Sim PTX: finding reconvergence points for '_Z17executeThirdLayerPfS_S_'...
GPGPU-Sim PTX: Finding dominators for '_Z17executeThirdLayerPfS_S_'...
GPGPU-Sim PTX: Finding immediate dominators for '_Z17executeThirdLayerPfS_S_'...
GPGPU-Sim PTX: Finding postdominators for '_Z17executeThirdLayerPfS_S_'...
GPGPU-Sim PTX: Finding immediate postdominators for '_Z17executeThirdLayerPfS_S_'...
GPGPU-Sim PTX: pre-decoding instructions for '_Z17executeThirdLayerPfS_S_'...
GPGPU-Sim PTX: reconvergence points for _Z17executeThirdLayerPfS_S_...
GPGPU-Sim PTX:  1 (potential) branch divergence @  PC=0x788 (_1.ptx:373) @%p1 bra $Lt_2_4098;
GPGPU-Sim PTX:    immediate post dominator      @  PC=0x790 (_1.ptx:375) cvt.f64.f32 %fd1, %f1;
GPGPU-Sim PTX:  2 (potential) branch divergence @  PC=0x7d0 (_1.ptx:383) @!%p2 bra $Lt_2_4866;
GPGPU-Sim PTX:    immediate post dominator      @  PC=0x930 (_1.ptx:435) cvt.f64.f32 %fd5, %f29;
GPGPU-Sim PTX:  3 (potential) branch divergence @  PC=0x8b8 (_1.ptx:415) bra.uni $Lt_2_4610;
GPGPU-Sim PTX:    immediate post dominator      @  PC=0x930 (_1.ptx:435) cvt.f64.f32 %fd5, %f29;
GPGPU-Sim PTX: ... end of reconvergence points for _Z17executeThirdLayerPfS_S_
GPGPU-Sim PTX: ... done pre-decoding instructions for '_Z17executeThirdLayerPfS_S_'.
GPGPU-Sim PTX: instruction assembly for function '_Z18executeFourthLayerPfS_S_'...   done.
GPGPU-Sim PTX: finding reconvergence points for '_Z18executeFourthLayerPfS_S_'...
GPGPU-Sim PTX: Finding dominators for '_Z18executeFourthLayerPfS_S_'...
GPGPU-Sim PTX: Finding immediate dominators for '_Z18executeFourthLayerPfS_S_'...
GPGPU-Sim PTX: Finding postdominators for '_Z18executeFourthLayerPfS_S_'...
GPGPU-Sim PTX: Finding immediate postdominators for '_Z18executeFourthLayerPfS_S_'...
GPGPU-Sim PTX: pre-decoding instructions for '_Z18executeFourthLayerPfS_S_'...
GPGPU-Sim PTX: reconvergence points for _Z18executeFourthLayerPfS_S_...
GPGPU-Sim PTX:  1 (potential) branch divergence @  PC=0xa50 (_1.ptx:491) @%p1 bra $Lt_3_4098;
GPGPU-Sim PTX:    immediate post dominator      @  PC=0xa58 (_1.ptx:493) cvt.f64.f32 %fd1, %f1;
GPGPU-Sim PTX:  2 (potential) branch divergence @  PC=0xa98 (_1.ptx:501) @!%p2 bra $Lt_3_4866;
GPGPU-Sim PTX:    immediate post dominator      @  PC=0xbf8 (_1.ptx:553) cvt.f64.f32 %fd5, %f29;
GPGPU-Sim PTX:  3 (potential) branch divergence @  PC=0xb80 (_1.ptx:533) bra.uni $Lt_3_4610;
GPGPU-Sim PTX:    immediate post dominator      @  PC=0xbf8 (_1.ptx:553) cvt.f64.f32 %fd5, %f29;
GPGPU-Sim PTX: ... end of reconvergence points for _Z18executeFourthLayerPfS_S_
GPGPU-Sim PTX: ... done pre-decoding instructions for '_Z18executeFourthLayerPfS_S_'.
GPGPU-Sim PTX: finished parsing EMBEDDED .ptx file _1.ptx
Adding _cuobjdump_1.ptx with cubin handle 1
GPGPU-Sim PTX: extracting embedded .ptx to temporary file "_ptx_6fV2p2"
Running: cat _ptx_6fV2p2 | sed 's/.version 1.5/.version 1.4/' | sed 's/, texmode_independent//' | sed 's/\(\.extern \.const\[1\] .b8 \w\+\)\[\]/\1\[1\]/' | sed 's/const\[.\]/const\[0\]/g' > _ptx2_aw1X06
GPGPU-Sim PTX: generating ptxinfo using "$CUDA_INSTALL_PATH/bin/ptxas --gpu-name=sm_20 -v _ptx2_aw1X06 --output-file  /dev/null 2> _ptx_6fV2p2info"
GPGPU-Sim PTX: Kernel '_Z18executeFourthLayerPfS_S_' : regs=12, lmem=0, smem=0, cmem=288
GPGPU-Sim PTX: Kernel '_Z17executeThirdLayerPfS_S_' : regs=12, lmem=0, smem=0, cmem=288
GPGPU-Sim PTX: Kernel '_Z18executeSecondLayerPfS_S_' : regs=22, lmem=0, smem=0, cmem=288
GPGPU-Sim PTX: Kernel '_Z17executeFirstLayerPfS_S_' : regs=17, lmem=0, smem=0, cmem=288
GPGPU-Sim PTX: removing ptxinfo using "rm -f _ptx_6fV2p2 _ptx2_aw1X06 _ptx_6fV2p2info"
GPGPU-Sim PTX: loading globals with explicit initializers... 
GPGPU-Sim PTX: finished loading globals (0 bytes total).
GPGPU-Sim PTX: loading constants with explicit initializers...  done.
GPGPU-Sim PTX: __cudaRegisterFunction _Z17executeThirdLayerPfS_S_ : hostFun 0x0x402821, fat_cubin_handle = 1
GPGPU-Sim PTX: __cudaRegisterFunction _Z18executeSecondLayerPfS_S_ : hostFun 0x0x40275f, fat_cubin_handle = 1
GPGPU-Sim PTX: __cudaRegisterFunction _Z17executeFirstLayerPfS_S_ : hostFun 0x0x40269d, fat_cubin_handle = 1
GPGPU-Sim PTX: __cudaRegisterVar: hostVar = 0x609e60; deviceAddress = kernelTemplate; deviceName = kernelTemplate
GPGPU-Sim PTX: __cudaRegisterVar: Registering const memory space of 100 bytes
GPGPU-Sim PTX registering constant kernelTemplate (100 bytes) to name mapping
GPGPU-Sim PTX: __cudaRegisterVar: hostVar = 0x609ee0; deviceAddress = kernelTemplate2; deviceName = kernelTemplate2
GPGPU-Sim PTX: __cudaRegisterVar: Registering const memory space of 100 bytes
GPGPU-Sim PTX registering constant kernelTemplate2 (100 bytes) to name mapping
magic number = 2051
number of items = 10000
number of rows = 28
number of rows = 28
NUM=28

GPGPU-Sim PTX: cudaLaunch for 0x0x40269d (mode=performance simulation) on stream 0
GPGPU-Sim PTX: pushing kernel '_Z17executeFirstLayerPfS_S_' to stream 0, gridDim= (6,28,1) blockDim = (13,13,1) 
kernel '_Z17executeFirstLayerPfS_S_' transfer to GPU hardware scheduler
GPGPU-Sim uArch: Shader 1 bind to kernel 1 '_Z17executeFirstLayerPfS_S_'
GPGPU-Sim uArch: CTA/core = 8, limited by: threads regs cta_limit
GPGPU-Sim uArch: core:  1, cta: 0 initialized @(1,0)
GPGPU-Sim uArch: Shader 2 bind to kernel 1 '_Z17executeFirstLayerPfS_S_'
GPGPU-Sim uArch: core:  2, cta: 0 initialized @(1,0)
GPGPU-Sim uArch: Shader 3 bind to kernel 1 '_Z17executeFirstLayerPfS_S_'
GPGPU-Sim uArch: core:  3, cta: 0 initialized @(1,0)
GPGPU-Sim uArch: Shader 4 bind to kernel 1 '_Z17executeFirstLayerPfS_S_'
GPGPU-Sim uArch: core:  4, cta: 0 initialized @(1,0)
GPGPU-Sim uArch: Shader 5 bind to kernel 1 '_Z17executeFirstLayerPfS_S_'
GPGPU-Sim uArch: core:  5, cta: 0 initialized @(1,0)
GPGPU-Sim uArch: Shader 6 bind to kernel 1 '_Z17executeFirstLayerPfS_S_'
GPGPU-Sim uArch: core:  6, cta: 0 initialized @(1,0)
GPGPU-Sim uArch: Shader 7 bind to kernel 1 '_Z17executeFirstLayerPfS_S_'
GPGPU-Sim uArch: core:  7, cta: 0 initialized @(1,0)
GPGPU-Sim uArch: Shader 8 bind to kernel 1 '_Z17executeFirstLayerPfS_S_'
GPGPU-Sim uArch: core:  8, cta: 0 initialized @(1,0)
GPGPU-Sim uArch: Shader 9 bind to kernel 1 '_Z17executeFirstLayerPfS_S_'
GPGPU-Sim uArch: core:  9, cta: 0 initialized @(1,0)
GPGPU-Sim uArch: Shader 10 bind to kernel 1 '_Z17executeFirstLayerPfS_S_'
GPGPU-Sim uArch: core: 10, cta: 0 initialized @(1,0)
GPGPU-Sim uArch: Shader 11 bind to kernel 1 '_Z17executeFirstLayerPfS_S_'
GPGPU-Sim uArch: core: 11, cta: 0 initialized @(1,0)
GPGPU-Sim uArch: Shader 12 bind to kernel 1 '_Z17executeFirstLayerPfS_S_'
GPGPU-Sim uArch: core: 12, cta: 0 initialized @(1,0)
GPGPU-Sim uArch: Shader 13 bind to kernel 1 '_Z17executeFirstLayerPfS_S_'
GPGPU-Sim uArch: core: 13, cta: 0 initialized @(1,0)
GPGPU-Sim uArch: Shader 14 bind to kernel 1 '_Z17executeFirstLayerPfS_S_'
GPGPU-Sim uArch: core: 14, cta: 0 initialized @(1,0)
GPGPU-Sim uArch: Shader 0 bind to kernel 1 '_Z17executeFirstLayerPfS_S_'
GPGPU-Sim uArch: core:  0, cta: 0 initialized @(1,0)
GPGPU-Sim uArch: core:  1, cta: 1 initialized @(2,0)
GPGPU-Sim uArch: core:  2, cta: 1 initialized @(2,0)
GPGPU-Sim uArch: core:  3, cta: 1 initialized @(2,0)
GPGPU-Sim uArch: core:  4, cta: 1 initialized @(2,0)
GPGPU-Sim uArch: core:  5, cta: 1 initialized @(2,0)
GPGPU-Sim uArch: core:  6, cta: 1 initialized @(2,0)
GPGPU-Sim uArch: core:  7, cta: 1 initialized @(2,0)
GPGPU-Sim uArch: core:  8, cta: 1 initialized @(2,0)
GPGPU-Sim uArch: core:  9, cta: 1 initialized @(2,0)
GPGPU-Sim uArch: core: 10, cta: 1 initialized @(2,0)
GPGPU-Sim uArch: core: 11, cta: 1 initialized @(2,0)
GPGPU-Sim uArch: core: 12, cta: 1 initialized @(2,0)
GPGPU-Sim uArch: core: 13, cta: 1 initialized @(2,0)
GPGPU-Sim uArch: core: 14, cta: 1 initialized @(2,0)
GPGPU-Sim uArch: core:  0, cta: 1 initialized @(2,0)
GPGPU-Sim uArch: core:  1, cta: 2 initialized @(3,0)
GPGPU-Sim uArch: core:  2, cta: 2 initialized @(3,0)
GPGPU-Sim uArch: core:  3, cta: 2 initialized @(3,0)
GPGPU-Sim uArch: core:  4, cta: 2 initialized @(3,0)
GPGPU-Sim uArch: core:  5, cta: 2 initialized @(3,0)
GPGPU-Sim uArch: core:  6, cta: 2 initialized @(3,0)
GPGPU-Sim uArch: core:  7, cta: 2 initialized @(3,0)
GPGPU-Sim uArch: core:  8, cta: 2 initialized @(3,0)
GPGPU-Sim uArch: core:  9, cta: 2 initialized @(3,0)
GPGPU-Sim uArch: core: 10, cta: 2 initialized @(3,0)
GPGPU-Sim uArch: core: 11, cta: 2 initialized @(3,0)
GPGPU-Sim uArch: core: 12, cta: 2 initialized @(3,0)
GPGPU-Sim uArch: core: 13, cta: 2 initialized @(3,0)
GPGPU-Sim uArch: core: 14, cta: 2 initialized @(3,0)
GPGPU-Sim uArch: core:  0, cta: 2 initialized @(3,0)
GPGPU-Sim uArch: core:  1, cta: 3 initialized @(4,0)
GPGPU-Sim uArch: core:  2, cta: 3 initialized @(4,0)
GPGPU-Sim uArch: core:  3, cta: 3 initialized @(4,0)
GPGPU-Sim uArch: core:  4, cta: 3 initialized @(4,0)
GPGPU-Sim uArch: core:  5, cta: 3 initialized @(4,0)
GPGPU-Sim uArch: core:  6, cta: 3 initialized @(4,0)
GPGPU-Sim uArch: core:  7, cta: 3 initialized @(4,0)
GPGPU-Sim uArch: core:  8, cta: 3 initialized @(4,0)
GPGPU-Sim uArch: core:  9, cta: 3 initialized @(4,0)
GPGPU-Sim uArch: core: 10, cta: 3 initialized @(4,0)
GPGPU-Sim uArch: core: 11, cta: 3 initialized @(4,0)
GPGPU-Sim uArch: core: 12, cta: 3 initialized @(4,0)
GPGPU-Sim uArch: core: 13, cta: 3 initialized @(4,0)
GPGPU-Sim uArch: core: 14, cta: 3 initialized @(4,0)
GPGPU-Sim uArch: core:  0, cta: 3 initialized @(4,0)
GPGPU-Sim uArch: core:  1, cta: 4 initialized @(5,0)
GPGPU-Sim uArch: core:  2, cta: 4 initialized @(5,0)
GPGPU-Sim uArch: core:  3, cta: 4 initialized @(5,0)
GPGPU-Sim uArch: core:  4, cta: 4 initialized @(5,0)
GPGPU-Sim uArch: core:  5, cta: 4 initialized @(5,0)
GPGPU-Sim uArch: core:  6, cta: 4 initialized @(5,0)
GPGPU-Sim uArch: core:  7, cta: 4 initialized @(5,0)
GPGPU-Sim uArch: core:  8, cta: 4 initialized @(5,0)
GPGPU-Sim uArch: core:  9, cta: 4 initialized @(5,0)
GPGPU-Sim uArch: core: 10, cta: 4 initialized @(5,0)
GPGPU-Sim uArch: core: 11, cta: 4 initialized @(5,0)
GPGPU-Sim uArch: core: 12, cta: 4 initialized @(5,0)
GPGPU-Sim uArch: core: 13, cta: 4 initialized @(5,0)
GPGPU-Sim uArch: core: 14, cta: 4 initialized @(5,0)
GPGPU-Sim uArch: core:  0, cta: 4 initialized @(5,0)
GPGPU-Sim uArch: core:  1, cta: 5 initialized @(6,0)
GPGPU-Sim uArch: core:  2, cta: 5 initialized @(6,0)
GPGPU-Sim uArch: core:  3, cta: 5 initialized @(6,0)
GPGPU-Sim uArch: core:  4, cta: 5 initialized @(6,0)
GPGPU-Sim uArch: core:  5, cta: 5 initialized @(6,0)
GPGPU-Sim uArch: core:  6, cta: 5 initialized @(6,0)
GPGPU-Sim uArch: core:  7, cta: 5 initialized @(6,0)
GPGPU-Sim uArch: core:  8, cta: 5 initialized @(6,0)
GPGPU-Sim uArch: core:  9, cta: 5 initialized @(6,0)
GPGPU-Sim uArch: core: 10, cta: 5 initialized @(6,0)
GPGPU-Sim uArch: core: 11, cta: 5 initialized @(6,0)
GPGPU-Sim uArch: core: 12, cta: 5 initialized @(6,0)
GPGPU-Sim uArch: core: 13, cta: 5 initialized @(6,0)
GPGPU-Sim uArch: core: 14, cta: 5 initialized @(6,0)
GPGPU-Sim uArch: core:  0, cta: 5 initialized @(6,0)
GPGPU-Sim uArch: core:  1, cta: 6 initialized @(7,0)
GPGPU-Sim uArch: core:  2, cta: 6 initialized @(7,0)
GPGPU-Sim uArch: core:  3, cta: 6 initialized @(7,0)
GPGPU-Sim uArch: core:  4, cta: 6 initialized @(7,0)
GPGPU-Sim uArch: core:  5, cta: 6 initialized @(7,0)
GPGPU-Sim uArch: core:  6, cta: 6 initialized @(7,0)
GPGPU-Sim uArch: core:  7, cta: 6 initialized @(7,0)
GPGPU-Sim uArch: core:  8, cta: 6 initialized @(7,0)
GPGPU-Sim uArch: core:  9, cta: 6 initialized @(7,0)
GPGPU-Sim uArch: core: 10, cta: 6 initialized @(7,0)
GPGPU-Sim uArch: core: 11, cta: 6 initialized @(7,0)
GPGPU-Sim uArch: core: 12, cta: 6 initialized @(7,0)
GPGPU-Sim uArch: core: 13, cta: 6 initialized @(7,0)
GPGPU-Sim uArch: core: 14, cta: 6 initialized @(7,0)
GPGPU-Sim uArch: core:  0, cta: 6 initialized @(7,0)
GPGPU-Sim uArch: core:  1, cta: 7 initialized @(8,0)
GPGPU-Sim uArch: core:  2, cta: 7 initialized @(8,0)
GPGPU-Sim uArch: core:  3, cta: 7 initialized @(8,0)
GPGPU-Sim uArch: core:  4, cta: 7 initialized @(8,0)
GPGPU-Sim uArch: core:  5, cta: 7 initialized @(8,0)
GPGPU-Sim uArch: core:  6, cta: 7 initialized @(8,0)
GPGPU-Sim uArch: core:  7, cta: 7 initialized @(8,0)
GPGPU-Sim uArch: core:  8, cta: 7 initialized @(8,0)
GPGPU-Sim uArch: core:  9, cta: 7 initialized @(8,0)
GPGPU-Sim uArch: core: 10, cta: 7 initialized @(8,0)
GPGPU-Sim uArch: core: 11, cta: 7 initialized @(8,0)
GPGPU-Sim uArch: core: 12, cta: 7 initialized @(8,0)
GPGPU-Sim uArch: core: 13, cta: 7 initialized @(8,0)
GPGPU-Sim uArch: core: 14, cta: 7 initialized @(8,0)
GPGPU-Sim uArch: core:  0, cta: 7 initialized @(8,0)
GPGPU-Sim uArch: cycles simulated: 500  inst.: 7680 (ipc=15.4) sim_rate=698 (inst/sec) elapsed = 0:0:00:11 / Tue Mar 22 12:44:18 2016
GPGPU-Sim uArch: cycles simulated: 1000  inst.: 36448 (ipc=36.4) sim_rate=3037 (inst/sec) elapsed = 0:0:00:12 / Tue Mar 22 12:44:19 2016
GPGPU-Sim uArch: cycles simulated: 1500  inst.: 49920 (ipc=33.3) sim_rate=3840 (inst/sec) elapsed = 0:0:00:13 / Tue Mar 22 12:44:20 2016
GPGPU-Sim PTX: 100000 instructions simulated : ctaid=(1,1,0) tid=(4,7,0)
GPGPU-Sim PTX: 200000 instructions simulated : ctaid=(4,1,0) tid=(4,7,0)
GPGPU-Sim PTX: 300000 instructions simulated : ctaid=(0,1,0) tid=(4,7,0)
GPGPU-Sim uArch: cycles simulated: 3000  inst.: 360832 (ipc=120.3) sim_rate=25773 (inst/sec) elapsed = 0:0:00:14 / Tue Mar 22 12:44:21 2016
GPGPU-Sim PTX: 400000 instructions simulated : ctaid=(1,1,0) tid=(11,4,0)
GPGPU-Sim PTX: 500000 instructions simulated : ctaid=(2,1,0) tid=(4,7,0)
GPGPU-Sim PTX: 600000 instructions simulated : ctaid=(2,2,0) tid=(5,2,0)
GPGPU-Sim PTX: 700000 instructions simulated : ctaid=(2,2,0) tid=(11,1,0)
GPGPU-Sim uArch: cycles simulated: 4500  inst.: 703392 (ipc=156.3) sim_rate=46892 (inst/sec) elapsed = 0:0:00:15 / Tue Mar 22 12:44:22 2016
GPGPU-Sim PTX: 800000 instructions simulated : ctaid=(2,2,0) tid=(5,9,0)
GPGPU-Sim PTX: 900000 instructions simulated : ctaid=(2,0,0) tid=(12,9,0)
GPGPU-Sim uArch: cycles simulated: 6000  inst.: 913450 (ipc=152.2) sim_rate=57090 (inst/sec) elapsed = 0:0:00:16 / Tue Mar 22 12:44:23 2016
GPGPU-Sim PTX: 1000000 instructions simulated : ctaid=(1,3,0) tid=(9,0,0)
GPGPU-Sim PTX: 1100000 instructions simulated : ctaid=(1,3,0) tid=(1,0,0)
GPGPU-Sim PTX: 1200000 instructions simulated : ctaid=(3,1,0) tid=(0,10,0)
GPGPU-Sim uArch: cycles simulated: 7500  inst.: 1233925 (ipc=164.5) sim_rate=72583 (inst/sec) elapsed = 0:0:00:17 / Tue Mar 22 12:44:24 2016
GPGPU-Sim PTX: 1300000 instructions simulated : ctaid=(3,3,0) tid=(10,2,0)
GPGPU-Sim PTX: 1400000 instructions simulated : ctaid=(0,1,0) tid=(7,10,0)
GPGPU-Sim uArch: Shader 14 finished CTA #0 (8484,0), 7 CTAs running
GPGPU-Sim uArch: core: 14, cta: 0 initialized @(8485,0)
GPGPU-Sim uArch: Shader 13 finished CTA #0 (8500,0), 7 CTAs running
GPGPU-Sim uArch: core: 13, cta: 0 initialized @(8501,0)
GPGPU-Sim uArch: Shader 0 finished CTA #0 (8533,0), 7 CTAs running
GPGPU-Sim uArch: core:  0, cta: 0 initialized @(8534,0)
GPGPU-Sim PTX: 1500000 instructions simulated : ctaid=(3,0,0) tid=(10,12,0)
GPGPU-Sim uArch: Shader 7 finished CTA #0 (8916,0), 7 CTAs running
GPGPU-Sim uArch: core:  7, cta: 0 initialized @(8917,0)
GPGPU-Sim uArch: Shader 5 finished CTA #0 (8941,0), 7 CTAs running
GPGPU-Sim uArch: core:  5, cta: 0 initialized @(8942,0)
GPGPU-Sim uArch: Shader 6 finished CTA #0 (8944,0), 7 CTAs running
GPGPU-Sim uArch: Shader 12 finished CTA #0 (8944,0), 7 CTAs running
GPGPU-Sim uArch: core:  6, cta: 0 initialized @(8945,0)
GPGPU-Sim uArch: core: 12, cta: 0 initialized @(8945,0)
GPGPU-Sim uArch: Shader 10 finished CTA #0 (8954,0), 7 CTAs running
GPGPU-Sim uArch: core: 10, cta: 0 initialized @(8955,0)
GPGPU-Sim uArch: Shader 4 finished CTA #0 (8962,0), 7 CTAs running
GPGPU-Sim uArch: core:  4, cta: 0 initialized @(8963,0)
GPGPU-Sim uArch: Shader 9 finished CTA #0 (8963,0), 7 CTAs running
GPGPU-Sim uArch: core:  9, cta: 0 initialized @(8964,0)
GPGPU-Sim uArch: Shader 3 finished CTA #0 (8974,0), 7 CTAs running
GPGPU-Sim uArch: core:  3, cta: 0 initialized @(8975,0)
GPGPU-Sim uArch: Shader 2 finished CTA #0 (8990,0), 7 CTAs running
GPGPU-Sim uArch: core:  2, cta: 0 initialized @(8991,0)
GPGPU-Sim uArch: cycles simulated: 9000  inst.: 1533392 (ipc=170.4) sim_rate=85188 (inst/sec) elapsed = 0:0:00:18 / Tue Mar 22 12:44:25 2016
GPGPU-Sim uArch: Shader 1 finished CTA #0 (9004,0), 7 CTAs running
GPGPU-Sim uArch: core:  1, cta: 0 initialized @(9005,0)
GPGPU-Sim uArch: Shader 8 finished CTA #0 (9040,0), 7 CTAs running
GPGPU-Sim uArch: core:  8, cta: 0 initialized @(9041,0)
GPGPU-Sim uArch: Shader 11 finished CTA #0 (9059,0), 7 CTAs running
GPGPU-Sim uArch: core: 11, cta: 0 initialized @(9060,0)
GPGPU-Sim PTX: 1600000 instructions simulated : ctaid=(5,3,0) tid=(9,9,0)
GPGPU-Sim PTX: 1700000 instructions simulated : ctaid=(3,3,0) tid=(1,6,0)
GPGPU-Sim PTX: 1800000 instructions simulated : ctaid=(5,3,0) tid=(3,12,0)
GPGPU-Sim uArch: cycles simulated: 10500  inst.: 1880462 (ipc=179.1) sim_rate=98971 (inst/sec) elapsed = 0:0:00:19 / Tue Mar 22 12:44:26 2016
GPGPU-Sim PTX: 1900000 instructions simulated : ctaid=(3,2,0) tid=(9,12,0)
GPGPU-Sim PTX: 2000000 instructions simulated : ctaid=(1,7,0) tid=(3,3,0)
GPGPU-Sim PTX: 2100000 instructions simulated : ctaid=(4,3,0) tid=(4,9,0)
GPGPU-Sim uArch: Shader 2 finished CTA #1 (11938,0), 7 CTAs running
GPGPU-Sim uArch: core:  2, cta: 1 initialized @(11939,0)
GPGPU-Sim uArch: Shader 1 finished CTA #1 (11945,0), 7 CTAs running
GPGPU-Sim uArch: core:  1, cta: 1 initialized @(11946,0)
GPGPU-Sim uArch: Shader 3 finished CTA #1 (11983,0), 7 CTAs running
GPGPU-Sim uArch: core:  3, cta: 1 initialized @(11984,0)
GPGPU-Sim uArch: Shader 10 finished CTA #1 (12108,0), 7 CTAs running
GPGPU-Sim uArch: core: 10, cta: 1 initialized @(12109,0)
GPGPU-Sim PTX: 2200000 instructions simulated : ctaid=(4,6,0) tid=(7,1,0)
GPGPU-Sim uArch: Shader 12 finished CTA #1 (12145,0), 7 CTAs running
GPGPU-Sim uArch: core: 12, cta: 1 initialized @(12146,0)
GPGPU-Sim uArch: Shader 11 finished CTA #1 (12149,0), 7 CTAs running
GPGPU-Sim uArch: core: 11, cta: 1 initialized @(12150,0)
GPGPU-Sim uArch: Shader 0 finished CTA #1 (12152,0), 7 CTAs running
GPGPU-Sim uArch: core:  0, cta: 1 initialized @(12153,0)
GPGPU-Sim uArch: Shader 14 finished CTA #1 (12250,0), 7 CTAs running
GPGPU-Sim uArch: core: 14, cta: 1 initialized @(12251,0)
GPGPU-Sim uArch: Shader 13 finished CTA #1 (12325,0), 7 CTAs running
GPGPU-Sim uArch: core: 13, cta: 1 initialized @(12326,0)
GPGPU-Sim uArch: cycles simulated: 12500  inst.: 2285064 (ipc=182.8) sim_rate=114253 (inst/sec) elapsed = 0:0:00:20 / Tue Mar 22 12:44:27 2016
GPGPU-Sim PTX: 2300000 instructions simulated : ctaid=(5,6,0) tid=(4,6,0)
GPGPU-Sim uArch: Shader 7 finished CTA #1 (12641,0), 7 CTAs running
GPGPU-Sim uArch: core:  7, cta: 1 initialized @(12642,0)
GPGPU-Sim uArch: Shader 9 finished CTA #1 (12654,0), 7 CTAs running
GPGPU-Sim uArch: core:  9, cta: 1 initialized @(12655,0)
GPGPU-Sim uArch: Shader 5 finished CTA #1 (12656,0), 7 CTAs running
GPGPU-Sim uArch: core:  5, cta: 1 initialized @(12657,0)
GPGPU-Sim uArch: Shader 6 finished CTA #1 (12676,0), 7 CTAs running
GPGPU-Sim uArch: core:  6, cta: 1 initialized @(12677,0)
GPGPU-Sim uArch: Shader 4 finished CTA #1 (12682,0), 7 CTAs running
GPGPU-Sim uArch: core:  4, cta: 1 initialized @(12683,0)
GPGPU-Sim uArch: Shader 8 finished CTA #1 (12815,0), 7 CTAs running
GPGPU-Sim uArch: core:  8, cta: 1 initialized @(12816,0)
GPGPU-Sim PTX: 2400000 instructions simulated : ctaid=(4,6,0) tid=(5,8,0)
GPGPU-Sim PTX: 2500000 instructions simulated : ctaid=(2,7,0) tid=(12,5,0)
GPGPU-Sim uArch: cycles simulated: 13500  inst.: 2574855 (ipc=190.7) sim_rate=122612 (inst/sec) elapsed = 0:0:00:21 / Tue Mar 22 12:44:28 2016
GPGPU-Sim PTX: 2600000 instructions simulated : ctaid=(3,5,0) tid=(11,8,0)
GPGPU-Sim PTX: 2700000 instructions simulated : ctaid=(3,6,0) tid=(12,5,0)
GPGPU-Sim PTX: 2800000 instructions simulated : ctaid=(4,5,0) tid=(0,3,0)
GPGPU-Sim PTX: 2900000 instructions simulated : ctaid=(1,6,0) tid=(6,11,0)
GPGPU-Sim uArch: cycles simulated: 15000  inst.: 2931034 (ipc=195.4) sim_rate=133228 (inst/sec) elapsed = 0:0:00:22 / Tue Mar 22 12:44:29 2016
GPGPU-Sim PTX: 3000000 instructions simulated : ctaid=(4,7,0) tid=(12,0,0)
GPGPU-Sim PTX: 3100000 instructions simulated : ctaid=(0,9,0) tid=(0,0,0)
GPGPU-Sim PTX: 3200000 instructions simulated : ctaid=(3,9,0) tid=(9,1,0)
GPGPU-Sim uArch: cycles simulated: 16500  inst.: 3213612 (ipc=194.8) sim_rate=139722 (inst/sec) elapsed = 0:0:00:23 / Tue Mar 22 12:44:30 2016
GPGPU-Sim PTX: 3300000 instructions simulated : ctaid=(3,9,0) tid=(6,3,0)
GPGPU-Sim PTX: 3400000 instructions simulated : ctaid=(4,7,0) tid=(3,6,0)
GPGPU-Sim uArch: cycles simulated: 17500  inst.: 3426972 (ipc=195.8) sim_rate=142790 (inst/sec) elapsed = 0:0:00:24 / Tue Mar 22 12:44:31 2016
GPGPU-Sim uArch: Shader 8 finished CTA #2 (17665,0), 7 CTAs running
GPGPU-Sim uArch: core:  8, cta: 2 initialized @(17666,0)
GPGPU-Sim uArch: Shader 9 finished CTA #2 (17672,0), 7 CTAs running
GPGPU-Sim uArch: core:  9, cta: 2 initialized @(17673,0)
GPGPU-Sim uArch: Shader 12 finished CTA #2 (17690,0), 7 CTAs running
GPGPU-Sim uArch: core: 12, cta: 2 initialized @(17691,0)
GPGPU-Sim uArch: Shader 5 finished CTA #2 (17692,0), 7 CTAs running
GPGPU-Sim uArch: core:  5, cta: 2 initialized @(17693,0)
GPGPU-Sim uArch: Shader 1 finished CTA #2 (17704,0), 7 CTAs running
GPGPU-Sim uArch: core:  1, cta: 2 initialized @(17705,0)
GPGPU-Sim uArch: Shader 2 finished CTA #2 (17719,0), 7 CTAs running
GPGPU-Sim uArch: core:  2, cta: 2 initialized @(17720,0)
GPGPU-Sim uArch: Shader 4 finished CTA #2 (17780,0), 7 CTAs running
GPGPU-Sim uArch: core:  4, cta: 2 initialized @(17781,0)
GPGPU-Sim uArch: Shader 3 finished CTA #2 (17786,0), 7 CTAs running
GPGPU-Sim uArch: core:  3, cta: 2 initialized @(17787,0)
GPGPU-Sim uArch: Shader 6 finished CTA #2 (17801,0), 7 CTAs running
GPGPU-Sim uArch: core:  6, cta: 2 initialized @(17802,0)
GPGPU-Sim uArch: Shader 14 finished CTA #2 (17802,0), 7 CTAs running
GPGPU-Sim uArch: core: 14, cta: 2 initialized @(17803,0)
GPGPU-Sim PTX: 3500000 instructions simulated : ctaid=(4,7,0) tid=(5,4,0)
GPGPU-Sim uArch: Shader 11 finished CTA #2 (17834,0), 7 CTAs running
GPGPU-Sim uArch: core: 11, cta: 2 initialized @(17835,0)
GPGPU-Sim uArch: Shader 7 finished CTA #2 (17874,0), 7 CTAs running
GPGPU-Sim uArch: core:  7, cta: 2 initialized @(17875,0)
GPGPU-Sim uArch: Shader 10 finished CTA #2 (17890,0), 7 CTAs running
GPGPU-Sim uArch: core: 10, cta: 2 initialized @(17891,0)
GPGPU-Sim uArch: Shader 0 finished CTA #2 (17955,0), 7 CTAs running
GPGPU-Sim uArch: core:  0, cta: 2 initialized @(17956,0)
GPGPU-Sim uArch: Shader 13 finished CTA #2 (17968,0), 7 CTAs running
GPGPU-Sim uArch: core: 13, cta: 2 initialized @(17969,0)
GPGPU-Sim PTX: 3600000 instructions simulated : ctaid=(3,7,0) tid=(10,4,0)
GPGPU-Sim uArch: cycles simulated: 18500  inst.: 3664360 (ipc=198.1) sim_rate=146574 (inst/sec) elapsed = 0:0:00:25 / Tue Mar 22 12:44:32 2016
GPGPU-Sim PTX: 3700000 instructions simulated : ctaid=(1,8,0) tid=(3,8,0)
GPGPU-Sim PTX: 3800000 instructions simulated : ctaid=(1,9,0) tid=(3,6,0)
GPGPU-Sim PTX: 3900000 instructions simulated : ctaid=(3,7,0) tid=(9,11,0)
GPGPU-Sim PTX: 4000000 instructions simulated : ctaid=(5,9,0) tid=(8,12,0)
GPGPU-Sim uArch: cycles simulated: 20000  inst.: 4019444 (ipc=201.0) sim_rate=154594 (inst/sec) elapsed = 0:0:00:26 / Tue Mar 22 12:44:33 2016
GPGPU-Sim PTX: 4100000 instructions simulated : ctaid=(5,10,0) tid=(5,1,0)
GPGPU-Sim PTX: 4200000 instructions simulated : ctaid=(1,8,0) tid=(3,12,0)
GPGPU-Sim uArch: cycles simulated: 21000  inst.: 4209236 (ipc=200.4) sim_rate=155897 (inst/sec) elapsed = 0:0:00:27 / Tue Mar 22 12:44:34 2016
GPGPU-Sim PTX: 4300000 instructions simulated : ctaid=(0,12,0) tid=(4,0,0)
GPGPU-Sim uArch: Shader 3 finished CTA #3 (21376,0), 7 CTAs running
GPGPU-Sim uArch: core:  3, cta: 3 initialized @(21377,0)
GPGPU-Sim uArch: Shader 11 finished CTA #3 (21424,0), 7 CTAs running
GPGPU-Sim uArch: core: 11, cta: 3 initialized @(21425,0)
GPGPU-Sim uArch: Shader 14 finished CTA #3 (21551,0), 7 CTAs running
GPGPU-Sim uArch: core: 14, cta: 3 initialized @(21552,0)
GPGPU-Sim uArch: Shader 0 finished CTA #3 (21567,0), 7 CTAs running
GPGPU-Sim uArch: Shader 13 finished CTA #3 (21567,0), 7 CTAs running
GPGPU-Sim uArch: Shader 10 finished CTA #3 (21610,0), 7 CTAs running
GPGPU-Sim uArch: Shader 2 finished CTA #3 (21659,0), 7 CTAs running
GPGPU-Sim uArch: Shader 1 finished CTA #3 (21663,0), 7 CTAs running
GPGPU-Sim uArch: Shader 12 finished CTA #3 (21663,0), 7 CTAs running
GPGPU-Sim PTX: 4400000 instructions simulated : ctaid=(1,11,0) tid=(5,1,0)
GPGPU-Sim uArch: Shader 4 finished CTA #3 (21880,0), 7 CTAs running
GPGPU-Sim uArch: Shader 5 finished CTA #3 (21903,0), 7 CTAs running
GPGPU-Sim uArch: Shader 9 finished CTA #3 (21910,0), 7 CTAs running
GPGPU-Sim uArch: Shader 6 finished CTA #3 (21913,0), 7 CTAs running
GPGPU-Sim uArch: Shader 7 finished CTA #3 (21918,0), 7 CTAs running
GPGPU-Sim uArch: cycles simulated: 22000  inst.: 4435774 (ipc=201.6) sim_rate=158420 (inst/sec) elapsed = 0:0:00:28 / Tue Mar 22 12:44:35 2016
GPGPU-Sim uArch: Shader 8 finished CTA #3 (22024,0), 7 CTAs running
GPGPU-Sim PTX: 4500000 instructions simulated : ctaid=(1,11,0) tid=(9,5,0)
GPGPU-Sim PTX: 4600000 instructions simulated : ctaid=(2,12,0) tid=(10,0,0)
GPGPU-Sim PTX: 4700000 instructions simulated : ctaid=(0,12,0) tid=(12,5,0)
GPGPU-Sim PTX: 4800000 instructions simulated : ctaid=(5,11,0) tid=(12,7,0)
GPGPU-Sim uArch: cycles simulated: 23500  inst.: 4850723 (ipc=206.4) sim_rate=167266 (inst/sec) elapsed = 0:0:00:29 / Tue Mar 22 12:44:36 2016
GPGPU-Sim PTX: 4900000 instructions simulated : ctaid=(3,10,0) tid=(7,9,0)
GPGPU-Sim PTX: 5000000 instructions simulated : ctaid=(5,11,0) tid=(4,5,0)
GPGPU-Sim uArch: cycles simulated: 24500  inst.: 5062306 (ipc=206.6) sim_rate=168743 (inst/sec) elapsed = 0:0:00:30 / Tue Mar 22 12:44:37 2016
GPGPU-Sim PTX: 5100000 instructions simulated : ctaid=(1,11,0) tid=(2,12,0)
GPGPU-Sim PTX: 5200000 instructions simulated : ctaid=(3,12,0) tid=(5,1,0)
GPGPU-Sim PTX: 5300000 instructions simulated : ctaid=(2,14,0) tid=(4,0,0)
GPGPU-Sim uArch: cycles simulated: 26000  inst.: 5355627 (ipc=206.0) sim_rate=172762 (inst/sec) elapsed = 0:0:00:31 / Tue Mar 22 12:44:38 2016
GPGPU-Sim PTX: 5400000 instructions simulated : ctaid=(4,14,0) tid=(1,4,0)
GPGPU-Sim PTX: 5500000 instructions simulated : ctaid=(3,14,0) tid=(11,0,0)
GPGPU-Sim uArch: Shader 9 finished CTA #4 (26829,0), 6 CTAs running
GPGPU-Sim uArch: Shader 8 finished CTA #4 (26850,0), 6 CTAs running
GPGPU-Sim uArch: Shader 12 finished CTA #4 (26853,0), 6 CTAs running
GPGPU-Sim uArch: Shader 7 finished CTA #4 (26867,0), 6 CTAs running
GPGPU-Sim uArch: Shader 10 finished CTA #4 (26881,0), 6 CTAs running
GPGPU-Sim uArch: Shader 2 finished CTA #4 (26953,0), 6 CTAs running
GPGPU-Sim uArch: Shader 6 finished CTA #4 (26961,0), 6 CTAs running
GPGPU-Sim uArch: Shader 4 finished CTA #4 (26977,0), 6 CTAs running
GPGPU-Sim uArch: Shader 3 finished CTA #4 (26985,0), 7 CTAs running
GPGPU-Sim uArch: Shader 1 finished CTA #4 (26994,0), 6 CTAs running
GPGPU-Sim uArch: cycles simulated: 27000  inst.: 5568195 (ipc=206.2) sim_rate=174006 (inst/sec) elapsed = 0:0:00:32 / Tue Mar 22 12:44:39 2016
GPGPU-Sim uArch: Shader 11 finished CTA #4 (27000,0), 7 CTAs running
GPGPU-Sim PTX: 5600000 instructions simulated : ctaid=(1,13,0) tid=(10,4,0)
GPGPU-Sim uArch: Shader 5 finished CTA #4 (27095,0), 6 CTAs running
GPGPU-Sim uArch: Shader 14 finished CTA #4 (27191,0), 7 CTAs running
GPGPU-Sim uArch: Shader 13 finished CTA #4 (27207,0), 6 CTAs running
GPGPU-Sim uArch: Shader 0 finished CTA #4 (27217,0), 6 CTAs running
GPGPU-Sim PTX: 5700000 instructions simulated : ctaid=(2,13,0) tid=(9,9,0)
GPGPU-Sim PTX: 5800000 instructions simulated : ctaid=(5,14,0) tid=(5,10,0)
GPGPU-Sim uArch: cycles simulated: 28000  inst.: 5828604 (ipc=208.2) sim_rate=176624 (inst/sec) elapsed = 0:0:00:33 / Tue Mar 22 12:44:40 2016
GPGPU-Sim PTX: 5900000 instructions simulated : ctaid=(5,13,0) tid=(10,7,0)
GPGPU-Sim PTX: 6000000 instructions simulated : ctaid=(0,13,0) tid=(11,12,0)
GPGPU-Sim PTX: 6100000 instructions simulated : ctaid=(4,12,0) tid=(3,6,0)
GPGPU-Sim uArch: cycles simulated: 29500  inst.: 6158055 (ipc=208.7) sim_rate=181119 (inst/sec) elapsed = 0:0:00:34 / Tue Mar 22 12:44:41 2016
GPGPU-Sim PTX: 6200000 instructions simulated : ctaid=(4,15,0) tid=(6,1,0)
GPGPU-Sim PTX: 6300000 instructions simulated : ctaid=(2,16,0) tid=(9,3,0)
GPGPU-Sim uArch: Shader 2 finished CTA #5 (30519,0), 5 CTAs running
GPGPU-Sim uArch: Shader 3 finished CTA #5 (30543,0), 6 CTAs running
GPGPU-Sim uArch: Shader 1 finished CTA #5 (30549,0), 5 CTAs running
GPGPU-Sim PTX: 6400000 instructions simulated : ctaid=(0,16,0) tid=(2,1,0)
GPGPU-Sim uArch: cycles simulated: 31000  inst.: 6445932 (ipc=207.9) sim_rate=184169 (inst/sec) elapsed = 0:0:00:35 / Tue Mar 22 12:44:42 2016
GPGPU-Sim PTX: 6500000 instructions simulated : ctaid=(4,15,0) tid=(10,1,0)
GPGPU-Sim uArch: Shader 6 finished CTA #5 (31163,0), 5 CTAs running
GPGPU-Sim uArch: Shader 9 finished CTA #5 (31202,0), 5 CTAs running
GPGPU-Sim uArch: Shader 5 finished CTA #5 (31206,0), 5 CTAs running
GPGPU-Sim uArch: Shader 8 finished CTA #5 (31280,0), 5 CTAs running
GPGPU-Sim uArch: Shader 4 finished CTA #5 (31342,0), 5 CTAs running
GPGPU-Sim uArch: Shader 7 finished CTA #5 (31486,0), 5 CTAs running
GPGPU-Sim uArch: Shader 11 finished CTA #5 (31497,0), 6 CTAs running
GPGPU-Sim uArch: Shader 13 finished CTA #5 (31514,0), 5 CTAs running
GPGPU-Sim uArch: Shader 0 finished CTA #5 (31532,0), 5 CTAs running
GPGPU-Sim uArch: Shader 10 finished CTA #5 (31555,0), 5 CTAs running
GPGPU-Sim PTX: 6600000 instructions simulated : ctaid=(1,17,0) tid=(9,0,0)
GPGPU-Sim uArch: Shader 12 finished CTA #5 (31568,0), 5 CTAs running
GPGPU-Sim uArch: Shader 14 finished CTA #5 (31677,0), 6 CTAs running
GPGPU-Sim PTX: 6700000 instructions simulated : ctaid=(1,15,0) tid=(7,4,0)
GPGPU-Sim uArch: cycles simulated: 32000  inst.: 6696488 (ipc=209.3) sim_rate=186013 (inst/sec) elapsed = 0:0:00:36 / Tue Mar 22 12:44:43 2016
GPGPU-Sim PTX: 6800000 instructions simulated : ctaid=(4,15,0) tid=(7,9,0)
GPGPU-Sim PTX: 6900000 instructions simulated : ctaid=(4,15,0) tid=(3,6,0)
GPGPU-Sim PTX: 7000000 instructions simulated : ctaid=(2,16,0) tid=(10,9,0)
GPGPU-Sim uArch: cycles simulated: 33500  inst.: 7060119 (ipc=210.7) sim_rate=190814 (inst/sec) elapsed = 0:0:00:37 / Tue Mar 22 12:44:44 2016
GPGPU-Sim PTX: 7100000 instructions simulated : ctaid=(4,16,0) tid=(0,12,0)
GPGPU-Sim PTX: 7200000 instructions simulated : ctaid=(2,16,0) tid=(4,9,0)
GPGPU-Sim uArch: cycles simulated: 34500  inst.: 7248222 (ipc=210.1) sim_rate=190742 (inst/sec) elapsed = 0:0:00:38 / Tue Mar 22 12:44:45 2016
GPGPU-Sim PTX: 7300000 instructions simulated : ctaid=(0,19,0) tid=(6,1,0)
GPGPU-Sim PTX: 7400000 instructions simulated : ctaid=(1,19,0) tid=(11,3,0)
GPGPU-Sim PTX: 7500000 instructions simulated : ctaid=(4,18,0) tid=(4,4,0)
GPGPU-Sim PTX: 7600000 instructions simulated : ctaid=(0,17,0) tid=(12,9,0)
GPGPU-Sim uArch: Shader 8 finished CTA #6 (35979,0), 4 CTAs running
GPGPU-Sim uArch: Shader 9 finished CTA #6 (35986,0), 4 CTAs running
GPGPU-Sim uArch: cycles simulated: 36000  inst.: 7579579 (ipc=210.5) sim_rate=194348 (inst/sec) elapsed = 0:0:00:39 / Tue Mar 22 12:44:46 2016
GPGPU-Sim uArch: Shader 11 finished CTA #6 (36013,0), 5 CTAs running
GPGPU-Sim uArch: Shader 12 finished CTA #6 (36022,0), 4 CTAs running
GPGPU-Sim uArch: Shader 4 finished CTA #6 (36030,0), 4 CTAs running
GPGPU-Sim uArch: Shader 2 finished CTA #6 (36036,0), 4 CTAs running
GPGPU-Sim uArch: Shader 1 finished CTA #6 (36042,0), 4 CTAs running
GPGPU-Sim uArch: Shader 6 finished CTA #6 (36065,0), 4 CTAs running
GPGPU-Sim uArch: Shader 3 finished CTA #6 (36079,0), 5 CTAs running
GPGPU-Sim uArch: Shader 7 finished CTA #6 (36106,0), 4 CTAs running
GPGPU-Sim uArch: Shader 10 finished CTA #6 (36106,0), 4 CTAs running
GPGPU-Sim uArch: Shader 5 finished CTA #6 (36171,0), 4 CTAs running
GPGPU-Sim PTX: 7700000 instructions simulated : ctaid=(0,18,0) tid=(11,6,0)
GPGPU-Sim PTX: 7800000 instructions simulated : ctaid=(1,18,0) tid=(6,6,0)
GPGPU-Sim uArch: cycles simulated: 37000  inst.: 7820889 (ipc=211.4) sim_rate=195522 (inst/sec) elapsed = 0:0:00:40 / Tue Mar 22 12:44:47 2016
GPGPU-Sim uArch: Shader 14 finished CTA #6 (37039,0), 5 CTAs running
GPGPU-Sim uArch: Shader 13 finished CTA #6 (37056,0), 4 CTAs running
GPGPU-Sim uArch: Shader 0 finished CTA #6 (37077,0), 4 CTAs running
GPGPU-Sim PTX: 7900000 instructions simulated : ctaid=(3,17,0) tid=(7,6,0)
GPGPU-Sim PTX: 8000000 instructions simulated : ctaid=(1,18,0) tid=(7,11,0)
GPGPU-Sim PTX: 8100000 instructions simulated : ctaid=(1,18,0) tid=(10,8,0)
GPGPU-Sim PTX: 8200000 instructions simulated : ctaid=(2,19,0) tid=(5,6,0)
GPGPU-Sim uArch: cycles simulated: 38500  inst.: 8184198 (ipc=212.6) sim_rate=199614 (inst/sec) elapsed = 0:0:00:41 / Tue Mar 22 12:44:48 2016
GPGPU-Sim PTX: 8300000 instructions simulated : ctaid=(5,19,0) tid=(0,8,0)
GPGPU-Sim PTX: 8400000 instructions simulated : ctaid=(1,18,0) tid=(12,12,0)
GPGPU-Sim uArch: Shader 2 finished CTA #7 (39887,0), 3 CTAs running
GPGPU-Sim PTX: 8500000 instructions simulated : ctaid=(5,20,0) tid=(0,0,0)
GPGPU-Sim uArch: cycles simulated: 40000  inst.: 8487367 (ipc=212.2) sim_rate=202080 (inst/sec) elapsed = 0:0:00:42 / Tue Mar 22 12:44:49 2016
GPGPU-Sim uArch: Shader 1 finished CTA #7 (40009,0), 3 CTAs running
GPGPU-Sim uArch: Shader 3 finished CTA #7 (40025,0), 4 CTAs running
GPGPU-Sim PTX: 8600000 instructions simulated : ctaid=(1,21,0) tid=(4,6,0)
GPGPU-Sim uArch: Shader 10 finished CTA #7 (40457,0), 3 CTAs running
GPGPU-Sim uArch: Shader 11 finished CTA #7 (40463,0), 4 CTAs running
GPGPU-Sim uArch: Shader 14 finished CTA #7 (40475,0), 4 CTAs running
GPGPU-Sim uArch: Shader 0 finished CTA #7 (40559,0), 3 CTAs running
GPGPU-Sim uArch: Shader 5 finished CTA #7 (40585,0), 3 CTAs running
GPGPU-Sim uArch: Shader 12 finished CTA #7 (40586,0), 3 CTAs running
GPGPU-Sim uArch: Shader 6 finished CTA #7 (40613,0), 3 CTAs running
GPGPU-Sim uArch: Shader 4 finished CTA #7 (40623,0), 3 CTAs running
GPGPU-Sim uArch: Shader 7 finished CTA #7 (40639,0), 3 CTAs running
GPGPU-Sim uArch: Shader 9 finished CTA #7 (40639,0), 3 CTAs running
GPGPU-Sim uArch: Shader 13 finished CTA #7 (40681,0), 3 CTAs running
GPGPU-Sim uArch: Shader 8 finished CTA #7 (40754,0), 3 CTAs running
GPGPU-Sim PTX: 8700000 instructions simulated : ctaid=(4,20,0) tid=(9,5,0)
GPGPU-Sim PTX: 8800000 instructions simulated : ctaid=(2,20,0) tid=(0,2,0)
GPGPU-Sim PTX: 8900000 instructions simulated : ctaid=(2,21,0) tid=(5,5,0)
GPGPU-Sim PTX: 9000000 instructions simulated : ctaid=(2,22,0) tid=(12,4,0)
GPGPU-Sim uArch: cycles simulated: 42000  inst.: 9004907 (ipc=214.4) sim_rate=209416 (inst/sec) elapsed = 0:0:00:43 / Tue Mar 22 12:44:50 2016
GPGPU-Sim PTX: 9100000 instructions simulated : ctaid=(5,21,0) tid=(2,9,0)
GPGPU-Sim PTX: 9200000 instructions simulated : ctaid=(3,20,0) tid=(7,8,0)
GPGPU-Sim PTX: 9300000 instructions simulated : ctaid=(1,20,0) tid=(10,10,0)
GPGPU-Sim PTX: 9400000 instructions simulated : ctaid=(3,21,0) tid=(2,10,0)
GPGPU-Sim uArch: cycles simulated: 44000  inst.: 9422127 (ipc=214.1) sim_rate=214139 (inst/sec) elapsed = 0:0:00:44 / Tue Mar 22 12:44:51 2016
GPGPU-Sim PTX: 9500000 instructions simulated : ctaid=(3,24,0) tid=(8,2,0)
GPGPU-Sim PTX: 9600000 instructions simulated : ctaid=(2,23,0) tid=(8,3,0)
GPGPU-Sim uArch: Shader 6 finished CTA #0 (45153,0), 2 CTAs running
GPGPU-Sim PTX: 9700000 instructions simulated : ctaid=(4,22,0) tid=(1,8,0)
GPGPU-Sim uArch: Shader 2 finished CTA #0 (45189,0), 2 CTAs running
GPGPU-Sim uArch: Shader 11 finished CTA #0 (45204,0), 3 CTAs running
GPGPU-Sim uArch: Shader 7 finished CTA #0 (45220,0), 2 CTAs running
GPGPU-Sim uArch: Shader 8 finished CTA #0 (45221,0), 2 CTAs running
GPGPU-Sim uArch: Shader 1 finished CTA #0 (45240,0), 2 CTAs running
GPGPU-Sim uArch: Shader 5 finished CTA #0 (45286,0), 2 CTAs running
GPGPU-Sim uArch: Shader 10 finished CTA #0 (45286,0), 2 CTAs running
GPGPU-Sim uArch: Shader 3 finished CTA #0 (45294,0), 3 CTAs running
GPGPU-Sim uArch: Shader 9 finished CTA #0 (45305,0), 2 CTAs running
GPGPU-Sim uArch: Shader 4 finished CTA #0 (45319,0), 2 CTAs running
GPGPU-Sim uArch: Shader 12 finished CTA #0 (45325,0), 2 CTAs running
GPGPU-Sim uArch: Shader 0 finished CTA #0 (45390,0), 2 CTAs running
GPGPU-Sim uArch: cycles simulated: 45500  inst.: 9755239 (ipc=214.4) sim_rate=216783 (inst/sec) elapsed = 0:0:00:45 / Tue Mar 22 12:44:52 2016
GPGPU-Sim uArch: Shader 13 finished CTA #0 (45536,0), 2 CTAs running
GPGPU-Sim PTX: 9800000 instructions simulated : ctaid=(4,24,0) tid=(6,3,0)
GPGPU-Sim uArch: Shader 14 finished CTA #0 (45537,0), 3 CTAs running
GPGPU-Sim PTX: 9900000 instructions simulated : ctaid=(0,23,0) tid=(7,5,0)
GPGPU-Sim PTX: 10000000 instructions simulated : ctaid=(4,24,0) tid=(8,7,0)
GPGPU-Sim uArch: cycles simulated: 46500  inst.: 10029888 (ipc=215.7) sim_rate=218041 (inst/sec) elapsed = 0:0:00:46 / Tue Mar 22 12:44:53 2016
GPGPU-Sim PTX: 10100000 instructions simulated : ctaid=(0,23,0) tid=(2,8,0)
GPGPU-Sim PTX: 10200000 instructions simulated : ctaid=(3,22,0) tid=(0,7,0)
GPGPU-Sim PTX: 10300000 instructions simulated : ctaid=(3,24,0) tid=(9,10,0)
GPGPU-Sim uArch: cycles simulated: 48000  inst.: 10352379 (ipc=215.7) sim_rate=220263 (inst/sec) elapsed = 0:0:00:47 / Tue Mar 22 12:44:54 2016
GPGPU-Sim PTX: 10400000 instructions simulated : ctaid=(5,24,0) tid=(10,12,0)
GPGPU-Sim uArch: Shader 1 finished CTA #1 (48388,0), 1 CTAs running
GPGPU-Sim PTX: 10500000 instructions simulated : ctaid=(3,25,0) tid=(6,2,0)
GPGPU-Sim uArch: Shader 2 finished CTA #1 (48837,0), 1 CTAs running
GPGPU-Sim uArch: Shader 3 finished CTA #1 (48896,0), 2 CTAs running
GPGPU-Sim PTX: 10600000 instructions simulated : ctaid=(2,23,0) tid=(8,11,0)
GPGPU-Sim PTX: 10700000 instructions simulated : ctaid=(0,26,0) tid=(3,3,0)
GPGPU-Sim uArch: Shader 13 finished CTA #1 (49845,0), 1 CTAs running
GPGPU-Sim uArch: Shader 11 finished CTA #1 (49882,0), 2 CTAs running
GPGPU-Sim PTX: 10800000 instructions simulated : ctaid=(5,26,0) tid=(9,0,0)
GPGPU-Sim uArch: Shader 12 finished CTA #1 (49892,0), 1 CTAs running
GPGPU-Sim uArch: Shader 0 finished CTA #1 (49900,0), 1 CTAs running
GPGPU-Sim uArch: Shader 8 finished CTA #1 (49913,0), 1 CTAs running
GPGPU-Sim uArch: Shader 9 finished CTA #1 (49921,0), 1 CTAs running
GPGPU-Sim uArch: Shader 7 finished CTA #1 (49940,0), 1 CTAs running
GPGPU-Sim uArch: Shader 14 finished CTA #1 (49984,0), 2 CTAs running
GPGPU-Sim uArch: Shader 10 finished CTA #1 (49989,0), 1 CTAs running
GPGPU-Sim uArch: Shader 5 finished CTA #1 (49991,0), 1 CTAs running
GPGPU-Sim uArch: cycles simulated: 50000  inst.: 10788804 (ipc=215.8) sim_rate=224766 (inst/sec) elapsed = 0:0:00:48 / Tue Mar 22 12:44:55 2016
GPGPU-Sim uArch: Shader 4 finished CTA #1 (50062,0), 1 CTAs running
GPGPU-Sim uArch: Shader 6 finished CTA #1 (50143,0), 1 CTAs running
GPGPU-Sim PTX: 10900000 instructions simulated : ctaid=(4,25,0) tid=(6,6,0)
GPGPU-Sim PTX: 11000000 instructions simulated : ctaid=(2,27,0) tid=(2,9,0)
GPGPU-Sim PTX: 11100000 instructions simulated : ctaid=(2,26,0) tid=(5,6,0)
GPGPU-Sim PTX: 11200000 instructions simulated : ctaid=(3,26,0) tid=(3,7,0)
GPGPU-Sim PTX: 11300000 instructions simulated : ctaid=(0,25,0) tid=(9,8,0)
GPGPU-Sim uArch: cycles simulated: 52000  inst.: 11277481 (ipc=216.9) sim_rate=230152 (inst/sec) elapsed = 0:0:00:49 / Tue Mar 22 12:44:56 2016
GPGPU-Sim PTX: 11400000 instructions simulated : ctaid=(0,25,0) tid=(6,11,0)
GPGPU-Sim PTX: 11500000 instructions simulated : ctaid=(1,27,0) tid=(4,12,0)
GPGPU-Sim uArch: Shader 3 finished CTA #2 (54027,0), 1 CTAs running
GPGPU-Sim uArch: Shader 11 finished CTA #2 (54057,0), 1 CTAs running
GPGPU-Sim uArch: Shader 6 finished CTA #2 (54118,0), 0 CTAs running
GPGPU-Sim uArch: Shader 6 empty (release kernel 1 '_Z17executeFirstLayerPfS_S_').
GPGPU-Sim uArch: Shader 4 finished CTA #2 (54124,0), 0 CTAs running
GPGPU-Sim uArch: Shader 4 empty (release kernel 1 '_Z17executeFirstLayerPfS_S_').
GPGPU-Sim uArch: Shader 7 finished CTA #2 (54130,0), 0 CTAs running
GPGPU-Sim uArch: Shader 7 empty (release kernel 1 '_Z17executeFirstLayerPfS_S_').
GPGPU-Sim uArch: Shader 14 finished CTA #2 (54142,0), 1 CTAs running
GPGPU-Sim uArch: Shader 5 finished CTA #2 (54153,0), 0 CTAs running
GPGPU-Sim uArch: Shader 5 empty (release kernel 1 '_Z17executeFirstLayerPfS_S_').
GPGPU-Sim uArch: Shader 9 finished CTA #2 (54173,0), 0 CTAs running
GPGPU-Sim uArch: Shader 9 empty (release kernel 1 '_Z17executeFirstLayerPfS_S_').
GPGPU-Sim uArch: Shader 2 finished CTA #2 (54180,0), 0 CTAs running
GPGPU-Sim uArch: Shader 2 empty (release kernel 1 '_Z17executeFirstLayerPfS_S_').
GPGPU-Sim uArch: Shader 8 finished CTA #2 (54194,0), 0 CTAs running
GPGPU-Sim uArch: Shader 8 empty (release kernel 1 '_Z17executeFirstLayerPfS_S_').
GPGPU-Sim uArch: Shader 12 finished CTA #2 (54239,0), 0 CTAs running
GPGPU-Sim uArch: Shader 12 empty (release kernel 1 '_Z17executeFirstLayerPfS_S_').
GPGPU-Sim uArch: Shader 1 finished CTA #2 (54287,0), 0 CTAs running
GPGPU-Sim uArch: Shader 1 empty (release kernel 1 '_Z17executeFirstLayerPfS_S_').
GPGPU-Sim PTX: 11600000 instructions simulated : ctaid=(0,27,0) tid=(1,10,0)
GPGPU-Sim uArch: Shader 10 finished CTA #2 (54784,0), 0 CTAs running
GPGPU-Sim uArch: Shader 10 empty (release kernel 1 '_Z17executeFirstLayerPfS_S_').
GPGPU-Sim uArch: Shader 0 finished CTA #2 (54790,0), 0 CTAs running
GPGPU-Sim uArch: Shader 0 empty (release kernel 1 '_Z17executeFirstLayerPfS_S_').
GPGPU-Sim uArch: Shader 13 finished CTA #2 (54795,0), 0 CTAs running
GPGPU-Sim uArch: Shader 13 empty (release kernel 1 '_Z17executeFirstLayerPfS_S_').
GPGPU-Sim uArch: cycles simulated: 55000  inst.: 11587531 (ipc=210.7) sim_rate=231750 (inst/sec) elapsed = 0:0:00:50 / Tue Mar 22 12:44:57 2016
GPGPU-Sim PTX: 11700000 instructions simulated : ctaid=(4,27,0) tid=(8,9,0)
GPGPU-Sim uArch: Shader 3 finished CTA #3 (57909,0), 0 CTAs running
GPGPU-Sim uArch: Shader 3 empty (release kernel 1 '_Z17executeFirstLayerPfS_S_').
GPGPU-Sim uArch: Shader 11 finished CTA #3 (58565,0), 0 CTAs running
GPGPU-Sim uArch: Shader 11 empty (release kernel 1 '_Z17executeFirstLayerPfS_S_').
GPGPU-Sim uArch: Shader 14 finished CTA #3 (58684,0), 0 CTAs running
GPGPU-Sim uArch: Shader 14 empty (release kernel 1 '_Z17executeFirstLayerPfS_S_').
GPGPU-Sim uArch: GPU detected kernel '_Z17executeFirstLayerPfS_S_' finished on shader 14.
kernel_name = _Z17executeFirstLayerPfS_S_ 
kernel_launch_uid = 1 
gpu_sim_cycle = 58685
gpu_sim_insn = 11694074
gpu_ipc =     199.2685
gpu_tot_sim_cycle = 58685
gpu_tot_sim_insn = 11694074
gpu_tot_ipc =     199.2685
gpu_tot_issued_cta = 168
gpu_stall_dramfull = 2306
gpu_stall_icnt2sh    = 10331
gpu_total_sim_rate=233881

========= Core cache stats =========
L1I_cache:
	L1I_total_cache_accesses = 243880
	L1I_total_cache_misses = 780
	L1I_total_cache_miss_rate = 0.0032
	L1I_total_cache_pending_hits = 0
	L1I_total_cache_reservation_fails = 4140
L1D_cache:
	L1D_cache_core[0]: Access = 9397, Miss = 428, Miss_rate = 0.046, Pending_hits = 67, Reservation_fails = 0
	L1D_cache_core[1]: Access = 9346, Miss = 394, Miss_rate = 0.042, Pending_hits = 53, Reservation_fails = 0
	L1D_cache_core[2]: Access = 9383, Miss = 430, Miss_rate = 0.046, Pending_hits = 57, Reservation_fails = 0
	L1D_cache_core[3]: Access = 10218, Miss = 460, Miss_rate = 0.045, Pending_hits = 57, Reservation_fails = 0
	L1D_cache_core[4]: Access = 9391, Miss = 425, Miss_rate = 0.045, Pending_hits = 58, Reservation_fails = 0
	L1D_cache_core[5]: Access = 9406, Miss = 422, Miss_rate = 0.045, Pending_hits = 54, Reservation_fails = 0
	L1D_cache_core[6]: Access = 9393, Miss = 427, Miss_rate = 0.045, Pending_hits = 54, Reservation_fails = 0
	L1D_cache_core[7]: Access = 9373, Miss = 421, Miss_rate = 0.045, Pending_hits = 66, Reservation_fails = 0
	L1D_cache_core[8]: Access = 9370, Miss = 426, Miss_rate = 0.045, Pending_hits = 75, Reservation_fails = 0
	L1D_cache_core[9]: Access = 9399, Miss = 428, Miss_rate = 0.046, Pending_hits = 67, Reservation_fails = 0
	L1D_cache_core[10]: Access = 9370, Miss = 428, Miss_rate = 0.046, Pending_hits = 68, Reservation_fails = 0
	L1D_cache_core[11]: Access = 10167, Miss = 457, Miss_rate = 0.045, Pending_hits = 73, Reservation_fails = 0
	L1D_cache_core[12]: Access = 9360, Miss = 427, Miss_rate = 0.046, Pending_hits = 67, Reservation_fails = 0
	L1D_cache_core[13]: Access = 9396, Miss = 427, Miss_rate = 0.045, Pending_hits = 69, Reservation_fails = 0
	L1D_cache_core[14]: Access = 10233, Miss = 468, Miss_rate = 0.046, Pending_hits = 69, Reservation_fails = 0
	L1D_total_cache_accesses = 143202
	L1D_total_cache_misses = 6468
	L1D_total_cache_miss_rate = 0.0452
	L1D_total_cache_pending_hits = 954
	L1D_total_cache_reservation_fails = 0
	L1D_cache_data_port_util = 0.164
	L1D_cache_fill_port_util = 0.006
L1C_cache:
	L1C_total_cache_accesses = 28224
	L1C_total_cache_misses = 164
	L1C_total_cache_miss_rate = 0.0058
	L1C_total_cache_pending_hits = 0
	L1C_total_cache_reservation_fails = 0
L1T_cache:
	L1T_total_cache_accesses = 0
	L1T_total_cache_misses = 0
	L1T_total_cache_pending_hits = 0
	L1T_total_cache_reservation_fails = 0

Total_core_cache_stats:
	Total_core_cache_stats_breakdown[GLOBAL_ACC_R][HIT] = 135780
	Total_core_cache_stats_breakdown[GLOBAL_ACC_R][HIT_RESERVED] = 954
	Total_core_cache_stats_breakdown[GLOBAL_ACC_R][MISS] = 4608
	Total_core_cache_stats_breakdown[CONST_ACC_R][HIT] = 28060
	Total_core_cache_stats_breakdown[CONST_ACC_R][MISS] = 164
	Total_core_cache_stats_breakdown[GLOBAL_ACC_W][MISS] = 1860
	Total_core_cache_stats_breakdown[INST_ACC_R][HIT] = 243100
	Total_core_cache_stats_breakdown[INST_ACC_R][MISS] = 780
	Total_core_cache_stats_breakdown[INST_ACC_R][RESERVATION_FAIL] = 4140
Shader 0 warp_id issue ditsribution:
warp_id:
0, 1, 2, 3, 4, 5, 6, 7, 8, 9, 10, 11, 12, 13, 14, 15, 16, 17, 18, 19, 20, 21, 22, 23, 24, 25, 26, 27, 28, 29, 30, 31, 32, 33, 34, 35, 36, 37, 38, 39, 40, 41, 42, 43, 44, 45, 46, 47, 
distro:
845, 874, 874, 874, 874, 845, 874, 874, 874, 874, 874, 816, 874, 874, 874, 874, 874, 845, 408, 437, 437, 437, 437, 437, 437, 437, 437, 437, 437, 437, 437, 437, 437, 437, 437, 408, 437, 437, 437, 437, 437, 437, 437, 437, 437, 437, 437, 408, 
gpgpu_n_tot_thrd_icount = 13976224
gpgpu_n_tot_w_icount = 436757
gpgpu_n_stall_shd_mem = 90786
gpgpu_n_mem_read_local = 0
gpgpu_n_mem_write_local = 0
gpgpu_n_mem_read_global = 4608
gpgpu_n_mem_write_global = 1860
gpgpu_n_mem_texture = 0
gpgpu_n_mem_const = 45
gpgpu_n_load_insn  = 1447992
gpgpu_n_store_insn = 28392
gpgpu_n_shmem_insn = 0
gpgpu_n_tex_insn = 0
gpgpu_n_const_mem_insn = 709800
gpgpu_n_param_mem_insn = 85176
gpgpu_n_shmem_bkconflict = 0
gpgpu_n_cache_bkconflict = 0
gpgpu_n_intrawarp_mshr_merge = 0
gpgpu_n_cmem_portconflict = 0
gpgpu_stall_shd_mem[c_mem][bk_conf] = 0
gpgpu_stall_shd_mem[c_mem][mshr_rc] = 0
gpgpu_stall_shd_mem[c_mem][icnt_rc] = 0
gpgpu_stall_shd_mem[c_mem][data_port_stall] = 0
gpgpu_stall_shd_mem[t_mem][mshr_rc] = 0
gpgpu_stall_shd_mem[t_mem][icnt_rc] = 0
gpgpu_stall_shd_mem[t_mem][data_port_stall] = 0
gpgpu_stall_shd_mem[s_mem][bk_conf] = 0
gpgpu_stall_shd_mem[gl_mem][bk_conf] = 0
gpgpu_stall_shd_mem[gl_mem][coal_stall] = 90786
gpgpu_stall_shd_mem[gl_mem][data_port_stall] = 0
gpgpu_stall_shd_mem[g_mem_ld][mshr_rc] = 0
gpgpu_stall_shd_mem[g_mem_ld][icnt_rc] = 0
gpgpu_stall_shd_mem[g_mem_ld][wb_icnt_rc] = 0
gpgpu_stall_shd_mem[g_mem_ld][wb_rsrv_fail] = 0
gpgpu_stall_shd_mem[g_mem_st][mshr_rc] = 0
gpgpu_stall_shd_mem[g_mem_st][icnt_rc] = 0
gpgpu_stall_shd_mem[g_mem_st][wb_icnt_rc] = 0
gpgpu_stall_shd_mem[g_mem_st][wb_rsrv_fail] = 0
gpgpu_stall_shd_mem[l_mem_ld][mshr_rc] = 0
gpgpu_stall_shd_mem[l_mem_ld][icnt_rc] = 0
gpgpu_stall_shd_mem[l_mem_ld][wb_icnt_rc] = 0
gpgpu_stall_shd_mem[l_mem_ld][wb_rsrv_fail] = 0
gpgpu_stall_shd_mem[l_mem_st][mshr_rc] = 0
gpgpu_stall_shd_mem[l_mem_st][icnt_rc] = 0
gpgpu_stall_shd_mem[l_mem_ld][wb_icnt_rc] = 0
gpgpu_stall_shd_mem[l_mem_ld][wb_rsrv_fail] = 0
gpu_reg_bank_conflict_stalls = 0
Warp Occupancy Distribution:
Stall:2718	W0_Idle:56124	W0_Scoreboard:1158681	W1:1617	W2:1706	W3:1602	W4:1573	W5:1910	W6:2148	W7:2029	W8:1839	W9:69677	W10:1230	W11:880	W12:982	W13:1064	W14:1298	W15:978	W16:903	W17:828	W18:938	W19:914	W20:652	W21:625	W22:705	W23:1064	W24:1036	W25:1062	W26:1332	W27:1100	W28:1093	W29:981	W30:664	W31:754	W32:331573
traffic_breakdown_coretomem[CONST_ACC_R] = 360 {8:45,}
traffic_breakdown_coretomem[GLOBAL_ACC_R] = 36864 {8:4608,}
traffic_breakdown_coretomem[GLOBAL_ACC_W] = 172800 {40:499,72:504,136:857,}
traffic_breakdown_coretomem[INST_ACC_R] = 840 {8:105,}
traffic_breakdown_memtocore[CONST_ACC_R] = 3240 {72:45,}
traffic_breakdown_memtocore[GLOBAL_ACC_R] = 626688 {136:4608,}
traffic_breakdown_memtocore[GLOBAL_ACC_W] = 14880 {8:1860,}
traffic_breakdown_memtocore[INST_ACC_R] = 14280 {136:105,}
maxmrqlatency = 127 
maxdqlatency = 0 
maxmflatency = 495 
averagemflatency = 215 
max_icnt2mem_latency = 117 
max_icnt2sh_latency = 58684 
mrq_lat_table:1671 	465 	98 	151 	123 	64 	41 	0 	0 	0 	0 	0 	0 	0 	0 	0 	0 	0 	0 	0 	0 	0 	0 	0 	0 	0 	0 	0 	0 	0 	0 	0 	
dq_lat_table:0 	0 	0 	0 	0 	0 	0 	0 	0 	0 	0 	0 	0 	0 	0 	0 	0 	0 	0 	0 	0 	0 	0 	0 	0 	0 	0 	0 	0 	0 	0 	0 	
mf_lat_table:0 	0 	0 	0 	0 	0 	0 	4376 	2137 	0 	0 	0 	0 	0 	0 	0 	0 	0 	0 	0 	0 	0 	0 	0 	0 	0 	0 	0 	0 	0 	0 	0 	
icnt2mem_lat_table:0 	0 	0 	5679 	780 	141 	18 	0 	0 	0 	0 	0 	0 	0 	0 	0 	0 	0 	0 	0 	0 	0 	0 	0 	
icnt2sh_lat_table:0 	0 	0 	1370 	3097 	185 	1 	0 	0 	0 	0 	0 	116 	333 	572 	839 	0 	0 	0 	0 	0 	0 	0 	0 	
mf_lat_pw_table:0 	0 	0 	0 	0 	0 	0 	111 	4 	0 	0 	0 	0 	0 	0 	0 	0 	0 	0 	0 	0 	0 	0 	0 	0 	0 	0 	0 	0 	0 	0 	0 	
maximum concurrent accesses to same row:
dram[0]:         1         0         0         0         0         0         0         0         0         0         0         0         0         0         0         0 
dram[1]:         1         0         0         0         0         0         0         0         0         0         0         0         0         0         0         0 
dram[2]:         0         0         0         0         0         0         0         0         0         0         0         0         0         0         0         0 
dram[3]:         0         0         0         0         0         0         0         0         0         0         0         0         0         0         0         0 
dram[4]:         0         0         0         0         0         0         0         0         0         0         0         0         0         0         0         0 
dram[5]:         0         0         0         0         0         0         0         0         0         0         0         0         0         0         0         0 
maximum service time to same row:
dram[0]:       311         0         0         0      1468      1501      9453     11343      5529       857      8416     14231     32807     32771         0         0 
dram[1]:      1854         0         0         0      1463      2550     10794     11337      5522      5304     11153     14234     33413     34253         0         0 
dram[2]:      4312         0         0         0      1462      1484     11365     11875      5404      5525     11862     14288     32766     36216         0         0 
dram[3]:      4997         0         0         0      1474      1479     11281     11969      5302      5538     14013     14022     32763     36893         0         0 
dram[4]:         0         0         0         0      1472      1491     11277     11966       834      5522     14178     14019     34247     36112         0         0 
dram[5]:         0         0         0         0      1506      1488     11272     12335       841      5519     14174     14318     32777     36109         0         0 
average row accesses per activate:
dram[0]:  1.000000      -nan      -nan      -nan 10.000000 10.000000 32.000000 32.000000 49.000000 46.000000 65.000000 65.000000 64.000000 64.000000      -nan      -nan 
dram[1]:  3.000000      -nan      -nan      -nan 10.000000 10.000000 32.000000 32.000000 49.000000 49.000000 66.000000 65.000000 64.000000 56.000000      -nan      -nan 
dram[2]:  2.000000      -nan      -nan      -nan 10.000000 12.000000 32.000000 32.000000 46.000000 50.000000 65.000000 66.000000 62.000000 59.000000      -nan      -nan 
dram[3]:  1.000000      -nan      -nan      -nan 10.000000 12.000000 32.000000 32.000000 51.000000 50.000000 65.000000 64.000000 61.000000 58.000000      -nan      -nan 
dram[4]:      -nan      -nan      -nan      -nan 10.000000 12.000000 32.000000 32.000000 47.000000 51.000000 65.000000 65.000000 61.000000 57.000000      -nan      -nan 
dram[5]:      -nan      -nan      -nan      -nan 10.000000 12.000000 32.000000 32.000000 49.000000 49.000000 68.000000 64.000000 60.000000 57.000000      -nan      -nan 
average row locality = 2613/66 = 39.590908
number of total memory accesses made:
dram[0]:         0         0         0         0         0         0         0         0         0         0         0         0         0         0         0         0 
dram[1]:         0         0         0         0         0         0         0         0         0         0         0         0         0         0         0         0 
dram[2]:         0         0         0         0         0         0         0         0         0         0         0         0         0         0         0         0 
dram[3]:         0         0         0         0         0         0         0         0         0         0         0         0         0         0         0         0 
dram[4]:         0         0         0         0         0         0         0         0         0         0         0         0         0         0         0         0 
dram[5]:         0         0         0         0         0         0         0         0         0         0         0         0         0         0         0         0 
total accesses: 0
min_bank_accesses = 0!
min_chip_accesses = 0!
number of total read accesses:
dram[0]:         3         0         0         0        10        10        32        32        32        31        32        32        30        30         0         0 
dram[1]:         3         0         0         0        10        10        32        32        32        32        32        32        30        28         0         0 
dram[2]:         2         0         0         0        10        12        32        32        32        32        32        32        30        28         0         0 
dram[3]:         1         0         0         0        10        12        32        32        32        32        32        32        30        28         0         0 
dram[4]:         0         0         0         0        10        12        32        32        32        32        32        32        30        28         0         0 
dram[5]:         0         0         0         0        10        12        32        32        32        32        32        32        30        28         0         0 
total reads: 1638
min_bank_accesses = 0!
chip skew: 274/272 = 1.01
number of total write accesses:
dram[0]:         0         0         0         0         0         0         0         0        17        15        33        33        34        34         0         0 
dram[1]:         0         0         0         0         0         0         0         0        17        17        34        33        34        28         0         0 
dram[2]:         0         0         0         0         0         0         0         0        14        18        33        34        32        31         0         0 
dram[3]:         0         0         0         0         0         0         0         0        19        18        33        32        31        30         0         0 
dram[4]:         0         0         0         0         0         0         0         0        15        19        33        33        31        29         0         0 
dram[5]:         0         0         0         0         0         0         0         0        17        17        36        32        30        29         0         0 
total reads: 975
min_bank_accesses = 0!
chip skew: 166/160 = 1.04
average mf latency per bank:
dram[0]:       1296    none      none      none        1743      1435      1343      1362       634       610       206       205       204       198    none      none  
dram[1]:       1964    none      none      none        1869      1288      1410      1415       638       559       210       209       202       204    none      none  
dram[2]:          0    none      none      none        1737      1473      1376      1396       633       565       209       198       205       202    none      none  
dram[3]:          0    none      none      none        1730      1710      1309      1409       567       556       214       199       210       198    none      none  
dram[4]:     none      none      none      none        1625      1643      1257      1417       639       579       213       198       210       201    none      none  
dram[5]:     none      none      none      none        1508      1726      1366      1362       612       611       202       207       211       199    none      none  
maximum mf latency per bank:
dram[0]:        282         0         0         0       457       301       354       320       404       303       302       329       349       288         0         0
dram[1]:        269         0         0         0       495       276       309       338       444       399       304       331       293       280         0         0
dram[2]:          0         0         0         0       459       374       337       381       396       417       313       306       295       295         0         0
dram[3]:          0         0         0         0       479       450       292       376       316       389       287       278       323       278         0         0
dram[4]:          0         0         0         0       420       436       301       379       401       365       317       280       278       270         0         0
dram[5]:          0         0         0         0       349       450       313       298       316       369       314       293       276       305         0         0

Number of Memory Banks Accessed per Memory Operation per Warp (from 0):
0	0	0	0	0	0	0	0	0	0	0	0	0	0	0	0	0	0	0	0	0	0	0	0	0	0	0	0	0	0	0	0	0	0	0	0	0	0	0	0	0	0	0	0	0	0	0	0	0	0	0	0	0	0	0	0	0	0	0	0	0	0	0	0	0	0	0	0	0	0	0	0	0	0	0	0	0	0	0	0	0	0	0	0	0	0	0	0	0	0	0	0	0	0	0	0	
Average # of Memory Banks Accessed per Memory Operation per Warp=-nan

position of mrq chosen
0	0	0	0	0	0	0	0	0	0	0	0	0	0	0	0	

average position of mrq chosen = -nan
Memory Partition 0: 
Cache L2_bank_000:
MSHR contents

Cache L2_bank_001:
MSHR contents

In Dram Latency Queue (total = 0): 
DRAM[0]: 16 bks, busW=4 BL=8 CL=12, tRRD=2 tCCD=6, tRCD=12 tRAS=28 tRP=12 tRC=40
n_cmd=77463 n_nop=76649 n_act=13 n_pre=2 n_req=440 n_rd=548 n_write=251 bw_util=0.02063
n_activity=5790 dram_eff=0.276
bk0: 6a 77389i bk1: 0a 77457i bk2: 0a 77463i bk3: 0a 77464i bk4: 20a 77397i bk5: 20a 77372i bk6: 64a 77308i bk7: 64a 77278i bk8: 64a 77011i bk9: 62a 77034i bk10: 64a 76804i bk11: 64a 76843i bk12: 60a 76847i bk13: 60a 76853i bk14: 0a 77459i bk15: 0a 77460i 
dram_util_bins: 0 0 0 0 0 0 0 0 0 0
dram_eff_bins: 0 0 0 0 0 0 0 0 0 0
mrqq: max=9 avg=0.0266192
Memory Partition 1: 
Cache L2_bank_002:
MSHR contents

Cache L2_bank_003:
MSHR contents

In Dram Latency Queue (total = 0): 
DRAM[1]: 16 bks, busW=4 BL=8 CL=12, tRRD=2 tCCD=6, tRCD=12 tRAS=28 tRP=12 tRC=40
n_cmd=77463 n_nop=76660 n_act=12 n_pre=1 n_req=436 n_rd=546 n_write=244 bw_util=0.0204
n_activity=5681 dram_eff=0.2781
[...]
gpgpu_stall_shd_mem[l_mem_st][icnt_rc] = 0
gpgpu_stall_shd_mem[l_mem_ld][wb_icnt_rc] = 0
gpgpu_stall_shd_mem[l_mem_ld][wb_rsrv_fail] = 0
gpu_reg_bank_conflict_stalls = 0
Warp Occupancy Distribution:
Stall:193270	W0_Idle:106240	W0_Scoreboard:4276198	W1:2597	W2:3581	W3:4068	W4:3798	W5:4566	W6:4331	W7:4364	W8:4137	W9:72206	W10:3671	W11:2610	W12:2826	W13:3133	W14:3223	W15:3869	W16:3792	W17:3561	W18:3978	W19:4192	W20:4403	W21:3990	W22:4431	W23:3704	W24:2421	W25:1078195	W26:1332	W27:1100	W28:1093	W29:981	W30:664	W31:754	W32:331573
traffic_breakdown_coretomem[CONST_ACC_R] = 600 {8:75,}
traffic_breakdown_coretomem[GLOBAL_ACC_R] = 192304 {8:24038,}
traffic_breakdown_coretomem[GLOBAL_ACC_W] = 394000 {40:1199,72:1204,136:1907,}
traffic_breakdown_coretomem[INST_ACC_R] = 1680 {8:210,}
traffic_breakdown_memtocore[CONST_ACC_R] = 5400 {72:75,}
traffic_breakdown_memtocore[GLOBAL_ACC_R] = 3269168 {136:24038,}
traffic_breakdown_memtocore[GLOBAL_ACC_W] = 34480 {8:4310,}
traffic_breakdown_memtocore[INST_ACC_R] = 28560 {136:210,}
maxmrqlatency = 127 
maxdqlatency = 0 
maxmflatency = 495 
averagemflatency = 172 
max_icnt2mem_latency = 117 
max_icnt2sh_latency = 211819 
mrq_lat_table:3678 	878 	183 	359 	306 	133 	55 	0 	0 	0 	0 	0 	0 	0 	0 	0 	0 	0 	0 	0 	0 	0 	0 	0 	0 	0 	0 	0 	0 	0 	0 	0 	
dq_lat_table:0 	0 	0 	0 	0 	0 	0 	0 	0 	0 	0 	0 	0 	0 	0 	0 	0 	0 	0 	0 	0 	0 	0 	0 	0 	0 	0 	0 	0 	0 	0 	0 	
mf_lat_table:0 	0 	0 	0 	0 	0 	0 	25446 	2977 	0 	0 	0 	0 	0 	0 	0 	0 	0 	0 	0 	0 	0 	0 	0 	0 	0 	0 	0 	0 	0 	0 	0 	
icnt2mem_lat_table:0 	0 	0 	27387 	1063 	165 	18 	0 	0 	0 	0 	0 	0 	0 	0 	0 	0 	0 	0 	0 	0 	0 	0 	0 	
icnt2sh_lat_table:0 	0 	0 	13953 	9549 	609 	2 	0 	0 	0 	0 	0 	116 	333 	572 	839 	1141 	1309 	0 	0 	0 	0 	0 	0 	
mf_lat_pw_table:0 	0 	0 	0 	0 	0 	0 	416 	5 	0 	0 	0 	0 	0 	0 	0 	0 	0 	0 	0 	0 	0 	0 	0 	0 	0 	0 	0 	0 	0 	0 	0 	
maximum concurrent accesses to same row:
dram[0]:         1         2         0         0        10        10         0         0         0         0         0         0         0         0         0         0 
dram[1]:         2         0         0         0        10        10         0         0         0         0         0         0         0         0         0         0 
dram[2]:         2         0         0         0        10        12         0         0         0         0         0         0         0         0         0         0 
dram[3]:         2         0         0         0        10        12         0         0         0         0         0         0         0         0         0         0 
dram[4]:         2         0         0         0        10        12         0         0         0         0         0         0         0         0         0         0 
dram[5]:         2         0         0         0        10        12         0         0         0         0         0         0         0         0         0         0 
maximum service time to same row:
dram[0]:     25530     20819     79084     80376    130111    132621      9453     11343      5529       857      8416     14231     32807     32771       279       285 
dram[1]:     26454     28525     79224     80372    130499    131566     10794     11337      5522      5304     11153     14234     33413     34253       285       281 
dram[2]:     22854     28312     79622     80797    130569    132754     11365     11875      5404      5525     11862     14288     32766     36216       279       287 
dram[3]:     21303     28306     79690     80649    131551    132814     11281     11969      5302      5538     14013     14022     32763     36893       281       279 
dram[4]:     25225     29497     79746     81047    131841    132872     11277     11966       834      5522     14178     14019     34247     36112       282       281 
dram[5]:     19885     30994     79884     82216    131863    133424     11272     12335       841      5519     14174     14318     32777     36109       279       291 
average row accesses per activate:
dram[0]: 19.500000 39.500000 81.000000 83.000000 25.000000 20.500000 32.000000 32.000000 49.000000 46.000000 65.000000 65.000000 66.000000 66.000000 50.000000 54.000000 
dram[1]: 26.333334 80.000000 78.000000 82.000000 22.000000 20.500000 32.000000 32.000000 49.000000 49.000000 66.000000 65.000000 66.000000 60.000000 55.000000 54.000000 
dram[2]: 38.000000 78.000000 83.000000 82.000000 23.500000 22.000000 32.000000 32.000000 46.000000 50.000000 65.000000 66.000000 64.000000 63.000000 55.000000 52.000000 
dram[3]: 38.000000 78.000000 91.000000 84.000000 23.000000 23.000000 32.000000 32.000000 51.000000 50.000000 65.000000 64.000000 63.000000 62.000000 54.000000 56.000000 
dram[4]: 36.500000 78.000000 82.000000 79.000000 20.000000 22.500000 32.000000 32.000000 47.000000 51.000000 65.000000 65.000000 63.000000 61.000000 52.000000 53.000000 
dram[5]: 40.500000 74.000000 80.000000 77.000000 20.000000 21.500000 32.000000 32.000000 49.000000 49.000000 68.000000 64.000000 62.000000 61.000000 53.000000 55.000000 
average row locality = 5592/118 = 47.389832
number of total memory accesses made:
dram[0]:         0         0         0         0         0         0         0         0         0         0         0         0         0         0         0         0 
dram[1]:         0         0         0         0         0         0         0         0         0         0         0         0         0         0         0         0 
dram[2]:         0         0         0         0         0         0         0         0         0         0         0         0         0         0         0         0 
dram[3]:         0         0         0         0         0         0         0         0         0         0         0         0         0         0         0         0 
dram[4]:         0         0         0         0         0         0         0         0         0         0         0         0         0         0         0         0 
dram[5]:         0         0         0         0         0         0         0         0         0         0         0         0         0         0         0         0 
total accesses: 0
min_bank_accesses = 0!
min_chip_accesses = 0!
number of total read accesses:
dram[0]:        35        34        32        32        24        22        32        32        32        31        32        32        32        32        32        32 
dram[1]:        36        32        32        32        24        22        32        32        32        32        32        32        32        32        32        32 
dram[2]:        34        32        32        32        24        24        32        32        32        32        32        32        32        32        32        32 
dram[3]:        34        32        32        32        24        24        32        32        32        32        32        32        32        32        32        32 
dram[4]:        34        32        32        32        22        24        32        32        32        32        32        32        32        32        32        32 
dram[5]:        34        32        32        32        22        24        32        32        32        32        32        32        32        32        32        32 
total reads: 2984
bank skew: 36/22 = 1.64
chip skew: 498/496 = 1.00
number of total write accesses:
dram[0]:        43        45        49        51        26        19         0         0        17        15        33        33        34        34        18        22 
dram[1]:        43        48        46        50        20        19         0         0        17        17        34        33        34        28        23        22 
dram[2]:        42        46        51        50        23        20         0         0        14        18        33        34        32        31        23        20 
dram[3]:        42        46        59        52        22        22         0         0        19        18        33        32        31        30        22        24 
dram[4]:        39        46        50        47        18        21         0         0        15        19        33        33        31        29        20        21 
dram[5]:        47        42        48        45        18        19         0         0        17        17        36        32        30        29        21        23 
total reads: 2608
min_bank_accesses = 0!
chip skew: 452/422 = 1.07
average mf latency per bank:
dram[0]:        243       192       192       195       497       492      1343      1362      1226      1233      1227      1197      1243      1236      1758      1563
dram[1]:        334       194       198       196       580       459      1410      1415      1254      1263      1218      1203      1234      1443      1545      1614
dram[2]:        197       199       190       194       522       542      1376      1396      1262      1267      1221      1184      1307      1354      1542      1668
dram[3]:        194       202       185       188       524       586      1309      1409      1135      1200      1231      1218      1300      1450      1674      1342
dram[4]:        199       196       195       197       550       576      1257      1417      1241      1254      1228      1205      1342      1381      1588      1556
dram[5]:        189       206       198       195       518       623      1366      1362      1190      1285      1168      1229      1310      1426      1677      1380
maximum mf latency per bank:
dram[0]:        282       274       287       277       457       301       354       320       404       303       302       329       349       288       335       364
dram[1]:        299       279       280       280       495       276       309       338       444       399       304       331       293       280       330       339
dram[2]:        287       277       288       291       459       374       337       381       396       417       313       306       295       295       334       319
dram[3]:        289       293       279       282       479       450       292       376       316       389       287       278       323       278       411       327
dram[4]:        271       270       274       280       420       436       301       379       401       365       317       280       278       270       338       363
dram[5]:        286       273       275       277       349       450       313       298       316       369       314       293       276       305       359       337

Number of Memory Banks Accessed per Memory Operation per Warp (from 0):
0	0	0	0	0	0	0	0	0	0	0	0	0	0	0	0	0	0	0	0	0	0	0	0	0	0	0	0	0	0	0	0	0	0	0	0	0	0	0	0	0	0	0	0	0	0	0	0	0	0	0	0	0	0	0	0	0	0	0	0	0	0	0	0	0	0	0	0	0	0	0	0	0	0	0	0	0	0	0	0	0	0	0	0	0	0	0	0	0	0	0	0	0	0	0	0	
Average # of Memory Banks Accessed per Memory Operation per Warp=-nan

position of mrq chosen
0	0	0	0	0	0	0	0	0	0	0	0	0	0	0	0	

average position of mrq chosen = -nan
Memory Partition 0: 
Cache L2_bank_000:
MSHR contents

Cache L2_bank_001:
MSHR contents

In Dram Latency Queue (total = 0): 
DRAM[0]: 16 bks, busW=4 BL=8 CL=12, tRRD=2 tCCD=6, tRCD=12 tRAS=28 tRP=12 tRC=40
n_cmd=279600 n_nop=277934 n_act=22 n_pre=6 n_req=937 n_rd=996 n_write=642 bw_util=0.01172
n_activity=12335 dram_eff=0.2656
bk0: 70a 278916i bk1: 68a 278902i bk2: 64a 278880i bk3: 64a 278912i bk4: 48a 279229i bk5: 44a 279257i bk6: 64a 279441i bk7: 64a 279413i bk8: 64a 279146i bk9: 62a 279170i bk10: 64a 278941i bk11: 64a 278982i bk12: 64a 278978i bk13: 64a 278985i bk14: 64a 279169i bk15: 64a 279094i 
dram_util_bins: 0 0 0 0 0 0 0 0 0 0
dram_eff_bins: 0 0 0 0 0 0 0 0 0 0
mrqq: max=12 avg=0.0162446
Memory Partition 1: 
Cache L2_bank_002:
MSHR contents

Cache L2_bank_003:
MSHR contents

In Dram Latency Queue (total = 0): 
DRAM[1]: 16 bks, busW=4 BL=8 CL=12, tRRD=2 tCCD=6, tRCD=12 tRAS=28 tRP=12 tRC=40
n_cmd=279600 n_nop=277944 n_act=21 n_pre=5 n_req=932 n_rd=996 n_write=634 bw_util=0.01166
n_activity=12199 dram_eff=0.2672
bk0: 72a 278885i bk1: 64a 278911i bk2: 64a 278974i bk3: 64a 278916i bk4: 48a 279224i bk5: 44a 279278i bk6: 64a 279439i bk7: 64a 279432i bk8: 64a 279101i bk9: 64a 279080i bk10: 64a 278963i bk11: 64a 278950i bk12: 64a 278979i bk13: 64a 279035i bk14: 64a 279153i bk15: 64a 279111i 
dram_util_bins: 0 0 0 0 0 0 0 0 0 0
dram_eff_bins: 0 0 0 0 0 0 0 0 0 0
mrqq: max=16 avg=0.020515
Memory Partition 2: 
Cache L2_bank_004:
MSHR contents

Cache L2_bank_005:
MSHR contents

In Dram Latency Queue (total = 0): 
DRAM[2]: 16 bks, busW=4 BL=8 CL=12, tRRD=2 tCCD=6, tRCD=12 tRAS=28 tRP=12 tRC=40
n_cmd=279600 n_nop=277940 n_act=19 n_pre=3 n_req=935 n_rd=996 n_write=642 bw_util=0.01172
n_activity=12139 dram_eff=0.2699
bk0: 68a 278949i bk1: 64a 278923i bk2: 64a 278897i bk3: 64a 278917i bk4: 48a 279204i bk5: 48a 279245i bk6: 64a 279437i bk7: 64a 279428i bk8: 64a 279163i bk9: 64a 279078i bk10: 64a 278968i bk11: 64a 278906i bk12: 64a 279009i bk13: 64a 279002i bk14: 64a 279163i bk15: 64a 279145i 
dram_util_bins: 0 0 0 0 0 0 0 0 0 0
dram_eff_bins: 0 0 0 0 0 0 0 0 0 0
mrqq: max=15 avg=0.0221352
Memory Partition 3: 
Cache L2_bank_006:
MSHR contents
MSHR: tag=0x8005cb80, atomic=0 1 entries : 0x7fa850d2d920 :  mf: uid=2209257, sid12:w07, part=3, addr=0x8005cb80, load , size=128, unknown  status = IN_PARTITION_DRAM (211817), 

Cache L2_bank_007:
MSHR contents

In Dram Latency Queue (total = 0): 
DRAM[3]: 16 bks, busW=4 BL=8 CL=12, tRRD=2 tCCD=6, tRCD=12 tRAS=28 tRP=12 tRC=40
n_cmd=279600 n_nop=277921 n_act=19 n_pre=3 n_req=950 n_rd=996 n_write=661 bw_util=0.01185
n_activity=12233 dram_eff=0.2709
bk0: 68a 278959i bk1: 64a 278970i bk2: 64a 278920i bk3: 64a 278949i bk4: 48a 279215i bk5: 48a 279236i bk6: 64a 279409i bk7: 64a 279432i bk8: 64a 279200i bk9: 64a 279106i bk10: 64a 278922i bk11: 64a 278919i bk12: 64a 279046i bk13: 64a 279052i bk14: 64a 279142i bk15: 64a 279085i 
dram_util_bins: 0 0 0 0 0 0 0 0 0 0
dram_eff_bins: 0 0 0 0 0 0 0 0 0 0
mrqq: max=13 avg=0.0180222
Memory Partition 4: 
Cache L2_bank_008:
MSHR contents

Cache L2_bank_009:
MSHR contents

In Dram Latency Queue (total = 0): 
DRAM[4]: 16 bks, busW=4 BL=8 CL=12, tRRD=2 tCCD=6, tRCD=12 tRAS=28 tRP=12 tRC=40
n_cmd=279600 n_nop=277973 n_act=19 n_pre=3 n_req=918 n_rd=992 n_write=613 bw_util=0.01148
n_activity=12033 dram_eff=0.2668
bk0: 68a 278927i bk1: 64a 279004i bk2: 64a 278943i bk3: 64a 278943i bk4: 44a 279266i bk5: 48a 279257i bk6: 64a 279429i bk7: 64a 279446i bk8: 64a 279152i bk9: 64a 279090i bk10: 64a 278962i bk11: 64a 278979i bk12: 64a 279001i bk13: 64a 279040i bk14: 64a 279182i bk15: 64a 279058i 
dram_util_bins: 0 0 0 0 0 0 0 0 0 0
dram_eff_bins: 0 0 0 0 0 0 0 0 0 0
mrqq: max=13 avg=0.0159299
Memory Partition 5: 
Cache L2_bank_010:
MSHR contents

Cache L2_bank_011:
MSHR contents

In Dram Latency Queue (total = 0): 
DRAM[5]: 16 bks, busW=4 BL=8 CL=12, tRRD=2 tCCD=6, tRCD=12 tRAS=28 tRP=12 tRC=40
n_cmd=279600 n_nop=277962 n_act=19 n_pre=3 n_req=920 n_rd=992 n_write=624 bw_util=0.01156
n_activity=12167 dram_eff=0.2656
bk0: 68a 278936i bk1: 64a 279020i bk2: 64a 278949i bk3: 64a 278978i bk4: 44a 279271i bk5: 48a 279251i bk6: 64a 279413i bk7: 64a 279425i bk8: 64a 279163i bk9: 64a 279126i bk10: 64a 278985i bk11: 64a 278958i bk12: 64a 279038i bk13: 64a 279017i bk14: 64a 279155i bk15: 64a 279061i 
dram_util_bins: 0 0 0 0 0 0 0 0 0 0
dram_eff_bins: 0 0 0 0 0 0 0 0 0 0
mrqq: max=11 avg=0.0144421

========= L2 cache stats =========
L2_cache_bank[0]: Access = 2411, Miss = 251, Miss_rate = 0.104, Pending_hits = 182, Reservation_fails = 1514
L2_cache_bank[1]: Access = 2346, Miss = 247, Miss_rate = 0.105, Pending_hits = 169, Reservation_fails = 1109
L2_cache_bank[2]: Access = 2438, Miss = 252, Miss_rate = 0.103, Pending_hits = 187, Reservation_fails = 1675
L2_cache_bank[3]: Access = 2401, Miss = 246, Miss_rate = 0.102, Pending_hits = 173, Reservation_fails = 916
L2_cache_bank[4]: Access = 2384, Miss = 250, Miss_rate = 0.105, Pending_hits = 171, Reservation_fails = 1184
L2_cache_bank[5]: Access = 2394, Miss = 248, Miss_rate = 0.104, Pending_hits = 179, Reservation_fails = 1125
L2_cache_bank[6]: Access = 2403, Miss = 250, Miss_rate = 0.104, Pending_hits = 168, Reservation_fails = 983
L2_cache_bank[7]: Access = 2350, Miss = 248, Miss_rate = 0.106, Pending_hits = 176, Reservation_fails = 884
L2_cache_bank[8]: Access = 2378, Miss = 248, Miss_rate = 0.104, Pending_hits = 150, Reservation_fails = 878
L2_cache_bank[9]: Access = 2374, Miss = 248, Miss_rate = 0.104, Pending_hits = 173, Reservation_fails = 1049
L2_cache_bank[10]: Access = 2403, Miss = 248, Miss_rate = 0.103, Pending_hits = 173, Reservation_fails = 1158
L2_cache_bank[11]: Access = 2351, Miss = 248, Miss_rate = 0.105, Pending_hits = 168, Reservation_fails = 993
L2_total_cache_accesses = 28633
L2_total_cache_misses = 2984
L2_total_cache_miss_rate = 0.1042
L2_total_cache_pending_hits = 2069
L2_total_cache_reservation_fails = 13468
L2_total_cache_breakdown:
	L2_cache_stats_breakdown[GLOBAL_ACC_R][HIT] = 21653
	L2_cache_stats_breakdown[GLOBAL_ACC_R][HIT_RESERVED] = 1400
	L2_cache_stats_breakdown[GLOBAL_ACC_R][MISS] = 985
	L2_cache_stats_breakdown[GLOBAL_ACC_R][RESERVATION_FAIL] = 12341
	L2_cache_stats_breakdown[CONST_ACC_R][HIT] = 63
	L2_cache_stats_breakdown[CONST_ACC_R][HIT_RESERVED] = 9
	L2_cache_stats_breakdown[CONST_ACC_R][MISS] = 3
	L2_cache_stats_breakdown[CONST_ACC_R][RESERVATION_FAIL] = 295
	L2_cache_stats_breakdown[GLOBAL_ACC_W][HIT] = 1702
	L2_cache_stats_breakdown[GLOBAL_ACC_W][HIT_RESERVED] = 626
	L2_cache_stats_breakdown[GLOBAL_ACC_W][MISS] = 1982
	L2_cache_stats_breakdown[INST_ACC_R][HIT] = 162
	L2_cache_stats_breakdown[INST_ACC_R][HIT_RESERVED] = 34
	L2_cache_stats_breakdown[INST_ACC_R][MISS] = 14
	L2_cache_stats_breakdown[INST_ACC_R][RESERVATION_FAIL] = 832
L2_cache_data_port_util = 0.036
L2_cache_fill_port_util = 0.005

icnt_total_pkts_mem_to_simt=125775
icnt_total_pkts_simt_to_mem=39868
LD_mem_lat_dist  0 0 0 0 0 0 0 0 0 0 0 0 0 0 0 0 0 0 0 0 0 0 0 0 0 0 0
ST_mem_lat_dist  0 0 0 0 0 0 0 0 0 0 0 0 0 0 0 0 0 0 0 0 0 0 0 0 0 0 0
----------------------------Interconnect-DETAILS--------------------------------
Class 0:
Packet latency average = 10.4351
	minimum = 6
	maximum = 63
Network latency average = 10.0882
	minimum = 6
	maximum = 53
Slowest packet = 16330
Flit latency average = 8.78936
	minimum = 6
	maximum = 49
Slowest flit = 46073
Fragmentation average = 0
	minimum = 0
	maximum = 0
Injected packet rate average = 0.010649
	minimum = 0.00936429 (at node 0)
	maximum = 0.0122702 (at node 18)
Accepted packet rate average = 0.010649
	minimum = 0.00936429 (at node 0)
	maximum = 0.0122702 (at node 18)
Injected flit rate average = 0.0310861
	minimum = 0.0120286 (at node 0)
	maximum = 0.0560486 (at node 18)
Accepted flit rate average= 0.0310861
	minimum = 0.0152023 (at node 16)
	maximum = 0.0464688 (at node 5)
Injected packet length average = 2.91915
Accepted packet length average = 2.91915
Total in-flight flits = 0 (0 measured)
====== Overall Traffic Statistics ======
====== Traffic class 0 ======
Packet latency average = 11.2287 (2 samples)
	minimum = 6 (2 samples)
	maximum = 69 (2 samples)
Network latency average = 10.3143 (2 samples)
	minimum = 6 (2 samples)
	maximum = 51 (2 samples)
Flit latency average = 8.90165 (2 samples)
	minimum = 6 (2 samples)
	maximum = 49 (2 samples)
Fragmentation average = 0 (2 samples)
	minimum = 0 (2 samples)
	maximum = 0 (2 samples)
Injected packet rate average = 0.00950125 (2 samples)
	minimum = 0.00812425 (2 samples)
	maximum = 0.0112897 (2 samples)
Accepted packet rate average = 0.00950125 (2 samples)
	minimum = 0.00812425 (2 samples)
	maximum = 0.0112897 (2 samples)
Injected flit rate average = 0.0272544 (2 samples)
	minimum = 0.0122254 (2 samples)
	maximum = 0.0479357 (2 samples)
Accepted flit rate average = 0.0272544 (2 samples)
	minimum = 0.0155589 (2 samples)
	maximum = 0.0388432 (2 samples)
Injected packet size average = 2.8685 (2 samples)
Accepted packet size average = 2.8685 (2 samples)
Hops average = 1 (2 samples)
