

        *** GPGPU-Sim Simulator Version 3.2.2  [build 0] ***


GPGPU-Sim PTX: simulation mode 0 (can change with PTX_SIM_MODE_FUNC environment variable:
               1=functional simulation only, 0=detailed performance simulator)
GPGPU-Sim: Configuration options:

-network_mode                           1 # Interconnection network mode
-inter_config_file   config_fermi_islip.icnt # Interconnection network config file
-gpgpu_ptx_use_cuobjdump                    1 # Use cuobjdump to extract ptx and sass from binaries
-gpgpu_experimental_lib_support                    0 # Try to extract code from cuda libraries [Broken because of unknown cudaGetExportTable]
-gpgpu_ptx_convert_to_ptxplus                    0 # Convert SASS (native ISA) to ptxplus and run ptxplus
-gpgpu_ptx_force_max_capability                   20 # Force maximum compute capability
-gpgpu_ptx_inst_debug_to_file                    0 # Dump executed instructions' debug information to file
-gpgpu_ptx_inst_debug_file       inst_debug.txt # Executed instructions' debug output file
-gpgpu_ptx_inst_debug_thread_uid                    1 # Thread UID for executed instructions' debug output
-gpgpu_simd_model                       1 # 1 = post-dominator
-gpgpu_shader_core_pipeline              1536:32 # shader core pipeline config, i.e., {<nthread>:<warpsize>}
-gpgpu_tex_cache:l1  4:128:24,L:R:m:N:L,F:128:4,128:2 # per-shader L1 texture cache  (READ-ONLY) config  {<nsets>:<bsize>:<assoc>,<rep>:<wr>:<alloc>:<wr_alloc>,<mshr>:<N>:<merge>,<mq>:<rf>}
-gpgpu_const_cache:l1 64:64:2,L:R:f:N:L,A:2:32,4 # per-shader L1 constant memory cache  (READ-ONLY) config  {<nsets>:<bsize>:<assoc>,<rep>:<wr>:<alloc>:<wr_alloc>,<mshr>:<N>:<merge>,<mq>} 
-gpgpu_cache:il1     4:128:4,L:R:f:N:L,A:2:32,4 # shader L1 instruction cache config  {<nsets>:<bsize>:<assoc>,<rep>:<wr>:<alloc>:<wr_alloc>,<mshr>:<N>:<merge>,<mq>} 
-gpgpu_cache:dl1     32:128:4,L:L:m:N:H,A:32:8,8 # per-shader L1 data cache config  {<nsets>:<bsize>:<assoc>,<rep>:<wr>:<alloc>:<wr_alloc>,<mshr>:<N>:<merge>,<mq> | none}
-gpgpu_cache:dl1PrefL1                 none # per-shader L1 data cache config  {<nsets>:<bsize>:<assoc>,<rep>:<wr>:<alloc>:<wr_alloc>,<mshr>:<N>:<merge>,<mq> | none}
-gpgpu_cache:dl1PreShared                 none # per-shader L1 data cache config  {<nsets>:<bsize>:<assoc>,<rep>:<wr>:<alloc>:<wr_alloc>,<mshr>:<N>:<merge>,<mq> | none}
-gmem_skip_L1D                          0 # global memory access skip L1D cache (implements -Xptxas -dlcm=cg, default=no skip)
-gpgpu_perfect_mem                      0 # enable perfect memory mode (no cache miss)
-n_regfile_gating_group                    4 # group of lanes that should be read/written together)
-gpgpu_clock_gated_reg_file                    0 # enable clock gated reg file for power calculations
-gpgpu_clock_gated_lanes                    0 # enable clock gated lanes for power calculations
-gpgpu_shader_registers                32768 # Number of registers per shader core. Limits number of concurrent CTAs. (default 8192)
-gpgpu_shader_cta                       8 # Maximum number of concurrent CTAs in shader (default 8)
-gpgpu_num_cta_barriers                   16 # Maximum number of named barriers per CTA (default 16)
-gpgpu_n_clusters                      15 # number of processing clusters
-gpgpu_n_cores_per_cluster                    1 # number of simd cores per cluster
-gpgpu_n_cluster_ejection_buffer_size                    8 # number of packets in ejection buffer
-gpgpu_n_ldst_response_buffer_size                    2 # number of response packets in ld/st unit ejection buffer
-gpgpu_shmem_size                   16384 # Size of shared memory per shader core (default 16kB)
-gpgpu_shmem_size                   49152 # Size of shared memory per shader core (default 16kB)
-gpgpu_shmem_size_PrefL1                16384 # Size of shared memory per shader core (default 16kB)
-gpgpu_shmem_size_PrefShared                16384 # Size of shared memory per shader core (default 16kB)
-gpgpu_shmem_num_banks                   32 # Number of banks in the shared memory in each shader core (default 16)
-gpgpu_shmem_limited_broadcast                    0 # Limit shared memory to do one broadcast per cycle (default on)
-gpgpu_shmem_warp_parts                    1 # Number of portions a warp is divided into for shared memory bank conflict check 
-gpgpu_warpdistro_shader                   -1 # Specify which shader core to collect the warp size distribution from
-gpgpu_warp_issue_shader                    0 # Specify which shader core to collect the warp issue distribution from
-gpgpu_local_mem_map                    1 # Mapping from local memory space address to simulated GPU physical address space (default = enabled)
-gpgpu_num_reg_banks                   16 # Number of register banks (default = 8)
-gpgpu_reg_bank_use_warp_id                    0 # Use warp ID in mapping registers to banks (default = off)
-gpgpu_operand_collector_num_units_sp                    6 # number of collector units (default = 4)
-gpgpu_operand_collector_num_units_sfu                    8 # number of collector units (default = 4)
-gpgpu_operand_collector_num_units_mem                    2 # number of collector units (default = 2)
-gpgpu_operand_collector_num_units_gen                    0 # number of collector units (default = 0)
-gpgpu_operand_collector_num_in_ports_sp                    2 # number of collector unit in ports (default = 1)
-gpgpu_operand_collector_num_in_ports_sfu                    1 # number of collector unit in ports (default = 1)
-gpgpu_operand_collector_num_in_ports_mem                    1 # number of collector unit in ports (default = 1)
-gpgpu_operand_collector_num_in_ports_gen                    0 # number of collector unit in ports (default = 0)
-gpgpu_operand_collector_num_out_ports_sp                    2 # number of collector unit in ports (default = 1)
-gpgpu_operand_collector_num_out_ports_sfu                    1 # number of collector unit in ports (default = 1)
-gpgpu_operand_collector_num_out_ports_mem                    1 # number of collector unit in ports (default = 1)
-gpgpu_operand_collector_num_out_ports_gen                    0 # number of collector unit in ports (default = 0)
-gpgpu_coalesce_arch                   13 # Coalescing arch (default = 13, anything else is off for now)
-gpgpu_num_sched_per_core                    2 # Number of warp schedulers per core
-gpgpu_max_insn_issue_per_warp                    1 # Max number of instructions that can be issued per warp in one cycle by scheduler
-gpgpu_simt_core_sim_order                    1 # Select the simulation order of cores in a cluster (0=Fix, 1=Round-Robin)
-gpgpu_pipeline_widths        2,1,1,2,1,1,2 # Pipeline widths ID_OC_SP,ID_OC_SFU,ID_OC_MEM,OC_EX_SP,OC_EX_SFU,OC_EX_MEM,EX_WB
-gpgpu_num_sp_units                     2 # Number of SP units (default=1)
-gpgpu_num_sfu_units                    1 # Number of SF units (default=1)
-gpgpu_num_mem_units                    1 # Number if ldst units (default=1) WARNING: not hooked up to anything
-gpgpu_scheduler                      gto # Scheduler configuration: < lrr | gto | two_level_active > If two_level_active:<num_active_warps>:<inner_prioritization>:<outer_prioritization>For complete list of prioritization values see shader.h enum scheduler_prioritization_typeDefault: gto
-gpgpu_dram_scheduler                    1 # 0 = fifo, 1 = FR-FCFS (defaul)
-gpgpu_dram_partition_queues              8:8:8:8 # i2$:$2d:d2$:$2i
-l2_ideal                               0 # Use a ideal L2 cache that always hit
-gpgpu_cache:dl2     128:128:8,L:B:m:W:L,A:32:4,4:0,32 # unified banked L2 data cache config  {<nsets>:<bsize>:<assoc>,<rep>:<wr>:<alloc>:<wr_alloc>,<mshr>:<N>:<merge>,<mq>}
-gpgpu_cache:dl2_texture_only                    0 # L2 cache used for texture only
-gpgpu_n_mem                            6 # number of memory modules (e.g. memory controllers) in gpu
-gpgpu_n_sub_partition_per_mchannel                    2 # number of memory subpartition in each memory module
-gpgpu_n_mem_per_ctrlr                    2 # number of memory chips per memory controller
-gpgpu_memlatency_stat                   14 # track and display latency statistics 0x2 enables MC, 0x4 enables queue logs
-gpgpu_frfcfs_dram_sched_queue_size                   16 # 0 = unlimited (default); # entries per chip
-gpgpu_dram_return_queue_size                  116 # 0 = unlimited (default); # entries per chip
-gpgpu_dram_buswidth                    4 # default = 4 bytes (8 bytes per cycle at DDR)
-gpgpu_dram_burst_length                    8 # Burst length of each DRAM request (default = 4 data bus cycle)
-dram_data_command_freq_ratio                    4 # Frequency ratio between DRAM data bus and command bus (default = 2 times, i.e. DDR)
-gpgpu_dram_timing_opt nbk=16:CCD=2:RRD=6:RCD=12:RAS=28:RP=12:RC=40: CL=12:WL=4:CDLR=5:WR=12:nbkgrp=4:CCDL=3:RTPL=2 # DRAM timing parameters = {nbk:tCCD:tRRD:tRCD:tRAS:tRP:tRC:CL:WL:tCDLR:tWR:nbkgrp:tCCDL:tRTPL}
-rop_latency                          120 # ROP queue latency (default 85)
-dram_latency                         100 # DRAM latency (default 30)
-gpgpu_compression_algo                    1 # default = 1 (BDI compression algorithm)
-gpgpu_enable_compression                    0 # default = 0 (compression is disabled by default)
-gpgpu_data_value_analysis                    0 # default = 0 (analysis is disabled by default)
-gpgpu_mem_addr_mapping dramid@8;00000000.00000000.00000000.00000000.0000RRRR.RRRRRRRR.BBBCCCCB.CCSSSSSS # mapping memory address to dram model {dramid@<start bit>;<memory address map>}
-gpgpu_mem_addr_test                    0 # run sweep test to check address mapping for aliased address
-gpgpu_mem_address_mask                    1 # 0 = old addressing mask, 1 = new addressing mask, 2 = new add. mask + flipped bank sel and chip sel bits
-gpuwattch_xml_file  gpuwattch_gtx480.xml # GPUWattch XML file
-power_simulation_enabled                    1 # Turn on power simulator (1=On, 0=Off)
-power_per_cycle_dump                    0 # Dump detailed power output each cycle
-power_trace_enabled                    0 # produce a file for the power trace (1=On, 0=Off)
-power_trace_zlevel                     6 # Compression level of the power trace output log (0=no comp, 9=highest)
-steady_power_levels_enabled                    0 # produce a file for the steady power levels (1=On, 0=Off)
-steady_state_definition                  8:4 # allowed deviation:number of samples
-gpgpu_max_cycle                        0 # terminates gpu simulation early (0 = no limit)
-gpgpu_max_insn                         0 # terminates gpu simulation early (0 = no limit)
-gpgpu_max_cta                          0 # terminates gpu simulation early (0 = no limit)
-gpgpu_runtime_stat                   500 # display runtime statistics such as dram utilization {<freq>:<flag>}
-liveness_message_freq                    1 # Minimum number of seconds between simulation liveness messages (0 = always print)
-gpgpu_flush_l1_cache                    0 # Flush L1 cache at the end of each kernel call
-gpgpu_flush_l2_cache                    0 # Flush L2 cache at the end of each kernel call
-gpgpu_deadlock_detect                    1 # Stop the simulation at deadlock (1=on (default), 0=off)
-gpgpu_ptx_instruction_classification                    0 # if enabled will classify ptx instruction types per kernel (Max 255 kernels now)
-gpgpu_ptx_sim_mode                     0 # Select between Performance (default) or Functional simulation (1)
-gpgpu_clock_domains 700.0:700.0:700.0:924.0 # Clock Domain Frequencies in MhZ {<Core Clock>:<ICNT Clock>:<L2 Clock>:<DRAM Clock>}
-gpgpu_max_concurrent_kernel                    8 # maximum kernels that can run concurrently on GPU
-gpgpu_cflog_interval                    0 # Interval between each snapshot in control flow logger
-visualizer_enabled                     0 # Turn on visualizer output (1=On, 0=Off)
-visualizer_outputfile                 NULL # Specifies the output log file for visualizer
-visualizer_zlevel                      6 # Compression level of the visualizer output log (0=no comp, 9=highest)
-trace_enabled                          0 # Turn on traces
-trace_components                    none # comma seperated list of traces to enable. Complete list found in trace_streams.tup. Default none
-trace_sampling_core                    0 # The core which is printed using CORE_DPRINTF. Default 0
-trace_sampling_memory_partition                   -1 # The memory partition which is printed using MEMPART_DPRINTF. Default -1 (i.e. all)
-enable_ptx_file_line_stats                    1 # Turn on PTX source line statistic profiling. (1 = On)
-ptx_line_stats_filename gpgpu_inst_stats.txt # Output file for PTX source line statistics.
-save_embedded_ptx                      0 # saves ptx files embedded in binary as <n>.ptx
-keep                                   0 # keep intermediate files created by GPGPU-Sim when interfacing with external programs
-gpgpu_ptx_save_converted_ptxplus                    0 # Saved converted ptxplus to a file
-ptx_opcode_latency_int         4,13,4,5,145 # Opcode latencies for integers <ADD,MAX,MUL,MAD,DIV>Default 1,1,19,25,145
-ptx_opcode_latency_fp          4,13,4,5,39 # Opcode latencies for single precision floating points <ADD,MAX,MUL,MAD,DIV>Default 1,1,1,1,30
-ptx_opcode_latency_dp         8,19,8,8,330 # Opcode latencies for double precision floating points <ADD,MAX,MUL,MAD,DIV>Default 8,8,8,8,335
-ptx_opcode_initiation_int            1,2,2,1,8 # Opcode initiation intervals for integers <ADD,MAX,MUL,MAD,DIV>Default 1,1,4,4,32
-ptx_opcode_initiation_fp            1,2,1,1,4 # Opcode initiation intervals for single precision floating points <ADD,MAX,MUL,MAD,DIV>Default 1,1,1,1,5
-ptx_opcode_initiation_dp         8,16,8,8,130 # Opcode initiation intervals for double precision floating points <ADD,MAX,MUL,MAD,DIV>Default 8,8,8,8,130
DRAM Timing Options:
nbk                                    16 # number of banks
CCD                                     2 # column to column delay
RRD                                     6 # minimal delay between activation of rows in different banks
RCD                                    12 # row to column delay
RAS                                    28 # time needed to activate row
RP                                     12 # time needed to precharge (deactivate) row
RC                                     40 # row cycle time
CDLR                                    5 # switching from write to read (changes tWTR)
WR                                     12 # last data-in to row precharge
CL                                     12 # CAS latency
WL                                      4 # Write latency
nbkgrp                                  4 # number of bank groups
CCDL                                    3 # column to column delay between accesses to different bank groups
RTPL                                    2 # read to precharge delay between accesses to different bank groups
Total number of memory sub partition = 12
addr_dec_mask[CHIP]  = 0000000000000000 	high:64 low:0
addr_dec_mask[BK]    = 000000000000e100 	high:16 low:8
addr_dec_mask[ROW]   = 000000000fff0000 	high:28 low:16
addr_dec_mask[COL]   = 0000000000001eff 	high:13 low:0
addr_dec_mask[BURST] = 000000000000003f 	high:6 low:0
sub_partition_id_mask = 0000000000000100
GPGPU-Sim uArch: clock freqs: 700000000.000000:700000000.000000:700000000.000000:924000000.000000
GPGPU-Sim uArch: clock periods: 0.00000000142857142857:0.00000000142857142857:0.00000000142857142857:0.00000000108225108225
*** Initializing Memory Statistics ***
GPGPU-Sim uArch: interconnect node map (shaderID+MemID to icntID)
GPGPU-Sim uArch: Memory nodes ID start from index: 15
GPGPU-Sim uArch:    0   1   2   3   4
GPGPU-Sim uArch:    5   6   7   8   9
GPGPU-Sim uArch:   10  11  12  13  14
GPGPU-Sim uArch:   15  16  17  18  19
GPGPU-Sim uArch:   20  21  22  23  24
GPGPU-Sim uArch:   25  26
GPGPU-Sim uArch: interconnect node reverse map (icntID to shaderID+MemID)
GPGPU-Sim uArch: Memory nodes start from ID: 15
GPGPU-Sim uArch:    0   1   2   3   4
GPGPU-Sim uArch:    5   6   7   8   9
GPGPU-Sim uArch:   10  11  12  13  14
GPGPU-Sim uArch:   15  16  17  18  19
GPGPU-Sim uArch:   20  21  22  23  24
GPGPU-Sim uArch:   25  26
316bcbff5f8f022bb22b20bb4721e93e  /sciclone/data20/adwait/applications/benchmarks/CUDA/RAY/gpgpu_ptx_sim__RAY
GPGPU-Sim uArch: performance model initialization complete.
GPGPU-Sim PTX: __cudaRegisterFatBinary, fat_cubin_handle = 1, filename=rayTracing.cu
self exe links to: /sciclone/data20/adwait/applications/benchmarks/CUDA/RAY/gpgpu_ptx_sim__RAY
Running md5sum using "md5sum /sciclone/data20/adwait/applications/benchmarks/CUDA/RAY/gpgpu_ptx_sim__RAY "
Running cuobjdump using "$CUDA_INSTALL_PATH/bin/cuobjdump -ptx -elf -sass /sciclone/data20/adwait/applications/benchmarks/CUDA/RAY/gpgpu_ptx_sim__RAY > _cuobjdump_complete_output_kb3XxO"
Parsing file _cuobjdump_complete_output_kb3XxO
######### cuobjdump parser ########
## Adding new section ELF
Adding arch: sm_20
Adding identifier: rayTracing.cu
## Adding new section PTX
Adding ptx filename: _cuobjdump_1.ptx
Adding arch: sm_20
Adding identifier: rayTracing.cu
Done parsing!!!
GPGPU-Sim PTX: __cudaRegisterFunction _Z6renderPjP4Nodejjff : hostFun 0x0x40ce13, fat_cubin_handle = 1
GPGPU-Sim PTX: allocating stack frame region for .param "__cudaretf__Zmi6float3S_" from 0x0 to 0xc
GPGPU-Sim PTX: allocating stack frame region for .param "__cudaparmf1__Zmi6float3S_" from 0xc to 0x18
GPGPU-Sim PTX: allocating stack frame region for .param "__cudaparmf2__Zmi6float3S_" from 0x18 to 0x24
GPGPU-Sim PTX: allocating stack frame region for .param "__cudaretf__Z9normalize6float3" from 0x0 to 0xc
GPGPU-Sim PTX: allocating stack frame region for .param "__cudaparmf1__Z9normalize6float3" from 0xc to 0x18
GPGPU-Sim PTX: allocating stack frame region for .param "__cudaretf__Z18intersectionSphere5Rayon6float3f" from 0x0 to 0x4
GPGPU-Sim PTX: allocating stack frame region for .param "__cudaparmf1__Z18intersectionSphere5Rayon6float3f" from 0x4 to 0x1c
GPGPU-Sim PTX: allocating stack frame region for .param "__cudaparmf2__Z18intersectionSphere5Rayon6float3f" from 0x1c to 0x28
GPGPU-Sim PTX: allocating stack frame region for .param "__cudaparmf3__Z18intersectionSphere5Rayon6float3f" from 0x28 to 0x2c
GPGPU-Sim PTX: allocating stack frame region for .param "__cudaretf__Z16intersectionPlan5Rayon6float3S0_" from 0x0 to 0x4
GPGPU-Sim PTX: allocating stack frame region for .param "__cudaparmf1__Z16intersectionPlan5Rayon6float3S0_" from 0x4 to 0x1c
GPGPU-Sim PTX: allocating stack frame region for .param "__cudaparmf2__Z16intersectionPlan5Rayon6float3S0_" from 0x1c to 0x28
GPGPU-Sim PTX: allocating stack frame region for .param "__cudaparmf3__Z16intersectionPlan5Rayon6float3S0_" from 0x28 to 0x34
GPGPU-Sim PTX: allocating stack frame region for .param "__cudaretf__Z10getNormale6float3S_" from 0x0 to 0xc
GPGPU-Sim PTX: allocating stack frame region for .param "__cudaparmf1__Z10getNormale6float3S_" from 0xc to 0x18
GPGPU-Sim PTX: allocating stack frame region for .param "__cudaparmf2__Z10getNormale6float3S_" from 0x18 to 0x24
GPGPU-Sim PTX: allocating stack frame region for .param "__cudaretf__Z11getNormaleP6float3" from 0x0 to 0xc
GPGPU-Sim PTX: allocating stack frame region for .param "__cudaparmf1__Z11getNormaleP6float3" from 0xc to 0x18
GPGPU-Sim PTX: allocating stack frame region for .param "__cudaretf__Z14rgbaFloatToInt6float4" from 0x0 to 0x4
GPGPU-Sim PTX: allocating stack frame region for .param "__cudaparmf1__Z14rgbaFloatToInt6float4" from 0x4 to 0x14
GPGPU-Sim PTX: allocating stack frame region for .param "__cudaretf__Z12notShadowRayP4Node6float3S1_f" from 0x0 to 0x4
GPGPU-Sim PTX: allocating stack frame region for .param "__cudaparmf1__Z12notShadowRayP4Node6float3S1_f" from 0x4 to 0xc
GPGPU-Sim PTX: allocating stack frame region for .param "__cudaparmf2__Z12notShadowRayP4Node6float3S1_f" from 0xc to 0x18
GPGPU-Sim PTX: allocating stack frame region for .param "__cudaparmf3__Z12notShadowRayP4Node6float3S1_f" from 0x18 to 0x24
GPGPU-Sim PTX: allocating stack frame region for .param "__cudaparmf4__Z12notShadowRayP4Node6float3S1_f" from 0x24 to 0x28
GPGPU-Sim PTX: allocating stack frame region for .param "__cudaretf__Z15float2int_pow20f" from 0x0 to 0x4
GPGPU-Sim PTX: allocating stack frame region for .param "__cudaparmf1__Z15float2int_pow20f" from 0x4 to 0x8
GPGPU-Sim PTX: allocating stack frame region for .param "__cudaretf__Z15float2int_pow50f" from 0x0 to 0x4
GPGPU-Sim PTX: allocating stack frame region for .param "__cudaparmf1__Z15float2int_pow50f" from 0x4 to 0x8
GPGPU-Sim PTX: allocating stack frame region for .param "__cudaparmf1__ZN4dim3C1Ejjj" from 0x0 to 0x8
GPGPU-Sim PTX: allocating stack frame region for .param "__cudaparmf2__ZN4dim3C1Ejjj" from 0x8 to 0xc
GPGPU-Sim PTX: allocating stack frame region for .param "__cudaparmf3__ZN4dim3C1Ejjj" from 0xc to 0x10
GPGPU-Sim PTX: allocating stack frame region for .param "__cudaparmf4__ZN4dim3C1Ejjj" from 0x10 to 0x14
GPGPU-Sim PTX: instruction assembly for function '_Zmi6float3S_'...   done.
GPGPU-Sim PTX: finding reconvergence points for '_Zmi6float3S_'...
GPGPU-Sim PTX: Finding dominators for '_Zmi6float3S_'...
GPGPU-Sim PTX: Finding immediate dominators for '_Zmi6float3S_'...
GPGPU-Sim PTX: Finding postdominators for '_Zmi6float3S_'...
GPGPU-Sim PTX: Finding immediate postdominators for '_Zmi6float3S_'...
GPGPU-Sim PTX: pre-decoding instructions for '_Zmi6float3S_'...
GPGPU-Sim PTX: reconvergence points for _Zmi6float3S_...
GPGPU-Sim PTX: ... end of reconvergence points for _Zmi6float3S_
GPGPU-Sim PTX: ... done pre-decoding instructions for '_Zmi6float3S_'.
GPGPU-Sim PTX: instruction assembly for function '_Z9normalize6float3'...   done.
GPGPU-Sim PTX: finding reconvergence points for '_Z9normalize6float3'...
GPGPU-Sim PTX: Finding dominators for '_Z9normalize6float3'...
GPGPU-Sim PTX: Finding immediate dominators for '_Z9normalize6float3'...
GPGPU-Sim PTX: Finding postdominators for '_Z9normalize6float3'...
GPGPU-Sim PTX: Finding immediate postdominators for '_Z9normalize6float3'...
GPGPU-Sim PTX: pre-decoding instructions for '_Z9normalize6float3'...
GPGPU-Sim PTX: reconvergence points for _Z9normalize6float3...
GPGPU-Sim PTX: ... end of reconvergence points for _Z9normalize6float3
GPGPU-Sim PTX: ... done pre-decoding instructions for '_Z9normalize6float3'.
GPGPU-Sim PTX: instruction assembly for function '_Z18intersectionSphere5Rayon6float3f'...   done.
GPGPU-Sim PTX: finding reconvergence points for '_Z18intersectionSphere5Rayon6float3f'...
GPGPU-Sim PTX: Finding dominators for '_Z18intersectionSphere5Rayon6float3f'...
GPGPU-Sim PTX: Finding immediate dominators for '_Z18intersectionSphere5Rayon6float3f'...
GPGPU-Sim PTX: Finding postdominators for '_Z18intersectionSphere5Rayon6float3f'...
GPGPU-Sim PTX: Finding immediate postdominators for '_Z18intersectionSphere5Rayon6float3f'...
GPGPU-Sim PTX: pre-decoding instructions for '_Z18intersectionSphere5Rayon6float3f'...
GPGPU-Sim PTX: reconvergence points for _Z18intersectionSphere5Rayon6float3f...
GPGPU-Sim PTX:  1 (potential) branch divergence @  PC=0x250 (_1.ptx:173) @%p2 bra $Lt_2_3074;
GPGPU-Sim PTX:    immediate post dominator      @  PC=0x2c0 (_1.ptx:193) mov.f32 %f39, %f32;
GPGPU-Sim PTX:  2 (potential) branch divergence @  PC=0x260 (_1.ptx:175) bra.uni $Lt_2_2818;
GPGPU-Sim PTX:    immediate post dominator      @  PC=0x2c0 (_1.ptx:193) mov.f32 %f39, %f32;
GPGPU-Sim PTX:  3 (potential) branch divergence @  PC=0x280 (_1.ptx:180) @!%p3 bra $Lt_2_3586;
GPGPU-Sim PTX:    immediate post dominator      @  PC=0x2c0 (_1.ptx:193) mov.f32 %f39, %f32;
GPGPU-Sim PTX:  4 (potential) branch divergence @  PC=0x290 (_1.ptx:182) bra.uni $Lt_2_3330;
GPGPU-Sim PTX:    immediate post dominator      @  PC=0x2c0 (_1.ptx:193) mov.f32 %f39, %f32;
GPGPU-Sim PTX: ... end of reconvergence points for _Z18intersectionSphere5Rayon6float3f
GPGPU-Sim PTX: ... done pre-decoding instructions for '_Z18intersectionSphere5Rayon6float3f'.
GPGPU-Sim PTX: instruction assembly for function '_Z16intersectionPlan5Rayon6float3S0_'...   done.
GPGPU-Sim PTX: finding reconvergence points for '_Z16intersectionPlan5Rayon6float3S0_'...
GPGPU-Sim PTX: Finding dominators for '_Z16intersectionPlan5Rayon6float3S0_'...
GPGPU-Sim PTX: Finding immediate dominators for '_Z16intersectionPlan5Rayon6float3S0_'...
GPGPU-Sim PTX: Finding postdominators for '_Z16intersectionPlan5Rayon6float3S0_'...
GPGPU-Sim PTX: Finding immediate postdominators for '_Z16intersectionPlan5Rayon6float3S0_'...
GPGPU-Sim PTX: pre-decoding instructions for '_Z16intersectionPlan5Rayon6float3S0_'...
GPGPU-Sim PTX: reconvergence points for _Z16intersectionPlan5Rayon6float3S0_...
GPGPU-Sim PTX:  1 (potential) branch divergence @  PC=0x320 (_1.ptx:214) @!%p1 bra $Lt_3_2050;
GPGPU-Sim PTX:    immediate post dominator      @  PC=0x368 (_1.ptx:227) mov.f32 %f14, %f9;
GPGPU-Sim PTX:  2 (potential) branch divergence @  PC=0x330 (_1.ptx:216) bra.uni $Lt_3_1794;
GPGPU-Sim PTX:    immediate post dominator      @  PC=0x368 (_1.ptx:227) mov.f32 %f14, %f9;
GPGPU-Sim PTX: ... end of reconvergence points for _Z16intersectionPlan5Rayon6float3S0_
GPGPU-Sim PTX: ... done pre-decoding instructions for '_Z16intersectionPlan5Rayon6float3S0_'.
GPGPU-Sim PTX: instruction assembly for function '_Z10getNormale6float3S_'...   done.
GPGPU-Sim PTX: finding reconvergence points for '_Z10getNormale6float3S_'...
GPGPU-Sim PTX: Finding dominators for '_Z10getNormale6float3S_'...
GPGPU-Sim PTX: Finding immediate dominators for '_Z10getNormale6float3S_'...
GPGPU-Sim PTX: Finding postdominators for '_Z10getNormale6float3S_'...
GPGPU-Sim PTX: Finding immediate postdominators for '_Z10getNormale6float3S_'...
GPGPU-Sim PTX: pre-decoding instructions for '_Z10getNormale6float3S_'...
GPGPU-Sim PTX: reconvergence points for _Z10getNormale6float3S_...
GPGPU-Sim PTX: ... end of reconvergence points for _Z10getNormale6float3S_
GPGPU-Sim PTX: ... done pre-decoding instructions for '_Z10getNormale6float3S_'.
GPGPU-Sim PTX: instruction assembly for function '_Z11getNormaleP6float3'...   done.
GPGPU-Sim PTX: finding reconvergence points for '_Z11getNormaleP6float3'...
GPGPU-Sim PTX: Finding dominators for '_Z11getNormaleP6float3'...
GPGPU-Sim PTX: Finding immediate dominators for '_Z11getNormaleP6float3'...
GPGPU-Sim PTX: Finding postdominators for '_Z11getNormaleP6float3'...
GPGPU-Sim PTX: Finding immediate postdominators for '_Z11getNormaleP6float3'...
GPGPU-Sim PTX: pre-decoding instructions for '_Z11getNormaleP6float3'...
GPGPU-Sim PTX: reconvergence points for _Z11getNormaleP6float3...
GPGPU-Sim PTX: ... end of reconvergence points for _Z11getNormaleP6float3
GPGPU-Sim PTX: ... done pre-decoding instructions for '_Z11getNormaleP6float3'.
GPGPU-Sim PTX: instruction assembly for function '_Z14rgbaFloatToInt6float4'...   done.
GPGPU-Sim PTX: finding reconvergence points for '_Z14rgbaFloatToInt6float4'...
GPGPU-Sim PTX: Finding dominators for '_Z14rgbaFloatToInt6float4'...
GPGPU-Sim PTX: Finding immediate dominators for '_Z14rgbaFloatToInt6float4'...
GPGPU-Sim PTX: Finding postdominators for '_Z14rgbaFloatToInt6float4'...
GPGPU-Sim PTX: Finding immediate postdominators for '_Z14rgbaFloatToInt6float4'...
GPGPU-Sim PTX: pre-decoding instructions for '_Z14rgbaFloatToInt6float4'...
GPGPU-Sim PTX: reconvergence points for _Z14rgbaFloatToInt6float4...
GPGPU-Sim PTX: ... end of reconvergence points for _Z14rgbaFloatToInt6float4
GPGPU-Sim PTX: ... done pre-decoding instructions for '_Z14rgbaFloatToInt6float4'.
GPGPU-Sim PTX: allocating global region for "cnode" from 0x100 to 0x1a0 (global memory space)
GPGPU-Sim PTX: instruction assembly for function '_Z12notShadowRayP4Node6float3S1_f'...   done.
GPGPU-Sim PTX: finding reconvergence points for '_Z12notShadowRayP4Node6float3S1_f'...
GPGPU-Sim PTX: Finding dominators for '_Z12notShadowRayP4Node6float3S1_f'...
GPGPU-Sim PTX: Finding immediate dominators for '_Z12notShadowRayP4Node6float3S1_f'...
GPGPU-Sim PTX: Finding postdominators for '_Z12notShadowRayP4Node6float3S1_f'...
GPGPU-Sim PTX: Finding immediate postdominators for '_Z12notShadowRayP4Node6float3S1_f'...
GPGPU-Sim PTX: pre-decoding instructions for '_Z12notShadowRayP4Node6float3S1_f'...
GPGPU-Sim PTX: reconvergence points for _Z12notShadowRayP4Node6float3S1_f...
GPGPU-Sim PTX:  1 (potential) branch divergence @  PC=0x638 (_1.ptx:364) @%p1 bra $Lt_7_8450;
GPGPU-Sim PTX:    immediate post dominator      @  PC=0x828 (_1.ptx:441) mov.f32 %f58, 0f00000000;    // 0
GPGPU-Sim PTX:  2 (potential) branch divergence @  PC=0x658 (_1.ptx:369) @!%p2 bra $Lt_7_8962;
GPGPU-Sim PTX:    immediate post dominator      @  PC=0x6b8 (_1.ptx:385) mov.f32 %f28, %f20;
GPGPU-Sim PTX:  3 (potential) branch divergence @  PC=0x668 (_1.ptx:371) bra.uni $Lt_7_8706;
GPGPU-Sim PTX:    immediate post dominator      @  PC=0x6b8 (_1.ptx:385) mov.f32 %f28, %f20;
GPGPU-Sim PTX:  4 (potential) branch divergence @  PC=0x6c0 (_1.ptx:386) bra.uni $Lt_7_8194;
GPGPU-Sim PTX:    immediate post dominator      @  PC=0x828 (_1.ptx:441) mov.f32 %f58, 0f00000000;    // 0
GPGPU-Sim PTX:  5 (potential) branch divergence @  PC=0x7b0 (_1.ptx:418) @%p5 bra $Lt_7_9474;
GPGPU-Sim PTX:    immediate post dominator      @  PC=0x820 (_1.ptx:438) mov.f32 %f28, %f51;
GPGPU-Sim PTX:  6 (potential) branch divergence @  PC=0x7c0 (_1.ptx:420) bra.uni $Lt_7_9730;
GPGPU-Sim PTX:    immediate post dominator      @  PC=0x820 (_1.ptx:438) mov.f32 %f28, %f51;
GPGPU-Sim PTX:  7 (potential) branch divergence @  PC=0x7e0 (_1.ptx:425) @!%p6 bra $Lt_7_9986;
GPGPU-Sim PTX:    immediate post dominator      @  PC=0x820 (_1.ptx:438) mov.f32 %f28, %f51;
GPGPU-Sim PTX:  8 (potential) branch divergence @  PC=0x7f0 (_1.ptx:427) bra.uni $Lt_7_9730;
GPGPU-Sim PTX:    immediate post dominator      @  PC=0x820 (_1.ptx:438) mov.f32 %f28, %f51;
GPGPU-Sim PTX:  9 (potential) branch divergence @  PC=0x838 (_1.ptx:443) @!%p7 bra $Lt_7_10242;
GPGPU-Sim PTX:    immediate post dominator      @  PC=0x8e8 (_1.ptx:468) add.s32 %r1, %r1, 1;
GPGPU-Sim PTX: 10 (potential) branch divergence @  PC=0x8d8 (_1.ptx:463) @!%p8 bra $Lt_7_10242;
GPGPU-Sim PTX:    immediate post dominator      @  PC=0x8e8 (_1.ptx:468) add.s32 %r1, %r1, 1;
GPGPU-Sim PTX: 11 (potential) branch divergence @  PC=0x908 (_1.ptx:472) @%p9 bra $Lt_7_10754;
GPGPU-Sim PTX:    immediate post dominator      @  PC=0x960 (_1.ptx:486) selp.s32 %r10, 1, 0, %p11;
GPGPU-Sim PTX: 12 (potential) branch divergence @  PC=0x930 (_1.ptx:477) @%p10 bra $L_7_7170;
GPGPU-Sim PTX:    immediate post dominator      @  PC=0x960 (_1.ptx:486) selp.s32 %r10, 1, 0, %p11;
GPGPU-Sim PTX: 13 (potential) branch divergence @  PC=0x938 (_1.ptx:478) bra.uni $L_7_7938;
GPGPU-Sim PTX:    immediate post dominator      @  PC=0x960 (_1.ptx:486) selp.s32 %r10, 1, 0, %p11;
GPGPU-Sim PTX: ... end of reconvergence points for _Z12notShadowRayP4Node6float3S1_f
GPGPU-Sim PTX: ... done pre-decoding instructions for '_Z12notShadowRayP4Node6float3S1_f'.
GPGPU-Sim PTX: instruction assembly for function '_Z15float2int_pow20f'...   done.
GPGPU-Sim PTX: finding reconvergence points for '_Z15float2int_pow20f'...
GPGPU-Sim PTX: Finding dominators for '_Z15float2int_pow20f'...
GPGPU-Sim PTX: Finding immediate dominators for '_Z15float2int_pow20f'...
GPGPU-Sim PTX: Finding postdominators for '_Z15float2int_pow20f'...
GPGPU-Sim PTX: Finding immediate postdominators for '_Z15float2int_pow20f'...
GPGPU-Sim PTX: pre-decoding instructions for '_Z15float2int_pow20f'...
GPGPU-Sim PTX: reconvergence points for _Z15float2int_pow20f...
GPGPU-Sim PTX: ... end of reconvergence points for _Z15float2int_pow20f
GPGPU-Sim PTX: ... done pre-decoding instructions for '_Z15float2int_pow20f'.
GPGPU-Sim PTX: instruction assembly for function '_Z15float2int_pow50f'...   done.
GPGPU-Sim PTX: finding reconvergence points for '_Z15float2int_pow50f'...
GPGPU-Sim PTX: Finding dominators for '_Z15float2int_pow50f'...
GPGPU-Sim PTX: Finding immediate dominators for '_Z15float2int_pow50f'...
GPGPU-Sim PTX: Finding postdominators for '_Z15float2int_pow50f'...
GPGPU-Sim PTX: Finding immediate postdominators for '_Z15float2int_pow50f'...
GPGPU-Sim PTX: pre-decoding instructions for '_Z15float2int_pow50f'...
GPGPU-Sim PTX: reconvergence points for _Z15float2int_pow50f...
GPGPU-Sim PTX: ... end of reconvergence points for _Z15float2int_pow50f
GPGPU-Sim PTX: ... done pre-decoding instructions for '_Z15float2int_pow50f'.
GPGPU-Sim PTX: allocating constant region for "MView" from 0x200 to 0x230 (global memory space) 1
GPGPU-Sim PTX: allocating stack frame region for .local "__cuda___cuda_local_var_35463_9_non_const_pile_32240" from 0x0 to 0x50
GPGPU-Sim PTX: instruction assembly for function '_Z6renderPjP4Nodejjff'...   done.
GPGPU-Sim PTX: finding reconvergence points for '_Z6renderPjP4Nodejjff'...
GPGPU-Sim PTX: Finding dominators for '_Z6renderPjP4Nodejjff'...
GPGPU-Sim PTX: Finding immediate dominators for '_Z6renderPjP4Nodejjff'...
GPGPU-Sim PTX: Finding postdominators for '_Z6renderPjP4Nodejjff'...
GPGPU-Sim PTX: Finding immediate postdominators for '_Z6renderPjP4Nodejjff'...
GPGPU-Sim PTX: pre-decoding instructions for '_Z6renderPjP4Nodejjff'...
GPGPU-Sim PTX: reconvergence points for _Z6renderPjP4Nodejjff...
GPGPU-Sim PTX:  1 (potential) branch divergence @  PC=0xdb0 (_1.ptx:663) @%p1 bra $Lt_10_44034;
GPGPU-Sim PTX:    immediate post dominator      @  PC=0x2370 (_1.ptx:1495) exit;
GPGPU-Sim PTX:  2 (potential) branch divergence @  PC=0x1028 (_1.ptx:751) @%p2 bra $Lt_10_45570;
GPGPU-Sim PTX:    immediate post dominator      @  PC=0x11b8 (_1.ptx:815) mov.f32 %f108, 0f00000000;   // 0
GPGPU-Sim PTX:  3 (potential) branch divergence @  PC=0x1048 (_1.ptx:756) @!%p3 bra $Lt_10_46082;
GPGPU-Sim PTX:    immediate post dominator      @  PC=0x1090 (_1.ptx:769) mov.f32 %f87, %f82;
GPGPU-Sim PTX:  4 (potential) branch divergence @  PC=0x1058 (_1.ptx:758) bra.uni $Lt_10_45826;
GPGPU-Sim PTX:    immediate post dominator      @  PC=0x1090 (_1.ptx:769) mov.f32 %f87, %f82;
GPGPU-Sim PTX:  5 (potential) branch divergence @  PC=0x1098 (_1.ptx:770) bra.uni $Lt_10_45314;
GPGPU-Sim PTX:    immediate post dominator      @  PC=0x11b8 (_1.ptx:815) mov.f32 %f108, 0f00000000;   // 0
GPGPU-Sim PTX:  6 (potential) branch divergence @  PC=0x1140 (_1.ptx:793) @%p6 bra $Lt_10_46594;
GPGPU-Sim PTX:    immediate post dominator      @  PC=0x11b0 (_1.ptx:813) mov.f32 %f87, %f101;
GPGPU-Sim PTX:  7 (potential) branch divergence @  PC=0x1150 (_1.ptx:795) bra.uni $Lt_10_46850;
GPGPU-Sim PTX:    immediate post dominator      @  PC=0x11b0 (_1.ptx:813) mov.f32 %f87, %f101;
GPGPU-Sim PTX:  8 (potential) branch divergence @  PC=0x1170 (_1.ptx:800) @!%p7 bra $Lt_10_47106;
GPGPU-Sim PTX:    immediate post dominator      @  PC=0x11b0 (_1.ptx:813) mov.f32 %f87, %f101;
GPGPU-Sim PTX:  9 (potential) branch divergence @  PC=0x1180 (_1.ptx:802) bra.uni $Lt_10_46850;
GPGPU-Sim PTX:    immediate post dominator      @  PC=0x11b0 (_1.ptx:813) mov.f32 %f87, %f101;
GPGPU-Sim PTX: 10 (potential) branch divergence @  PC=0x11f8 (_1.ptx:823) @%p8 bra $Lt_10_47362;
GPGPU-Sim PTX:    immediate post dominator      @  PC=0x1210 (_1.ptx:829) add.s32 %r25, %r25, 1;
GPGPU-Sim PTX: 11 (potential) branch divergence @  PC=0x1230 (_1.ptx:833) @%p9 bra $Lt_10_45058;
GPGPU-Sim PTX:    immediate post dominator      @  PC=0x1238 (_1.ptx:834) mov.f32 %f109, 0f00000000;   // 0
GPGPU-Sim PTX: 12 (potential) branch divergence @  PC=0x1280 (_1.ptx:843) @%p10 bra $Lt_10_48130;
GPGPU-Sim PTX:    immediate post dominator      @  PC=0x2140 (_1.ptx:1416) add.s32 %r23, %r23, 1;
GPGPU-Sim PTX: 13 (potential) branch divergence @  PC=0x1330 (_1.ptx:868) @%p11 bra $Lt_10_48898;
GPGPU-Sim PTX:    immediate post dominator      @  PC=0x13b8 (_1.ptx:888) sub.f32 %f136, %f21, %f119;
GPGPU-Sim PTX: 14 (potential) branch divergence @  PC=0x1350 (_1.ptx:873) bra.uni $Lt_10_48642;
GPGPU-Sim PTX:    immediate post dominator      @  PC=0x13b8 (_1.ptx:888) sub.f32 %f136, %f21, %f119;
GPGPU-Sim PTX: 15 (potential) branch divergence @  PC=0x1430 (_1.ptx:903) @!%p12 bra $Lt_10_49410;
GPGPU-Sim PTX:    immediate post dominator      @  PC=0x1470 (_1.ptx:915) mov.f32 %f153, 0f3d4ccccd;   // 0.05
GPGPU-Sim PTX: 16 (potential) branch divergence @  PC=0x1450 (_1.ptx:908) bra.uni $Lt_10_49154;
GPGPU-Sim PTX:    immediate post dominator      @  PC=0x1470 (_1.ptx:915) mov.f32 %f153, 0f3d4ccccd;   // 0.05
GPGPU-Sim PTX: 17 (potential) branch divergence @  PC=0x1578 (_1.ptx:949) @!%p13 bra $Lt_10_58114;
GPGPU-Sim PTX:    immediate post dominator      @  PC=0x2080 (_1.ptx:1388) add.f32 %f399, %f126, %f126;
GPGPU-Sim PTX: 18 (potential) branch divergence @  PC=0x15c0 (_1.ptx:961) @%p14 bra $Lt_10_49922;
GPGPU-Sim PTX:    immediate post dominator      @  PC=0x17b0 (_1.ptx:1039) mov.f32 %f221, 0f00000000;   // 0
GPGPU-Sim PTX: 19 (potential) branch divergence @  PC=0x15e0 (_1.ptx:966) @!%p15 bra $Lt_10_50434;
GPGPU-Sim PTX:    immediate post dominator      @  PC=0x1638 (_1.ptx:982) mov.f32 %f190, %f183;
GPGPU-Sim PTX: 20 (potential) branch divergence @  PC=0x15f0 (_1.ptx:968) bra.uni $Lt_10_50178;
GPGPU-Sim PTX:    immediate post dominator      @  PC=0x1638 (_1.ptx:982) mov.f32 %f190, %f183;
GPGPU-Sim PTX: 21 (potential) branch divergence @  PC=0x1640 (_1.ptx:983) bra.uni $Lt_10_49666;
GPGPU-Sim PTX:    immediate post dominator      @  PC=0x17b0 (_1.ptx:1039) mov.f32 %f221, 0f00000000;   // 0
GPGPU-Sim PTX: 22 (potential) branch divergence @  PC=0x1738 (_1.ptx:1016) @%p18 bra $Lt_10_50946;
GPGPU-Sim PTX:    immediate post dominator      @  PC=0x17a8 (_1.ptx:1036) mov.f32 %f190, %f214;
GPGPU-Sim PTX: 23 (potential) branch divergence @  PC=0x1748 (_1.ptx:1018) bra.uni $Lt_10_51202;
GPGPU-Sim PTX:    immediate post dominator      @  PC=0x17a8 (_1.ptx:1036) mov.f32 %f190, %f214;
GPGPU-Sim PTX: 24 (potential) branch divergence @  PC=0x1768 (_1.ptx:1023) @!%p19 bra $Lt_10_51458;
GPGPU-Sim PTX:    immediate post dominator      @  PC=0x17a8 (_1.ptx:1036) mov.f32 %f190, %f214;
GPGPU-Sim PTX: 25 (potential) branch divergence @  PC=0x1778 (_1.ptx:1025) bra.uni $Lt_10_51202;
GPGPU-Sim PTX:    immediate post dominator      @  PC=0x17a8 (_1.ptx:1036) mov.f32 %f190, %f214;
GPGPU-Sim PTX: 26 (potential) branch divergence @  PC=0x17c0 (_1.ptx:1041) @!%p20 bra $Lt_10_58370;
GPGPU-Sim PTX:    immediate post dominator      @  PC=0x1828 (_1.ptx:1057) add.s32 %r50, %r50, 1;
GPGPU-Sim PTX: 27 (potential) branch divergence @  PC=0x1818 (_1.ptx:1052) @!%p21 bra $Lt_10_58370;
GPGPU-Sim PTX:    immediate post dominator      @  PC=0x1828 (_1.ptx:1057) add.s32 %r50, %r50, 1;
GPGPU-Sim PTX: 28 (potential) branch divergence @  PC=0x1848 (_1.ptx:1061) @%p22 bra $Lt_10_58882;
GPGPU-Sim PTX:    immediate post dominator      @  PC=0x1880 (_1.ptx:1071) @!%p23 bra $Lt_10_58114;
GPGPU-Sim PTX: 29 (potential) branch divergence @  PC=0x1860 (_1.ptx:1064) @%p23 bra $L_10_42498;
GPGPU-Sim PTX:    immediate post dominator      @  PC=0x1880 (_1.ptx:1071) @!%p23 bra $Lt_10_58114;
GPGPU-Sim PTX: 30 (potential) branch divergence @  PC=0x1868 (_1.ptx:1065) bra.uni $L_10_43266;
GPGPU-Sim PTX:    immediate post dominator      @  PC=0x1880 (_1.ptx:1071) @!%p23 bra $Lt_10_58114;
GPGPU-Sim PTX: 31 (potential) branch divergence @  PC=0x1880 (_1.ptx:1071) @!%p23 bra $Lt_10_58114;
GPGPU-Sim PTX:    immediate post dominator      @  PC=0x2080 (_1.ptx:1388) add.f32 %f399, %f126, %f126;
GPGPU-Sim PTX: 32 (potential) branch divergence @  PC=0x19c8 (_1.ptx:1115) @!%p24 bra $Lt_10_51714;
GPGPU-Sim PTX:    immediate post dominator      @  PC=0x2040 (_1.ptx:1375) mov.f32 %f394, 0f3f4ccccd;   // 0.8
GPGPU-Sim PTX: 33 (potential) branch divergence @  PC=0x19d8 (_1.ptx:1118) bra.uni $LDWendi___isnanf_192_1;
GPGPU-Sim PTX:    immediate post dominator      @  PC=0x2040 (_1.ptx:1375) mov.f32 %f394, 0f3f4ccccd;   // 0.8
GPGPU-Sim PTX: 34 (potential) branch divergence @  PC=0x19f8 (_1.ptx:1124) @!%p25 bra $Lt_10_7682;
GPGPU-Sim PTX:    immediate post dominator      @  PC=0x2040 (_1.ptx:1375) mov.f32 %f394, 0f3f4ccccd;   // 0.8
GPGPU-Sim PTX: 35 (potential) branch divergence @  PC=0x1a00 (_1.ptx:1125) bra.uni $Lt_10_7938;
GPGPU-Sim PTX:    immediate post dominator      @  PC=0x1a20 (_1.ptx:1133) mov.f32 %f272, 0f7f800000;   // ((1.0F)/(0.0F))
GPGPU-Sim PTX: 36 (potential) branch divergence @  PC=0x1a18 (_1.ptx:1130) bra.uni $LDWendi___isnanf_192_1;
GPGPU-Sim PTX:    immediate post dominator      @  PC=0x2040 (_1.ptx:1375) mov.f32 %f394, 0f3f4ccccd;   // 0.8
GPGPU-Sim PTX: 37 (potential) branch divergence @  PC=0x1a30 (_1.ptx:1135) @!%p26 bra $Lt_10_52226;
GPGPU-Sim PTX:    immediate post dominator      @  PC=0x2040 (_1.ptx:1375) mov.f32 %f394, 0f3f4ccccd;   // 0.8
GPGPU-Sim PTX: 38 (potential) branch divergence @  PC=0x1a40 (_1.ptx:1138) bra.uni $LDWendi___isnanf_192_1;
GPGPU-Sim PTX:    immediate post dominator      @  PC=0x2040 (_1.ptx:1375) mov.f32 %f394, 0f3f4ccccd;   // 0.8
GPGPU-Sim PTX: 39 (potential) branch divergence @  PC=0x1a58 (_1.ptx:1142) @!%p27 bra $Lt_10_52738;
GPGPU-Sim PTX:    immediate post dominator      @  PC=0x2040 (_1.ptx:1375) mov.f32 %f394, 0f3f4ccccd;   // 0.8
GPGPU-Sim PTX: 40 (potential) branch divergence @  PC=0x1ab8 (_1.ptx:1155) bra.uni $LDWendi___isnanf_192_1;
GPGPU-Sim PTX:    immediate post dominator      @  PC=0x2040 (_1.ptx:1375) mov.f32 %f394, 0f3f4ccccd;   // 0.8
GPGPU-Sim PTX: 41 (potential) branch divergence @  PC=0x1ad0 (_1.ptx:1159) @!%p29 bra $Lt_10_53250;
GPGPU-Sim PTX:    immediate post dominator      @  PC=0x2040 (_1.ptx:1375) mov.f32 %f394, 0f3f4ccccd;   // 0.8
GPGPU-Sim PTX: 42 (potential) branch divergence @  PC=0x1b20 (_1.ptx:1170) @!%p30 bra $Lt_10_53762;
GPGPU-Sim PTX:    immediate post dominator      @  PC=0x1b40 (_1.ptx:1177) mov.f32 %f268, %f284;
GPGPU-Sim PTX: 43 (potential) branch divergence @  PC=0x1b48 (_1.ptx:1178) bra.uni $LDWendi___isnanf_192_1;
GPGPU-Sim PTX:    immediate post dominator      @  PC=0x2040 (_1.ptx:1375) mov.f32 %f394, 0f3f4ccccd;   // 0.8
GPGPU-Sim PTX: 44 (potential) branch divergence @  PC=0x1b60 (_1.ptx:1183) @!%p31 bra $Lt_10_59394;
GPGPU-Sim PTX:    immediate post dominator      @  PC=0x2040 (_1.ptx:1375) mov.f32 %f394, 0f3f4ccccd;   // 0.8
GPGPU-Sim PTX: 45 (potential) branch divergence @  PC=0x1b88 (_1.ptx:1188) @!%p32 bra $Lt_10_59394;
GPGPU-Sim PTX:    immediate post dominator      @  PC=0x2040 (_1.ptx:1375) mov.f32 %f394, 0f3f4ccccd;   // 0.8
GPGPU-Sim PTX: 46 (potential) branch divergence @  PC=0x1ba0 (_1.ptx:1192) bra.uni $LDWendi___isnanf_192_1;
GPGPU-Sim PTX:    immediate post dominator      @  PC=0x2040 (_1.ptx:1375) mov.f32 %f394, 0f3f4ccccd;   // 0.8
GPGPU-Sim PTX: 47 (potential) branch divergence @  PC=0x1bd8 (_1.ptx:1202) @%p33 bra $Lt_10_54530;
GPGPU-Sim PTX:    immediate post dominator      @  PC=0x1c20 (_1.ptx:1216) sub.s32 %r64, %r64, 127;
GPGPU-Sim PTX: 48 (potential) branch divergence @  PC=0x1c10 (_1.ptx:1211) bra.uni $Lt_10_54274;
GPGPU-Sim PTX:    immediate post dominator      @  PC=0x1c20 (_1.ptx:1216) sub.s32 %r64, %r64, 127;
GPGPU-Sim PTX: 49 (potential) branch divergence @  PC=0x1c58 (_1.ptx:1224) @!%p34 bra $Lt_10_54786;
GPGPU-Sim PTX:    immediate post dominator      @  PC=0x1c78 (_1.ptx:1232) mov.f32 %f302, 0fbf800000;   // -1
GPGPU-Sim PTX: 50 (potential) branch divergence @  PC=0x1eb0 (_1.ptx:1312) @%p35 bra $Lt_10_55298;
GPGPU-Sim PTX:    immediate post dominator      @  PC=0x1ed8 (_1.ptx:1321) mov.f32 %f367, %f365;
GPGPU-Sim PTX: 51 (potential) branch divergence @  PC=0x1f98 (_1.ptx:1346) @!%p38 bra $Lt_10_55810;
GPGPU-Sim PTX:    immediate post dominator      @  PC=0x1fa8 (_1.ptx:1351) mov.f32 %f284, %f386;
GPGPU-Sim PTX: 52 (potential) branch divergence @  PC=0x2018 (_1.ptx:1365) @%p39 bra $Lt_10_56322;
GPGPU-Sim PTX:    immediate post dominator      @  PC=0x2038 (_1.ptx:1372) mov.f32 %f268, %f284;
GPGPU-Sim PTX: 53 (potential) branch divergence @  PC=0x2158 (_1.ptx:1419) @%p40 bra $L_10_42242;
GPGPU-Sim PTX:    immediate post dominator      @  PC=0x2170 (_1.ptx:1424) sub.s32 %r86, %r24, 1;
GPGPU-Sim PTX: 54 (potential) branch divergence @  PC=0x2168 (_1.ptx:1421) @%p41 bra $L_10_41474;
GPGPU-Sim PTX:    immediate post dominator      @  PC=0x2170 (_1.ptx:1424) sub.s32 %r86, %r24, 1;
GPGPU-Sim PTX: 55 (potential) branch divergence @  PC=0x2190 (_1.ptx:1428) @%p42 bra $Lt_10_56834;
GPGPU-Sim PTX:    immediate post dominator      @  PC=0x2288 (_1.ptx:1464) ld.global.u32 %r92, [%rd4+0];
GPGPU-Sim PTX: 56 (potential) branch divergence @  PC=0x2280 (_1.ptx:1461) @%p43 bra $Lt_10_57346;
GPGPU-Sim PTX:    immediate post dominator      @  PC=0x2288 (_1.ptx:1464) ld.global.u32 %r92, [%rd4+0];
GPGPU-Sim PTX: ... end of reconvergence points for _Z6renderPjP4Nodejjff
GPGPU-Sim PTX: ... done pre-decoding instructions for '_Z6renderPjP4Nodejjff'.
GPGPU-Sim PTX: instruction assembly for function '_ZN4dim3C1Ejjj'...   done.
GPGPU-Sim PTX: finding reconvergence points for '_ZN4dim3C1Ejjj'...
GPGPU-Sim PTX: Finding dominators for '_ZN4dim3C1Ejjj'...
GPGPU-Sim PTX: Finding immediate dominators for '_ZN4dim3C1Ejjj'...
GPGPU-Sim PTX: Finding postdominators for '_ZN4dim3C1Ejjj'...
GPGPU-Sim PTX: Finding immediate postdominators for '_ZN4dim3C1Ejjj'...
GPGPU-Sim PTX: pre-decoding instructions for '_ZN4dim3C1Ejjj'...
GPGPU-Sim PTX: reconvergence points for _ZN4dim3C1Ejjj...
GPGPU-Sim PTX: ... end of reconvergence points for _ZN4dim3C1Ejjj
GPGPU-Sim PTX: ... done pre-decoding instructions for '_ZN4dim3C1Ejjj'.
GPGPU-Sim PTX: finished parsing EMBEDDED .ptx file _1.ptx
Adding _cuobjdump_1.ptx with cubin handle 1
GPGPU-Sim PTX: extracting embedded .ptx to temporary file "_ptx_YYd3dc"
Running: cat _ptx_YYd3dc | sed 's/.version 1.5/.version 1.4/' | sed 's/, texmode_independent//' | sed 's/\(\.extern \.const\[1\] .b8 \w\+\)\[\]/\1\[1\]/' | sed 's/const\[.\]/const\[0\]/g' > _ptx2_YLKs3z
GPGPU-Sim PTX: generating ptxinfo using "$CUDA_INSTALL_PATH/bin/ptxas --gpu-name=sm_20 -v _ptx2_YLKs3z --output-file  /dev/null 2> _ptx_YYd3dcinfo"
GPGPU-Sim PTX: Kernel '_Z6renderPjP4Nodejjff' : regs=45, lmem=4, smem=0, cmem=180
GPGPU-Sim PTX: removing ptxinfo using "rm -f _ptx_YYd3dc _ptx2_YLKs3z _ptx_YYd3dcinfo"
GPGPU-Sim PTX: loading globals with explicit initializers... 
GPGPU-Sim PTX: finished loading globals (0 bytes total).
GPGPU-Sim PTX: loading constants with explicit initializers...  done.
GPGPU-Sim PTX: __cudaRegisterVar: hostVar = 0x62fda0; deviceAddress = MView; deviceName = MView
GPGPU-Sim PTX: __cudaRegisterVar: Registering const memory space of 48 bytes
GPGPU-Sim PTX registering constant MView (48 bytes) to name mapping
GPGPU-Sim PTX: __cudaRegisterVar: hostVar = 0x62fde0; deviceAddress = cnode; deviceName = cnode
GPGPU-Sim PTX: __cudaRegisterVar: Registering const memory space of 160 bytes
GPGPU-Sim PTX registering constant cnode (160 bytes) to name mapping
GPGPU-Sim PTX: cudaMemcpyToSymbol: symbol = 0x62fde0
GPGPU-Sim PTX: starting gpgpu_ptx_sim_memcpy_symbol with hostVar 0x0x62fde0
GPGPU-Sim PTX: gpgpu_ptx_sim_memcpy_symbol: Found PTX symbol w/ hostVar=0x62fde0
GPGPU-Sim PTX: gpgpu_ptx_sim_memcpy_symbol: copying const memory 160 bytes  to  symbol cnode+0 @0x100 ...
GPGPU-Sim PTX: cudaMemcpyToSymbol: symbol = 0x62fda0
GPGPU-Sim PTX: starting gpgpu_ptx_sim_memcpy_symbol with hostVar 0x0x62fda0
GPGPU-Sim PTX: gpgpu_ptx_sim_memcpy_symbol: Found PTX symbol w/ hostVar=0x62fda0
GPGPU-Sim PTX: gpgpu_ptx_sim_memcpy_symbol: copying const memory 48 bytes  to  symbol MView+0 @0x200 ...

GPGPU-Sim PTX: cudaLaunch for 0x0x40ce13 (mode=performance simulation) on stream 0
GPGPU-Sim PTX: pushing kernel '_Z6renderPjP4Nodejjff' to stream 0, gridDim= (16,32,1) blockDim = (16,8,1) 
kernel '_Z6renderPjP4Nodejjff' transfer to GPU hardware scheduler
GPGPU-Sim uArch: Shader 1 bind to kernel 1 '_Z6renderPjP4Nodejjff'
GPGPU-Sim uArch: CTA/core = 5, limited by: regs
GPGPU-Sim uArch: core:  1, cta: 0 initialized @(1,0)
GPGPU-Sim uArch: Shader 2 bind to kernel 1 '_Z6renderPjP4Nodejjff'
GPGPU-Sim uArch: core:  2, cta: 0 initialized @(1,0)
GPGPU-Sim uArch: Shader 3 bind to kernel 1 '_Z6renderPjP4Nodejjff'
GPGPU-Sim uArch: core:  3, cta: 0 initialized @(1,0)
GPGPU-Sim uArch: Shader 4 bind to kernel 1 '_Z6renderPjP4Nodejjff'
GPGPU-Sim uArch: core:  4, cta: 0 initialized @(1,0)
GPGPU-Sim uArch: Shader 5 bind to kernel 1 '_Z6renderPjP4Nodejjff'
GPGPU-Sim uArch: core:  5, cta: 0 initialized @(1,0)
GPGPU-Sim uArch: Shader 6 bind to kernel 1 '_Z6renderPjP4Nodejjff'
GPGPU-Sim uArch: core:  6, cta: 0 initialized @(1,0)
GPGPU-Sim uArch: Shader 7 bind to kernel 1 '_Z6renderPjP4Nodejjff'
GPGPU-Sim uArch: core:  7, cta: 0 initialized @(1,0)
GPGPU-Sim uArch: Shader 8 bind to kernel 1 '_Z6renderPjP4Nodejjff'
GPGPU-Sim uArch: core:  8, cta: 0 initialized @(1,0)
GPGPU-Sim uArch: Shader 9 bind to kernel 1 '_Z6renderPjP4Nodejjff'
GPGPU-Sim uArch: core:  9, cta: 0 initialized @(1,0)
GPGPU-Sim uArch: Shader 10 bind to kernel 1 '_Z6renderPjP4Nodejjff'
GPGPU-Sim uArch: core: 10, cta: 0 initialized @(1,0)
GPGPU-Sim uArch: Shader 11 bind to kernel 1 '_Z6renderPjP4Nodejjff'
GPGPU-Sim uArch: core: 11, cta: 0 initialized @(1,0)
GPGPU-Sim uArch: Shader 12 bind to kernel 1 '_Z6renderPjP4Nodejjff'
GPGPU-Sim uArch: core: 12, cta: 0 initialized @(1,0)
GPGPU-Sim uArch: Shader 13 bind to kernel 1 '_Z6renderPjP4Nodejjff'
GPGPU-Sim uArch: core: 13, cta: 0 initialized @(1,0)
GPGPU-Sim uArch: Shader 14 bind to kernel 1 '_Z6renderPjP4Nodejjff'
GPGPU-Sim uArch: core: 14, cta: 0 initialized @(1,0)
GPGPU-Sim uArch: Shader 0 bind to kernel 1 '_Z6renderPjP4Nodejjff'
GPGPU-Sim uArch: core:  0, cta: 0 initialized @(1,0)
GPGPU-Sim uArch: core:  1, cta: 1 initialized @(2,0)
GPGPU-Sim uArch: core:  2, cta: 1 initialized @(2,0)
GPGPU-Sim uArch: core:  3, cta: 1 initialized @(2,0)
GPGPU-Sim uArch: core:  4, cta: 1 initialized @(2,0)
GPGPU-Sim uArch: core:  5, cta: 1 initialized @(2,0)
GPGPU-Sim uArch: core:  6, cta: 1 initialized @(2,0)
GPGPU-Sim uArch: core:  7, cta: 1 initialized @(2,0)
GPGPU-Sim uArch: core:  8, cta: 1 initialized @(2,0)
GPGPU-Sim uArch: core:  9, cta: 1 initialized @(2,0)
GPGPU-Sim uArch: core: 10, cta: 1 initialized @(2,0)
GPGPU-Sim uArch: core: 11, cta: 1 initialized @(2,0)
GPGPU-Sim uArch: core: 12, cta: 1 initialized @(2,0)
GPGPU-Sim uArch: core: 13, cta: 1 initialized @(2,0)
GPGPU-Sim uArch: core: 14, cta: 1 initialized @(2,0)
GPGPU-Sim uArch: core:  0, cta: 1 initialized @(2,0)
GPGPU-Sim uArch: core:  1, cta: 2 initialized @(3,0)
GPGPU-Sim uArch: core:  2, cta: 2 initialized @(3,0)
GPGPU-Sim uArch: core:  3, cta: 2 initialized @(3,0)
GPGPU-Sim uArch: core:  4, cta: 2 initialized @(3,0)
GPGPU-Sim uArch: core:  5, cta: 2 initialized @(3,0)
GPGPU-Sim uArch: core:  6, cta: 2 initialized @(3,0)
GPGPU-Sim uArch: core:  7, cta: 2 initialized @(3,0)
GPGPU-Sim uArch: core:  8, cta: 2 initialized @(3,0)
GPGPU-Sim uArch: core:  9, cta: 2 initialized @(3,0)
GPGPU-Sim uArch: core: 10, cta: 2 initialized @(3,0)
GPGPU-Sim uArch: core: 11, cta: 2 initialized @(3,0)
GPGPU-Sim uArch: core: 12, cta: 2 initialized @(3,0)
GPGPU-Sim uArch: core: 13, cta: 2 initialized @(3,0)
GPGPU-Sim uArch: core: 14, cta: 2 initialized @(3,0)
GPGPU-Sim uArch: core:  0, cta: 2 initialized @(3,0)
GPGPU-Sim uArch: core:  1, cta: 3 initialized @(4,0)
GPGPU-Sim uArch: core:  2, cta: 3 initialized @(4,0)
GPGPU-Sim uArch: core:  3, cta: 3 initialized @(4,0)
GPGPU-Sim uArch: core:  4, cta: 3 initialized @(4,0)
GPGPU-Sim uArch: core:  5, cta: 3 initialized @(4,0)
GPGPU-Sim uArch: core:  6, cta: 3 initialized @(4,0)
GPGPU-Sim uArch: core:  7, cta: 3 initialized @(4,0)
GPGPU-Sim uArch: core:  8, cta: 3 initialized @(4,0)
GPGPU-Sim uArch: core:  9, cta: 3 initialized @(4,0)
GPGPU-Sim uArch: core: 10, cta: 3 initialized @(4,0)
GPGPU-Sim uArch: core: 11, cta: 3 initialized @(4,0)
GPGPU-Sim uArch: core: 12, cta: 3 initialized @(4,0)
GPGPU-Sim uArch: core: 13, cta: 3 initialized @(4,0)
GPGPU-Sim uArch: core: 14, cta: 3 initialized @(4,0)
GPGPU-Sim uArch: core:  0, cta: 3 initialized @(4,0)
GPGPU-Sim uArch: core:  1, cta: 4 initialized @(5,0)
GPGPU-Sim uArch: core:  2, cta: 4 initialized @(5,0)
GPGPU-Sim uArch: core:  3, cta: 4 initialized @(5,0)
GPGPU-Sim uArch: core:  4, cta: 4 initialized @(5,0)
GPGPU-Sim uArch: core:  5, cta: 4 initialized @(5,0)
GPGPU-Sim uArch: core:  6, cta: 4 initialized @(5,0)
GPGPU-Sim uArch: core:  7, cta: 4 initialized @(5,0)
GPGPU-Sim uArch: core:  8, cta: 4 initialized @(5,0)
GPGPU-Sim uArch: core:  9, cta: 4 initialized @(5,0)
GPGPU-Sim uArch: core: 10, cta: 4 initialized @(5,0)
GPGPU-Sim uArch: core: 11, cta: 4 initialized @(5,0)
GPGPU-Sim uArch: core: 12, cta: 4 initialized @(5,0)
GPGPU-Sim uArch: core: 13, cta: 4 initialized @(5,0)
GPGPU-Sim uArch: core: 14, cta: 4 initialized @(5,0)
GPGPU-Sim uArch: core:  0, cta: 4 initialized @(5,0)
GPGPU-Sim uArch: cycles simulated: 500  inst.: 36032 (ipc=72.1) sim_rate=36032 (inst/sec) elapsed = 0:0:00:01 / Tue Feb  9 14:31:58 2016
GPGPU-Sim PTX: 100000 instructions simulated : ctaid=(7,0,0) tid=(15,1,0)
GPGPU-Sim uArch: cycles simulated: 3500  inst.: 166112 (ipc=47.5) sim_rate=83056 (inst/sec) elapsed = 0:0:00:02 / Tue Feb  9 14:32:00 2016
GPGPU-Sim PTX: 200000 instructions simulated : ctaid=(7,3,0) tid=(15,5,0)
GPGPU-Sim PTX: 300000 instructions simulated : ctaid=(2,0,0) tid=(15,1,0)
GPGPU-Sim uArch: cycles simulated: 5500  inst.: 363424 (ipc=66.1) sim_rate=121141 (inst/sec) elapsed = 0:0:00:03 / Tue Feb  9 14:32:01 2016
GPGPU-Sim PTX: 400000 instructions simulated : ctaid=(4,0,0) tid=(15,7,0)
GPGPU-Sim PTX: 500000 instructions simulated : ctaid=(14,1,0) tid=(15,5,0)
GPGPU-Sim PTX: 600000 instructions simulated : ctaid=(14,3,0) tid=(15,5,0)
GPGPU-Sim PTX: 700000 instructions simulated : ctaid=(7,4,0) tid=(15,1,0)
GPGPU-Sim uArch: cycles simulated: 7000  inst.: 732160 (ipc=104.6) sim_rate=183040 (inst/sec) elapsed = 0:0:00:04 / Tue Feb  9 14:32:02 2016
GPGPU-Sim PTX: 800000 instructions simulated : ctaid=(1,0,0) tid=(15,7,0)
GPGPU-Sim PTX: 900000 instructions simulated : ctaid=(5,1,0) tid=(15,3,0)
GPGPU-Sim PTX: 1000000 instructions simulated : ctaid=(4,2,0) tid=(15,7,0)
GPGPU-Sim PTX: 1100000 instructions simulated : ctaid=(13,2,0) tid=(15,7,0)
GPGPU-Sim PTX: 1200000 instructions simulated : ctaid=(4,2,0) tid=(15,5,0)
GPGPU-Sim uArch: cycles simulated: 9000  inst.: 1272192 (ipc=141.4) sim_rate=254438 (inst/sec) elapsed = 0:0:00:05 / Tue Feb  9 14:32:03 2016
GPGPU-Sim PTX: 1300000 instructions simulated : ctaid=(14,3,0) tid=(15,3,0)
GPGPU-Sim PTX: 1400000 instructions simulated : ctaid=(6,0,0) tid=(15,7,0)
GPGPU-Sim PTX: 1500000 instructions simulated : ctaid=(7,3,0) tid=(15,1,0)
GPGPU-Sim PTX: 1600000 instructions simulated : ctaid=(13,3,0) tid=(15,1,0)
GPGPU-Sim PTX: 1700000 instructions simulated : ctaid=(2,0,0) tid=(15,5,0)
GPGPU-Sim PTX: 1800000 instructions simulated : ctaid=(15,0,0) tid=(15,5,0)
GPGPU-Sim uArch: cycles simulated: 10000  inst.: 1798464 (ipc=179.8) sim_rate=299744 (inst/sec) elapsed = 0:0:00:06 / Tue Feb  9 14:32:04 2016
GPGPU-Sim PTX: 1900000 instructions simulated : ctaid=(12,0,0) tid=(15,7,0)
GPGPU-Sim PTX: 2000000 instructions simulated : ctaid=(4,1,0) tid=(15,7,0)
GPGPU-Sim PTX: 2100000 instructions simulated : ctaid=(12,2,0) tid=(15,1,0)
GPGPU-Sim PTX: 2200000 instructions simulated : ctaid=(11,1,0) tid=(15,7,0)
GPGPU-Sim PTX: 2300000 instructions simulated : ctaid=(15,2,0) tid=(15,1,0)
GPGPU-Sim PTX: 2400000 instructions simulated : ctaid=(6,4,0) tid=(15,3,0)
GPGPU-Sim PTX: 2500000 instructions simulated : ctaid=(15,2,0) tid=(15,1,0)
GPGPU-Sim PTX: 2600000 instructions simulated : ctaid=(9,1,0) tid=(15,3,0)
GPGPU-Sim uArch: cycles simulated: 11000  inst.: 2552032 (ipc=232.0) sim_rate=364576 (inst/sec) elapsed = 0:0:00:07 / Tue Feb  9 14:32:05 2016
GPGPU-Sim PTX: 2700000 instructions simulated : ctaid=(13,0,0) tid=(15,7,0)
GPGPU-Sim PTX: 2800000 instructions simulated : ctaid=(11,2,0) tid=(15,3,0)
GPGPU-Sim PTX: 2900000 instructions simulated : ctaid=(2,3,0) tid=(15,3,0)
GPGPU-Sim PTX: 3000000 instructions simulated : ctaid=(2,3,0) tid=(15,7,0)
GPGPU-Sim PTX: 3100000 instructions simulated : ctaid=(3,4,0) tid=(15,1,0)
GPGPU-Sim PTX: 3200000 instructions simulated : ctaid=(3,2,0) tid=(15,3,0)
GPGPU-Sim uArch: cycles simulated: 12000  inst.: 3213920 (ipc=267.8) sim_rate=401740 (inst/sec) elapsed = 0:0:00:08 / Tue Feb  9 14:32:06 2016
GPGPU-Sim PTX: 3300000 instructions simulated : ctaid=(2,4,0) tid=(15,1,0)
GPGPU-Sim PTX: 3400000 instructions simulated : ctaid=(2,3,0) tid=(15,1,0)
GPGPU-Sim PTX: 3500000 instructions simulated : ctaid=(2,1,0) tid=(15,3,0)
GPGPU-Sim PTX: 3600000 instructions simulated : ctaid=(13,1,0) tid=(15,5,0)
GPGPU-Sim PTX: 3700000 instructions simulated : ctaid=(13,1,0) tid=(15,3,0)
GPGPU-Sim PTX: 3800000 instructions simulated : ctaid=(11,0,0) tid=(15,3,0)
GPGPU-Sim uArch: cycles simulated: 13500  inst.: 3729024 (ipc=276.2) sim_rate=414336 (inst/sec) elapsed = 0:0:00:09 / Tue Feb  9 14:32:07 2016
GPGPU-Sim PTX: 3900000 instructions simulated : ctaid=(1,0,0) tid=(15,1,0)
GPGPU-Sim PTX: 4000000 instructions simulated : ctaid=(6,3,0) tid=(15,1,0)
GPGPU-Sim PTX: 4100000 instructions simulated : ctaid=(6,3,0) tid=(15,3,0)
GPGPU-Sim PTX: 4200000 instructions simulated : ctaid=(9,1,0) tid=(15,5,0)
GPGPU-Sim PTX: 4300000 instructions simulated : ctaid=(15,2,0) tid=(15,3,0)
GPGPU-Sim uArch: cycles simulated: 15000  inst.: 4234944 (ipc=282.3) sim_rate=423494 (inst/sec) elapsed = 0:0:00:10 / Tue Feb  9 14:32:08 2016
GPGPU-Sim PTX: 4400000 instructions simulated : ctaid=(6,1,0) tid=(15,1,0)
GPGPU-Sim PTX: 4500000 instructions simulated : ctaid=(3,3,0) tid=(15,3,0)
GPGPU-Sim PTX: 4600000 instructions simulated : ctaid=(13,2,0) tid=(13,7,0)
GPGPU-Sim PTX: 4700000 instructions simulated : ctaid=(14,3,0) tid=(5,7,0)
GPGPU-Sim PTX: 4800000 instructions simulated : ctaid=(3,1,0) tid=(15,4,0)
GPGPU-Sim PTX: 4900000 instructions simulated : ctaid=(8,0,0) tid=(15,2,0)
GPGPU-Sim PTX: 5000000 instructions simulated : ctaid=(7,4,0) tid=(15,0,0)
GPGPU-Sim PTX: 5100000 instructions simulated : ctaid=(11,1,0) tid=(15,2,0)
GPGPU-Sim PTX: 5200000 instructions simulated : ctaid=(8,4,0) tid=(15,6,0)
GPGPU-Sim uArch: cycles simulated: 16500  inst.: 5119632 (ipc=310.3) sim_rate=465421 (inst/sec) elapsed = 0:0:00:11 / Tue Feb  9 14:32:09 2016
GPGPU-Sim PTX: 5300000 instructions simulated : ctaid=(4,2,0) tid=(15,2,0)
GPGPU-Sim PTX: 5400000 instructions simulated : ctaid=(12,1,0) tid=(8,0,0)
GPGPU-Sim PTX: 5500000 instructions simulated : ctaid=(14,2,0) tid=(2,5,0)
GPGPU-Sim PTX: 5600000 instructions simulated : ctaid=(13,2,0) tid=(12,4,0)
GPGPU-Sim uArch: cycles simulated: 17000  inst.: 5502961 (ipc=323.7) sim_rate=458580 (inst/sec) elapsed = 0:0:00:12 / Tue Feb  9 14:32:10 2016
GPGPU-Sim PTX: 5700000 instructions simulated : ctaid=(0,0,0) tid=(11,0,0)
GPGPU-Sim PTX: 5800000 instructions simulated : ctaid=(3,2,0) tid=(15,6,0)
GPGPU-Sim PTX: 5900000 instructions simulated : ctaid=(1,4,0) tid=(9,6,0)
GPGPU-Sim PTX: 6000000 instructions simulated : ctaid=(12,3,0) tid=(15,6,0)
GPGPU-Sim PTX: 6100000 instructions simulated : ctaid=(12,0,0) tid=(11,3,0)
GPGPU-Sim PTX: 6200000 instructions simulated : ctaid=(2,2,0) tid=(11,3,0)
GPGPU-Sim PTX: 6300000 instructions simulated : ctaid=(15,0,0) tid=(11,1,0)
GPGPU-Sim uArch: cycles simulated: 18500  inst.: 6120964 (ipc=330.9) sim_rate=470843 (inst/sec) elapsed = 0:0:00:13 / Tue Feb  9 14:32:11 2016
GPGPU-Sim PTX: 6400000 instructions simulated : ctaid=(1,1,0) tid=(11,1,0)
GPGPU-Sim PTX: 6500000 instructions simulated : ctaid=(11,0,0) tid=(2,2,0)
GPGPU-Sim PTX: 6600000 instructions simulated : ctaid=(8,0,0) tid=(11,3,0)
GPGPU-Sim PTX: 6700000 instructions simulated : ctaid=(11,3,0) tid=(11,5,0)
GPGPU-Sim PTX: 6800000 instructions simulated : ctaid=(12,3,0) tid=(11,3,0)
GPGPU-Sim uArch: cycles simulated: 20500  inst.: 6656516 (ipc=324.7) sim_rate=475465 (inst/sec) elapsed = 0:0:00:14 / Tue Feb  9 14:32:12 2016
GPGPU-Sim PTX: 6900000 instructions simulated : ctaid=(7,2,0) tid=(11,5,0)
GPGPU-Sim PTX: 7000000 instructions simulated : ctaid=(0,0,0) tid=(11,7,0)
GPGPU-Sim PTX: 7100000 instructions simulated : ctaid=(2,0,0) tid=(11,5,0)
GPGPU-Sim PTX: 7200000 instructions simulated : ctaid=(10,3,0) tid=(11,5,0)
GPGPU-Sim uArch: cycles simulated: 21500  inst.: 7060356 (ipc=328.4) sim_rate=470690 (inst/sec) elapsed = 0:0:00:15 / Tue Feb  9 14:32:13 2016
GPGPU-Sim PTX: 7300000 instructions simulated : ctaid=(5,0,0) tid=(11,1,0)
GPGPU-Sim PTX: 7400000 instructions simulated : ctaid=(10,3,0) tid=(11,7,0)
GPGPU-Sim PTX: 7500000 instructions simulated : ctaid=(13,2,0) tid=(11,3,0)
GPGPU-Sim PTX: 7600000 instructions simulated : ctaid=(6,3,0) tid=(11,5,0)
GPGPU-Sim PTX: 7700000 instructions simulated : ctaid=(9,3,0) tid=(11,1,0)
GPGPU-Sim uArch: cycles simulated: 23000  inst.: 7514500 (ipc=326.7) sim_rate=469656 (inst/sec) elapsed = 0:0:00:16 / Tue Feb  9 14:32:14 2016
GPGPU-Sim PTX: 7800000 instructions simulated : ctaid=(3,2,0) tid=(11,7,0)
GPGPU-Sim PTX: 7900000 instructions simulated : ctaid=(9,3,0) tid=(11,1,0)
GPGPU-Sim PTX: 8000000 instructions simulated : ctaid=(2,0,0) tid=(11,1,0)
GPGPU-Sim PTX: 8100000 instructions simulated : ctaid=(1,2,0) tid=(11,7,0)
GPGPU-Sim PTX: 8200000 instructions simulated : ctaid=(11,1,0) tid=(11,5,0)
GPGPU-Sim PTX: 8300000 instructions simulated : ctaid=(10,2,0) tid=(11,7,0)
GPGPU-Sim uArch: cycles simulated: 24500  inst.: 8110564 (ipc=331.0) sim_rate=477092 (inst/sec) elapsed = 0:0:00:17 / Tue Feb  9 14:32:15 2016
GPGPU-Sim PTX: 8400000 instructions simulated : ctaid=(1,3,0) tid=(11,1,0)
GPGPU-Sim PTX: 8500000 instructions simulated : ctaid=(12,0,0) tid=(11,1,0)
GPGPU-Sim PTX: 8600000 instructions simulated : ctaid=(9,3,0) tid=(11,7,0)
GPGPU-Sim PTX: 8700000 instructions simulated : ctaid=(7,3,0) tid=(1,1,0)
GPGPU-Sim PTX: 8800000 instructions simulated : ctaid=(2,3,0) tid=(7,5,0)
GPGPU-Sim PTX: 8900000 instructions simulated : ctaid=(1,4,0) tid=(11,7,0)
GPGPU-Sim PTX: 9000000 instructions simulated : ctaid=(4,3,0) tid=(7,1,0)
GPGPU-Sim PTX: 9100000 instructions simulated : ctaid=(7,1,0) tid=(10,4,0)
GPGPU-Sim uArch: cycles simulated: 25500  inst.: 8882172 (ipc=348.3) sim_rate=493454 (inst/sec) elapsed = 0:0:00:18 / Tue Feb  9 14:32:16 2016
GPGPU-Sim PTX: 9200000 instructions simulated : ctaid=(5,1,0) tid=(7,2,0)
GPGPU-Sim PTX: 9300000 instructions simulated : ctaid=(2,3,0) tid=(8,1,0)
GPGPU-Sim PTX: 9400000 instructions simulated : ctaid=(10,1,0) tid=(7,6,0)
GPGPU-Sim PTX: 9500000 instructions simulated : ctaid=(3,0,0) tid=(10,7,0)
GPGPU-Sim PTX: 9600000 instructions simulated : ctaid=(0,2,0) tid=(2,0,0)
GPGPU-Sim PTX: 9700000 instructions simulated : ctaid=(4,3,0) tid=(9,4,0)
GPGPU-Sim PTX: 9800000 instructions simulated : ctaid=(6,4,0) tid=(6,5,0)
GPGPU-Sim PTX: 9900000 instructions simulated : ctaid=(9,4,0) tid=(14,0,0)
GPGPU-Sim uArch: cycles simulated: 26500  inst.: 9637125 (ipc=363.7) sim_rate=507217 (inst/sec) elapsed = 0:0:00:19 / Tue Feb  9 14:32:17 2016
GPGPU-Sim PTX: 10000000 instructions simulated : ctaid=(1,4,0) tid=(14,7,0)
GPGPU-Sim PTX: 10100000 instructions simulated : ctaid=(15,0,0) tid=(15,1,0)
GPGPU-Sim PTX: 10200000 instructions simulated : ctaid=(14,1,0) tid=(1,1,0)
GPGPU-Sim uArch: cycles simulated: 28000  inst.: 10024873 (ipc=358.0) sim_rate=501243 (inst/sec) elapsed = 0:0:00:20 / Tue Feb  9 14:32:18 2016
GPGPU-Sim PTX: 10300000 instructions simulated : ctaid=(11,1,0) tid=(12,4,0)
GPGPU-Sim PTX: 10400000 instructions simulated : ctaid=(3,4,0) tid=(8,6,0)
GPGPU-Sim uArch: Shader 14 finished CTA #0 (28292,0), 4 CTAs running
GPGPU-Sim uArch: core: 14, cta: 0 initialized @(28293,0)
GPGPU-Sim uArch: Shader 1 finished CTA #1 (28370,0), 4 CTAs running
GPGPU-Sim uArch: core:  1, cta: 1 initialized @(28371,0)
GPGPU-Sim uArch: Shader 0 finished CTA #1 (28380,0), 4 CTAs running
GPGPU-Sim uArch: core:  0, cta: 1 initialized @(28381,0)
GPGPU-Sim uArch: Shader 0 finished CTA #0 (28390,0), 4 CTAs running
GPGPU-Sim uArch: core:  0, cta: 0 initialized @(28391,0)
GPGPU-Sim uArch: Shader 1 finished CTA #0 (28400,0), 4 CTAs running
GPGPU-Sim uArch: core:  1, cta: 0 initialized @(28401,0)
GPGPU-Sim uArch: Shader 2 finished CTA #0 (28404,0), 4 CTAs running
GPGPU-Sim uArch: core:  2, cta: 0 initialized @(28405,0)
GPGPU-Sim uArch: Shader 2 finished CTA #1 (28424,0), 4 CTAs running
GPGPU-Sim uArch: core:  2, cta: 1 initialized @(28425,0)
GPGPU-Sim uArch: Shader 4 finished CTA #1 (28432,0), 4 CTAs running
GPGPU-Sim uArch: core:  4, cta: 1 initialized @(28433,0)
GPGPU-Sim uArch: Shader 6 finished CTA #3 (28440,0), 4 CTAs running
GPGPU-Sim uArch: Shader 8 finished CTA #3 (28440,0), 4 CTAs running
GPGPU-Sim uArch: core:  6, cta: 3 initialized @(28441,0)
GPGPU-Sim uArch: core:  8, cta: 3 initialized @(28441,0)
GPGPU-Sim uArch: Shader 0 finished CTA #2 (28444,0), 4 CTAs running
GPGPU-Sim uArch: core:  0, cta: 2 initialized @(28445,0)
GPGPU-Sim uArch: Shader 1 finished CTA #2 (28448,0), 4 CTAs running
GPGPU-Sim uArch: core:  1, cta: 2 initialized @(28449,0)
GPGPU-Sim uArch: Shader 1 finished CTA #4 (28460,0), 4 CTAs running
GPGPU-Sim uArch: core:  1, cta: 4 initialized @(28461,0)
GPGPU-Sim uArch: Shader 1 finished CTA #3 (28474,0), 4 CTAs running
GPGPU-Sim uArch: Shader 9 finished CTA #4 (28474,0), 4 CTAs running
GPGPU-Sim uArch: core:  9, cta: 4 initialized @(28475,0)
GPGPU-Sim uArch: core:  1, cta: 3 initialized @(28475,0)
GPGPU-Sim uArch: Shader 4 finished CTA #2 (28480,0), 4 CTAs running
GPGPU-Sim uArch: core:  4, cta: 2 initialized @(28481,0)
GPGPU-Sim uArch: Shader 2 finished CTA #2 (28484,0), 4 CTAs running
GPGPU-Sim uArch: core:  2, cta: 2 initialized @(28485,0)
GPGPU-Sim uArch: Shader 6 finished CTA #2 (28488,0), 4 CTAs running
GPGPU-Sim uArch: core:  6, cta: 2 initialized @(28489,0)
GPGPU-Sim uArch: Shader 8 finished CTA #4 (28492,0), 4 CTAs running
GPGPU-Sim uArch: core:  8, cta: 4 initialized @(28493,0)
GPGPU-Sim uArch: Shader 9 finished CTA #3 (28499,0), 4 CTAs running
GPGPU-Sim uArch: core:  9, cta: 3 initialized @(28500,0)
GPGPU-Sim uArch: Shader 8 finished CTA #2 (28500,0), 4 CTAs running
GPGPU-Sim uArch: core:  8, cta: 2 initialized @(28501,0)
GPGPU-Sim uArch: Shader 2 finished CTA #3 (28502,0), 4 CTAs running
GPGPU-Sim uArch: core:  2, cta: 3 initialized @(28503,0)
GPGPU-Sim uArch: Shader 3 finished CTA #0 (28504,0), 4 CTAs running
GPGPU-Sim uArch: core:  3, cta: 0 initialized @(28505,0)
GPGPU-Sim uArch: Shader 4 finished CTA #3 (28508,0), 4 CTAs running
GPGPU-Sim uArch: Shader 6 finished CTA #4 (28508,0), 4 CTAs running
GPGPU-Sim uArch: core:  4, cta: 3 initialized @(28509,0)
GPGPU-Sim uArch: core:  6, cta: 4 initialized @(28509,0)
GPGPU-Sim uArch: Shader 4 finished CTA #4 (28518,0), 4 CTAs running
GPGPU-Sim uArch: core:  4, cta: 4 initialized @(28519,0)
GPGPU-Sim uArch: Shader 0 finished CTA #4 (28520,0), 4 CTAs running
GPGPU-Sim uArch: core:  0, cta: 4 initialized @(28521,0)
GPGPU-Sim uArch: Shader 2 finished CTA #4 (28522,0), 4 CTAs running
GPGPU-Sim uArch: core:  2, cta: 4 initialized @(28523,0)
GPGPU-Sim uArch: Shader 3 finished CTA #1 (28538,0), 4 CTAs running
GPGPU-Sim uArch: Shader 5 finished CTA #2 (28538,0), 4 CTAs running
GPGPU-Sim uArch: core:  3, cta: 1 initialized @(28539,0)
GPGPU-Sim uArch: core:  5, cta: 2 initialized @(28539,0)
GPGPU-Sim uArch: Shader 5 finished CTA #3 (28554,0), 4 CTAs running
GPGPU-Sim uArch: core:  5, cta: 3 initialized @(28555,0)
GPGPU-Sim PTX: 10500000 instructions simulated : ctaid=(10,0,0) tid=(8,7,0)
GPGPU-Sim uArch: Shader 0 finished CTA #3 (28580,0), 4 CTAs running
GPGPU-Sim uArch: core:  0, cta: 3 initialized @(28581,0)
GPGPU-Sim uArch: Shader 5 finished CTA #4 (28596,0), 4 CTAs running
GPGPU-Sim uArch: core:  5, cta: 4 initialized @(28597,0)
GPGPU-Sim uArch: Shader 7 finished CTA #3 (28605,0), 4 CTAs running
GPGPU-Sim uArch: core:  7, cta: 3 initialized @(28606,0)
GPGPU-Sim uArch: Shader 7 finished CTA #4 (28617,0), 4 CTAs running
GPGPU-Sim uArch: core:  7, cta: 4 initialized @(28618,0)
GPGPU-Sim uArch: Shader 3 finished CTA #4 (28644,0), 4 CTAs running
GPGPU-Sim uArch: core:  3, cta: 4 initialized @(28645,0)
GPGPU-Sim uArch: Shader 3 finished CTA #3 (28659,0), 4 CTAs running
GPGPU-Sim uArch: core:  3, cta: 3 initialized @(28660,0)
GPGPU-Sim uArch: Shader 3 finished CTA #2 (28748,0), 4 CTAs running
GPGPU-Sim uArch: core:  3, cta: 2 initialized @(28749,0)
GPGPU-Sim uArch: Shader 10 finished CTA #4 (28770,0), 4 CTAs running
GPGPU-Sim uArch: core: 10, cta: 4 initialized @(28771,0)
GPGPU-Sim PTX: 10600000 instructions simulated : ctaid=(12,5,0) tid=(13,3,0)
GPGPU-Sim uArch: cycles simulated: 29000  inst.: 10360393 (ipc=357.3) sim_rate=493352 (inst/sec) elapsed = 0:0:00:21 / Tue Feb  9 14:32:19 2016
GPGPU-Sim PTX: 10700000 instructions simulated : ctaid=(8,3,0) tid=(4,1,0)
GPGPU-Sim PTX: 10800000 instructions simulated : ctaid=(11,0,0) tid=(11,6,0)
GPGPU-Sim PTX: 10900000 instructions simulated : ctaid=(8,0,0) tid=(12,3,0)
GPGPU-Sim PTX: 11000000 instructions simulated : ctaid=(14,6,0) tid=(1,4,0)
GPGPU-Sim PTX: 11100000 instructions simulated : ctaid=(12,4,0) tid=(9,3,0)
GPGPU-Sim PTX: 11200000 instructions simulated : ctaid=(6,0,0) tid=(5,4,0)
GPGPU-Sim uArch: cycles simulated: 30500  inst.: 11001653 (ipc=360.7) sim_rate=500075 (inst/sec) elapsed = 0:0:00:22 / Tue Feb  9 14:32:20 2016
GPGPU-Sim PTX: 11300000 instructions simulated : ctaid=(7,6,0) tid=(3,2,0)
GPGPU-Sim PTX: 11400000 instructions simulated : ctaid=(9,2,0) tid=(5,5,0)
GPGPU-Sim PTX: 11500000 instructions simulated : ctaid=(14,6,0) tid=(3,5,0)
GPGPU-Sim PTX: 11600000 instructions simulated : ctaid=(11,4,0) tid=(14,3,0)
GPGPU-Sim PTX: 11700000 instructions simulated : ctaid=(9,4,0) tid=(11,4,0)
GPGPU-Sim PTX: 11800000 instructions simulated : ctaid=(11,6,0) tid=(12,2,0)
GPGPU-Sim uArch: cycles simulated: 31500  inst.: 11547601 (ipc=366.6) sim_rate=502069 (inst/sec) elapsed = 0:0:00:23 / Tue Feb  9 14:32:21 2016
GPGPU-Sim PTX: 11900000 instructions simulated : ctaid=(0,7,0) tid=(11,1,0)
GPGPU-Sim PTX: 12000000 instructions simulated : ctaid=(8,5,0) tid=(4,6,0)
GPGPU-Sim PTX: 12100000 instructions simulated : ctaid=(13,6,0) tid=(13,1,0)
GPGPU-Sim PTX: 12200000 instructions simulated : ctaid=(8,6,0) tid=(10,2,0)
GPGPU-Sim PTX: 12300000 instructions simulated : ctaid=(13,6,0) tid=(10,6,0)
GPGPU-Sim PTX: 12400000 instructions simulated : ctaid=(4,1,0) tid=(5,1,0)
GPGPU-Sim uArch: cycles simulated: 32500  inst.: 12158845 (ipc=374.1) sim_rate=506618 (inst/sec) elapsed = 0:0:00:24 / Tue Feb  9 14:32:22 2016
GPGPU-Sim PTX: 12500000 instructions simulated : ctaid=(1,5,0) tid=(11,5,0)
GPGPU-Sim PTX: 12600000 instructions simulated : ctaid=(2,5,0) tid=(11,0,0)
GPGPU-Sim PTX: 12700000 instructions simulated : ctaid=(11,4,0) tid=(7,5,0)
GPGPU-Sim uArch: Shader 14 finished CTA #2 (32921,0), 4 CTAs running
GPGPU-Sim uArch: core: 14, cta: 2 initialized @(32922,0)
GPGPU-Sim PTX: 12800000 instructions simulated : ctaid=(13,6,0) tid=(2,2,0)
GPGPU-Sim PTX: 12900000 instructions simulated : ctaid=(5,5,0) tid=(15,4,0)
GPGPU-Sim PTX: 13000000 instructions simulated : ctaid=(8,1,0) tid=(0,1,0)
GPGPU-Sim uArch: Shader 7 finished CTA #2 (33336,0), 4 CTAs running
GPGPU-Sim uArch: core:  7, cta: 2 initialized @(33337,0)
GPGPU-Sim uArch: cycles simulated: 33500  inst.: 12751018 (ipc=380.6) sim_rate=510040 (inst/sec) elapsed = 0:0:00:25 / Tue Feb  9 14:32:23 2016
GPGPU-Sim PTX: 13100000 instructions simulated : ctaid=(11,6,0) tid=(1,3,0)
GPGPU-Sim PTX: 13200000 instructions simulated : ctaid=(0,6,0) tid=(7,5,0)
GPGPU-Sim PTX: 13300000 instructions simulated : ctaid=(8,4,0) tid=(0,4,0)
GPGPU-Sim PTX: 13400000 instructions simulated : ctaid=(6,0,0) tid=(10,7,0)
GPGPU-Sim PTX: 13500000 instructions simulated : ctaid=(13,6,0) tid=(8,0,0)
GPGPU-Sim PTX: 13600000 instructions simulated : ctaid=(7,0,0) tid=(9,0,0)
GPGPU-Sim uArch: cycles simulated: 34500  inst.: 13276532 (ipc=384.8) sim_rate=510635 (inst/sec) elapsed = 0:0:00:26 / Tue Feb  9 14:32:24 2016
GPGPU-Sim PTX: 13700000 instructions simulated : ctaid=(9,4,0) tid=(13,0,0)
GPGPU-Sim PTX: 13800000 instructions simulated : ctaid=(9,5,0) tid=(5,5,0)
GPGPU-Sim PTX: 13900000 instructions simulated : ctaid=(3,6,0) tid=(8,6,0)
GPGPU-Sim PTX: 14000000 instructions simulated : ctaid=(15,6,0) tid=(8,6,0)
GPGPU-Sim PTX: 14100000 instructions simulated : ctaid=(5,6,0) tid=(12,5,0)
GPGPU-Sim PTX: 14200000 instructions simulated : ctaid=(9,6,0) tid=(3,0,0)
GPGPU-Sim uArch: cycles simulated: 35500  inst.: 13842158 (ipc=389.9) sim_rate=512672 (inst/sec) elapsed = 0:0:00:27 / Tue Feb  9 14:32:25 2016
GPGPU-Sim PTX: 14300000 instructions simulated : ctaid=(12,6,0) tid=(13,2,0)
GPGPU-Sim PTX: 14400000 instructions simulated : ctaid=(3,7,0) tid=(0,1,0)
GPGPU-Sim PTX: 14500000 instructions simulated : ctaid=(9,3,0) tid=(2,7,0)
GPGPU-Sim PTX: 14600000 instructions simulated : ctaid=(7,6,0) tid=(0,0,0)
GPGPU-Sim PTX: 14700000 instructions simulated : ctaid=(0,6,0) tid=(14,3,0)
GPGPU-Sim PTX: 14800000 instructions simulated : ctaid=(6,1,0) tid=(5,6,0)
GPGPU-Sim uArch: cycles simulated: 36500  inst.: 14447209 (ipc=395.8) sim_rate=515971 (inst/sec) elapsed = 0:0:00:28 / Tue Feb  9 14:32:26 2016
GPGPU-Sim PTX: 14900000 instructions simulated : ctaid=(14,5,0) tid=(14,4,0)
GPGPU-Sim PTX: 15000000 instructions simulated : ctaid=(1,5,0) tid=(12,2,0)
GPGPU-Sim PTX: 15100000 instructions simulated : ctaid=(15,5,0) tid=(14,3,0)
GPGPU-Sim PTX: 15200000 instructions simulated : ctaid=(9,4,0) tid=(9,0,0)
GPGPU-Sim PTX: 15300000 instructions simulated : ctaid=(7,5,0) tid=(12,3,0)
GPGPU-Sim PTX: 15400000 instructions simulated : ctaid=(11,6,0) tid=(6,6,0)
GPGPU-Sim uArch: cycles simulated: 37500  inst.: 14994227 (ipc=399.8) sim_rate=517042 (inst/sec) elapsed = 0:0:00:29 / Tue Feb  9 14:32:27 2016
GPGPU-Sim PTX: 15500000 instructions simulated : ctaid=(15,6,0) tid=(7,2,0)
GPGPU-Sim uArch: Shader 14 finished CTA #3 (37700,0), 4 CTAs running
GPGPU-Sim uArch: core: 14, cta: 3 initialized @(37701,0)
GPGPU-Sim PTX: 15600000 instructions simulated : ctaid=(1,5,0) tid=(10,4,0)
GPGPU-Sim PTX: 15700000 instructions simulated : ctaid=(7,1,0) tid=(15,6,0)
GPGPU-Sim PTX: 15800000 instructions simulated : ctaid=(11,6,0) tid=(6,7,0)
GPGPU-Sim PTX: 15900000 instructions simulated : ctaid=(9,4,0) tid=(5,2,0)
GPGPU-Sim PTX: 16000000 instructions simulated : ctaid=(7,2,0) tid=(9,7,0)
GPGPU-Sim uArch: cycles simulated: 39000  inst.: 15636424 (ipc=400.9) sim_rate=521214 (inst/sec) elapsed = 0:0:00:30 / Tue Feb  9 14:32:28 2016
GPGPU-Sim PTX: 16100000 instructions simulated : ctaid=(13,4,0) tid=(11,7,0)
GPGPU-Sim uArch: Shader 13 finished CTA #2 (39205,0), 4 CTAs running
GPGPU-Sim uArch: core: 13, cta: 2 initialized @(39206,0)
GPGPU-Sim PTX: 16200000 instructions simulated : ctaid=(2,7,0) tid=(1,4,0)
GPGPU-Sim PTX: 16300000 instructions simulated : ctaid=(10,0,0) tid=(8,2,0)
GPGPU-Sim PTX: 16400000 instructions simulated : ctaid=(1,6,0) tid=(11,3,0)
GPGPU-Sim PTX: 16500000 instructions simulated : ctaid=(9,5,0) tid=(11,1,0)
GPGPU-Sim uArch: cycles simulated: 40000  inst.: 16096176 (ipc=402.4) sim_rate=519231 (inst/sec) elapsed = 0:0:00:31 / Tue Feb  9 14:32:29 2016
GPGPU-Sim PTX: 16600000 instructions simulated : ctaid=(5,6,0) tid=(6,5,0)
GPGPU-Sim PTX: 16700000 instructions simulated : ctaid=(10,0,0) tid=(4,4,0)
GPGPU-Sim PTX: 16800000 instructions simulated : ctaid=(9,5,0) tid=(8,1,0)
GPGPU-Sim PTX: 16900000 instructions simulated : ctaid=(15,6,0) tid=(2,6,0)
GPGPU-Sim PTX: 17000000 instructions simulated : ctaid=(9,1,0) tid=(2,1,0)
GPGPU-Sim PTX: 17100000 instructions simulated : ctaid=(8,5,0) tid=(13,7,0)
GPGPU-Sim PTX: 17200000 instructions simulated : ctaid=(4,7,0) tid=(4,0,0)
GPGPU-Sim uArch: cycles simulated: 41500  inst.: 16821582 (ipc=405.3) sim_rate=525674 (inst/sec) elapsed = 0:0:00:32 / Tue Feb  9 14:32:30 2016
GPGPU-Sim PTX: 17300000 instructions simulated : ctaid=(5,5,0) tid=(3,4,0)
GPGPU-Sim uArch: Shader 5 finished CTA #1 (41658,0), 4 CTAs running
GPGPU-Sim uArch: core:  5, cta: 1 initialized @(41659,0)
GPGPU-Sim PTX: 17400000 instructions simulated : ctaid=(2,6,0) tid=(13,6,0)
GPGPU-Sim PTX: 17500000 instructions simulated : ctaid=(13,6,0) tid=(3,4,0)
GPGPU-Sim PTX: 17600000 instructions simulated : ctaid=(4,0,0) tid=(6,4,0)
GPGPU-Sim PTX: 17700000 instructions simulated : ctaid=(12,1,0) tid=(7,1,0)
GPGPU-Sim uArch: cycles simulated: 42500  inst.: 17312361 (ipc=407.3) sim_rate=524617 (inst/sec) elapsed = 0:0:00:33 / Tue Feb  9 14:32:31 2016
GPGPU-Sim PTX: 17800000 instructions simulated : ctaid=(2,7,0) tid=(12,6,0)
GPGPU-Sim PTX: 17900000 instructions simulated : ctaid=(0,7,0) tid=(3,5,0)
GPGPU-Sim PTX: 18000000 instructions simulated : ctaid=(1,5,0) tid=(10,2,0)
GPGPU-Sim PTX: 18100000 instructions simulated : ctaid=(14,5,0) tid=(5,6,0)
GPGPU-Sim uArch: Shader 11 finished CTA #4 (43183,0), 4 CTAs running
GPGPU-Sim uArch: core: 11, cta: 4 initialized @(43184,0)
GPGPU-Sim PTX: 18200000 instructions simulated : ctaid=(13,5,0) tid=(12,1,0)
GPGPU-Sim uArch: Shader 14 finished CTA #1 (43402,0), 4 CTAs running
GPGPU-Sim uArch: core: 14, cta: 1 initialized @(43403,0)
GPGPU-Sim uArch: Shader 14 finished CTA #0 (43426,0), 4 CTAs running
GPGPU-Sim uArch: core: 14, cta: 0 initialized @(43427,0)
GPGPU-Sim PTX: 18300000 instructions simulated : ctaid=(11,5,0) tid=(11,6,0)
GPGPU-Sim uArch: cycles simulated: 43500  inst.: 17813329 (ipc=409.5) sim_rate=523921 (inst/sec) elapsed = 0:0:00:34 / Tue Feb  9 14:32:32 2016
GPGPU-Sim uArch: Shader 4 finished CTA #2 (43595,0), 4 CTAs running
GPGPU-Sim uArch: core:  4, cta: 2 initialized @(43596,0)
GPGPU-Sim PTX: 18400000 instructions simulated : ctaid=(1,7,0) tid=(10,6,0)
GPGPU-Sim uArch: Shader 9 finished CTA #3 (43834,0), 4 CTAs running
GPGPU-Sim uArch: core:  9, cta: 3 initialized @(43835,0)
GPGPU-Sim uArch: Shader 4 finished CTA #0 (43853,0), 4 CTAs running
GPGPU-Sim uArch: core:  4, cta: 0 initialized @(43854,0)
GPGPU-Sim PTX: 18500000 instructions simulated : ctaid=(7,7,0) tid=(14,2,0)
GPGPU-Sim uArch: Shader 12 finished CTA #3 (43869,0), 4 CTAs running
GPGPU-Sim uArch: core: 12, cta: 3 initialized @(43870,0)
GPGPU-Sim uArch: Shader 4 finished CTA #1 (43894,0), 4 CTAs running
GPGPU-Sim uArch: core:  4, cta: 1 initialized @(43895,0)
GPGPU-Sim uArch: Shader 10 finished CTA #4 (44052,0), 4 CTAs running
GPGPU-Sim uArch: core: 10, cta: 4 initialized @(44053,0)
GPGPU-Sim PTX: 18600000 instructions simulated : ctaid=(3,7,0) tid=(11,4,0)
GPGPU-Sim uArch: Shader 13 finished CTA #1 (44210,0), 4 CTAs running
GPGPU-Sim uArch: core: 13, cta: 1 initialized @(44211,0)
GPGPU-Sim uArch: Shader 7 finished CTA #3 (44305,0), 4 CTAs running
GPGPU-Sim uArch: core:  7, cta: 3 initialized @(44306,0)
GPGPU-Sim uArch: Shader 13 finished CTA #3 (44326,0), 4 CTAs running
GPGPU-Sim uArch: core: 13, cta: 3 initialized @(44327,0)
GPGPU-Sim PTX: 18700000 instructions simulated : ctaid=(8,7,0) tid=(2,7,0)
GPGPU-Sim uArch: Shader 10 finished CTA #3 (44330,0), 4 CTAs running
GPGPU-Sim uArch: core: 10, cta: 3 initialized @(44331,0)
GPGPU-Sim uArch: Shader 13 finished CTA #0 (44336,0), 4 CTAs running
GPGPU-Sim uArch: core: 13, cta: 0 initialized @(44337,0)
GPGPU-Sim uArch: Shader 5 finished CTA #4 (44467,0), 4 CTAs running
GPGPU-Sim uArch: Shader 7 finished CTA #4 (44467,0), 4 CTAs running
GPGPU-Sim uArch: core:  5, cta: 4 initialized @(44468,0)
GPGPU-Sim uArch: core:  7, cta: 4 initialized @(44468,0)
GPGPU-Sim uArch: cycles simulated: 44500  inst.: 18273635 (ipc=410.6) sim_rate=522103 (inst/sec) elapsed = 0:0:00:35 / Tue Feb  9 14:32:33 2016
GPGPU-Sim PTX: 18800000 instructions simulated : ctaid=(15,7,0) tid=(4,0,0)
GPGPU-Sim uArch: Shader 4 finished CTA #3 (44726,0), 4 CTAs running
GPGPU-Sim uArch: core:  4, cta: 3 initialized @(44727,0)
GPGPU-Sim PTX: 18900000 instructions simulated : ctaid=(7,2,0) tid=(7,3,0)
GPGPU-Sim uArch: Shader 6 finished CTA #2 (44923,0), 4 CTAs running
GPGPU-Sim uArch: core:  6, cta: 2 initialized @(44924,0)
GPGPU-Sim uArch: Shader 0 finished CTA #1 (44986,0), 4 CTAs running
GPGPU-Sim uArch: core:  0, cta: 1 initialized @(44987,0)
[...]
traffic_breakdown_memtocore[LOCAL_ACC_W] = 354992 {8:44374,}
maxmrqlatency = 628 
maxdqlatency = 0 
maxmflatency = 1999 
averagemflatency = 253 
max_icnt2mem_latency = 1092 
max_icnt2sh_latency = 141977 
mrq_lat_table:5819 	308 	536 	1023 	1714 	2271 	2858 	1972 	272 	10 	0 	0 	0 	0 	0 	0 	0 	0 	0 	0 	0 	0 	0 	0 	0 	0 	0 	0 	0 	0 	0 	0 	
dq_lat_table:0 	0 	0 	0 	0 	0 	0 	0 	0 	0 	0 	0 	0 	0 	0 	0 	0 	0 	0 	0 	0 	0 	0 	0 	0 	0 	0 	0 	0 	0 	0 	0 	
mf_lat_table:0 	0 	0 	0 	0 	0 	0 	53061 	5161 	4698 	851 	0 	0 	0 	0 	0 	0 	0 	0 	0 	0 	0 	0 	0 	0 	0 	0 	0 	0 	0 	0 	0 	
icnt2mem_lat_table:0 	0 	0 	20779 	13284 	13562 	29398 	2247 	2229 	509 	4 	0 	0 	0 	0 	0 	0 	0 	0 	0 	0 	0 	0 	0 	
icnt2sh_lat_table:0 	0 	0 	4821 	4181 	1965 	238 	0 	0 	186 	498 	1378 	3108 	2630 	6116 	11139 	22675 	4836 	0 	0 	0 	0 	0 	0 	
mf_lat_pw_table:0 	0 	0 	0 	0 	0 	0 	237 	5 	17 	2 	0 	0 	0 	0 	0 	0 	0 	0 	0 	0 	0 	0 	0 	0 	0 	0 	0 	0 	0 	0 	0 	
maximum concurrent accesses to same row:
dram[0]:        54        56        36        34        26        22        16        18        18        18        14        12        10        12        20        18 
dram[1]:        52        54        34        32        20        22        16        18        16        14        10        10        14        12        16        16 
dram[2]:        62        62        54        56        30        30        20        20        24        22        20        20        14        18        20        20 
dram[3]:        58        60        54        56        28        30        18        22        22        16        10        14        12        14        16        16 
dram[4]:        62        64        56        52        30        32        18        20        22        22        18        18        12        16        18        20 
dram[5]:        58        60        56        48        28        34        22        18        20        22        16        12        12        14        16        20 
maximum service time to same row:
dram[0]:      5794      2330      1495      1813      1732      1365     20483      1760     36176     37042     57549     62529     92204     94377    118393    119166 
dram[1]:      6503      2456      1681      1681      1478      1408     19868     20021     35898     36832     58529     63417     92830     94944    118005    118845 
dram[2]:     10794      5750      2116      2835      1819      1842     20327     20498     37200     36268     62563     57592     94405     92176    119076    118527 
dram[3]:      9054      6169      4079      4526      1683      1815     19861     19738     36475     36081     63447     58268     94596     92562    118627    118036 
dram[4]:      9882     11153      3198      2002      1640      1733     20295      2239     36447     37001     57506     62488     92193     94409    118582    119155 
dram[5]:     10191      5788      2147      2000      1614      1740      2044     20239     35913     37187     58391     63575     92831     95317    118026    118817 
average row accesses per activate:
dram[0]: 10.230769 10.153846  8.000000  8.000000  4.696970  4.750000  5.230769  4.761905  7.370370  8.120000  8.080000  6.483871  6.303030  7.481482  8.380953  7.200000 
dram[1]:  7.882353 12.000000  7.111111  5.818182  4.967742  4.285714  6.580645  5.771429  7.407407  6.931035  7.034483  7.960000  7.068965  7.629630  8.238095  7.652174 
dram[2]: 13.300000 26.400000 12.800000 12.800000  6.160000  4.485714  7.250000  5.342105  8.160000  7.407407  7.592593  7.370370  8.120000  8.869565  8.428572  7.565217 
dram[3]: 10.153846 18.857143 21.333334 12.800000  5.033333  4.757576  5.315790  5.210526  8.120000  7.333333  6.862069  8.913043  7.357143  7.444445  7.160000  7.521739 
dram[4]: 14.666667 44.000000 12.800000 12.800000  4.696970  5.448276  6.406250  5.405406  9.619047  7.370370  6.896552  7.068965  7.034483  6.548387  7.565217  8.333333 
dram[5]: 11.000000 16.500000 12.800000  8.000000  5.066667  4.636364  5.153846  6.090909  8.000000  8.040000  8.826087  6.896552  8.080000  9.809524 10.117647  8.428572 
average row locality = 16783/2309 = 7.268515
number of total memory accesses made:
dram[0]:         0         0         0         0         0         0         0         0         0         0         0         0         0         0         0         0 
dram[1]:         0         0         0         0         0         0         0         0         0         0         0         0         0         0         0         0 
dram[2]:         0         0         0         0         0         0         0         0         0         0         0         0         0         0         0         0 
dram[3]:         0         0         0         0         0         0         0         0         0         0         0         0         0         0         0         0 
dram[4]:         0         0         0         0         0         0         0         0         0         0         0         0         0         0         0         0 
dram[5]:         0         0         0         0         0         0         0         0         0         0         0         0         0         0         0         0 
total accesses: 0
min_bank_accesses = 0!
min_chip_accesses = 0!
number of total read accesses:
dram[0]:        69        68        64        64        74        74        96        96        96        96        96        96        96        96        84        84 
dram[1]:        70        68        64        64        74        74        96        96        96        96        96        96        96        96        84        84 
dram[2]:        69        68        64        64        74        76        96        96        96        96        96        96        96        96        84        84 
dram[3]:        68        68        64        64        74        76        96        96        96        96        96        96        96        96        84        84 
dram[4]:        68        68        64        64        74        76        96        96        96        96        96        96        96        96        84        84 
dram[5]:        68        68        64        64        74        76        96        96        96        96        96        96        96        96        84        84 
total reads: 8100
bank skew: 96/64 = 1.50
chip skew: 1351/1349 = 1.00
number of total write accesses:
dram[0]:        64        64        64        64        81        78       108       104       103       107       106       105       112       106        92        96 
dram[1]:        64        64        64        64        80        76       108       106       104       105       108       103       109       110        89        92 
dram[2]:        64        64        64        64        80        81       107       107       108       104       109       103       107       108        93        90 
dram[3]:        64        64        64        64        77        81       106       102       107       102       103       109       110       105        95        89 
dram[4]:        64        64        64        64        81        82       109       104       106       103       104       109       108       107        90        91 
dram[5]:        64        64        64        64        78        77       105       105       104       105       107       104       106       110        88        93 
total reads: 8683
bank skew: 112/64 = 1.75
chip skew: 1454/1438 = 1.01
average mf latency per bank:
dram[0]:       1253      1024      1202      1142      1109      1068      1000       957       936       900       908       901       845       886       858       832
dram[1]:       1216      1054      1098      1089      1066      1016       974       891       867       873       860       860       828       809       842       806
dram[2]:       1114      1190      1250      1268      1096      1067       995       994       906       915       894       899       881       853       874       840
dram[3]:       1058      1185      1217      1248      1048      1048       920       949       885       874       854       873       841       824       829       860
dram[4]:       1208      1068      1290      1275      1125      1136      1043      1010       947       991       946       933       889       926       913       908
dram[5]:       1104      1042      1232      1145      1004      1018       946       948       888       885       878       882       823       833       865       813
maximum mf latency per bank:
dram[0]:       1295      1076      1674      1172      1999      1319      1373      1228      1356      1063      1289      1102      1497      1213      1244      1127
dram[1]:        985      1005      1318      1232      1284      1323      1277      1039      1064      1028      1095      1028       988       904       947       966
dram[2]:       1315      1333      1762      1750      1536      1530      1661      1442      1351      1508      1234      1318      1445      1273      1189      1332
dram[3]:       1138      1370      1535      1699      1341      1483      1218      1450      1156      1089      1000      1198      1148      1183      1053      1123
dram[4]:       1393      1514      1843      1844      1677      1619      1533      1589      1552      1374      1286      1359      1410      1402      1490      1311
dram[5]:       1365      1329      1802      1570      1635      1549      1784      1704      1337      1271      1235      1223      1320      1238      1312      1264

Number of Memory Banks Accessed per Memory Operation per Warp (from 0):
0	0	0	0	0	0	0	0	0	0	0	0	0	0	0	0	0	0	0	0	0	0	0	0	0	0	0	0	0	0	0	0	0	0	0	0	0	0	0	0	0	0	0	0	0	0	0	0	0	0	0	0	0	0	0	0	0	0	0	0	0	0	0	0	0	0	0	0	0	0	0	0	0	0	0	0	0	0	0	0	0	0	0	0	0	0	0	0	0	0	0	0	0	0	0	0	
Average # of Memory Banks Accessed per Memory Operation per Warp=-nan

position of mrq chosen
0	0	0	0	0	0	0	0	0	0	0	0	0	0	0	0	

average position of mrq chosen = -nan
Memory Partition 0: 
Cache L2_bank_000:
MSHR contents

Cache L2_bank_001:
MSHR contents

In Dram Latency Queue (total = 0): 
DRAM[0]: 16 bks, busW=4 BL=8 CL=12, tRRD=2 tCCD=6, tRCD=12 tRAS=28 tRP=12 tRC=40
n_cmd=187410 n_nop=181438 n_act=418 n_pre=402 n_req=2803 n_rd=2698 n_write=2454 nbytes_uncomp=329728 nbytes_comp=329728 bw_util=0.05498
n_activity=20934 dram_eff=0.4922
bk0: 138a 182486i bk1: 136a 182967i bk2: 128a 181642i bk3: 128a 182046i bk4: 148a 179971i bk5: 148a 180401i bk6: 192a 178296i bk7: 192a 178922i bk8: 192a 180658i bk9: 192a 180697i bk10: 192a 180270i bk11: 192a 180546i bk12: 192a 180039i bk13: 192a 180364i bk14: 168a 181277i bk15: 168a 181298i 
dram_util_bins: 0 0 0 0 0 0 0 0 0 0
dram_eff_bins: 0 0 0 0 0 0 0 0 0 0
mrqq: max=16 avg=1.00664
Memory Partition 1: 
Cache L2_bank_002:
MSHR contents

Cache L2_bank_003:
MSHR contents

In Dram Latency Queue (total = 0): 
DRAM[1]: 16 bks, busW=4 BL=8 CL=12, tRRD=2 tCCD=6, tRCD=12 tRAS=28 tRP=12 tRC=40
n_cmd=187410 n_nop=181460 n_act=410 n_pre=394 n_req=2796 n_rd=2700 n_write=2446 nbytes_uncomp=329344 nbytes_comp=329344 bw_util=0.05492
n_activity=21089 dram_eff=0.488
bk0: 140a 182111i bk1: 136a 182705i bk2: 128a 181763i bk3: 128a 181792i bk4: 148a 179633i bk5: 148a 179740i bk6: 192a 178614i bk7: 192a 179231i bk8: 192a 180554i bk9: 192a 180316i bk10: 192a 180678i bk11: 192a 180205i bk12: 192a 179841i bk13: 192a 180856i bk14: 168a 181700i bk15: 168a 181385i 
dram_util_bins: 0 0 0 0 0 0 0 0 0 0
dram_eff_bins: 0 0 0 0 0 0 0 0 0 0
mrqq: max=16 avg=0.960936
Memory Partition 2: 
Cache L2_bank_004:
MSHR contents

Cache L2_bank_005:
MSHR contents

In Dram Latency Queue (total = 0): 
DRAM[2]: 16 bks, busW=4 BL=8 CL=12, tRRD=2 tCCD=6, tRCD=12 tRAS=28 tRP=12 tRC=40
n_cmd=187410 n_nop=181553 n_act=359 n_pre=343 n_req=2804 n_rd=2702 n_write=2453 nbytes_uncomp=329920 nbytes_comp=329920 bw_util=0.05501
n_activity=20866 dram_eff=0.4941
bk0: 138a 182505i bk1: 136a 182993i bk2: 128a 182543i bk3: 128a 182141i bk4: 148a 180419i bk5: 152a 180335i bk6: 192a 178456i bk7: 192a 178680i bk8: 192a 180519i bk9: 192a 180639i bk10: 192a 180215i bk11: 192a 180761i bk12: 192a 180211i bk13: 192a 179979i bk14: 168a 181273i bk15: 168a 181375i 
dram_util_bins: 0 0 0 0 0 0 0 0 0 0
dram_eff_bins: 0 0 0 0 0 0 0 0 0 0
mrqq: max=16 avg=1.01162
Memory Partition 3: 
Cache L2_bank_006:
MSHR contents

Cache L2_bank_007:
MSHR contents

In Dram Latency Queue (total = 0): 
DRAM[3]: 16 bks, busW=4 BL=8 CL=12, tRRD=2 tCCD=6, tRCD=12 tRAS=28 tRP=12 tRC=40
n_cmd=187410 n_nop=181520 n_act=382 n_pre=366 n_req=2792 n_rd=2700 n_write=2442 nbytes_uncomp=329088 nbytes_comp=329088 bw_util=0.05487
n_activity=21390 dram_eff=0.4808
bk0: 136a 183069i bk1: 136a 182632i bk2: 128a 182366i bk3: 128a 182110i bk4: 148a 181005i bk5: 152a 180481i bk6: 192a 179402i bk7: 192a 179358i bk8: 192a 180865i bk9: 192a 180688i bk10: 192a 180388i bk11: 192a 180030i bk12: 192a 180435i bk13: 192a 180427i bk14: 168a 181376i bk15: 168a 181388i 
dram_util_bins: 0 0 0 0 0 0 0 0 0 0
dram_eff_bins: 0 0 0 0 0 0 0 0 0 0
mrqq: max=16 avg=0.980636
Memory Partition 4: 
Cache L2_bank_008:
MSHR contents

Cache L2_bank_009:
MSHR contents

In Dram Latency Queue (total = 0): 
DRAM[4]: 16 bks, busW=4 BL=8 CL=12, tRRD=2 tCCD=6, tRCD=12 tRAS=28 tRP=12 tRC=40
n_cmd=187410 n_nop=181530 n_act=373 n_pre=357 n_req=2800 n_rd=2700 n_write=2450 nbytes_uncomp=329600 nbytes_comp=329600 bw_util=0.05496
n_activity=20835 dram_eff=0.4944
bk0: 136a 182800i bk1: 136a 183266i bk2: 128a 182207i bk3: 128a 182245i bk4: 148a 180057i bk5: 152a 180077i bk6: 192a 178348i bk7: 192a 178779i bk8: 192a 180245i bk9: 192a 180167i bk10: 192a 180169i bk11: 192a 180210i bk12: 192a 179987i bk13: 192a 179840i bk14: 168a 181395i bk15: 168a 181439i 
dram_util_bins: 0 0 0 0 0 0 0 0 0 0
dram_eff_bins: 0 0 0 0 0 0 0 0 0 0
mrqq: max=16 avg=1.03849
Memory Partition 5: 
Cache L2_bank_010:
MSHR contents

Cache L2_bank_011:
MSHR contents

In Dram Latency Queue (total = 0): 
DRAM[5]: 16 bks, busW=4 BL=8 CL=12, tRRD=2 tCCD=6, tRCD=12 tRAS=28 tRP=12 tRC=40
n_cmd=187410 n_nop=181554 n_act=367 n_pre=351 n_req=2788 n_rd=2700 n_write=2438 nbytes_uncomp=328832 nbytes_comp=328832 bw_util=0.05483
n_activity=21342 dram_eff=0.4815
bk0: 136a 182497i bk1: 136a 183031i bk2: 128a 182035i bk3: 128a 182285i bk4: 148a 180086i bk5: 152a 180633i bk6: 192a 178917i bk7: 192a 179549i bk8: 192a 180784i bk9: 192a 180622i bk10: 192a 180889i bk11: 192a 180452i bk12: 192a 180216i bk13: 192a 180239i bk14: 168a 181720i bk15: 168a 181276i 
dram_util_bins: 0 0 0 0 0 0 0 0 0 0
dram_eff_bins: 0 0 0 0 0 0 0 0 0 0
mrqq: max=16 avg=0.958481

========= L2 cache stats =========
L2_cache_bank[0]: Access = 6749, Miss = 675, Miss_rate = 0.100, Pending_hits = 75, Reservation_fails = 918
L2_cache_bank[1]: Access = 6869, Miss = 674, Miss_rate = 0.098, Pending_hits = 66, Reservation_fails = 591
L2_cache_bank[2]: Access = 6802, Miss = 676, Miss_rate = 0.099, Pending_hits = 74, Reservation_fails = 833
L2_cache_bank[3]: Access = 6793, Miss = 674, Miss_rate = 0.099, Pending_hits = 62, Reservation_fails = 384
L2_cache_bank[4]: Access = 6591, Miss = 675, Miss_rate = 0.102, Pending_hits = 77, Reservation_fails = 839
L2_cache_bank[5]: Access = 6862, Miss = 676, Miss_rate = 0.099, Pending_hits = 61, Reservation_fails = 389
L2_cache_bank[6]: Access = 6767, Miss = 674, Miss_rate = 0.100, Pending_hits = 68, Reservation_fails = 374
L2_cache_bank[7]: Access = 6988, Miss = 676, Miss_rate = 0.097, Pending_hits = 56, Reservation_fails = 300
L2_cache_bank[8]: Access = 7048, Miss = 674, Miss_rate = 0.096, Pending_hits = 68, Reservation_fails = 627
L2_cache_bank[9]: Access = 6840, Miss = 676, Miss_rate = 0.099, Pending_hits = 61, Reservation_fails = 272
L2_cache_bank[10]: Access = 6935, Miss = 674, Miss_rate = 0.097, Pending_hits = 58, Reservation_fails = 630
L2_cache_bank[11]: Access = 6768, Miss = 676, Miss_rate = 0.100, Pending_hits = 62, Reservation_fails = 336
L2_total_cache_accesses = 82012
L2_total_cache_misses = 8100
L2_total_cache_miss_rate = 0.0988
L2_total_cache_pending_hits = 788
L2_total_cache_reservation_fails = 6493
L2_total_cache_breakdown:
	L2_cache_stats_breakdown[GLOBAL_ACC_R][HIT] = 3833
	L2_cache_stats_breakdown[GLOBAL_ACC_R][HIT_RESERVED] = 6
	L2_cache_stats_breakdown[GLOBAL_ACC_R][MISS] = 2
	L2_cache_stats_breakdown[GLOBAL_ACC_R][RESERVATION_FAIL] = 320
	L2_cache_stats_breakdown[LOCAL_ACC_R][HIT] = 7334
	L2_cache_stats_breakdown[CONST_ACC_R][HIT] = 22
	L2_cache_stats_breakdown[CONST_ACC_R][HIT_RESERVED] = 6
	L2_cache_stats_breakdown[CONST_ACC_R][MISS] = 2
	L2_cache_stats_breakdown[CONST_ACC_R][RESERVATION_FAIL] = 574
	L2_cache_stats_breakdown[GLOBAL_ACC_W][HIT] = 5509
	L2_cache_stats_breakdown[GLOBAL_ACC_W][HIT_RESERVED] = 635
	L2_cache_stats_breakdown[GLOBAL_ACC_W][MISS] = 2048
	L2_cache_stats_breakdown[GLOBAL_ACC_W][RESERVATION_FAIL] = 7
	L2_cache_stats_breakdown[LOCAL_ACC_W][HIT] = 38374
	L2_cache_stats_breakdown[LOCAL_ACC_W][MISS] = 6000
	L2_cache_stats_breakdown[LOCAL_ACC_W][RESERVATION_FAIL] = 177
	L2_cache_stats_breakdown[L1_WRBK_ACC][HIT] = 4992
	L2_cache_stats_breakdown[INST_ACC_R][HIT] = 13060
	L2_cache_stats_breakdown[INST_ACC_R][HIT_RESERVED] = 141
	L2_cache_stats_breakdown[INST_ACC_R][MISS] = 48
	L2_cache_stats_breakdown[INST_ACC_R][RESERVATION_FAIL] = 5415
L2_cache_data_port_util = 0.163
L2_cache_fill_port_util = 0.019

icnt_total_pkts_mem_to_simt=174776
icnt_total_pkts_simt_to_mem=292642
LD_mem_lat_dist  0 0 0 0 0 0 0 0 0 0 0 0 0 0 0 0 0 0 0 0 0 0 0 0 0 0 0
ST_mem_lat_dist  0 0 0 0 0 0 0 0 0 0 0 0 0 0 0 0 0 0 0 0 0 0 0 0 0 0 0
----------------------------Interconnect-DETAILS--------------------------------
Class 0:
Packet latency average = 17.3776
	minimum = 6
	maximum = 703
Network latency average = 13.621
	minimum = 6
	maximum = 678
Slowest packet = 707
Flit latency average = 12.7113
	minimum = 6
	maximum = 674
Slowest flit = 10925
Fragmentation average = 0.108972
	minimum = 0
	maximum = 551
Injected packet rate average = 0.0414858
	minimum = 0.0351604 (at node 2)
	maximum = 0.0466833 (at node 23)
Accepted packet rate average = 0.0414858
	minimum = 0.0335756 (at node 2)
	maximum = 0.0496415 (at node 23)
Injected flit rate average = 0.121933
	minimum = 0.0957543 (at node 19)
	maximum = 0.147368 (at node 5)
Accepted flit rate average= 0.121933
	minimum = 0.0692431 (at node 0)
	maximum = 0.17602 (at node 23)
Injected packet length average = 2.93914
Accepted packet length average = 2.93914
Total in-flight flits = 0 (0 measured)
====== Overall Traffic Statistics ======
====== Traffic class 0 ======
Packet latency average = 17.3776 (1 samples)
	minimum = 6 (1 samples)
	maximum = 703 (1 samples)
Network latency average = 13.621 (1 samples)
	minimum = 6 (1 samples)
	maximum = 678 (1 samples)
Flit latency average = 12.7113 (1 samples)
	minimum = 6 (1 samples)
	maximum = 674 (1 samples)
Fragmentation average = 0.108972 (1 samples)
	minimum = 0 (1 samples)
	maximum = 551 (1 samples)
Injected packet rate average = 0.0414858 (1 samples)
	minimum = 0.0351604 (1 samples)
	maximum = 0.0466833 (1 samples)
Accepted packet rate average = 0.0414858 (1 samples)
	minimum = 0.0335756 (1 samples)
	maximum = 0.0496415 (1 samples)
Injected flit rate average = 0.121933 (1 samples)
	minimum = 0.0957543 (1 samples)
	maximum = 0.147368 (1 samples)
Accepted flit rate average = 0.121933 (1 samples)
	minimum = 0.0692431 (1 samples)
	maximum = 0.17602 (1 samples)
Injected packet size average = 2.93914 (1 samples)
Accepted packet size average = 2.93914 (1 samples)
Hops average = 1 (1 samples)
----------------------------END-of-Interconnect-DETAILS-------------------------


gpgpu_simulation_time = 0 days, 0 hrs, 2 min, 3 sec (123 sec)
gpgpu_simulation_rate = 509614 (inst/sec)
gpgpu_simulation_rate = 1154 (cycle/sec)
GPGPU-Sim: synchronize waiting for inactive GPU simulation
GPGPU-Sim API: Stream Manager State
GPGPU-Sim: detected inactive GPU simulation thread

checksum=75ef40cb5b8e
Kernel Time: 122442.132812 
