

        *** GPGPU-Sim Simulator Version 3.2.2  [build 0] ***


GPGPU-Sim PTX: simulation mode 0 (can change with PTX_SIM_MODE_FUNC environment variable:
               1=functional simulation only, 0=detailed performance simulator)
GPGPU-Sim: Configuration options:

-network_mode                           1 # Interconnection network mode
-inter_config_file   config_fermi_islip.icnt # Interconnection network config file
-gpgpu_ptx_use_cuobjdump                    1 # Use cuobjdump to extract ptx and sass from binaries
-gpgpu_experimental_lib_support                    0 # Try to extract code from cuda libraries [Broken because of unknown cudaGetExportTable]
-gpgpu_ptx_convert_to_ptxplus                    0 # Convert SASS (native ISA) to ptxplus and run ptxplus
-gpgpu_ptx_force_max_capability                   20 # Force maximum compute capability
-gpgpu_ptx_inst_debug_to_file                    0 # Dump executed instructions' debug information to file
-gpgpu_ptx_inst_debug_file       inst_debug.txt # Executed instructions' debug output file
-gpgpu_ptx_inst_debug_thread_uid                    1 # Thread UID for executed instructions' debug output
-gpgpu_simd_model                       1 # 1 = post-dominator
-gpgpu_shader_core_pipeline              1536:32 # shader core pipeline config, i.e., {<nthread>:<warpsize>}
-gpgpu_tex_cache:l1  4:128:24,L:R:m:N:L,F:128:4,128:2 # per-shader L1 texture cache  (READ-ONLY) config  {<nsets>:<bsize>:<assoc>,<rep>:<wr>:<alloc>:<wr_alloc>,<mshr>:<N>:<merge>,<mq>:<rf>}
-gpgpu_const_cache:l1 64:64:2,L:R:f:N:L,A:2:32,4 # per-shader L1 constant memory cache  (READ-ONLY) config  {<nsets>:<bsize>:<assoc>,<rep>:<wr>:<alloc>:<wr_alloc>,<mshr>:<N>:<merge>,<mq>} 
-gpgpu_cache:il1     4:128:4,L:R:f:N:L,A:2:32,4 # shader L1 instruction cache config  {<nsets>:<bsize>:<assoc>,<rep>:<wr>:<alloc>:<wr_alloc>,<mshr>:<N>:<merge>,<mq>} 
-gpgpu_cache:dl1     32:128:4,L:L:m:N:H,A:32:8,8:2,0,1:0:1:1:0:1,1:4:8:16:32:64,/sciclone/data10/hwang07/GPU_RESEARCH/swl/swl_outputs/RESULTS/twolevel601/ # per-shader L1 data cache config  {<nsets>:<bsize>:<assoc>,<rep>:<wr>:<alloc>:<wr_alloc>,<mshr>:<N>:<merge>,<mq> | none}
-gpgpu_cache:dl1PrefL1                 none # per-shader L1 data cache config  {<nsets>:<bsize>:<assoc>,<rep>:<wr>:<alloc>:<wr_alloc>,<mshr>:<N>:<merge>,<mq> | none}
-gpgpu_cache:dl1PreShared                 none # per-shader L1 data cache config  {<nsets>:<bsize>:<assoc>,<rep>:<wr>:<alloc>:<wr_alloc>,<mshr>:<N>:<merge>,<mq> | none}
-gmem_skip_L1D                          0 # global memory access skip L1D cache (implements -Xptxas -dlcm=cg, default=no skip)
-gpgpu_perfect_mem                      0 # enable perfect memory mode (no cache miss)
-n_regfile_gating_group                    4 # group of lanes that should be read/written together)
-gpgpu_clock_gated_reg_file                    0 # enable clock gated reg file for power calculations
-gpgpu_clock_gated_lanes                    0 # enable clock gated lanes for power calculations
-gpgpu_shader_registers                32768 # Number of registers per shader core. Limits number of concurrent CTAs. (default 8192)
-gpgpu_shader_cta                       8 # Maximum number of concurrent CTAs in shader (default 8)
-gpgpu_num_cta_barriers                   16 # Maximum number of named barriers per CTA (default 16)
-gpgpu_n_clusters                      15 # number of processing clusters
-gpgpu_n_cores_per_cluster                    1 # number of simd cores per cluster
-gpgpu_n_cluster_ejection_buffer_size                    8 # number of packets in ejection buffer
-gpgpu_n_ldst_response_buffer_size                    2 # number of response packets in ld/st unit ejection buffer
-gpgpu_shmem_size                   16384 # Size of shared memory per shader core (default 16kB)
-gpgpu_shmem_size                   49152 # Size of shared memory per shader core (default 16kB)
-gpgpu_shmem_size_PrefL1                16384 # Size of shared memory per shader core (default 16kB)
-gpgpu_shmem_size_PrefShared                16384 # Size of shared memory per shader core (default 16kB)
-gpgpu_shmem_num_banks                   32 # Number of banks in the shared memory in each shader core (default 16)
-gpgpu_shmem_limited_broadcast                    0 # Limit shared memory to do one broadcast per cycle (default on)
-gpgpu_shmem_warp_parts                    1 # Number of portions a warp is divided into for shared memory bank conflict check 
-gpgpu_warpdistro_shader                   -1 # Specify which shader core to collect the warp size distribution from
-gpgpu_warp_issue_shader                    0 # Specify which shader core to collect the warp issue distribution from
-gpgpu_local_mem_map                    1 # Mapping from local memory space address to simulated GPU physical address space (default = enabled)
-gpgpu_num_reg_banks                   16 # Number of register banks (default = 8)
-gpgpu_reg_bank_use_warp_id                    0 # Use warp ID in mapping registers to banks (default = off)
-gpgpu_operand_collector_num_units_sp                    6 # number of collector units (default = 4)
-gpgpu_operand_collector_num_units_sfu                    8 # number of collector units (default = 4)
-gpgpu_operand_collector_num_units_mem                    2 # number of collector units (default = 2)
-gpgpu_operand_collector_num_units_gen                    0 # number of collector units (default = 0)
-gpgpu_operand_collector_num_in_ports_sp                    2 # number of collector unit in ports (default = 1)
-gpgpu_operand_collector_num_in_ports_sfu                    1 # number of collector unit in ports (default = 1)
-gpgpu_operand_collector_num_in_ports_mem                    1 # number of collector unit in ports (default = 1)
-gpgpu_operand_collector_num_in_ports_gen                    0 # number of collector unit in ports (default = 0)
-gpgpu_operand_collector_num_out_ports_sp                    2 # number of collector unit in ports (default = 1)
-gpgpu_operand_collector_num_out_ports_sfu                    1 # number of collector unit in ports (default = 1)
-gpgpu_operand_collector_num_out_ports_mem                    1 # number of collector unit in ports (default = 1)
-gpgpu_operand_collector_num_out_ports_gen                    0 # number of collector unit in ports (default = 0)
-gpgpu_coalesce_arch                   13 # Coalescing arch (default = 13, anything else is off for now)
-gpgpu_num_sched_per_core                    2 # Number of warp schedulers per core
-gpgpu_max_insn_issue_per_warp                    1 # Max number of instructions that can be issued per warp in one cycle by scheduler
-gpgpu_simt_core_sim_order                    1 # Select the simulation order of cores in a cluster (0=Fix, 1=Round-Robin)
-gpgpu_pipeline_widths        2,1,1,2,1,1,2 # Pipeline widths ID_OC_SP,ID_OC_SFU,ID_OC_MEM,OC_EX_SP,OC_EX_SFU,OC_EX_MEM,EX_WB
-gpgpu_num_sp_units                     2 # Number of SP units (default=1)
-gpgpu_num_sfu_units                    1 # Number of SF units (default=1)
-gpgpu_num_mem_units                    1 # Number if ldst units (default=1) WARNING: not hooked up to anything
-gpgpu_scheduler     two_level_active:6:0:1 # Scheduler configuration: < lrr | gto | two_level_active > If two_level_active:<num_active_warps>:<inner_prioritization>:<outer_prioritization>For complete list of prioritization values see shader.h enum scheduler_prioritization_typeDefault: gto
-gpgpu_dram_scheduler                    1 # 0 = fifo, 1 = FR-FCFS (defaul)
-gpgpu_dram_partition_queues              8:8:8:8 # i2$:$2d:d2$:$2i
-l2_ideal                               0 # Use a ideal L2 cache that always hit
-gpgpu_cache:dl2     64:128:8,L:B:m:W:L,A:32:4,4:0,32 # unified banked L2 data cache config  {<nsets>:<bsize>:<assoc>,<rep>:<wr>:<alloc>:<wr_alloc>,<mshr>:<N>:<merge>,<mq>}
-gpgpu_cache:dl2_texture_only                    0 # L2 cache used for texture only
-gpgpu_n_mem                            6 # number of memory modules (e.g. memory controllers) in gpu
-gpgpu_n_sub_partition_per_mchannel                    2 # number of memory subpartition in each memory module
-gpgpu_n_mem_per_ctrlr                    2 # number of memory chips per memory controller
-gpgpu_memlatency_stat                   14 # track and display latency statistics 0x2 enables MC, 0x4 enables queue logs
-gpgpu_frfcfs_dram_sched_queue_size                   16 # 0 = unlimited (default); # entries per chip
-gpgpu_dram_return_queue_size                  116 # 0 = unlimited (default); # entries per chip
-gpgpu_dram_buswidth                    4 # default = 4 bytes (8 bytes per cycle at DDR)
-gpgpu_dram_burst_length                    8 # Burst length of each DRAM request (default = 4 data bus cycle)
-dram_data_command_freq_ratio                    4 # Frequency ratio between DRAM data bus and command bus (default = 2 times, i.e. DDR)
-gpgpu_dram_timing_opt nbk=16:CCD=2:RRD=6:RCD=12:RAS=28:RP=12:RC=40: CL=12:WL=4:CDLR=5:WR=12:nbkgrp=4:CCDL=3:RTPL=2 # DRAM timing parameters = {nbk:tCCD:tRRD:tRCD:tRAS:tRP:tRC:CL:WL:tCDLR:tWR:nbkgrp:tCCDL:tRTPL}
-rop_latency                          120 # ROP queue latency (default 85)
-dram_latency                         100 # DRAM latency (default 30)
-gpgpu_mem_addr_mapping dramid@8;00000000.00000000.00000000.00000000.0000RRRR.RRRRRRRR.BBBCCCCB.CCSSSSSS # mapping memory address to dram model {dramid@<start bit>;<memory address map>}
-gpgpu_mem_addr_test                    0 # run sweep test to check address mapping for aliased address
-gpgpu_mem_address_mask                    1 # 0 = old addressing mask, 1 = new addressing mask, 2 = new add. mask + flipped bank sel and chip sel bits
-gpuwattch_xml_file  gpuwattch_gtx480.xml # GPUWattch XML file
-power_simulation_enabled                    0 # Turn on power simulator (1=On, 0=Off)
-power_per_cycle_dump                    0 # Dump detailed power output each cycle
-power_trace_enabled                    0 # produce a file for the power trace (1=On, 0=Off)
-power_trace_zlevel                     6 # Compression level of the power trace output log (0=no comp, 9=highest)
-steady_power_levels_enabled                    0 # produce a file for the steady power levels (1=On, 0=Off)
-steady_state_definition                  8:4 # allowed deviation:number of samples
-gpgpu_max_cycle                        0 # terminates gpu simulation early (0 = no limit)
-gpgpu_max_insn                         0 # terminates gpu simulation early (0 = no limit)
-gpgpu_max_cta                          0 # terminates gpu simulation early (0 = no limit)
-gpgpu_runtime_stat                   500 # display runtime statistics such as dram utilization {<freq>:<flag>}
-liveness_message_freq                    1 # Minimum number of seconds between simulation liveness messages (0 = always print)
-gpgpu_flush_l1_cache                    0 # Flush L1 cache at the end of each kernel call
-gpgpu_flush_l2_cache                    0 # Flush L2 cache at the end of each kernel call
-gpgpu_deadlock_detect                    1 # Stop the simulation at deadlock (1=on (default), 0=off)
-gpgpu_ptx_instruction_classification                    0 # if enabled will classify ptx instruction types per kernel (Max 255 kernels now)
-gpgpu_ptx_sim_mode                     0 # Select between Performance (default) or Functional simulation (1)
-gpgpu_clock_domains 700.0:700.0:700.0:924.0 # Clock Domain Frequencies in MhZ {<Core Clock>:<ICNT Clock>:<L2 Clock>:<DRAM Clock>}
-gpgpu_max_concurrent_kernel                    8 # maximum kernels that can run concurrently on GPU
-gpgpu_cflog_interval                    0 # Interval between each snapshot in control flow logger
-visualizer_enabled                     0 # Turn on visualizer output (1=On, 0=Off)
-visualizer_outputfile                 NULL # Specifies the output log file for visualizer
-visualizer_zlevel                      6 # Compression level of the visualizer output log (0=no comp, 9=highest)
-trace_enabled                          0 # Turn on traces
-trace_components                    none # comma seperated list of traces to enable. Complete list found in trace_streams.tup. Default none
-trace_sampling_core                    0 # The core which is printed using CORE_DPRINTF. Default 0
-trace_sampling_memory_partition                   -1 # The memory partition which is printed using MEMPART_DPRINTF. Default -1 (i.e. all)
-enable_ptx_file_line_stats                    1 # Turn on PTX source line statistic profiling. (1 = On)
-ptx_line_stats_filename gpgpu_inst_stats.txt # Output file for PTX source line statistics.
-save_embedded_ptx                      0 # saves ptx files embedded in binary as <n>.ptx
-keep                                   0 # keep intermediate files created by GPGPU-Sim when interfacing with external programs
-gpgpu_ptx_save_converted_ptxplus                    0 # Saved converted ptxplus to a file
-ptx_opcode_latency_int         4,13,4,5,145 # Opcode latencies for integers <ADD,MAX,MUL,MAD,DIV>Default 1,1,19,25,145
-ptx_opcode_latency_fp          4,13,4,5,39 # Opcode latencies for single precision floating points <ADD,MAX,MUL,MAD,DIV>Default 1,1,1,1,30
-ptx_opcode_latency_dp         8,19,8,8,330 # Opcode latencies for double precision floating points <ADD,MAX,MUL,MAD,DIV>Default 8,8,8,8,335
-ptx_opcode_initiation_int            1,2,2,1,8 # Opcode initiation intervals for integers <ADD,MAX,MUL,MAD,DIV>Default 1,1,4,4,32
-ptx_opcode_initiation_fp            1,2,1,1,4 # Opcode initiation intervals for single precision floating points <ADD,MAX,MUL,MAD,DIV>Default 1,1,1,1,5
-ptx_opcode_initiation_dp         8,16,8,8,130 # Opcode initiation intervals for double precision floating points <ADD,MAX,MUL,MAD,DIV>Default 8,8,8,8,130
DRAM Timing Options:
nbk                                    16 # number of banks
CCD                                     2 # column to column delay
RRD                                     6 # minimal delay between activation of rows in different banks
RCD                                    12 # row to column delay
RAS                                    28 # time needed to activate row
RP                                     12 # time needed to precharge (deactivate) row
RC                                     40 # row cycle time
CDLR                                    5 # switching from write to read (changes tWTR)
WR                                     12 # last data-in to row precharge
CL                                     12 # CAS latency
WL                                      4 # Write latency
nbkgrp                                  4 # number of bank groups
CCDL                                    3 # column to column delay between accesses to different bank groups
RTPL                                    2 # read to precharge delay between accesses to different bank groups
Total number of memory sub partition = 12
addr_dec_mask[CHIP]  = 0000000000000000 	high:64 low:0
addr_dec_mask[BK]    = 000000000000e100 	high:16 low:8
addr_dec_mask[ROW]   = 000000000fff0000 	high:28 low:16
addr_dec_mask[COL]   = 0000000000001eff 	high:13 low:0
addr_dec_mask[BURST] = 000000000000003f 	high:6 low:0
sub_partition_id_mask = 0000000000000100
GPGPU-Sim uArch: clock freqs: 700000000.000000:700000000.000000:700000000.000000:924000000.000000
GPGPU-Sim uArch: clock periods: 0.00000000142857142857:0.00000000142857142857:0.00000000142857142857:0.00000000108225108225
*** Initializing Memory Statistics ***
GPGPU-Sim uArch: interconnect node map (shaderID+MemID to icntID)
GPGPU-Sim uArch: Memory nodes ID start from index: 15
GPGPU-Sim uArch:    0   1   2   3   4
GPGPU-Sim uArch:    5   6   7   8   9
GPGPU-Sim uArch:   10  11  12  13  14
GPGPU-Sim uArch:   15  16  17  18  19
GPGPU-Sim uArch:   20  21  22  23  24
GPGPU-Sim uArch:   25  26
GPGPU-Sim uArch: interconnect node reverse map (icntID to shaderID+MemID)
GPGPU-Sim uArch: Memory nodes start from ID: 15
GPGPU-Sim uArch:    0   1   2   3   4
GPGPU-Sim uArch:    5   6   7   8   9
GPGPU-Sim uArch:   10  11  12  13  14
GPGPU-Sim uArch:   15  16  17  18  19
GPGPU-Sim uArch:   20  21  22  23  24
GPGPU-Sim uArch:   25  26
54328626b7b3e20cd9d3237c822777b1  /sciclone/data10/hwang07/adwait/applications/benchmarks/rodinia/cuda/hotspot/gpgpu_ptx_sim__hotspot
GPGPU-Sim uArch: performance model initialization complete.
GPGPU-Sim PTX: __cudaRegisterFatBinary, fat_cubin_handle = 1, filename=hotspot.cu
self exe links to: /sciclone/data10/hwang07/adwait/applications/benchmarks/rodinia/cuda/hotspot/gpgpu_ptx_sim__hotspot
Running md5sum using "md5sum /sciclone/data10/hwang07/adwait/applications/benchmarks/rodinia/cuda/hotspot/gpgpu_ptx_sim__hotspot "
Parsing file _cuobjdump_complete_output_ToUKqs
######### cuobjdump parser ########
## Adding new section ELF
Adding arch: sm_20
Adding identifier: hotspot.cu
## Adding new section PTX
Adding ptx filename: _cuobjdump_1.ptx
Adding arch: sm_20
Adding identifier: hotspot.cu
Done parsing!!!
GPGPU-Sim PTX: __cudaRegisterFunction _Z14calculate_tempiPfS_S_iiiiffffff : hostFun 0x0x401b60, fat_cubin_handle = 1
GPGPU-Sim PTX: allocating shared region for "__cuda___cuda_local_var_32316_39_non_const_temp_on_cuda72" from 0x0 to 0x400 (shared memory space)
GPGPU-Sim PTX: allocating shared region for "__cuda___cuda_local_var_32317_39_non_const_power_on_cuda1096" from 0x400 to 0x800 (shared memory space)
GPGPU-Sim PTX: allocating shared region for "__cuda___cuda_local_var_32318_39_non_const_temp_t2120" from 0x800 to 0xc00 (shared memory space)
GPGPU-Sim PTX: instruction assembly for function '_Z14calculate_tempiPfS_S_iiiiffffff'...   done.
GPGPU-Sim PTX: finding reconvergence points for '_Z14calculate_tempiPfS_S_iiiiffffff'...
GPGPU-Sim PTX: Finding dominators for '_Z14calculate_tempiPfS_S_iiiiffffff'...
GPGPU-Sim PTX: Finding immediate dominators for '_Z14calculate_tempiPfS_S_iiiiffffff'...
GPGPU-Sim PTX: Finding postdominators for '_Z14calculate_tempiPfS_S_iiiiffffff'...
GPGPU-Sim PTX: Finding immediate postdominators for '_Z14calculate_tempiPfS_S_iiiiffffff'...
GPGPU-Sim PTX: pre-decoding instructions for '_Z14calculate_tempiPfS_S_iiiiffffff'...
GPGPU-Sim PTX: reconvergence points for _Z14calculate_tempiPfS_S_iiiiffffff...
GPGPU-Sim PTX:  1 (potential) branch divergence @  PC=0x060 (_1.ptx:91) @%p1 bra $Lt_0_15106;
GPGPU-Sim PTX:    immediate post dominator      @  PC=0x198 (_1.ptx:134) mov.u64 %rd1, __cuda___cuda_local_var_32316_39_non_const_temp_on_cuda72;
GPGPU-Sim PTX:  2 (potential) branch divergence @  PC=0x080 (_1.ptx:95) @%p2 bra $Lt_0_15106;
GPGPU-Sim PTX:    immediate post dominator      @  PC=0x198 (_1.ptx:134) mov.u64 %rd1, __cuda___cuda_local_var_32316_39_non_const_temp_on_cuda72;
GPGPU-Sim PTX:  3 (potential) branch divergence @  PC=0x0c8 (_1.ptx:104) @%p3 bra $Lt_0_15106;
GPGPU-Sim PTX:    immediate post dominator      @  PC=0x198 (_1.ptx:134) mov.u64 %rd1, __cuda___cuda_local_var_32316_39_non_const_temp_on_cuda72;
GPGPU-Sim PTX:  4 (potential) branch divergence @  PC=0x0e8 (_1.ptx:108) @%p4 bra $Lt_0_15106;
GPGPU-Sim PTX:    immediate post dominator      @  PC=0x198 (_1.ptx:134) mov.u64 %rd1, __cuda___cuda_local_var_32316_39_non_const_temp_on_cuda72;
GPGPU-Sim PTX:  5 (potential) branch divergence @  PC=0x1c0 (_1.ptx:140) @%p5 bra $Lt_0_15618;
GPGPU-Sim PTX:    immediate post dominator      @  PC=0x6b0 (_1.ptx:315) @!%p20 bra $Lt_0_14082;
GPGPU-Sim PTX:  6 (potential) branch divergence @  PC=0x388 (_1.ptx:200) @%p10 bra $Lt_0_17410;
GPGPU-Sim PTX:    immediate post dominator      @  PC=0x5c8 (_1.ptx:277) bar.sync 0;
GPGPU-Sim PTX:  7 (potential) branch divergence @  PC=0x3a8 (_1.ptx:204) @%p11 bra $Lt_0_17410;
GPGPU-Sim PTX:    immediate post dominator      @  PC=0x5c8 (_1.ptx:277) bar.sync 0;
GPGPU-Sim PTX:  8 (potential) branch divergence @  PC=0x3b8 (_1.ptx:206) @%p12 bra $Lt_0_17410;
GPGPU-Sim PTX:    immediate post dominator      @  PC=0x5c8 (_1.ptx:277) bar.sync 0;
GPGPU-Sim PTX:  9 (potential) branch divergence @  PC=0x3c8 (_1.ptx:208) @%p13 bra $Lt_0_17410;
GPGPU-Sim PTX:    immediate post dominator      @  PC=0x5c8 (_1.ptx:277) bar.sync 0;
GPGPU-Sim PTX: 10 (potential) branch divergence @  PC=0x3d8 (_1.ptx:210) @%p14 bra $Lt_0_17410;
GPGPU-Sim PTX:    immediate post dominator      @  PC=0x5c8 (_1.ptx:277) bar.sync 0;
GPGPU-Sim PTX: 11 (potential) branch divergence @  PC=0x3e8 (_1.ptx:212) @%p15 bra $Lt_0_17410;
GPGPU-Sim PTX:    immediate post dominator      @  PC=0x5c8 (_1.ptx:277) bar.sync 0;
GPGPU-Sim PTX: 12 (potential) branch divergence @  PC=0x3f8 (_1.ptx:214) @%p16 bra $Lt_0_17410;
GPGPU-Sim PTX:    immediate post dominator      @  PC=0x5c8 (_1.ptx:277) bar.sync 0;
GPGPU-Sim PTX: 13 (potential) branch divergence @  PC=0x408 (_1.ptx:216) @%p17 bra $Lt_0_17410;
GPGPU-Sim PTX:    immediate post dominator      @  PC=0x5c8 (_1.ptx:277) bar.sync 0;
GPGPU-Sim PTX: 14 (potential) branch divergence @  PC=0x5d8 (_1.ptx:280) @%p18 bra $Lt_0_17922;
GPGPU-Sim PTX:    immediate post dominator      @  PC=0x6b0 (_1.ptx:315) @!%p20 bra $Lt_0_14082;
GPGPU-Sim PTX: 15 (potential) branch divergence @  PC=0x600 (_1.ptx:285) @!%p19 bra $Lt_0_13314;
GPGPU-Sim PTX:    immediate post dominator      @  PC=0x650 (_1.ptx:298) bar.sync 0;
GPGPU-Sim PTX: 16 (potential) branch divergence @  PC=0x668 (_1.ptx:302) @%p23 bra $Lt_0_13058;
GPGPU-Sim PTX:    immediate post dominator      @  PC=0x6b0 (_1.ptx:315) @!%p20 bra $Lt_0_14082;
GPGPU-Sim PTX: 17 (potential) branch divergence @  PC=0x670 (_1.ptx:303) bra.uni $Lt_0_258;
GPGPU-Sim PTX:    immediate post dominator      @  PC=0x6b0 (_1.ptx:315) @!%p20 bra $Lt_0_14082;
GPGPU-Sim PTX: 18 (potential) branch divergence @  PC=0x698 (_1.ptx:309) bra.uni $Lt_0_258;
GPGPU-Sim PTX:    immediate post dominator      @  PC=0x6b0 (_1.ptx:315) @!%p20 bra $Lt_0_14082;
GPGPU-Sim PTX: 19 (potential) branch divergence @  PC=0x6b0 (_1.ptx:315) @!%p20 bra $Lt_0_14082;
GPGPU-Sim PTX:    immediate post dominator      @  PC=0x760 (_1.ptx:340) exit;
GPGPU-Sim PTX: ... end of reconvergence points for _Z14calculate_tempiPfS_S_iiiiffffff
GPGPU-Sim PTX: ... done pre-decoding instructions for '_Z14calculate_tempiPfS_S_iiiiffffff'.
GPGPU-Sim PTX: finished parsing EMBEDDED .ptx file _1.ptx
Adding _cuobjdump_1.ptx with cubin handle 1
GPGPU-Sim PTX: extracting embedded .ptx to temporary file "_ptx_Z12mGX"
Running: cat _ptx_Z12mGX | sed 's/.version 1.5/.version 1.4/' | sed 's/, texmode_independent//' | sed 's/\(\.extern \.const\[1\] .b8 \w\+\)\[\]/\1\[1\]/' | sed 's/const\[.\]/const\[0\]/g' > _ptx2_Ilolut
GPGPU-Sim PTX: generating ptxinfo using "$CUDA_INSTALL_PATH/bin/ptxas --gpu-name=sm_20 -v _ptx2_Ilolut --output-file  /dev/null 2> _ptx_Z12mGXinfo"
GPGPU-Sim PTX: Kernel '_Z14calculate_tempiPfS_S_iiiiffffff' : regs=35, lmem=0, smem=3072, cmem=120
GPGPU-Sim PTX: removing ptxinfo using "rm -f _ptx_Z12mGX _ptx2_Ilolut _ptx_Z12mGXinfo"
GPGPU-Sim PTX: loading globals with explicit initializers... 
GPGPU-Sim PTX: finished loading globals (0 bytes total).
GPGPU-Sim PTX: loading constants with explicit initializers...  done.
pyramidHeight: 2
gridSize: [512, 512]
border:[2, 2]
blockGrid:[43, 43]
targetBlock:[12, 12]
Start computing the transient temperature

GPGPU-Sim PTX: cudaLaunch for 0x0x401b60 (mode=performance simulation) on stream 0
GPGPU-Sim PTX: pushing kernel '_Z14calculate_tempiPfS_S_iiiiffffff' to stream 0, gridDim= (43,43,1) blockDim = (16,16,1) 
kernel '_Z14calculate_tempiPfS_S_iiiiffffff' transfer to GPU hardware scheduler
GPGPU-Sim uArch: Shader 1 bind to kernel 1 '_Z14calculate_tempiPfS_S_iiiiffffff'
GPGPU-Sim uArch: CTA/core = 3, limited by: regs
GPGPU-Sim uArch: core:  1, cta: 0 initialized @(1,0)
GPGPU-Sim uArch: Shader 2 bind to kernel 1 '_Z14calculate_tempiPfS_S_iiiiffffff'
GPGPU-Sim uArch: core:  2, cta: 0 initialized @(1,0)
GPGPU-Sim uArch: Shader 3 bind to kernel 1 '_Z14calculate_tempiPfS_S_iiiiffffff'
GPGPU-Sim uArch: core:  3, cta: 0 initialized @(1,0)
GPGPU-Sim uArch: Shader 4 bind to kernel 1 '_Z14calculate_tempiPfS_S_iiiiffffff'
GPGPU-Sim uArch: core:  4, cta: 0 initialized @(1,0)
GPGPU-Sim uArch: Shader 5 bind to kernel 1 '_Z14calculate_tempiPfS_S_iiiiffffff'
GPGPU-Sim uArch: core:  5, cta: 0 initialized @(1,0)
GPGPU-Sim uArch: Shader 6 bind to kernel 1 '_Z14calculate_tempiPfS_S_iiiiffffff'
GPGPU-Sim uArch: core:  6, cta: 0 initialized @(1,0)
GPGPU-Sim uArch: Shader 7 bind to kernel 1 '_Z14calculate_tempiPfS_S_iiiiffffff'
GPGPU-Sim uArch: core:  7, cta: 0 initialized @(1,0)
GPGPU-Sim uArch: Shader 8 bind to kernel 1 '_Z14calculate_tempiPfS_S_iiiiffffff'
GPGPU-Sim uArch: core:  8, cta: 0 initialized @(1,0)
GPGPU-Sim uArch: Shader 9 bind to kernel 1 '_Z14calculate_tempiPfS_S_iiiiffffff'
GPGPU-Sim uArch: core:  9, cta: 0 initialized @(1,0)
GPGPU-Sim uArch: Shader 10 bind to kernel 1 '_Z14calculate_tempiPfS_S_iiiiffffff'
GPGPU-Sim uArch: core: 10, cta: 0 initialized @(1,0)
GPGPU-Sim uArch: Shader 11 bind to kernel 1 '_Z14calculate_tempiPfS_S_iiiiffffff'
GPGPU-Sim uArch: core: 11, cta: 0 initialized @(1,0)
GPGPU-Sim uArch: Shader 12 bind to kernel 1 '_Z14calculate_tempiPfS_S_iiiiffffff'
GPGPU-Sim uArch: core: 12, cta: 0 initialized @(1,0)
GPGPU-Sim uArch: Shader 13 bind to kernel 1 '_Z14calculate_tempiPfS_S_iiiiffffff'
GPGPU-Sim uArch: core: 13, cta: 0 initialized @(1,0)
GPGPU-Sim uArch: Shader 14 bind to kernel 1 '_Z14calculate_tempiPfS_S_iiiiffffff'
GPGPU-Sim uArch: core: 14, cta: 0 initialized @(1,0)
GPGPU-Sim uArch: Shader 0 bind to kernel 1 '_Z14calculate_tempiPfS_S_iiiiffffff'
GPGPU-Sim uArch: core:  0, cta: 0 initialized @(1,0)
GPGPU-Sim uArch: core:  1, cta: 1 initialized @(2,0)
GPGPU-Sim uArch: core:  2, cta: 1 initialized @(2,0)
GPGPU-Sim uArch: core:  3, cta: 1 initialized @(2,0)
GPGPU-Sim uArch: core:  4, cta: 1 initialized @(2,0)
GPGPU-Sim uArch: core:  5, cta: 1 initialized @(2,0)
GPGPU-Sim uArch: core:  6, cta: 1 initialized @(2,0)
GPGPU-Sim uArch: core:  7, cta: 1 initialized @(2,0)
GPGPU-Sim uArch: core:  8, cta: 1 initialized @(2,0)
GPGPU-Sim uArch: core:  9, cta: 1 initialized @(2,0)
GPGPU-Sim uArch: core: 10, cta: 1 initialized @(2,0)
GPGPU-Sim uArch: core: 11, cta: 1 initialized @(2,0)
GPGPU-Sim uArch: core: 12, cta: 1 initialized @(2,0)
GPGPU-Sim uArch: core: 13, cta: 1 initialized @(2,0)
GPGPU-Sim uArch: core: 14, cta: 1 initialized @(2,0)
GPGPU-Sim uArch: core:  0, cta: 1 initialized @(2,0)
GPGPU-Sim uArch: core:  1, cta: 2 initialized @(3,0)
GPGPU-Sim uArch: core:  2, cta: 2 initialized @(3,0)
GPGPU-Sim uArch: core:  3, cta: 2 initialized @(3,0)
GPGPU-Sim uArch: core:  4, cta: 2 initialized @(3,0)
GPGPU-Sim uArch: core:  5, cta: 2 initialized @(3,0)
GPGPU-Sim uArch: core:  6, cta: 2 initialized @(3,0)
GPGPU-Sim uArch: core:  7, cta: 2 initialized @(3,0)
GPGPU-Sim uArch: core:  8, cta: 2 initialized @(3,0)
GPGPU-Sim uArch: core:  9, cta: 2 initialized @(3,0)
GPGPU-Sim uArch: core: 10, cta: 2 initialized @(3,0)
GPGPU-Sim uArch: core: 11, cta: 2 initialized @(3,0)
GPGPU-Sim uArch: core: 12, cta: 2 initialized @(3,0)
GPGPU-Sim uArch: core: 13, cta: 2 initialized @(3,0)
GPGPU-Sim uArch: core: 14, cta: 2 initialized @(3,0)
GPGPU-Sim uArch: core:  0, cta: 2 initialized @(3,0)
GPGPU-Sim uArch: cycles simulated: 500  inst.: 0 (ipc= 0.0) sim_rate=0 (inst/sec) elapsed = 0:0:00:02 / Tue Mar 22 13:24:29 2016
GPGPU-Sim PTX: 100000 instructions simulated : ctaid=(8,0,0) tid=(15,9,0)
GPGPU-Sim PTX: 200000 instructions simulated : ctaid=(17,0,0) tid=(11,2,0)
GPGPU-Sim PTX: 300000 instructions simulated : ctaid=(1,0,0) tid=(7,5,0)
GPGPU-Sim uArch: cycles simulated: 1500  inst.: 322900 (ipc=215.3) sim_rate=46128 (inst/sec) elapsed = 0:0:00:07 / Tue Mar 22 13:24:34 2016
GPGPU-Sim PTX: 400000 instructions simulated : ctaid=(31,0,0) tid=(15,13,0)
GPGPU-Sim PTX: 500000 instructions simulated : ctaid=(38,0,0) tid=(7,15,0)
GPGPU-Sim PTX: 600000 instructions simulated : ctaid=(9,0,0) tid=(3,2,0)
GPGPU-Sim PTX: 700000 instructions simulated : ctaid=(10,0,0) tid=(15,15,0)
GPGPU-Sim PTX: 800000 instructions simulated : ctaid=(37,0,0) tid=(15,9,0)
GPGPU-Sim PTX: 900000 instructions simulated : ctaid=(27,0,0) tid=(15,1,0)
GPGPU-Sim uArch: cycles simulated: 3500  inst.: 927892 (ipc=265.1) sim_rate=115986 (inst/sec) elapsed = 0:0:00:08 / Tue Mar 22 13:24:35 2016
GPGPU-Sim PTX: 1000000 instructions simulated : ctaid=(34,0,0) tid=(7,6,0)
GPGPU-Sim PTX: 1100000 instructions simulated : ctaid=(18,0,0) tid=(3,6,0)
GPGPU-Sim PTX: 1200000 instructions simulated : ctaid=(3,0,0) tid=(12,4,0)
GPGPU-Sim PTX: 1300000 instructions simulated : ctaid=(15,0,0) tid=(11,12,0)
GPGPU-Sim uArch: Shader 13 finished CTA #2 (4441,0), 2 CTAs running
GPGPU-Sim uArch: core: 13, cta: 2 initialized @(4442,0)
GPGPU-Sim uArch: Shader 12 finished CTA #2 (4446,0), 2 CTAs running
GPGPU-Sim uArch: core: 12, cta: 2 initialized @(4447,0)
GPGPU-Sim uArch: Shader 11 finished CTA #2 (4452,0), 2 CTAs running
GPGPU-Sim uArch: core: 11, cta: 2 initialized @(4453,0)
GPGPU-Sim uArch: Shader 9 finished CTA #2 (4487,0), 2 CTAs running
GPGPU-Sim uArch: core:  9, cta: 2 initialized @(4488,0)
GPGPU-Sim uArch: cycles simulated: 4500  inst.: 1295824 (ipc=288.0) sim_rate=143980 (inst/sec) elapsed = 0:0:00:09 / Tue Mar 22 13:24:36 2016
GPGPU-Sim PTX: 1400000 instructions simulated : ctaid=(22,0,0) tid=(15,9,0)
GPGPU-Sim PTX: 1500000 instructions simulated : ctaid=(2,1,0) tid=(6,0,0)
GPGPU-Sim uArch: Shader 8 finished CTA #2 (5088,0), 2 CTAs running
GPGPU-Sim uArch: core:  8, cta: 2 initialized @(5089,0)
GPGPU-Sim PTX: 1600000 instructions simulated : ctaid=(1,0,0) tid=(6,10,0)
GPGPU-Sim PTX: 1700000 instructions simulated : ctaid=(7,0,0) tid=(12,12,0)
GPGPU-Sim PTX: 1800000 instructions simulated : ctaid=(1,1,0) tid=(9,13,0)
GPGPU-Sim uArch: Shader 10 finished CTA #2 (5563,0), 2 CTAs running
GPGPU-Sim uArch: core: 10, cta: 2 initialized @(5564,0)
GPGPU-Sim uArch: Shader 8 finished CTA #0 (5651,0), 2 CTAs running
GPGPU-Sim uArch: core:  8, cta: 0 initialized @(5652,0)
GPGPU-Sim uArch: Shader 9 finished CTA #0 (5754,0), 2 CTAs running
GPGPU-Sim uArch: core:  9, cta: 0 initialized @(5755,0)
GPGPU-Sim uArch: Shader 12 finished CTA #0 (5832,0), 2 CTAs running
GPGPU-Sim uArch: core: 12, cta: 0 initialized @(5833,0)
GPGPU-Sim PTX: 1900000 instructions simulated : ctaid=(8,1,0) tid=(9,0,0)
GPGPU-Sim uArch: Shader 13 finished CTA #0 (5863,0), 2 CTAs running
GPGPU-Sim uArch: core: 13, cta: 0 initialized @(5864,0)
GPGPU-Sim uArch: Shader 10 finished CTA #0 (5874,0), 2 CTAs running
GPGPU-Sim uArch: core: 10, cta: 0 initialized @(5875,0)
GPGPU-Sim uArch: Shader 11 finished CTA #0 (5876,0), 2 CTAs running
GPGPU-Sim uArch: core: 11, cta: 0 initialized @(5877,0)
GPGPU-Sim uArch: Shader 3 finished CTA #1 (5914,0), 2 CTAs running
GPGPU-Sim uArch: core:  3, cta: 1 initialized @(5915,0)
GPGPU-Sim uArch: Shader 1 finished CTA #0 (5961,0), 2 CTAs running
GPGPU-Sim uArch: core:  1, cta: 0 initialized @(5962,0)
GPGPU-Sim uArch: cycles simulated: 6000  inst.: 1834146 (ipc=305.7) sim_rate=183414 (inst/sec) elapsed = 0:0:00:10 / Tue Mar 22 13:24:37 2016
GPGPU-Sim PTX: 2000000 instructions simulated : ctaid=(9,1,0) tid=(13,15,0)
GPGPU-Sim PTX: 2100000 instructions simulated : ctaid=(14,1,0) tid=(13,11,0)
GPGPU-Sim uArch: Shader 10 finished CTA #1 (6347,0), 2 CTAs running
GPGPU-Sim uArch: core: 10, cta: 1 initialized @(6348,0)
GPGPU-Sim uArch: Shader 11 finished CTA #1 (6398,0), 2 CTAs running
GPGPU-Sim uArch: core: 11, cta: 1 initialized @(6399,0)
GPGPU-Sim uArch: Shader 9 finished CTA #1 (6422,0), 2 CTAs running
GPGPU-Sim uArch: core:  9, cta: 1 initialized @(6423,0)
GPGPU-Sim PTX: 2200000 instructions simulated : ctaid=(0,1,0) tid=(12,5,0)
GPGPU-Sim uArch: Shader 2 finished CTA #0 (6596,0), 2 CTAs running
GPGPU-Sim uArch: core:  2, cta: 0 initialized @(6597,0)
GPGPU-Sim uArch: Shader 13 finished CTA #1 (6616,0), 2 CTAs running
GPGPU-Sim uArch: core: 13, cta: 1 initialized @(6617,0)
GPGPU-Sim uArch: Shader 12 finished CTA #1 (6684,0), 2 CTAs running
GPGPU-Sim uArch: core: 12, cta: 1 initialized @(6685,0)
GPGPU-Sim PTX: 2300000 instructions simulated : ctaid=(5,1,0) tid=(12,3,0)
GPGPU-Sim uArch: Shader 14 finished CTA #1 (6721,0), 2 CTAs running
GPGPU-Sim uArch: core: 14, cta: 1 initialized @(6722,0)
GPGPU-Sim uArch: Shader 6 finished CTA #0 (6763,0), 2 CTAs running
GPGPU-Sim uArch: core:  6, cta: 0 initialized @(6764,0)
GPGPU-Sim uArch: Shader 7 finished CTA #0 (6794,0), 2 CTAs running
GPGPU-Sim uArch: core:  7, cta: 0 initialized @(6795,0)
GPGPU-Sim uArch: Shader 0 finished CTA #0 (6845,0), 2 CTAs running
GPGPU-Sim uArch: core:  0, cta: 0 initialized @(6846,0)
GPGPU-Sim uArch: Shader 14 finished CTA #0 (6850,0), 2 CTAs running
GPGPU-Sim uArch: core: 14, cta: 0 initialized @(6851,0)
GPGPU-Sim uArch: Shader 2 finished CTA #1 (6862,0), 2 CTAs running
GPGPU-Sim uArch: core:  2, cta: 1 initialized @(6863,0)
GPGPU-Sim uArch: Shader 1 finished CTA #1 (6884,0), 2 CTAs running
GPGPU-Sim uArch: core:  1, cta: 1 initialized @(6885,0)
GPGPU-Sim uArch: Shader 7 finished CTA #2 (6887,0), 2 CTAs running
GPGPU-Sim uArch: core:  7, cta: 2 initialized @(6888,0)
GPGPU-Sim uArch: Shader 4 finished CTA #2 (6889,0), 2 CTAs running
GPGPU-Sim uArch: core:  4, cta: 2 initialized @(6890,0)
GPGPU-Sim uArch: Shader 5 finished CTA #2 (6903,0), 2 CTAs running
GPGPU-Sim uArch: core:  5, cta: 2 initialized @(6904,0)
GPGPU-Sim PTX: 2400000 instructions simulated : ctaid=(24,1,0) tid=(1,12,0)
GPGPU-Sim uArch: Shader 7 finished CTA #1 (6932,0), 2 CTAs running
GPGPU-Sim uArch: core:  7, cta: 1 initialized @(6933,0)
GPGPU-Sim uArch: Shader 6 finished CTA #2 (6945,0), 2 CTAs running
GPGPU-Sim uArch: core:  6, cta: 2 initialized @(6946,0)
GPGPU-Sim uArch: Shader 2 finished CTA #2 (6953,0), 2 CTAs running
GPGPU-Sim uArch: core:  2, cta: 2 initialized @(6954,0)
GPGPU-Sim uArch: Shader 0 finished CTA #1 (6957,0), 2 CTAs running
GPGPU-Sim uArch: core:  0, cta: 1 initialized @(6958,0)
GPGPU-Sim uArch: Shader 3 finished CTA #2 (6963,0), 2 CTAs running
GPGPU-Sim uArch: core:  3, cta: 2 initialized @(6964,0)
GPGPU-Sim uArch: Shader 5 finished CTA #1 (6991,0), 2 CTAs running
GPGPU-Sim uArch: core:  5, cta: 1 initialized @(6992,0)
GPGPU-Sim uArch: Shader 4 finished CTA #0 (6998,0), 2 CTAs running
GPGPU-Sim uArch: core:  4, cta: 0 initialized @(6999,0)
GPGPU-Sim uArch: cycles simulated: 7000  inst.: 2274666 (ipc=325.0) sim_rate=206787 (inst/sec) elapsed = 0:0:00:11 / Tue Mar 22 13:24:38 2016
GPGPU-Sim uArch: Shader 1 finished CTA #2 (7016,0), 2 CTAs running
GPGPU-Sim uArch: core:  1, cta: 2 initialized @(7017,0)
GPGPU-Sim uArch: Shader 4 finished CTA #1 (7045,0), 2 CTAs running
GPGPU-Sim uArch: core:  4, cta: 1 initialized @(7046,0)
GPGPU-Sim uArch: Shader 8 finished CTA #1 (7048,0), 2 CTAs running
GPGPU-Sim uArch: core:  8, cta: 1 initialized @(7049,0)
GPGPU-Sim uArch: Shader 0 finished CTA #2 (7059,0), 2 CTAs running
GPGPU-Sim uArch: core:  0, cta: 2 initialized @(7060,0)
GPGPU-Sim uArch: Shader 5 finished CTA #0 (7068,0), 2 CTAs running
GPGPU-Sim uArch: core:  5, cta: 0 initialized @(7069,0)
GPGPU-Sim uArch: Shader 14 finished CTA #2 (7079,0), 2 CTAs running
GPGPU-Sim uArch: core: 14, cta: 2 initialized @(7080,0)
GPGPU-Sim PTX: 2500000 instructions simulated : ctaid=(39,1,0) tid=(9,4,0)
GPGPU-Sim uArch: Shader 6 finished CTA #1 (7081,0), 2 CTAs running
GPGPU-Sim uArch: core:  6, cta: 1 initialized @(7082,0)
GPGPU-Sim uArch: Shader 3 finished CTA #0 (7088,0), 2 CTAs running
GPGPU-Sim uArch: core:  3, cta: 0 initialized @(7089,0)
GPGPU-Sim PTX: 2600000 instructions simulated : ctaid=(1,2,0) tid=(15,1,0)
GPGPU-Sim PTX: 2700000 instructions simulated : ctaid=(40,1,0) tid=(9,4,0)
GPGPU-Sim uArch: cycles simulated: 7500  inst.: 2568238 (ipc=342.4) sim_rate=214019 (inst/sec) elapsed = 0:0:00:12 / Tue Mar 22 13:24:39 2016
GPGPU-Sim PTX: 2800000 instructions simulated : ctaid=(14,1,0) tid=(1,0,0)
GPGPU-Sim PTX: 2900000 instructions simulated : ctaid=(11,1,0) tid=(5,3,0)
GPGPU-Sim PTX: 3000000 instructions simulated : ctaid=(37,1,0) tid=(11,5,0)
GPGPU-Sim uArch: Shader 13 finished CTA #2 (7964,0), 2 CTAs running
GPGPU-Sim uArch: core: 13, cta: 2 initialized @(7965,0)
GPGPU-Sim uArch: Shader 12 finished CTA #2 (7965,0), 2 CTAs running
GPGPU-Sim uArch: core: 12, cta: 2 initialized @(7966,0)
GPGPU-Sim uArch: Shader 5 finished CTA #1 (7991,0), 2 CTAs running
GPGPU-Sim uArch: core:  5, cta: 1 initialized @(7992,0)
GPGPU-Sim uArch: Shader 0 finished CTA #2 (8067,0), 2 CTAs running
GPGPU-Sim uArch: core:  0, cta: 2 initialized @(8068,0)
GPGPU-Sim uArch: Shader 9 finished CTA #2 (8077,0), 2 CTAs running
GPGPU-Sim uArch: core:  9, cta: 2 initialized @(8078,0)
GPGPU-Sim uArch: Shader 11 finished CTA #2 (8080,0), 2 CTAs running
GPGPU-Sim uArch: core: 11, cta: 2 initialized @(8081,0)
GPGPU-Sim PTX: 3100000 instructions simulated : ctaid=(18,1,0) tid=(15,11,0)
GPGPU-Sim uArch: Shader 4 finished CTA #0 (8229,0), 2 CTAs running
GPGPU-Sim uArch: core:  4, cta: 0 initialized @(8230,0)
GPGPU-Sim uArch: Shader 4 finished CTA #1 (8279,0), 2 CTAs running
GPGPU-Sim uArch: core:  4, cta: 1 initialized @(8280,0)
GPGPU-Sim PTX: 3200000 instructions simulated : ctaid=(4,2,0) tid=(15,2,0)
GPGPU-Sim PTX: 3300000 instructions simulated : ctaid=(25,1,0) tid=(15,10,0)
GPGPU-Sim uArch: Shader 10 finished CTA #2 (8485,0), 2 CTAs running
GPGPU-Sim uArch: core: 10, cta: 2 initialized @(8486,0)
GPGPU-Sim uArch: Shader 1 finished CTA #2 (8487,0), 2 CTAs running
GPGPU-Sim uArch: core:  1, cta: 2 initialized @(8488,0)
GPGPU-Sim uArch: cycles simulated: 8500  inst.: 3086820 (ipc=363.2) sim_rate=237447 (inst/sec) elapsed = 0:0:00:13 / Tue Mar 22 13:24:40 2016
GPGPU-Sim uArch: Shader 8 finished CTA #2 (8501,0), 2 CTAs running
GPGPU-Sim uArch: core:  8, cta: 2 initialized @(8502,0)
GPGPU-Sim PTX: 3400000 instructions simulated : ctaid=(31,1,0) tid=(9,7,0)
GPGPU-Sim PTX: 3500000 instructions simulated : ctaid=(30,1,0) tid=(13,11,0)
GPGPU-Sim PTX: 3600000 instructions simulated : ctaid=(20,1,0) tid=(2,7,0)
GPGPU-Sim uArch: Shader 8 finished CTA #1 (8958,0), 2 CTAs running
GPGPU-Sim uArch: core:  8, cta: 1 initialized @(8959,0)
GPGPU-Sim uArch: cycles simulated: 9000  inst.: 3398897 (ipc=377.7) sim_rate=242778 (inst/sec) elapsed = 0:0:00:14 / Tue Mar 22 13:24:41 2016
GPGPU-Sim PTX: 3700000 instructions simulated : ctaid=(17,1,0) tid=(10,5,0)
GPGPU-Sim uArch: Shader 8 finished CTA #0 (9135,0), 2 CTAs running
GPGPU-Sim uArch: core:  8, cta: 0 initialized @(9136,0)
GPGPU-Sim uArch: Shader 3 finished CTA #1 (9144,0), 2 CTAs running
GPGPU-Sim uArch: core:  3, cta: 1 initialized @(9145,0)
GPGPU-Sim PTX: 3800000 instructions simulated : ctaid=(0,2,0) tid=(7,0,0)
GPGPU-Sim uArch: Shader 13 finished CTA #0 (9273,0), 2 CTAs running
GPGPU-Sim uArch: core: 13, cta: 0 initialized @(9274,0)
GPGPU-Sim uArch: Shader 12 finished CTA #0 (9332,0), 2 CTAs running
GPGPU-Sim uArch: core: 12, cta: 0 initialized @(9333,0)
GPGPU-Sim uArch: Shader 1 finished CTA #0 (9419,0), 2 CTAs running
GPGPU-Sim uArch: core:  1, cta: 0 initialized @(9420,0)
GPGPU-Sim PTX: 3900000 instructions simulated : ctaid=(32,1,0) tid=(6,12,0)
GPGPU-Sim uArch: Shader 11 finished CTA #0 (9660,0), 2 CTAs running
GPGPU-Sim uArch: core: 11, cta: 0 initialized @(9661,0)
GPGPU-Sim PTX: 4000000 instructions simulated : ctaid=(32,1,0) tid=(11,14,0)
GPGPU-Sim uArch: Shader 9 finished CTA #0 (9695,0), 2 CTAs running
GPGPU-Sim uArch: core:  9, cta: 0 initialized @(9696,0)
GPGPU-Sim uArch: Shader 10 finished CTA #0 (9754,0), 2 CTAs running
GPGPU-Sim uArch: core: 10, cta: 0 initialized @(9755,0)
GPGPU-Sim PTX: 4100000 instructions simulated : ctaid=(1,2,0) tid=(9,0,0)
GPGPU-Sim PTX: 4200000 instructions simulated : ctaid=(34,1,0) tid=(10,10,0)
GPGPU-Sim uArch: cycles simulated: 10000  inst.: 3930291 (ipc=393.0) sim_rate=262019 (inst/sec) elapsed = 0:0:00:15 / Tue Mar 22 13:24:42 2016
GPGPU-Sim uArch: Shader 14 finished CTA #0 (10125,0), 2 CTAs running
GPGPU-Sim uArch: core: 14, cta: 0 initialized @(10126,0)
GPGPU-Sim uArch: Shader 11 finished CTA #1 (10136,0), 2 CTAs running
GPGPU-Sim uArch: core: 11, cta: 1 initialized @(10137,0)
GPGPU-Sim PTX: 4300000 instructions simulated : ctaid=(1,2,0) tid=(9,9,0)
GPGPU-Sim uArch: Shader 9 finished CTA #1 (10207,0), 2 CTAs running
GPGPU-Sim uArch: core:  9, cta: 1 initialized @(10208,0)
GPGPU-Sim uArch: Shader 0 finished CTA #0 (10232,0), 2 CTAs running
GPGPU-Sim uArch: core:  0, cta: 0 initialized @(10233,0)
GPGPU-Sim uArch: Shader 10 finished CTA #1 (10251,0), 2 CTAs running
GPGPU-Sim uArch: core: 10, cta: 1 initialized @(10252,0)
GPGPU-Sim uArch: Shader 6 finished CTA #0 (10266,0), 2 CTAs running
GPGPU-Sim uArch: core:  6, cta: 0 initialized @(10267,0)
GPGPU-Sim PTX: 4400000 instructions simulated : ctaid=(35,1,0) tid=(11,8,0)
GPGPU-Sim uArch: Shader 5 finished CTA #2 (10355,0), 2 CTAs running
GPGPU-Sim uArch: core:  5, cta: 2 initialized @(10356,0)
GPGPU-Sim PTX: 4500000 instructions simulated : ctaid=(22,1,0) tid=(9,10,0)
GPGPU-Sim uArch: Shader 4 finished CTA #2 (10511,0), 2 CTAs running
GPGPU-Sim uArch: core:  4, cta: 2 initialized @(10512,0)
GPGPU-Sim uArch: Shader 1 finished CTA #1 (10518,0), 2 CTAs running
GPGPU-Sim uArch: core:  1, cta: 1 initialized @(10519,0)
GPGPU-Sim uArch: Shader 3 finished CTA #2 (10531,0), 2 CTAs running
GPGPU-Sim uArch: core:  3, cta: 2 initialized @(10532,0)
GPGPU-Sim uArch: Shader 13 finished CTA #1 (10543,0), 2 CTAs running
GPGPU-Sim uArch: core: 13, cta: 1 initialized @(10544,0)
GPGPU-Sim uArch: Shader 12 finished CTA #1 (10562,0), 2 CTAs running
GPGPU-Sim uArch: core: 12, cta: 1 initialized @(10563,0)
GPGPU-Sim PTX: 4600000 instructions simulated : ctaid=(3,2,0) tid=(5,15,0)
GPGPU-Sim PTX: 4700000 instructions simulated : ctaid=(33,2,0) tid=(6,6,0)
GPGPU-Sim uArch: Shader 0 finished CTA #1 (10881,0), 2 CTAs running
GPGPU-Sim uArch: core:  0, cta: 1 initialized @(10882,0)
GPGPU-Sim uArch: cycles simulated: 11000  inst.: 4451077 (ipc=404.6) sim_rate=278192 (inst/sec) elapsed = 0:0:00:16 / Tue Mar 22 13:24:43 2016
GPGPU-Sim uArch: Shader 7 finished CTA #0 (11002,0), 2 CTAs running
GPGPU-Sim uArch: core:  7, cta: 0 initialized @(11003,0)
GPGPU-Sim PTX: 4800000 instructions simulated : ctaid=(1,2,0) tid=(2,9,0)
GPGPU-Sim uArch: Shader 2 finished CTA #0 (11073,0), 2 CTAs running
GPGPU-Sim uArch: core:  2, cta: 0 initialized @(11074,0)
GPGPU-Sim uArch: Shader 3 finished CTA #0 (11211,0), 2 CTAs running
GPGPU-Sim uArch: core:  3, cta: 0 initialized @(11212,0)
GPGPU-Sim uArch: Shader 14 finished CTA #1 (11213,0), 2 CTAs running
GPGPU-Sim uArch: core: 14, cta: 1 initialized @(11214,0)
GPGPU-Sim PTX: 4900000 instructions simulated : ctaid=(10,2,0) tid=(10,6,0)
GPGPU-Sim uArch: Shader 7 finished CTA #1 (11241,0), 2 CTAs running
GPGPU-Sim uArch: core:  7, cta: 1 initialized @(11242,0)
GPGPU-Sim uArch: Shader 2 finished CTA #2 (11288,0), 2 CTAs running
GPGPU-Sim uArch: core:  2, cta: 2 initialized @(11289,0)
GPGPU-Sim uArch: Shader 6 finished CTA #2 (11319,0), 2 CTAs running
GPGPU-Sim uArch: core:  6, cta: 2 initialized @(11320,0)
GPGPU-Sim PTX: 5000000 instructions simulated : ctaid=(13,2,0) tid=(8,2,0)
GPGPU-Sim uArch: Shader 5 finished CTA #0 (11467,0), 2 CTAs running
GPGPU-Sim uArch: core:  5, cta: 0 initialized @(11468,0)
GPGPU-Sim uArch: cycles simulated: 11500  inst.: 4735546 (ipc=411.8) sim_rate=278561 (inst/sec) elapsed = 0:0:00:17 / Tue Mar 22 13:24:44 2016
GPGPU-Sim uArch: Shader 14 finished CTA #2 (11504,0), 2 CTAs running
GPGPU-Sim uArch: core: 14, cta: 2 initialized @(11505,0)
GPGPU-Sim PTX: 5100000 instructions simulated : ctaid=(40,2,0) tid=(5,12,0)
GPGPU-Sim uArch: Shader 6 finished CTA #1 (11542,0), 2 CTAs running
GPGPU-Sim uArch: core:  6, cta: 1 initialized @(11543,0)
GPGPU-Sim uArch: Shader 12 finished CTA #2 (11611,0), 2 CTAs running
GPGPU-Sim uArch: core: 12, cta: 2 initialized @(11612,0)
GPGPU-Sim uArch: Shader 13 finished CTA #2 (11684,0), 2 CTAs running
GPGPU-Sim uArch: core: 13, cta: 2 initialized @(11685,0)
GPGPU-Sim PTX: 5200000 instructions simulated : ctaid=(40,2,0) tid=(5,15,0)
GPGPU-Sim uArch: Shader 7 finished CTA #2 (11710,0), 2 CTAs running
GPGPU-Sim uArch: core:  7, cta: 2 initialized @(11711,0)
GPGPU-Sim uArch: Shader 5 finished CTA #1 (11734,0), 2 CTAs running
GPGPU-Sim uArch: core:  5, cta: 1 initialized @(11735,0)
GPGPU-Sim uArch: Shader 9 finished CTA #2 (11739,0), 2 CTAs running
GPGPU-Sim uArch: core:  9, cta: 2 initialized @(11740,0)
GPGPU-Sim uArch: Shader 11 finished CTA #2 (11858,0), 2 CTAs running
GPGPU-Sim uArch: core: 11, cta: 2 initialized @(11859,0)
GPGPU-Sim uArch: Shader 0 finished CTA #2 (11863,0), 2 CTAs running
GPGPU-Sim uArch: core:  0, cta: 2 initialized @(11864,0)
GPGPU-Sim PTX: 5300000 instructions simulated : ctaid=(37,2,0) tid=(2,14,0)
GPGPU-Sim uArch: Shader 2 finished CTA #1 (11928,0), 2 CTAs running
GPGPU-Sim uArch: Shader 4 finished CTA #0 (11928,0), 2 CTAs running
GPGPU-Sim uArch: core:  2, cta: 1 initialized @(11929,0)
GPGPU-Sim uArch: core:  4, cta: 0 initialized @(11929,0)
GPGPU-Sim uArch: Shader 1 finished CTA #2 (11979,0), 2 CTAs running
GPGPU-Sim uArch: core:  1, cta: 2 initialized @(11980,0)
GPGPU-Sim uArch: cycles simulated: 12000  inst.: 5012890 (ipc=417.7) sim_rate=278493 (inst/sec) elapsed = 0:0:00:18 / Tue Mar 22 13:24:45 2016
GPGPU-Sim PTX: 5400000 instructions simulated : ctaid=(38,2,0) tid=(10,2,0)
GPGPU-Sim uArch: Shader 10 finished CTA #2 (12040,0), 2 CTAs running
GPGPU-Sim uArch: core: 10, cta: 2 initialized @(12041,0)
GPGPU-Sim PTX: 5500000 instructions simulated : ctaid=(41,2,0) tid=(11,3,0)
GPGPU-Sim uArch: Shader 14 finished CTA #1 (12210,0), 2 CTAs running
GPGPU-Sim uArch: core: 14, cta: 1 initialized @(12211,0)
GPGPU-Sim uArch: Shader 2 finished CTA #0 (12232,0), 2 CTAs running
GPGPU-Sim uArch: core:  2, cta: 0 initialized @(12233,0)
GPGPU-Sim PTX: 5600000 instructions simulated : ctaid=(35,2,0) tid=(13,5,0)
GPGPU-Sim uArch: Shader 7 finished CTA #0 (12385,0), 2 CTAs running
GPGPU-Sim uArch: core:  7, cta: 0 initialized @(12386,0)
GPGPU-Sim uArch: Shader 4 finished CTA #1 (12455,0), 2 CTAs running
GPGPU-Sim uArch: core:  4, cta: 1 initialized @(12456,0)
GPGPU-Sim PTX: 5700000 instructions simulated : ctaid=(31,2,0) tid=(1,2,0)
GPGPU-Sim PTX: 5800000 instructions simulated : ctaid=(25,2,0) tid=(10,12,0)
GPGPU-Sim uArch: Shader 3 finished CTA #0 (12631,0), 2 CTAs running
GPGPU-Sim uArch: core:  3, cta: 0 initialized @(12632,0)
GPGPU-Sim uArch: Shader 7 finished CTA #1 (12714,0), 2 CTAs running
GPGPU-Sim uArch: core:  7, cta: 1 initialized @(12715,0)
GPGPU-Sim uArch: Shader 3 finished CTA #1 (12746,0), 2 CTAs running
GPGPU-Sim uArch: core:  3, cta: 1 initialized @(12747,0)
GPGPU-Sim uArch: Shader 2 finished CTA #2 (12749,0), 2 CTAs running
GPGPU-Sim uArch: core:  2, cta: 2 initialized @(12750,0)
GPGPU-Sim uArch: Shader 12 finished CTA #0 (12772,0), 2 CTAs running
GPGPU-Sim uArch: core: 12, cta: 0 initialized @(12773,0)
GPGPU-Sim PTX: 5900000 instructions simulated : ctaid=(35,2,0) tid=(14,2,0)
GPGPU-Sim uArch: Shader 8 finished CTA #2 (12811,0), 2 CTAs running
GPGPU-Sim uArch: core:  8, cta: 2 initialized @(12812,0)
GPGPU-Sim uArch: Shader 8 finished CTA #1 (12820,0), 2 CTAs running
GPGPU-Sim uArch: core:  8, cta: 1 initialized @(12821,0)
GPGPU-Sim uArch: Shader 13 finished CTA #0 (12835,0), 2 CTAs running
GPGPU-Sim uArch: core: 13, cta: 0 initialized @(12836,0)
GPGPU-Sim uArch: Shader 8 finished CTA #0 (12887,0), 2 CTAs running
GPGPU-Sim uArch: core:  8, cta: 0 initialized @(12888,0)
GPGPU-Sim PTX: 6000000 instructions simulated : ctaid=(9,3,0) tid=(15,13,0)
GPGPU-Sim uArch: cycles simulated: 13000  inst.: 5613440 (ipc=431.8) sim_rate=295444 (inst/sec) elapsed = 0:0:00:19 / Tue Mar 22 13:24:46 2016
GPGPU-Sim uArch: Shader 1 finished CTA #0 (13154,0), 2 CTAs running
GPGPU-Sim uArch: core:  1, cta: 0 initialized @(13155,0)
GPGPU-Sim PTX: 6100000 instructions simulated : ctaid=(22,3,0) tid=(7,11,0)
GPGPU-Sim uArch: Shader 11 finished CTA #0 (13251,0), 2 CTAs running
GPGPU-Sim uArch: core: 11, cta: 0 initialized @(13252,0)
GPGPU-Sim uArch: Shader 9 finished CTA #0 (13277,0), 2 CTAs running
GPGPU-Sim uArch: core:  9, cta: 0 initialized @(13278,0)
GPGPU-Sim uArch: Shader 10 finished CTA #0 (13302,0), 2 CTAs running
GPGPU-Sim uArch: core: 10, cta: 0 initialized @(13303,0)
GPGPU-Sim PTX: 6200000 instructions simulated : ctaid=(29,3,0) tid=(12,3,0)
GPGPU-Sim uArch: cycles simulated: 13500  inst.: 5862664 (ipc=434.3) sim_rate=293133 (inst/sec) elapsed = 0:0:00:20 / Tue Mar 22 13:24:47 2016
GPGPU-Sim PTX: 6300000 instructions simulated : ctaid=(20,3,0) tid=(0,7,0)
GPGPU-Sim PTX: 6400000 instructions simulated : ctaid=(11,3,0) tid=(9,6,0)
GPGPU-Sim uArch: Shader 14 finished CTA #0 (13820,0), 2 CTAs running
GPGPU-Sim uArch: core: 14, cta: 0 initialized @(13821,0)
GPGPU-Sim uArch: Shader 12 finished CTA #1 (13838,0), 2 CTAs running
GPGPU-Sim uArch: core: 12, cta: 1 initialized @(13839,0)
GPGPU-Sim PTX: 6500000 instructions simulated : ctaid=(7,3,0) tid=(8,10,0)
GPGPU-Sim uArch: Shader 13 finished CTA #1 (13978,0), 2 CTAs running
GPGPU-Sim uArch: core: 13, cta: 1 initialized @(13979,0)
GPGPU-Sim PTX: 6600000 instructions simulated : ctaid=(18,3,0) tid=(1,12,0)
GPGPU-Sim uArch: Shader 10 finished CTA #1 (14111,0), 2 CTAs running
GPGPU-Sim uArch: core: 10, cta: 1 initialized @(14112,0)
GPGPU-Sim uArch: Shader 0 finished CTA #0 (14117,0), 2 CTAs running
GPGPU-Sim uArch: core:  0, cta: 0 initialized @(14118,0)
GPGPU-Sim uArch: Shader 1 finished CTA #1 (14138,0), 2 CTAs running
GPGPU-Sim uArch: core:  1, cta: 1 initialized @(14139,0)
GPGPU-Sim uArch: Shader 4 finished CTA #2 (14141,0), 2 CTAs running
GPGPU-Sim uArch: core:  4, cta: 2 initialized @(14142,0)
GPGPU-Sim uArch: Shader 6 finished CTA #0 (14142,0), 2 CTAs running
GPGPU-Sim uArch: core:  6, cta: 0 initialized @(14143,0)
GPGPU-Sim uArch: Shader 5 finished CTA #2 (14155,0), 2 CTAs running
GPGPU-Sim uArch: core:  5, cta: 2 initialized @(14156,0)
GPGPU-Sim uArch: Shader 11 finished CTA #1 (14158,0), 2 CTAs running
GPGPU-Sim uArch: core: 11, cta: 1 initialized @(14159,0)
GPGPU-Sim uArch: Shader 3 finished CTA #2 (14161,0), 2 CTAs running
GPGPU-Sim uArch: core:  3, cta: 2 initialized @(14162,0)
GPGPU-Sim PTX: 6700000 instructions simulated : ctaid=(17,3,0) tid=(5,10,0)
GPGPU-Sim uArch: Shader 9 finished CTA #1 (14217,0), 2 CTAs running
GPGPU-Sim uArch: core:  9, cta: 1 initialized @(14218,0)
GPGPU-Sim PTX: 6800000 instructions simulated : ctaid=(33,3,0) tid=(0,9,0)
GPGPU-Sim uArch: Shader 0 finished CTA #1 (14455,0), 2 CTAs running
GPGPU-Sim uArch: core:  0, cta: 1 initialized @(14456,0)
GPGPU-Sim uArch: cycles simulated: 14500  inst.: 6423626 (ipc=443.0) sim_rate=305886 (inst/sec) elapsed = 0:0:00:21 / Tue Mar 22 13:24:48 2016
GPGPU-Sim PTX: 6900000 instructions simulated : ctaid=(23,3,0) tid=(12,2,0)
GPGPU-Sim PTX: 7000000 instructions simulated : ctaid=(42,3,0) tid=(6,7,0)
GPGPU-Sim uArch: Shader 5 finished CTA #0 (14706,0), 2 CTAs running
GPGPU-Sim uArch: core:  5, cta: 0 initialized @(14707,0)
GPGPU-Sim PTX: 7100000 instructions simulated : ctaid=(15,3,0) tid=(2,14,0)
GPGPU-Sim uArch: Shader 6 finished CTA #2 (14946,0), 2 CTAs running
GPGPU-Sim uArch: core:  6, cta: 2 initialized @(14947,0)
GPGPU-Sim uArch: cycles simulated: 15000  inst.: 6720642 (ipc=448.0) sim_rate=305483 (inst/sec) elapsed = 0:0:00:22 / Tue Mar 22 13:24:49 2016
GPGPU-Sim PTX: 7200000 instructions simulated : ctaid=(8,3,0) tid=(4,13,0)
GPGPU-Sim uArch: Shader 14 finished CTA #2 (15053,0), 2 CTAs running
GPGPU-Sim uArch: core: 14, cta: 2 initialized @(15054,0)
GPGPU-Sim PTX: 7300000 instructions simulated : ctaid=(20,3,0) tid=(13,12,0)
GPGPU-Sim uArch: Shader 12 finished CTA #2 (15269,0), 2 CTAs running
GPGPU-Sim uArch: core: 12, cta: 2 initialized @(15270,0)
GPGPU-Sim uArch: Shader 13 finished CTA #2 (15298,0), 2 CTAs running
GPGPU-Sim uArch: core: 13, cta: 2 initialized @(15299,0)
GPGPU-Sim PTX: 7400000 instructions simulated : ctaid=(29,3,0) tid=(12,3,0)
GPGPU-Sim uArch: Shader 9 finished CTA #2 (15405,0), 2 CTAs running
GPGPU-Sim uArch: core:  9, cta: 2 initialized @(15406,0)
GPGPU-Sim uArch: Shader 11 finished CTA #2 (15424,0), 2 CTAs running
GPGPU-Sim uArch: core: 11, cta: 2 initialized @(15425,0)
GPGPU-Sim uArch: Shader 7 finished CTA #2 (15431,0), 2 CTAs running
GPGPU-Sim uArch: core:  7, cta: 2 initialized @(15432,0)
GPGPU-Sim uArch: Shader 10 finished CTA #2 (15436,0), 2 CTAs running
GPGPU-Sim uArch: core: 10, cta: 2 initialized @(15437,0)
GPGPU-Sim PTX: 7500000 instructions simulated : ctaid=(10,4,0) tid=(1,9,0)
GPGPU-Sim uArch: Shader 6 finished CTA #1 (15520,0), 2 CTAs running
GPGPU-Sim uArch: core:  6, cta: 1 initialized @(15521,0)
GPGPU-Sim uArch: Shader 0 finished CTA #2 (15540,0), 2 CTAs running
GPGPU-Sim uArch: core:  0, cta: 2 initialized @(15541,0)
GPGPU-Sim uArch: Shader 6 finished CTA #0 (15591,0), 2 CTAs running
GPGPU-Sim uArch: core:  6, cta: 0 initialized @(15592,0)
GPGPU-Sim uArch: Shader 5 finished CTA #1 (15652,0), 2 CTAs running
GPGPU-Sim uArch: core:  5, cta: 1 initialized @(15653,0)
GPGPU-Sim uArch: Shader 2 finished CTA #1 (15655,0), 2 CTAs running
GPGPU-Sim uArch: core:  2, cta: 1 initialized @(15656,0)
GPGPU-Sim uArch: Shader 4 finished CTA #0 (15680,0), 2 CTAs running
GPGPU-Sim PTX: 7600000 instructions simulated : ctaid=(13,4,0) tid=(13,8,0)
GPGPU-Sim uArch: core:  4, cta: 0 initialized @(15681,0)
GPGPU-Sim uArch: Shader 1 finished CTA #2 (15715,0), 2 CTAs running
GPGPU-Sim uArch: core:  1, cta: 2 initialized @(15716,0)
GPGPU-Sim uArch: Shader 5 finished CTA #2 (15722,0), 2 CTAs running
GPGPU-Sim uArch: core:  5, cta: 2 initialized @(15723,0)
GPGPU-Sim PTX: 7700000 instructions simulated : ctaid=(32,3,0) tid=(7,13,0)
GPGPU-Sim uArch: Shader 1 finished CTA #1 (15891,0), 2 CTAs running
GPGPU-Sim uArch: core:  1, cta: 1 initialized @(15892,0)
GPGPU-Sim PTX: 7800000 instructions simulated : ctaid=(1,4,0) tid=(13,8,0)
GPGPU-Sim uArch: cycles simulated: 16000  inst.: 7289782 (ipc=455.6) sim_rate=316947 (inst/sec) elapsed = 0:0:00:23 / Tue Mar 22 13:24:50 2016
GPGPU-Sim uArch: Shader 14 finished CTA #1 (16038,0), 2 CTAs running
GPGPU-Sim uArch: core: 14, cta: 1 initialized @(16039,0)
GPGPU-Sim uArch: Shader 11 finished CTA #1 (16086,0), 2 CTAs running
GPGPU-Sim uArch: core: 11, cta: 1 initialized @(16087,0)
GPGPU-Sim PTX: 7900000 instructions simulated : ctaid=(20,4,0) tid=(6,0,0)
GPGPU-Sim uArch: Shader 4 finished CTA #2 (16231,0), 2 CTAs running
GPGPU-Sim uArch: core:  4, cta: 2 initialized @(16232,0)
GPGPU-Sim uArch: Shader 7 finished CTA #0 (16296,0), 2 CTAs running
GPGPU-Sim uArch: core:  7, cta: 0 initialized @(16297,0)
GPGPU-Sim uArch: Shader 4 finished CTA #1 (16339,0), 2 CTAs running
GPGPU-Sim uArch: core:  4, cta: 1 initialized @(16340,0)
GPGPU-Sim uArch: Shader 3 finished CTA #2 (16346,0), 2 CTAs running
GPGPU-Sim uArch: core:  3, cta: 2 initialized @(16347,0)
GPGPU-Sim PTX: 8000000 instructions simulated : ctaid=(27,3,0) tid=(5,13,0)
GPGPU-Sim uArch: Shader 12 finished CTA #0 (16423,0), 2 CTAs running
GPGPU-Sim uArch: core: 12, cta: 0 initialized @(16424,0)
GPGPU-Sim uArch: Shader 3 finished CTA #0 (16442,0), 2 CTAs running
GPGPU-Sim uArch: core:  3, cta: 0 initialized @(16443,0)
GPGPU-Sim uArch: Shader 13 finished CTA #0 (16491,0), 2 CTAs running
GPGPU-Sim uArch: core: 13, cta: 0 initialized @(16492,0)
GPGPU-Sim uArch: cycles simulated: 16500  inst.: 7546337 (ipc=457.4) sim_rate=314430 (inst/sec) elapsed = 0:0:00:24 / Tue Mar 22 13:24:51 2016
GPGPU-Sim PTX: 8100000 instructions simulated : ctaid=(33,3,0) tid=(5,6,0)
GPGPU-Sim uArch: Shader 2 finished CTA #0 (16536,0), 2 CTAs running
GPGPU-Sim uArch: core:  2, cta: 0 initialized @(16537,0)
GPGPU-Sim uArch: Shader 7 finished CTA #1 (16716,0), 2 CTAs running
GPGPU-Sim uArch: core:  7, cta: 1 initialized @(16717,0)
GPGPU-Sim PTX: 8200000 instructions simulated : ctaid=(25,3,0) tid=(13,3,0)
GPGPU-Sim uArch: Shader 9 finished CTA #0 (16754,0), 2 CTAs running
GPGPU-Sim uArch: core:  9, cta: 0 initialized @(16755,0)
GPGPU-Sim uArch: Shader 10 finished CTA #0 (16774,0), 2 CTAs running
GPGPU-Sim uArch: core: 10, cta: 0 initialized @(16775,0)
GPGPU-Sim uArch: Shader 11 finished CTA #0 (16832,0), 2 CTAs running
GPGPU-Sim uArch: core: 11, cta: 0 initialized @(16833,0)
GPGPU-Sim uArch: Shader 2 finished CTA #2 (16942,0), 2 CTAs running
GPGPU-Sim uArch: core:  2, cta: 2 initialized @(16943,0)
GPGPU-Sim PTX: 8300000 instructions simulated : ctaid=(4,4,0) tid=(7,2,0)
GPGPU-Sim uArch: Shader 1 finished CTA #0 (17030,0), 2 CTAs running
GPGPU-Sim uArch: core:  1, cta: 0 initialized @(17031,0)
GPGPU-Sim PTX: 8400000 instructions simulated : ctaid=(35,4,0) tid=(7,3,0)
GPGPU-Sim uArch: Shader 14 finished CTA #0 (17223,0), 2 CTAs running
GPGPU-Sim uArch: core: 14, cta: 0 initialized @(17224,0)
GPGPU-Sim uArch: Shader 3 finished CTA #1 (17252,0), 2 CTAs running
GPGPU-Sim uArch: core:  3, cta: 1 initialized @(17253,0)
GPGPU-Sim PTX: 8500000 instructions simulated : ctaid=(9,4,0) tid=(0,10,0)
GPGPU-Sim uArch: Shader 8 finished CTA #2 (17308,0), 2 CTAs running
GPGPU-Sim uArch: core:  8, cta: 2 initialized @(17309,0)
GPGPU-Sim uArch: Shader 8 finished CTA #1 (17348,0), 2 CTAs running
GPGPU-Sim uArch: core:  8, cta: 1 initialized @(17349,0)
GPGPU-Sim uArch: Shader 8 finished CTA #0 (17378,0), 2 CTAs running
GPGPU-Sim uArch: core:  8, cta: 0 initialized @(17379,0)
GPGPU-Sim PTX: 8600000 instructions simulated : ctaid=(36,4,0) tid=(13,8,0)
GPGPU-Sim uArch: cycles simulated: 17500  inst.: 8062712 (ipc=460.7) sim_rate=322508 (inst/sec) elapsed = 0:0:00:25 / Tue Mar 22 13:24:52 2016
GPGPU-Sim uArch: Shader 12 finished CTA #1 (17519,0), 2 CTAs running
GPGPU-Sim uArch: core: 12, cta: 1 initialized @(17520,0)
GPGPU-Sim PTX: 8700000 instructions simulated : ctaid=(11,4,0) tid=(13,11,0)
GPGPU-Sim uArch: Shader 13 finished CTA #1 (17749,0), 2 CTAs running
GPGPU-Sim uArch: core: 13, cta: 1 initialized @(17750,0)
GPGPU-Sim PTX: 8800000 instructions simulated : ctaid=(37,4,0) tid=(9,0,0)
GPGPU-Sim uArch: Shader 0 finished CTA #0 (17785,0), 2 CTAs running
GPGPU-Sim uArch: core:  0, cta: 0 initialized @(17786,0)
GPGPU-Sim uArch: Shader 10 finished CTA #1 (17810,0), 2 CTAs running
GPGPU-Sim uArch: core: 10, cta: 1 initialized @(17811,0)
GPGPU-Sim uArch: Shader 9 finished CTA #1 (17837,0), 2 CTAs running
GPGPU-Sim uArch: core:  9, cta: 1 initialized @(17838,0)
GPGPU-Sim PTX: 8900000 instructions simulated : ctaid=(4,4,0) tid=(6,12,0)
GPGPU-Sim PTX: 9000000 instructions simulated : ctaid=(30,4,0) tid=(13,7,0)
GPGPU-Sim PTX: 9100000 instructions simulated : ctaid=(20,4,0) tid=(10,4,0)
GPGPU-Sim uArch: Shader 3 finished CTA #1 (18253,0), 2 CTAs running
GPGPU-Sim uArch: core:  3, cta: 1 initialized @(18254,0)
GPGPU-Sim uArch: Shader 0 finished CTA #1 (18336,0), 2 CTAs running
GPGPU-Sim uArch: core:  0, cta: 1 initialized @(18337,0)
GPGPU-Sim PTX: 9200000 instructions simulated : ctaid=(38,4,0) tid=(1,5,0)
GPGPU-Sim uArch: Shader 14 finished CTA #2 (18447,0), 2 CTAs running
GPGPU-Sim uArch: core: 14, cta: 2 initialized @(18448,0)
GPGPU-Sim uArch: cycles simulated: 18500  inst.: 8645628 (ipc=467.3) sim_rate=332524 (inst/sec) elapsed = 0:0:00:26 / Tue Mar 22 13:24:53 2016
GPGPU-Sim PTX: 9300000 instructions simulated : ctaid=(11,4,0) tid=(6,8,0)
GPGPU-Sim PTX: 9400000 instructions simulated : ctaid=(32,4,0) tid=(11,14,0)
GPGPU-Sim uArch: Shader 13 finished CTA #2 (18809,0), 2 CTAs running
GPGPU-Sim uArch: core: 13, cta: 2 initialized @(18810,0)
GPGPU-Sim uArch: Shader 6 finished CTA #2 (18827,0), 2 CTAs running
GPGPU-Sim uArch: core:  6, cta: 2 initialized @(18828,0)
GPGPU-Sim uArch: Shader 9 finished CTA #2 (18845,0), 2 CTAs running
GPGPU-Sim uArch: core:  9, cta: 2 initialized @(18846,0)
GPGPU-Sim uArch: Shader 11 finished CTA #2 (18878,0), 2 CTAs running
GPGPU-Sim uArch: core: 11, cta: 2 initialized @(18879,0)
GPGPU-Sim uArch: Shader 8 finished CTA #1 (18887,0), 2 CTAs running
GPGPU-Sim uArch: core:  8, cta: 1 initialized @(18888,0)
GPGPU-Sim PTX: 9500000 instructions simulated : ctaid=(33,4,0) tid=(9,1,0)
GPGPU-Sim uArch: Shader 12 finished CTA #2 (18915,0), 2 CTAs running
GPGPU-Sim uArch: core: 12, cta: 2 initialized @(18916,0)
GPGPU-Sim uArch: Shader 8 finished CTA #2 (18919,0), 2 CTAs running
GPGPU-Sim uArch: core:  8, cta: 2 initialized @(18920,0)
GPGPU-Sim uArch: Shader 10 finished CTA #2 (18960,0), 2 CTAs running
GPGPU-Sim uArch: core: 10, cta: 2 initialized @(18961,0)
GPGPU-Sim uArch: Shader 5 finished CTA #0 (18983,0), 2 CTAs running
GPGPU-Sim uArch: core:  5, cta: 0 initialized @(18984,0)
GPGPU-Sim uArch: cycles simulated: 19000  inst.: 8929212 (ipc=470.0) sim_rate=330711 (inst/sec) elapsed = 0:0:00:27 / Tue Mar 22 13:24:54 2016
GPGPU-Sim uArch: Shader 7 finished CTA #2 (19002,0), 2 CTAs running
GPGPU-Sim uArch: core:  7, cta: 2 initialized @(19003,0)
GPGPU-Sim PTX: 9600000 instructions simulated : ctaid=(13,4,0) tid=(10,13,0)
GPGPU-Sim uArch: Shader 8 finished CTA #0 (19164,0), 2 CTAs running
GPGPU-Sim uArch: core:  8, cta: 0 initialized @(19165,0)
GPGPU-Sim uArch: Shader 0 finished CTA #2 (19222,0), 2 CTAs running
GPGPU-Sim uArch: core:  0, cta: 2 initialized @(19223,0)
GPGPU-Sim uArch: Shader 1 finished CTA #2 (19247,0), 2 CTAs running
GPGPU-Sim uArch: core:  1, cta: 2 initialized @(19248,0)
GPGPU-Sim PTX: 9700000 instructions simulated : ctaid=(24,4,0) tid=(10,8,0)
GPGPU-Sim PTX: 9800000 instructions simulated : ctaid=(35,4,0) tid=(5,5,0)
GPGPU-Sim uArch: Shader 2 finished CTA #1 (19517,0), 2 CTAs running
GPGPU-Sim uArch: core:  2, cta: 1 initialized @(19518,0)
GPGPU-Sim PTX: 9900000 instructions simulated : ctaid=(36,4,0) tid=(1,12,0)
GPGPU-Sim uArch: Shader 12 finished CTA #1 (19596,0), 2 CTAs running
GPGPU-Sim uArch: core: 12, cta: 1 initialized @(19597,0)
GPGPU-Sim uArch: Shader 13 finished CTA #1 (19618,0), 2 CTAs running
GPGPU-Sim uArch: core: 13, cta: 1 initialized @(19619,0)
GPGPU-Sim uArch: Shader 11 finished CTA #1 (19639,0), 2 CTAs running
GPGPU-Sim uArch: core: 11, cta: 1 initialized @(19640,0)
GPGPU-Sim uArch: Shader 5 finished CTA #1 (19666,0), 2 CTAs running
GPGPU-Sim uArch: core:  5, cta: 1 initialized @(19667,0)
GPGPU-Sim PTX: 10000000 instructions simulated : ctaid=(1,5,0) tid=(11,8,0)
GPGPU-Sim uArch: Shader 14 finished CTA #1 (19772,0), 2 CTAs running
GPGPU-Sim uArch: core: 14, cta: 1 initialized @(19773,0)
GPGPU-Sim uArch: Shader 3 finished CTA #2 (19800,0), 2 CTAs running
GPGPU-Sim uArch: core:  3, cta: 2 initialized @(19801,0)
GPGPU-Sim uArch: Shader 6 finished CTA #1 (19806,0), 2 CTAs running
GPGPU-Sim uArch: core:  6, cta: 1 initialized @(19807,0)
GPGPU-Sim uArch: Shader 4 finished CTA #0 (19818,0), 2 CTAs running
GPGPU-Sim uArch: core:  4, cta: 0 initialized @(19819,0)
GPGPU-Sim PTX: 10100000 instructions simulated : ctaid=(24,4,0) tid=(10,13,0)
GPGPU-Sim uArch: Shader 6 finished CTA #0 (19986,0), 2 CTAs running
GPGPU-Sim uArch: core:  6, cta: 0 initialized @(19987,0)
GPGPU-Sim uArch: Shader 7 finished CTA #0 (19990,0), 2 CTAs running
GPGPU-Sim uArch: core:  7, cta: 0 initialized @(19991,0)
GPGPU-Sim uArch: cycles simulated: 20000  inst.: 9458490 (ipc=472.9) sim_rate=337803 (inst/sec) elapsed = 0:0:00:28 / Tue Mar 22 13:24:55 2016
GPGPU-Sim uArch: Shader 12 finished CTA #0 (20019,0), 2 CTAs running
GPGPU-Sim uArch: core: 12, cta: 0 initialized @(20020,0)
GPGPU-Sim PTX: 10200000 instructions simulated : ctaid=(33,4,0) tid=(2,12,0)
GPGPU-Sim uArch: Shader 5 finished CTA #2 (20295,0), 2 CTAs running
GPGPU-Sim uArch: core:  5, cta: 2 initialized @(20296,0)
GPGPU-Sim uArch: Shader 1 finished CTA #1 (20297,0), 2 CTAs running
GPGPU-Sim uArch: core:  1, cta: 1 initialized @(20298,0)
GPGPU-Sim uArch: Shader 10 finished CTA #0 (20299,0), 2 CTAs running
GPGPU-Sim uArch: core: 10, cta: 0 initialized @(20300,0)
GPGPU-Sim PTX: 10300000 instructions simulated : ctaid=(29,5,0) tid=(5,8,0)
GPGPU-Sim uArch: Shader 13 finished CTA #0 (20391,0), 2 CTAs running
GPGPU-Sim uArch: core: 13, cta: 0 initialized @(20392,0)
GPGPU-Sim uArch: Shader 7 finished CTA #1 (20429,0), 2 CTAs running
GPGPU-Sim uArch: core:  7, cta: 1 initialized @(20430,0)
GPGPU-Sim uArch: Shader 4 finished CTA #1 (20445,0), 2 CTAs running
GPGPU-Sim uArch: core:  4, cta: 1 initialized @(20446,0)
GPGPU-Sim uArch: cycles simulated: 20500  inst.: 9694763 (ipc=472.9) sim_rate=334302 (inst/sec) elapsed = 0:0:00:29 / Tue Mar 22 13:24:56 2016
GPGPU-Sim uArch: Shader 9 finished CTA #0 (20537,0), 2 CTAs running
GPGPU-Sim uArch: core:  9, cta: 0 initialized @(20538,0)
GPGPU-Sim PTX: 10400000 instructions simulated : ctaid=(35,5,0) tid=(7,12,0)
GPGPU-Sim uArch: Shader 2 finished CTA #0 (20545,0), 2 CTAs running
GPGPU-Sim uArch: core:  2, cta: 0 initialized @(20546,0)
GPGPU-Sim uArch: Shader 11 finished CTA #0 (20596,0), 2 CTAs running
GPGPU-Sim uArch: core: 11, cta: 0 initialized @(20597,0)
GPGPU-Sim PTX: 10500000 instructions simulated : ctaid=(38,5,0) tid=(12,13,0)
GPGPU-Sim uArch: Shader 2 finished CTA #2 (20759,0), 2 CTAs running
GPGPU-Sim uArch: core:  2, cta: 2 initialized @(20760,0)
GPGPU-Sim uArch: Shader 14 finished CTA #0 (20798,0), 2 CTAs running
GPGPU-Sim uArch: core: 14, cta: 0 initialized @(20799,0)
GPGPU-Sim uArch: Shader 4 finished CTA #2 (20816,0), 2 CTAs running
GPGPU-Sim uArch: core:  4, cta: 2 initialized @(20817,0)
GPGPU-Sim PTX: 10600000 instructions simulated : ctaid=(33,5,0) tid=(1,2,0)
GPGPU-Sim uArch: Shader 3 finished CTA #0 (20920,0), 2 CTAs running
GPGPU-Sim uArch: core:  3, cta: 0 initialized @(20921,0)
GPGPU-Sim uArch: cycles simulated: 21000  inst.: 9985474 (ipc=475.5) sim_rate=332849 (inst/sec) elapsed = 0:0:00:30 / Tue Mar 22 13:24:57 2016
GPGPU-Sim PTX: 10700000 instructions simulated : ctaid=(9,5,0) tid=(9,11,0)
GPGPU-Sim PTX: 10800000 instructions simulated : ctaid=(38,5,0) tid=(1,0,0)
GPGPU-Sim uArch: Shader 1 finished CTA #0 (21229,0), 2 CTAs running
GPGPU-Sim uArch: core:  1, cta: 0 initialized @(21230,0)
GPGPU-Sim uArch: Shader 10 finished CTA #1 (21271,0), 2 CTAs running
GPGPU-Sim uArch: core: 10, cta: 1 initialized @(21272,0)
GPGPU-Sim uArch: Shader 0 finished CTA #0 (21308,0), 2 CTAs running
GPGPU-Sim uArch: core:  0, cta: 0 initialized @(21309,0)
GPGPU-Sim PTX: 10900000 instructions simulated : ctaid=(8,5,0) tid=(8,11,0)
GPGPU-Sim PTX: 11000000 instructions simulated : ctaid=(1,6,0) tid=(5,4,0)
GPGPU-Sim uArch: Shader 2 finished CTA #0 (21538,0), 2 CTAs running
GPGPU-Sim uArch: core:  2, cta: 0 initialized @(21539,0)
GPGPU-Sim uArch: Shader 9 finished CTA #1 (21619,0), 2 CTAs running
GPGPU-Sim uArch: core:  9, cta: 1 initialized @(21620,0)
GPGPU-Sim PTX: 11100000 instructions simulated : ctaid=(12,5,0) tid=(12,9,0)
GPGPU-Sim uArch: Shader 3 finished CTA #1 (21793,0), 2 CTAs running
GPGPU-Sim uArch: core:  3, cta: 1 initialized @(21794,0)
GPGPU-Sim PTX: 11200000 instructions simulated : ctaid=(23,5,0) tid=(13,11,0)
GPGPU-Sim uArch: Shader 4 finished CTA #2 (21858,0), 2 CTAs running
GPGPU-Sim uArch: core:  4, cta: 2 initialized @(21859,0)
GPGPU-Sim PTX: 11300000 instructions simulated : ctaid=(12,5,0) tid=(10,9,0)
GPGPU-Sim uArch: cycles simulated: 22000  inst.: 10569396 (ipc=480.4) sim_rate=340948 (inst/sec) elapsed = 0:0:00:31 / Tue Mar 22 13:24:58 2016
GPGPU-Sim uArch: Shader 14 finished CTA #0 (22009,0), 2 CTAs running
GPGPU-Sim uArch: core: 14, cta: 0 initialized @(22010,0)
GPGPU-Sim uArch: Shader 14 finished CTA #2 (22028,0), 2 CTAs running
GPGPU-Sim uArch: core: 14, cta: 2 initialized @(22029,0)
GPGPU-Sim PTX: 11400000 instructions simulated : ctaid=(36,5,0) tid=(5,1,0)
GPGPU-Sim PTX: 11500000 instructions simulated : ctaid=(5,6,0) tid=(3,11,0)
GPGPU-Sim uArch: Shader 6 finished CTA #2 (22328,0), 2 CTAs running
GPGPU-Sim uArch: core:  6, cta: 2 initialized @(22329,0)
GPGPU-Sim uArch: Shader 9 finished CTA #0 (22410,0), 2 CTAs running
GPGPU-Sim uArch: core:  9, cta: 0 initialized @(22411,0)
GPGPU-Sim uArch: Shader 2 finished CTA #2 (22439,0), 2 CTAs running
GPGPU-Sim uArch: core:  2, cta: 2 initialized @(22440,0)
GPGPU-Sim uArch: Shader 11 finished CTA #0 (22463,0), 2 CTAs running
GPGPU-Sim uArch: core: 11, cta: 0 initialized @(22464,0)
GPGPU-Sim uArch: cycles simulated: 22500  inst.: 10839854 (ipc=481.8) sim_rate=338745 (inst/sec) elapsed = 0:0:00:32 / Tue Mar 22 13:24:59 2016
GPGPU-Sim PTX: 11600000 instructions simulated : ctaid=(22,5,0) tid=(4,5,0)
GPGPU-Sim uArch: Shader 0 finished CTA #1 (22542,0), 2 CTAs running
GPGPU-Sim uArch: core:  0, cta: 1 initialized @(22543,0)
GPGPU-Sim uArch: Shader 9 finished CTA #2 (22609,0), 2 CTAs running
GPGPU-Sim uArch: core:  9, cta: 2 initialized @(22610,0)
GPGPU-Sim uArch: Shader 10 finished CTA #2 (22618,0), 2 CTAs running
GPGPU-Sim uArch: core: 10, cta: 2 initialized @(22619,0)
GPGPU-Sim uArch: Shader 13 finished CTA #2 (22668,0), 2 CTAs running
GPGPU-Sim uArch: core: 13, cta: 2 initialized @(22669,0)
GPGPU-Sim PTX: 11700000 instructions simulated : ctaid=(22,5,0) tid=(10,14,0)
GPGPU-Sim uArch: Shader 11 finished CTA #2 (22675,0), 2 CTAs running
GPGPU-Sim uArch: core: 11, cta: 2 initialized @(22676,0)
GPGPU-Sim uArch: Shader 5 finished CTA #0 (22746,0), 2 CTAs running
GPGPU-Sim uArch: core:  5, cta: 0 initialized @(22747,0)
GPGPU-Sim uArch: Shader 7 finished CTA #2 (22748,0), 2 CTAs running
GPGPU-Sim uArch: core:  7, cta: 2 initialized @(22749,0)
GPGPU-Sim uArch: Shader 12 finished CTA #2 (22758,0), 2 CTAs running
GPGPU-Sim uArch: core: 12, cta: 2 initialized @(22759,0)
GPGPU-Sim PTX: 11800000 instructions simulated : ctaid=(19,5,0) tid=(3,2,0)
GPGPU-Sim PTX: 11900000 instructions simulated : ctaid=(21,6,0) tid=(3,1,0)
GPGPU-Sim uArch: Shader 0 finished CTA #2 (23094,0), 2 CTAs running
GPGPU-Sim uArch: core:  0, cta: 2 initialized @(23095,0)
GPGPU-Sim PTX: 12000000 instructions simulated : ctaid=(2,6,0) tid=(9,8,0)
GPGPU-Sim uArch: Shader 3 finished CTA #2 (23290,0), 2 CTAs running
GPGPU-Sim uArch: core:  3, cta: 2 initialized @(23291,0)
GPGPU-Sim uArch: Shader 5 finished CTA #1 (23348,0), 2 CTAs running
GPGPU-Sim uArch: core:  5, cta: 1 initialized @(23349,0)
GPGPU-Sim PTX: 12100000 instructions simulated : ctaid=(21,6,0) tid=(0,5,0)
GPGPU-Sim uArch: Shader 12 finished CTA #1 (23458,0), 2 CTAs running
GPGPU-Sim uArch: core: 12, cta: 1 initialized @(23459,0)
GPGPU-Sim uArch: Shader 4 finished CTA #0 (23464,0), 2 CTAs running
GPGPU-Sim uArch: core:  4, cta: 0 initialized @(23465,0)
GPGPU-Sim uArch: Shader 6 finished CTA #1 (23492,0), 2 CTAs running
GPGPU-Sim uArch: core:  6, cta: 1 initialized @(23493,0)
GPGPU-Sim uArch: cycles simulated: 23500  inst.: 11343206 (ipc=482.7) sim_rate=343733 (inst/sec) elapsed = 0:0:00:33 / Tue Mar 22 13:25:00 2016
GPGPU-Sim uArch: Shader 14 finished CTA #1 (23519,0), 2 CTAs running
GPGPU-Sim uArch: core: 14, cta: 1 initialized @(23520,0)
GPGPU-Sim uArch: Shader 2 finished CTA #1 (23601,0), 2 CTAs running
GPGPU-Sim uArch: core:  2, cta: 1 initialized @(23602,0)
GPGPU-Sim uArch: Shader 13 finished CTA #1 (23603,0), 2 CTAs running
GPGPU-Sim uArch: core: 13, cta: 1 initialized @(23604,0)
GPGPU-Sim PTX: 12200000 instructions simulated : ctaid=(28,6,0) tid=(14,13,0)
GPGPU-Sim uArch: Shader 1 finished CTA #2 (23670,0), 2 CTAs running
GPGPU-Sim uArch: Shader 11 finished CTA #1 (23670,0), 2 CTAs running
GPGPU-Sim uArch: core:  1, cta: 2 initialized @(23671,0)
GPGPU-Sim uArch: core: 11, cta: 1 initialized @(23671,0)
GPGPU-Sim uArch: Shader 8 finished CTA #2 (23725,0), 2 CTAs running
GPGPU-Sim uArch: core:  8, cta: 2 initialized @(23726,0)
GPGPU-Sim PTX: 12300000 instructions simulated : ctaid=(12,6,0) tid=(7,3,0)
GPGPU-Sim uArch: Shader 8 finished CTA #1 (23832,0), 2 CTAs running
GPGPU-Sim uArch: core:  8, cta: 1 initialized @(23833,0)
GPGPU-Sim uArch: Shader 10 finished CTA #0 (23870,0), 2 CTAs running
GPGPU-Sim uArch: core: 10, cta: 0 initialized @(23871,0)
GPGPU-Sim uArch: Shader 8 finished CTA #0 (23910,0), 2 CTAs running
GPGPU-Sim uArch: core:  8, cta: 0 initialized @(23911,0)
GPGPU-Sim uArch: Shader 7 finished CTA #0 (23928,0), 2 CTAs running
GPGPU-Sim uArch: core:  7, cta: 0 initialized @(23929,0)
GPGPU-Sim PTX: 12400000 instructions simulated : ctaid=(0,6,0) tid=(2,8,0)
GPGPU-Sim uArch: cycles simulated: 24000  inst.: 11611089 (ipc=483.8) sim_rate=341502 (inst/sec) elapsed = 0:0:00:34 / Tue Mar 22 13:25:01 2016
GPGPU-Sim uArch: Shader 5 finished CTA #2 (24019,0), 2 CTAs running
GPGPU-Sim uArch: core:  5, cta: 2 initialized @(24020,0)
GPGPU-Sim PTX: 12500000 instructions simulated : ctaid=(5,6,0) tid=(13,4,0)
GPGPU-Sim uArch: Shader 6 finished CTA #0 (24172,0), 2 CTAs running
GPGPU-Sim uArch: core:  6, cta: 0 initialized @(24173,0)
GPGPU-Sim uArch: Shader 7 finished CTA #1 (24314,0), 2 CTAs running
GPGPU-Sim uArch: core:  7, cta: 1 initialized @(24315,0)
GPGPU-Sim PTX: 12600000 instructions simulated : ctaid=(36,6,0) tid=(7,4,0)
GPGPU-Sim uArch: Shader 12 finished CTA #0 (24329,0), 2 CTAs running
GPGPU-Sim uArch: core: 12, cta: 0 initialized @(24330,0)
GPGPU-Sim uArch: Shader 4 finished CTA #1 (24388,0), 2 CTAs running
GPGPU-Sim uArch: core:  4, cta: 1 initialized @(24389,0)
GPGPU-Sim uArch: Shader 13 finished CTA #0 (24390,0), 2 CTAs running
GPGPU-Sim uArch: core: 13, cta: 0 initialized @(24391,0)
GPGPU-Sim uArch: Shader 1 finished CTA #1 (24443,0), 2 CTAs running
GPGPU-Sim uArch: core:  1, cta: 1 initialized @(24444,0)
GPGPU-Sim PTX: 12700000 instructions simulated : ctaid=(5,6,0) tid=(8,4,0)
GPGPU-Sim uArch: cycles simulated: 24500  inst.: 11884898 (ipc=485.1) sim_rate=339568 (inst/sec) elapsed = 0:0:00:35 / Tue Mar 22 13:25:02 2016
GPGPU-Sim uArch: Shader 3 finished CTA #0 (24598,0), 2 CTAs running
GPGPU-Sim uArch: core:  3, cta: 0 initialized @(24599,0)
GPGPU-Sim PTX: 12800000 instructions simulated : ctaid=(42,6,0) tid=(3,13,0)
GPGPU-Sim uArch: Shader 0 finished CTA #0 (24733,0), 2 CTAs running
GPGPU-Sim uArch: core:  0, cta: 0 initialized @(24734,0)
GPGPU-Sim uArch: Shader 1 finished CTA #0 (24749,0), 2 CTAs running
GPGPU-Sim uArch: core:  1, cta: 0 initialized @(24750,0)
GPGPU-Sim PTX: 12900000 instructions simulated : ctaid=(17,6,0) tid=(3,15,0)
GPGPU-Sim uArch: Shader 7 finished CTA #0 (24805,0), 2 CTAs running
GPGPU-Sim uArch: core:  7, cta: 0 initialized @(24806,0)
GPGPU-Sim uArch: Shader 10 finished CTA #1 (24811,0), 2 CTAs running
GPGPU-Sim uArch: core: 10, cta: 1 initialized @(24812,0)
GPGPU-Sim PTX: 13000000 instructions simulated : ctaid=(19,6,0) tid=(11,10,0)
GPGPU-Sim uArch: Shader 2 finished CTA #0 (25052,0), 2 CTAs running
GPGPU-Sim uArch: core:  2, cta: 0 initialized @(25053,0)
GPGPU-Sim PTX: 13100000 instructions simulated : ctaid=(6,6,0) tid=(8,4,0)
GPGPU-Sim uArch: Shader 5 finished CTA #2 (25172,0), 2 CTAs running
GPGPU-Sim uArch: core:  5, cta: 2 initialized @(25173,0)
GPGPU-Sim PTX: 13200000 instructions simulated : ctaid=(12,6,0) tid=(5,12,0)
GPGPU-Sim PTX: 13300000 instructions simulated : ctaid=(19,6,0) tid=(8,3,0)
GPGPU-Sim uArch: cycles simulated: 25500  inst.: 12469572 (ipc=489.0) sim_rate=346377 (inst/sec) elapsed = 0:0:00:36 / Tue Mar 22 13:25:03 2016
GPGPU-Sim PTX: 13400000 instructions simulated : ctaid=(15,6,0) tid=(10,5,0)
GPGPU-Sim uArch: Shader 4 finished CTA #2 (25601,0), 2 CTAs running
GPGPU-Sim uArch: core:  4, cta: 2 initialized @(25602,0)
GPGPU-Sim uArch: Shader 9 finished CTA #1 (25623,0), 2 CTAs running
GPGPU-Sim uArch: core:  9, cta: 1 initialized @(25624,0)
GPGPU-Sim uArch: Shader 6 finished CTA #0 (25647,0), 2 CTAs running
GPGPU-Sim uArch: core:  6, cta: 0 initialized @(25648,0)
GPGPU-Sim uArch: Shader 3 finished CTA #1 (25676,0), 2 CTAs running
GPGPU-Sim uArch: core:  3, cta: 1 initialized @(25677,0)
GPGPU-Sim uArch: Shader 14 finished CTA #0 (25718,0), 2 CTAs running
GPGPU-Sim uArch: core: 14, cta: 0 initialized @(25719,0)
GPGPU-Sim uArch: Shader 6 finished CTA #2 (25732,0), 2 CTAs running
GPGPU-Sim uArch: core:  6, cta: 2 initialized @(25733,0)
GPGPU-Sim PTX: 13500000 instructions simulated : ctaid=(16,6,0) tid=(8,3,0)
GPGPU-Sim uArch: Shader 12 finished CTA #0 (25878,0), 2 CTAs running
GPGPU-Sim uArch: core: 12, cta: 0 initialized @(25879,0)
GPGPU-Sim PTX: 13600000 instructions simulated : ctaid=(22,6,0) tid=(10,8,0)
GPGPU-Sim uArch: cycles simulated: 26000  inst.: 12755024 (ipc=490.6) sim_rate=344730 (inst/sec) elapsed = 0:0:00:37 / Tue Mar 22 13:25:04 2016
GPGPU-Sim uArch: Shader 0 finished CTA #1 (26017,0), 2 CTAs running
GPGPU-Sim uArch: core:  0, cta: 1 initialized @(26018,0)
GPGPU-Sim uArch: Shader 7 finished CTA #1 (26071,0), 2 CTAs running
GPGPU-Sim uArch: core:  7, cta: 1 initialized @(26072,0)
GPGPU-Sim PTX: 13700000 instructions simulated : ctaid=(16,7,0) tid=(1,0,0)
GPGPU-Sim uArch: Shader 11 finished CTA #0 (26170,0), 2 CTAs running
GPGPU-Sim uArch: core: 11, cta: 0 initialized @(26171,0)
GPGPU-Sim uArch: Shader 10 finished CTA #2 (26209,0), 2 CTAs running
GPGPU-Sim uArch: core: 10, cta: 2 initialized @(26210,0)
GPGPU-Sim uArch: Shader 2 finished CTA #2 (26225,0), 2 CTAs running
GPGPU-Sim uArch: core:  2, cta: 2 initialized @(26226,0)
GPGPU-Sim PTX: 13800000 instructions simulated : ctaid=(35,6,0) tid=(12,11,0)
GPGPU-Sim uArch: Shader 13 finished CTA #2 (26345,0), 2 CTAs running
GPGPU-Sim uArch: core: 13, cta: 2 initialized @(26346,0)
GPGPU-Sim uArch: Shader 4 finished CTA #1 (26370,0), 2 CTAs running
GPGPU-Sim uArch: core:  4, cta: 1 initialized @(26371,0)
GPGPU-Sim PTX: 13900000 instructions simulated : ctaid=(2,7,0) tid=(13,12,0)
GPGPU-Sim uArch: cycles simulated: 26500  inst.: 13019596 (ipc=491.3) sim_rate=342620 (inst/sec) elapsed = 0:0:00:38 / Tue Mar 22 13:25:05 2016
GPGPU-Sim uArch: Shader 12 finished CTA #2 (26550,0), 2 CTAs running
GPGPU-Sim uArch: core: 12, cta: 2 initialized @(26551,0)
GPGPU-Sim uArch: Shader 9 finished CTA #0 (26586,0), 2 CTAs running
GPGPU-Sim uArch: core:  9, cta: 0 initialized @(26587,0)
GPGPU-Sim PTX: 14000000 instructions simulated : ctaid=(21,7,0) tid=(11,5,0)
GPGPU-Sim uArch: Shader 5 finished CTA #0 (26655,0), 2 CTAs running
GPGPU-Sim uArch: core:  5, cta: 0 initialized @(26656,0)
GPGPU-Sim uArch: Shader 14 finished CTA #2 (26664,0), 2 CTAs running
GPGPU-Sim uArch: core: 14, cta: 2 initialized @(26665,0)
GPGPU-Sim PTX: 14100000 instructions simulated : ctaid=(36,6,0) tid=(6,0,0)
GPGPU-Sim uArch: Shader 7 finished CTA #2 (26799,0), 2 CTAs running
GPGPU-Sim uArch: core:  7, cta: 2 initialized @(26800,0)
GPGPU-Sim uArch: Shader 9 finished CTA #2 (26871,0), 2 CTAs running
GPGPU-Sim uArch: core:  9, cta: 2 initialized @(26872,0)
GPGPU-Sim uArch: Shader 3 finished CTA #2 (26943,0), 2 CTAs running
GPGPU-Sim uArch: core:  3, cta: 2 initialized @(26944,0)
GPGPU-Sim PTX: 14200000 instructions simulated : ctaid=(8,7,0) tid=(10,12,0)
GPGPU-Sim uArch: Shader 0 finished CTA #2 (27113,0), 2 CTAs running
GPGPU-Sim uArch: core:  0, cta: 2 initialized @(27114,0)
GPGPU-Sim PTX: 14300000 instructions simulated : ctaid=(5,7,0) tid=(14,5,0)
GPGPU-Sim uArch: Shader 13 finished CTA #1 (27166,0), 2 CTAs running
GPGPU-Sim uArch: core: 13, cta: 1 initialized @(27167,0)
GPGPU-Sim uArch: Shader 4 finished CTA #0 (27220,0), 2 CTAs running
GPGPU-Sim uArch: core:  4, cta: 0 initialized @(27221,0)
GPGPU-Sim uArch: Shader 11 finished CTA #2 (27238,0), 2 CTAs running
GPGPU-Sim uArch: core: 11, cta: 2 initialized @(27239,0)
GPGPU-Sim uArch: Shader 5 finished CTA #1 (27366,0), 2 CTAs running
GPGPU-Sim uArch: core:  5, cta: 1 initialized @(27367,0)
GPGPU-Sim PTX: 14400000 instructions simulated : ctaid=(15,7,0) tid=(3,9,0)
GPGPU-Sim uArch: Shader 10 finished CTA #0 (27452,0), 2 CTAs running
GPGPU-Sim uArch: core: 10, cta: 0 initialized @(27453,0)
GPGPU-Sim uArch: Shader 8 finished CTA #2 (27488,0), 2 CTAs running
GPGPU-Sim uArch: core:  8, cta: 2 initialized @(27489,0)
GPGPU-Sim uArch: Shader 1 finished CTA #2 (27496,0), 2 CTAs running
GPGPU-Sim uArch: core:  1, cta: 2 initialized @(27497,0)
GPGPU-Sim uArch: cycles simulated: 27500  inst.: 13526710 (ipc=491.9) sim_rate=346838 (inst/sec) elapsed = 0:0:00:39 / Tue Mar 22 13:25:06 2016
GPGPU-Sim uArch: Shader 2 finished CTA #1 (27526,0), 2 CTAs running
GPGPU-Sim uArch: core:  2, cta: 1 initialized @(27527,0)
GPGPU-Sim uArch: Shader 12 finished CTA #1 (27530,0), 2 CTAs running
GPGPU-Sim uArch: Shader 14 finished CTA #1 (27530,0), 2 CTAs running
GPGPU-Sim uArch: core: 12, cta: 1 initialized @(27531,0)
GPGPU-Sim uArch: core: 14, cta: 1 initialized @(27531,0)
[...]
Warp Occupancy Distribution:
Stall:327302	W0_Idle:80285	W0_Scoreboard:900009	W1:0	W2:0	W3:0	W4:0	W5:0	W6:0	W7:0	W8:0	W9:5814	W10:0	W11:0	W12:0	W13:5986	W14:221808	W15:0	W16:0	W17:0	W18:17752	W19:0	W20:6132	W21:0	W22:0	W23:0	W24:0	W25:0	W26:18268	W27:0	W28:727950	W29:0	W30:59168	W31:0	W32:1663412
traffic_breakdown_coretomem[CONST_ACC_R] = 120 {8:15,}
traffic_breakdown_coretomem[GLOBAL_ACC_R] = 468672 {8:58584,}
traffic_breakdown_coretomem[GLOBAL_ACC_W] = 2162688 {40:8704,72:9728,136:8192,}
traffic_breakdown_coretomem[INST_ACC_R] = 1680 {8:210,}
traffic_breakdown_memtocore[CONST_ACC_R] = 1080 {72:15,}
traffic_breakdown_memtocore[GLOBAL_ACC_R] = 7967424 {136:58584,}
traffic_breakdown_memtocore[GLOBAL_ACC_W] = 212992 {8:26624,}
traffic_breakdown_memtocore[INST_ACC_R] = 28560 {136:210,}
maxmrqlatency = 205 
maxdqlatency = 0 
maxmflatency = 615 
averagemflatency = 235 
max_icnt2mem_latency = 368 
max_icnt2sh_latency = 127813 
mrq_lat_table:20458 	2672 	2003 	3685 	6533 	5056 	1965 	322 	0 	0 	0 	0 	0 	0 	0 	0 	0 	0 	0 	0 	0 	0 	0 	0 	0 	0 	0 	0 	0 	0 	0 	0 	
dq_lat_table:0 	0 	0 	0 	0 	0 	0 	0 	0 	0 	0 	0 	0 	0 	0 	0 	0 	0 	0 	0 	0 	0 	0 	0 	0 	0 	0 	0 	0 	0 	0 	0 	
mf_lat_table:0 	0 	0 	0 	0 	0 	0 	49261 	35774 	188 	0 	0 	0 	0 	0 	0 	0 	0 	0 	0 	0 	0 	0 	0 	0 	0 	0 	0 	0 	0 	0 	0 	
icnt2mem_lat_table:0 	0 	0 	54460 	20704 	8944 	1159 	150 	16 	0 	0 	0 	0 	0 	0 	0 	0 	0 	0 	0 	0 	0 	0 	0 	
icnt2sh_lat_table:0 	0 	0 	9817 	29710 	17775 	1287 	10 	0 	0 	0 	0 	791 	1738 	3524 	7096 	13475 	0 	0 	0 	0 	0 	0 	0 	
mf_lat_pw_table:0 	0 	0 	0 	0 	0 	0 	219 	31 	0 	0 	0 	0 	0 	0 	0 	0 	0 	0 	0 	0 	0 	0 	0 	0 	0 	0 	0 	0 	0 	0 	0 	
maximum concurrent accesses to same row:
dram[0]:        97        88        84        88        81        82        85        74        86        86        89        82        88        89        88        76 
dram[1]:        90        91        93        86        82        90        79        95        91        90        84        83        81        82        92        83 
dram[2]:        89        92        92        85        89        80        75        84        90        85        82        87        90        87        77        92 
dram[3]:        88        85        84        90        88        81        95        80        87        98        81        85        85        80        85        97 
dram[4]:        95        88        83        86        78        86        83        75        88        94        90        82        88        93        92        76 
dram[5]:        93        89        90        82        81        87        80        97        95        84        83        80        83        91        93        83 
maximum service time to same row:
dram[0]:     16645     16309     15313     14202     15946     16007     19340     20710     16831     18272     16556     16071     19372     19243     19833     19719 
dram[1]:     16575     16263     14893     14447     16175     16030     20059     20774     16440     18257     16159     16550     19805     19359     20109     19412 
dram[2]:     16318     16495     14159     15318     16094     15946     20650     19357     16791     20150     16169     16528     19327     19457     19734     19828 
dram[3]:     16260     16569     14442     14897     16138     16175     20746     20057     16756     19784     16315     16270     19382     19797     19340     20107 
dram[4]:     16553     16261     15353     14213     15838     16094     19342     20721     18651     20291     16557     16149     19212     19322     19772     19749 
dram[5]:     16578     16288     14943     14415     16072     16169     20060     20784     18161     20062     16147     16399     19540     19385     20142     19369 
average row accesses per activate:
dram[0]:  6.940299  6.394366  6.472222  6.375000  6.573529  6.136986  7.616667  6.787879  6.846154  6.120000  5.623377  6.347826  5.567567  7.607143  7.101695  5.541667 
dram[1]:  7.918033  9.957447  6.882353  6.882353  6.080000  6.026316  6.013514  7.045455  6.418919  6.383562  4.965517  5.680000  5.774648  6.629032  6.671875  7.509091 
dram[2]:  6.608696  8.444445  7.171875  6.078948  6.333333  6.000000  6.772727  6.357143  7.030303  6.219178  6.041096  5.733333  8.075472  5.307693  5.690141  7.206897 
dram[3]:  7.265625  7.900000  6.356164  6.375000  5.896104  6.291667  7.250000  5.907895  6.361111  6.652778  5.474359  4.865169  6.950000  5.722222  7.033898  6.967213 
dram[4]:  7.061539  6.923077  6.375000  6.617647  5.866667  6.352113  6.081081  7.111111  6.953846  7.250000  5.746666  5.341464  5.282051  7.166667  6.666667  6.265625 
dram[5]:  7.086957  8.574074  6.297297  6.514286  5.772152  5.772152  6.500000  7.500000  6.064103  6.691176  5.156627  5.729730  5.447369  7.066667  6.698413  6.916667 
average row locality = 42694/6629 = 6.440489
number of total memory accesses made:
dram[0]:         0         0         0         0         0         0         0         0         0         0         0         0         0         0         0         0 
dram[1]:         0         0         0         0         0         0         0         0         0         0         0         0         0         0         0         0 
dram[2]:         0         0         0         0         0         0         0         0         0         0         0         0         0         0         0         0 
dram[3]:         0         0         0         0         0         0         0         0         0         0         0         0         0         0         0         0 
dram[4]:         0         0         0         0         0         0         0         0         0         0         0         0         0         0         0         0 
dram[5]:         0         0         0         0         0         0         0         0         0         0         0         0         0         0         0         0 
total accesses: 0
min_bank_accesses = 0!
min_chip_accesses = 0!
number of total read accesses:
dram[0]:       259       257       256       256       256       256       256       256       256       256       256       256       256       256       256       256 
dram[1]:       258       257       256       256       256       256       256       256       256       256       256       256       256       256       256       256 
dram[2]:       258       256       256       256       256       256       256       256       256       256       256       256       256       256       256       256 
dram[3]:       258       256       256       256       256       256       256       256       256       256       256       256       256       256       256       256 
dram[4]:       258       256       256       256       256       256       256       256       256       256       256       256       256       256       256       256 
dram[5]:       258       256       256       256       256       256       256       256       256       256       256       256       256       256       256       256 
total reads: 24591
bank skew: 259/256 = 1.01
chip skew: 4100/4098 = 1.00
number of total write accesses:
dram[0]:       206       197       210       203       191       192       201       192       189       203       177       182       156       170       163       143 
dram[1]:       225       211       212       212       200       202       189       209       219       210       176       170       154       155       171       157 
dram[2]:       198       200       203       206       200       194       191       189       208       198       185       174       172       158       148       162 
dram[3]:       207       218       208       203       198       197       208       193       202       223       171       177       161       156       159       169 
dram[4]:       201       194       203       194       184       195       194       192       196       208       175       182       156       174       164       145 
dram[5]:       231       207       210       200       200       200       199       209       217       199       172       168       158       168       166       159 
total reads: 18103
bank skew: 231/143 = 1.62
chip skew: 3072/2957 = 1.04
average mf latency per bank:
dram[0]:        425       481       394       471       421       459       419       487       417       464       436       504       450       525       448       515
dram[1]:        446       449       470       441       481       449       513       450       453       438       515       488       539       512       504       519
dram[2]:        480       410       475       395       460       410       494       424       450       406       506       442       512       460       503       451
dram[3]:        460       470       445       476       459       500       454       520       445       461       494       542       513       549       508       520
dram[4]:        415       479       405       470       422       464       427       496       410       450       450       491       459       501       449       515
dram[5]:        444       465       473       455       489       467       499       457       468       446       532       490       538       505       520       511
maximum mf latency per bank:
dram[0]:        541       504       398       494       484       491       475       541       453       561       435       519       477       567       535       493
dram[1]:        491       517       463       488       507       482       549       578       468       552       449       459       586       510       461       514
dram[2]:        560       510       596       393       513       492       546       517       503       489       595       478       615       437       439       546
dram[3]:        516       459       479       453       485       595       577       594       540       504       473       508       543       520       437       485
dram[4]:        547       547       466       575       595       538       506       513       467       491       503       540       539       525       553       483
dram[5]:        436       494       427       494       602       484       590       590       505       445       453       473       515       474       460       479

Number of Memory Banks Accessed per Memory Operation per Warp (from 0):
0	0	0	0	0	0	0	0	0	0	0	0	0	0	0	0	0	0	0	0	0	0	0	0	0	0	0	0	0	0	0	0	0	0	0	0	0	0	0	0	0	0	0	0	0	0	0	0	0	0	0	0	0	0	0	0	0	0	0	0	0	0	0	0	0	0	0	0	0	0	0	0	0	0	0	0	0	0	0	0	0	0	0	0	0	0	0	0	0	0	0	0	0	0	0	0	
Average # of Memory Banks Accessed per Memory Operation per Warp=-nan

position of mrq chosen
0	0	0	0	0	0	0	0	0	0	0	0	0	0	0	0	

average position of mrq chosen = -nan
Memory Partition 0: 
Cache L2_bank_000:
MSHR contents

Cache L2_bank_001:
MSHR contents

In Dram Latency Queue (total = 0): 
DRAM[0]: 16 bks, busW=4 BL=8 CL=12, tRRD=2 tCCD=6, tRCD=12 tRAS=28 tRP=12 tRC=40
n_cmd=178039 n_nop=163037 n_act=1096 n_pre=1080 n_req=7075 n_rd=8200 n_write=4626 bw_util=0.1441
n_activity=89155 dram_eff=0.2877
bk0: 518a 171822i bk1: 514a 171372i bk2: 512a 171672i bk3: 512a 171136i bk4: 512a 172137i bk5: 512a 171295i bk6: 512a 171788i bk7: 512a 171659i bk8: 512a 172051i bk9: 512a 171338i bk10: 512a 172162i bk11: 512a 171740i bk12: 512a 172532i bk13: 512a 172411i bk14: 512a 172912i bk15: 512a 172472i 
dram_util_bins: 0 0 0 0 0 0 0 0 0 0
dram_eff_bins: 0 0 0 0 0 0 0 0 0 0
mrqq: max=16 avg=0.804762
Memory Partition 1: 
Cache L2_bank_002:
MSHR contents

Cache L2_bank_003:
MSHR contents

In Dram Latency Queue (total = 0): 
DRAM[1]: 16 bks, busW=4 BL=8 CL=12, tRRD=2 tCCD=6, tRCD=12 tRAS=28 tRP=12 tRC=40
n_cmd=178039 n_nop=162862 n_act=1096 n_pre=1080 n_req=7171 n_rd=8198 n_write=4803 bw_util=0.146
n_activity=88102 dram_eff=0.2951
bk0: 516a 171765i bk1: 514a 172153i bk2: 512a 171368i bk3: 512a 171440i bk4: 512a 171529i bk5: 512a 171278i bk6: 512a 171474i bk7: 512a 171426i bk8: 512a 171392i bk9: 512a 171506i bk10: 512a 171673i bk11: 512a 172165i bk12: 512a 172352i bk13: 512a 172194i bk14: 512a 172399i bk15: 512a 172852i 
dram_util_bins: 0 0 0 0 0 0 0 0 0 0
dram_eff_bins: 0 0 0 0 0 0 0 0 0 0
mrqq: max=16 avg=0.78284
Memory Partition 2: 
Cache L2_bank_004:
MSHR contents

Cache L2_bank_005:
MSHR contents

In Dram Latency Queue (total = 0): 
DRAM[2]: 16 bks, busW=4 BL=8 CL=12, tRRD=2 tCCD=6, tRCD=12 tRAS=28 tRP=12 tRC=40
n_cmd=178039 n_nop=163025 n_act=1093 n_pre=1077 n_req=7084 n_rd=8196 n_write=4648 bw_util=0.1443
n_activity=89772 dram_eff=0.2861
bk0: 516a 171717i bk1: 512a 172322i bk2: 512a 171635i bk3: 512a 171676i bk4: 512a 171449i bk5: 512a 171884i bk6: 512a 171500i bk7: 512a 171687i bk8: 512a 171213i bk9: 512a 171692i bk10: 512a 171645i bk11: 512a 172221i bk12: 512a 172574i bk13: 512a 172392i bk14: 512a 172166i bk15: 512a 172986i 
dram_util_bins: 0 0 0 0 0 0 0 0 0 0
dram_eff_bins: 0 0 0 0 0 0 0 0 0 0
mrqq: max=16 avg=0.802403
Memory Partition 3: 
Cache L2_bank_006:
MSHR contents

Cache L2_bank_007:
MSHR contents

In Dram Latency Queue (total = 0): 
DRAM[3]: 16 bks, busW=4 BL=8 CL=12, tRRD=2 tCCD=6, tRCD=12 tRAS=28 tRP=12 tRC=40
n_cmd=178039 n_nop=162841 n_act=1121 n_pre=1105 n_req=7148 n_rd=8196 n_write=4776 bw_util=0.1457
n_activity=88982 dram_eff=0.2916
bk0: 516a 171708i bk1: 512a 171715i bk2: 512a 171347i bk3: 512a 171300i bk4: 512a 171429i bk5: 512a 171736i bk6: 512a 171476i bk7: 512a 171277i bk8: 512a 171549i bk9: 512a 171481i bk10: 512a 172017i bk11: 512a 171175i bk12: 512a 172314i bk13: 512a 172117i bk14: 512a 172836i bk15: 512a 172438i 
dram_util_bins: 0 0 0 0 0 0 0 0 0 0
dram_eff_bins: 0 0 0 0 0 0 0 0 0 0
mrqq: max=15 avg=0.740793
Memory Partition 4: 
Cache L2_bank_008:
MSHR contents

Cache L2_bank_009:
MSHR contents

In Dram Latency Queue (total = 0): 
DRAM[4]: 16 bks, busW=4 BL=8 CL=12, tRRD=2 tCCD=6, tRCD=12 tRAS=28 tRP=12 tRC=40
n_cmd=178039 n_nop=163048 n_act=1104 n_pre=1088 n_req=7055 n_rd=8196 n_write=4603 bw_util=0.1438
n_activity=89419 dram_eff=0.2863
bk0: 516a 172173i bk1: 512a 171651i bk2: 512a 171813i bk3: 512a 171607i bk4: 512a 171836i bk5: 512a 171576i bk6: 512a 171430i bk7: 512a 171937i bk8: 512a 171966i bk9: 512a 171502i bk10: 512a 172128i bk11: 512a 171605i bk12: 512a 172283i bk13: 512a 172076i bk14: 512a 172971i bk15: 512a 172541i 
dram_util_bins: 0 0 0 0 0 0 0 0 0 0
dram_eff_bins: 0 0 0 0 0 0 0 0 0 0
mrqq: max=16 avg=0.791197
Memory Partition 5: 
Cache L2_bank_010:
MSHR contents

Cache L2_bank_011:
MSHR contents

In Dram Latency Queue (total = 0): 
DRAM[5]: 16 bks, busW=4 BL=8 CL=12, tRRD=2 tCCD=6, tRCD=12 tRAS=28 tRP=12 tRC=40
n_cmd=178039 n_nop=162842 n_act=1119 n_pre=1103 n_req=7161 n_rd=8196 n_write=4779 bw_util=0.1458
n_activity=89011 dram_eff=0.2915
bk0: 516a 171395i bk1: 512a 171838i bk2: 512a 171500i bk3: 512a 171538i bk4: 512a 171581i bk5: 512a 171241i bk6: 512a 171460i bk7: 512a 171221i bk8: 512a 171496i bk9: 512a 171789i bk10: 512a 171997i bk11: 512a 171796i bk12: 512a 172374i bk13: 512a 172189i bk14: 512a 172459i bk15: 512a 172792i 
dram_util_bins: 0 0 0 0 0 0 0 0 0 0
dram_eff_bins: 0 0 0 0 0 0 0 0 0 0
mrqq: max=16 avg=0.747763

========= L2 cache stats =========
L2_cache_bank[0]: Access = 6620, Miss = 2051, Miss_rate = 0.310, Pending_hits = 1148, Reservation_fails = 341
L2_cache_bank[1]: Access = 7143, Miss = 2049, Miss_rate = 0.287, Pending_hits = 1299, Reservation_fails = 0
L2_cache_bank[2]: Access = 7629, Miss = 2050, Miss_rate = 0.269, Pending_hits = 1345, Reservation_fails = 107
L2_cache_bank[3]: Access = 7108, Miss = 2049, Miss_rate = 0.288, Pending_hits = 1350, Reservation_fails = 4
L2_cache_bank[4]: Access = 7156, Miss = 2050, Miss_rate = 0.286, Pending_hits = 1307, Reservation_fails = 0
L2_cache_bank[5]: Access = 6580, Miss = 2048, Miss_rate = 0.311, Pending_hits = 1119, Reservation_fails = 0
L2_cache_bank[6]: Access = 7129, Miss = 2050, Miss_rate = 0.288, Pending_hits = 1324, Reservation_fails = 74
L2_cache_bank[7]: Access = 7606, Miss = 2048, Miss_rate = 0.269, Pending_hits = 1328, Reservation_fails = 0
L2_cache_bank[8]: Access = 6612, Miss = 2050, Miss_rate = 0.310, Pending_hits = 1133, Reservation_fails = 157
L2_cache_bank[9]: Access = 7122, Miss = 2048, Miss_rate = 0.288, Pending_hits = 1268, Reservation_fails = 2
L2_cache_bank[10]: Access = 7624, Miss = 2050, Miss_rate = 0.269, Pending_hits = 1399, Reservation_fails = 176
L2_cache_bank[11]: Access = 7104, Miss = 2048, Miss_rate = 0.288, Pending_hits = 1334, Reservation_fails = 3
L2_total_cache_accesses = 85433
L2_total_cache_misses = 24591
L2_total_cache_miss_rate = 0.2878
L2_total_cache_pending_hits = 15354
L2_total_cache_reservation_fails = 864
L2_total_cache_breakdown:
	L2_cache_stats_breakdown[GLOBAL_ACC_R][HIT] = 31041
	L2_cache_stats_breakdown[GLOBAL_ACC_R][HIT_RESERVED] = 11159
	L2_cache_stats_breakdown[GLOBAL_ACC_R][MISS] = 16384
	L2_cache_stats_breakdown[CONST_ACC_R][HIT] = 11
	L2_cache_stats_breakdown[CONST_ACC_R][HIT_RESERVED] = 3
	L2_cache_stats_breakdown[CONST_ACC_R][MISS] = 1
	L2_cache_stats_breakdown[CONST_ACC_R][RESERVATION_FAIL] = 109
	L2_cache_stats_breakdown[GLOBAL_ACC_W][HIT] = 14276
	L2_cache_stats_breakdown[GLOBAL_ACC_W][HIT_RESERVED] = 4156
	L2_cache_stats_breakdown[GLOBAL_ACC_W][MISS] = 8192
	L2_cache_stats_breakdown[GLOBAL_ACC_W][RESERVATION_FAIL] = 11
	L2_cache_stats_breakdown[INST_ACC_R][HIT] = 160
	L2_cache_stats_breakdown[INST_ACC_R][HIT_RESERVED] = 36
	L2_cache_stats_breakdown[INST_ACC_R][MISS] = 14
	L2_cache_stats_breakdown[INST_ACC_R][RESERVATION_FAIL] = 744
L2_cache_data_port_util = 0.110
L2_cache_fill_port_util = 0.061

icnt_total_pkts_mem_to_simt=320639
icnt_total_pkts_simt_to_mem=146361
LD_mem_lat_dist  0 0 0 0 0 0 0 0 0 0 0 0 0 0 0 0 0 0 0 0 0 0 0 0 0 0 0
ST_mem_lat_dist  0 0 0 0 0 0 0 0 0 0 0 0 0 0 0 0 0 0 0 0 0 0 0 0 0 0 0
----------------------------Interconnect-DETAILS--------------------------------
Class 0:
Packet latency average = 18.1619
	minimum = 6
	maximum = 201
Network latency average = 14.4514
	minimum = 6
	maximum = 152
Slowest packet = 52660
Flit latency average = 13.3665
	minimum = 6
	maximum = 150
Slowest flit = 144150
Fragmentation average = 0.0003453
	minimum = 0
	maximum = 35
Injected packet rate average = 0.0469189
	minimum = 0.0377375 (at node 8)
	maximum = 0.0565618 (at node 17)
Accepted packet rate average = 0.0469189
	minimum = 0.0377375 (at node 8)
	maximum = 0.0565618 (at node 17)
Injected flit rate average = 0.128236
	minimum = 0.067327 (at node 8)
	maximum = 0.211834 (at node 25)
Accepted flit rate average= 0.128236
	minimum = 0.0867073 (at node 20)
	maximum = 0.170442 (at node 11)
Injected packet length average = 2.73314
Accepted packet length average = 2.73314
Total in-flight flits = 0 (0 measured)
====== Overall Traffic Statistics ======
====== Traffic class 0 ======
Packet latency average = 18.1619 (1 samples)
	minimum = 6 (1 samples)
	maximum = 201 (1 samples)
Network latency average = 14.4514 (1 samples)
	minimum = 6 (1 samples)
	maximum = 152 (1 samples)
Flit latency average = 13.3665 (1 samples)
	minimum = 6 (1 samples)
	maximum = 150 (1 samples)
Fragmentation average = 0.0003453 (1 samples)
	minimum = 0 (1 samples)
	maximum = 35 (1 samples)
Injected packet rate average = 0.0469189 (1 samples)
	minimum = 0.0377375 (1 samples)
	maximum = 0.0565618 (1 samples)
Accepted packet rate average = 0.0469189 (1 samples)
	minimum = 0.0377375 (1 samples)
	maximum = 0.0565618 (1 samples)
Injected flit rate average = 0.128236 (1 samples)
	minimum = 0.067327 (1 samples)
	maximum = 0.211834 (1 samples)
Accepted flit rate average = 0.128236 (1 samples)
	minimum = 0.0867073 (1 samples)
	maximum = 0.170442 (1 samples)
Injected packet size average = 2.73314 (1 samples)
Accepted packet size average = 2.73314 (1 samples)
Hops average = 1 (1 samples)
----------------------------END-of-Interconnect-DETAILS-------------------------


gpgpu_simulation_time = 0 days, 0 hrs, 3 min, 19 sec (199 sec)
gpgpu_simulation_rate = 373567 (inst/sec)
gpgpu_simulation_rate = 677 (cycle/sec)
