

        *** GPGPU-Sim Simulator Version 3.2.2  [build 0] ***


GPGPU-Sim PTX: simulation mode 0 (can change with PTX_SIM_MODE_FUNC environment variable:
               1=functional simulation only, 0=detailed performance simulator)
GPGPU-Sim: Configuration options:

-network_mode                           1 # Interconnection network mode
-inter_config_file   config_fermi_islip.icnt # Interconnection network config file
-gpgpu_ptx_use_cuobjdump                    1 # Use cuobjdump to extract ptx and sass from binaries
-gpgpu_experimental_lib_support                    0 # Try to extract code from cuda libraries [Broken because of unknown cudaGetExportTable]
-gpgpu_ptx_convert_to_ptxplus                    0 # Convert SASS (native ISA) to ptxplus and run ptxplus
-gpgpu_ptx_force_max_capability                   20 # Force maximum compute capability
-gpgpu_ptx_inst_debug_to_file                    0 # Dump executed instructions' debug information to file
-gpgpu_ptx_inst_debug_file       inst_debug.txt # Executed instructions' debug output file
-gpgpu_ptx_inst_debug_thread_uid                    1 # Thread UID for executed instructions' debug output
-gpgpu_simd_model                       1 # 1 = post-dominator
-gpgpu_shader_core_pipeline              1536:32 # shader core pipeline config, i.e., {<nthread>:<warpsize>}
-gpgpu_tex_cache:l1  4:128:24,L:R:m:N:L,F:128:4,128:2 # per-shader L1 texture cache  (READ-ONLY) config  {<nsets>:<bsize>:<assoc>,<rep>:<wr>:<alloc>:<wr_alloc>,<mshr>:<N>:<merge>,<mq>:<rf>}
-gpgpu_const_cache:l1 64:64:2,L:R:f:N:L,A:2:32,4 # per-shader L1 constant memory cache  (READ-ONLY) config  {<nsets>:<bsize>:<assoc>,<rep>:<wr>:<alloc>:<wr_alloc>,<mshr>:<N>:<merge>,<mq>} 
-gpgpu_cache:il1     4:128:4,L:R:f:N:L,A:2:32,4 # shader L1 instruction cache config  {<nsets>:<bsize>:<assoc>,<rep>:<wr>:<alloc>:<wr_alloc>,<mshr>:<N>:<merge>,<mq>} 
-gpgpu_cache:dl1     32:128:4,L:L:m:N:H,A:32:8,8:2,0,1:0:1:1:0:1,1:4:8:16:32:64,/sciclone/data10/hwang07/GPU_RESEARCH/swl/swl_outputs/RESULTS/swl8/ # per-shader L1 data cache config  {<nsets>:<bsize>:<assoc>,<rep>:<wr>:<alloc>:<wr_alloc>,<mshr>:<N>:<merge>,<mq> | none}
-gpgpu_cache:dl1PrefL1                 none # per-shader L1 data cache config  {<nsets>:<bsize>:<assoc>,<rep>:<wr>:<alloc>:<wr_alloc>,<mshr>:<N>:<merge>,<mq> | none}
-gpgpu_cache:dl1PreShared                 none # per-shader L1 data cache config  {<nsets>:<bsize>:<assoc>,<rep>:<wr>:<alloc>:<wr_alloc>,<mshr>:<N>:<merge>,<mq> | none}
-gmem_skip_L1D                          0 # global memory access skip L1D cache (implements -Xptxas -dlcm=cg, default=no skip)
-gpgpu_perfect_mem                      0 # enable perfect memory mode (no cache miss)
-n_regfile_gating_group                    4 # group of lanes that should be read/written together)
-gpgpu_clock_gated_reg_file                    0 # enable clock gated reg file for power calculations
-gpgpu_clock_gated_lanes                    0 # enable clock gated lanes for power calculations
-gpgpu_shader_registers                32768 # Number of registers per shader core. Limits number of concurrent CTAs. (default 8192)
-gpgpu_shader_cta                       8 # Maximum number of concurrent CTAs in shader (default 8)
-gpgpu_num_cta_barriers                   16 # Maximum number of named barriers per CTA (default 16)
-gpgpu_n_clusters                      15 # number of processing clusters
-gpgpu_n_cores_per_cluster                    1 # number of simd cores per cluster
-gpgpu_n_cluster_ejection_buffer_size                    8 # number of packets in ejection buffer
-gpgpu_n_ldst_response_buffer_size                    2 # number of response packets in ld/st unit ejection buffer
-gpgpu_shmem_size                   16384 # Size of shared memory per shader core (default 16kB)
-gpgpu_shmem_size                   49152 # Size of shared memory per shader core (default 16kB)
-gpgpu_shmem_size_PrefL1                16384 # Size of shared memory per shader core (default 16kB)
-gpgpu_shmem_size_PrefShared                16384 # Size of shared memory per shader core (default 16kB)
-gpgpu_shmem_num_banks                   32 # Number of banks in the shared memory in each shader core (default 16)
-gpgpu_shmem_limited_broadcast                    0 # Limit shared memory to do one broadcast per cycle (default on)
-gpgpu_shmem_warp_parts                    1 # Number of portions a warp is divided into for shared memory bank conflict check 
-gpgpu_warpdistro_shader                   -1 # Specify which shader core to collect the warp size distribution from
-gpgpu_warp_issue_shader                    0 # Specify which shader core to collect the warp issue distribution from
-gpgpu_local_mem_map                    1 # Mapping from local memory space address to simulated GPU physical address space (default = enabled)
-gpgpu_num_reg_banks                   16 # Number of register banks (default = 8)
-gpgpu_reg_bank_use_warp_id                    0 # Use warp ID in mapping registers to banks (default = off)
-gpgpu_operand_collector_num_units_sp                    6 # number of collector units (default = 4)
-gpgpu_operand_collector_num_units_sfu                    8 # number of collector units (default = 4)
-gpgpu_operand_collector_num_units_mem                    2 # number of collector units (default = 2)
-gpgpu_operand_collector_num_units_gen                    0 # number of collector units (default = 0)
-gpgpu_operand_collector_num_in_ports_sp                    2 # number of collector unit in ports (default = 1)
-gpgpu_operand_collector_num_in_ports_sfu                    1 # number of collector unit in ports (default = 1)
-gpgpu_operand_collector_num_in_ports_mem                    1 # number of collector unit in ports (default = 1)
-gpgpu_operand_collector_num_in_ports_gen                    0 # number of collector unit in ports (default = 0)
-gpgpu_operand_collector_num_out_ports_sp                    2 # number of collector unit in ports (default = 1)
-gpgpu_operand_collector_num_out_ports_sfu                    1 # number of collector unit in ports (default = 1)
-gpgpu_operand_collector_num_out_ports_mem                    1 # number of collector unit in ports (default = 1)
-gpgpu_operand_collector_num_out_ports_gen                    0 # number of collector unit in ports (default = 0)
-gpgpu_coalesce_arch                   13 # Coalescing arch (default = 13, anything else is off for now)
-gpgpu_num_sched_per_core                    2 # Number of warp schedulers per core
-gpgpu_max_insn_issue_per_warp                    1 # Max number of instructions that can be issued per warp in one cycle by scheduler
-gpgpu_simt_core_sim_order                    1 # Select the simulation order of cores in a cluster (0=Fix, 1=Round-Robin)
-gpgpu_pipeline_widths        2,1,1,2,1,1,2 # Pipeline widths ID_OC_SP,ID_OC_SFU,ID_OC_MEM,OC_EX_SP,OC_EX_SFU,OC_EX_MEM,EX_WB
-gpgpu_num_sp_units                     2 # Number of SP units (default=1)
-gpgpu_num_sfu_units                    1 # Number of SF units (default=1)
-gpgpu_num_mem_units                    1 # Number if ldst units (default=1) WARNING: not hooked up to anything
-gpgpu_scheduler        warp_limiting:2:8 # Scheduler configuration: < lrr | gto | two_level_active > If two_level_active:<num_active_warps>:<inner_prioritization>:<outer_prioritization>For complete list of prioritization values see shader.h enum scheduler_prioritization_typeDefault: gto
-gpgpu_dram_scheduler                    1 # 0 = fifo, 1 = FR-FCFS (defaul)
-gpgpu_dram_partition_queues              8:8:8:8 # i2$:$2d:d2$:$2i
-l2_ideal                               0 # Use a ideal L2 cache that always hit
-gpgpu_cache:dl2     64:128:8,L:B:m:W:L,A:32:4,4:0,32 # unified banked L2 data cache config  {<nsets>:<bsize>:<assoc>,<rep>:<wr>:<alloc>:<wr_alloc>,<mshr>:<N>:<merge>,<mq>}
-gpgpu_cache:dl2_texture_only                    0 # L2 cache used for texture only
-gpgpu_n_mem                            6 # number of memory modules (e.g. memory controllers) in gpu
-gpgpu_n_sub_partition_per_mchannel                    2 # number of memory subpartition in each memory module
-gpgpu_n_mem_per_ctrlr                    2 # number of memory chips per memory controller
-gpgpu_memlatency_stat                   14 # track and display latency statistics 0x2 enables MC, 0x4 enables queue logs
-gpgpu_frfcfs_dram_sched_queue_size                   16 # 0 = unlimited (default); # entries per chip
-gpgpu_dram_return_queue_size                  116 # 0 = unlimited (default); # entries per chip
-gpgpu_dram_buswidth                    4 # default = 4 bytes (8 bytes per cycle at DDR)
-gpgpu_dram_burst_length                    8 # Burst length of each DRAM request (default = 4 data bus cycle)
-dram_data_command_freq_ratio                    4 # Frequency ratio between DRAM data bus and command bus (default = 2 times, i.e. DDR)
-gpgpu_dram_timing_opt nbk=16:CCD=2:RRD=6:RCD=12:RAS=28:RP=12:RC=40: CL=12:WL=4:CDLR=5:WR=12:nbkgrp=4:CCDL=3:RTPL=2 # DRAM timing parameters = {nbk:tCCD:tRRD:tRCD:tRAS:tRP:tRC:CL:WL:tCDLR:tWR:nbkgrp:tCCDL:tRTPL}
-rop_latency                          120 # ROP queue latency (default 85)
-dram_latency                         100 # DRAM latency (default 30)
-gpgpu_mem_addr_mapping dramid@8;00000000.00000000.00000000.00000000.0000RRRR.RRRRRRRR.BBBCCCCB.CCSSSSSS # mapping memory address to dram model {dramid@<start bit>;<memory address map>}
-gpgpu_mem_addr_test                    0 # run sweep test to check address mapping for aliased address
-gpgpu_mem_address_mask                    1 # 0 = old addressing mask, 1 = new addressing mask, 2 = new add. mask + flipped bank sel and chip sel bits
-gpuwattch_xml_file  gpuwattch_gtx480.xml # GPUWattch XML file
-power_simulation_enabled                    0 # Turn on power simulator (1=On, 0=Off)
-power_per_cycle_dump                    0 # Dump detailed power output each cycle
-power_trace_enabled                    0 # produce a file for the power trace (1=On, 0=Off)
-power_trace_zlevel                     6 # Compression level of the power trace output log (0=no comp, 9=highest)
-steady_power_levels_enabled                    0 # produce a file for the steady power levels (1=On, 0=Off)
-steady_state_definition                  8:4 # allowed deviation:number of samples
-gpgpu_max_cycle                        0 # terminates gpu simulation early (0 = no limit)
-gpgpu_max_insn                         0 # terminates gpu simulation early (0 = no limit)
-gpgpu_max_cta                          0 # terminates gpu simulation early (0 = no limit)
-gpgpu_runtime_stat                   500 # display runtime statistics such as dram utilization {<freq>:<flag>}
-liveness_message_freq                    1 # Minimum number of seconds between simulation liveness messages (0 = always print)
-gpgpu_flush_l1_cache                    0 # Flush L1 cache at the end of each kernel call
-gpgpu_flush_l2_cache                    0 # Flush L2 cache at the end of each kernel call
-gpgpu_deadlock_detect                    1 # Stop the simulation at deadlock (1=on (default), 0=off)
-gpgpu_ptx_instruction_classification                    0 # if enabled will classify ptx instruction types per kernel (Max 255 kernels now)
-gpgpu_ptx_sim_mode                     0 # Select between Performance (default) or Functional simulation (1)
-gpgpu_clock_domains 700.0:700.0:700.0:924.0 # Clock Domain Frequencies in MhZ {<Core Clock>:<ICNT Clock>:<L2 Clock>:<DRAM Clock>}
-gpgpu_max_concurrent_kernel                    8 # maximum kernels that can run concurrently on GPU
-gpgpu_cflog_interval                    0 # Interval between each snapshot in control flow logger
-visualizer_enabled                     0 # Turn on visualizer output (1=On, 0=Off)
-visualizer_outputfile                 NULL # Specifies the output log file for visualizer
-visualizer_zlevel                      6 # Compression level of the visualizer output log (0=no comp, 9=highest)
-trace_enabled                          0 # Turn on traces
-trace_components                    none # comma seperated list of traces to enable. Complete list found in trace_streams.tup. Default none
-trace_sampling_core                    0 # The core which is printed using CORE_DPRINTF. Default 0
-trace_sampling_memory_partition                   -1 # The memory partition which is printed using MEMPART_DPRINTF. Default -1 (i.e. all)
-enable_ptx_file_line_stats                    1 # Turn on PTX source line statistic profiling. (1 = On)
-ptx_line_stats_filename gpgpu_inst_stats.txt # Output file for PTX source line statistics.
-save_embedded_ptx                      0 # saves ptx files embedded in binary as <n>.ptx
-keep                                   0 # keep intermediate files created by GPGPU-Sim when interfacing with external programs
-gpgpu_ptx_save_converted_ptxplus                    0 # Saved converted ptxplus to a file
-ptx_opcode_latency_int         4,13,4,5,145 # Opcode latencies for integers <ADD,MAX,MUL,MAD,DIV>Default 1,1,19,25,145
-ptx_opcode_latency_fp          4,13,4,5,39 # Opcode latencies for single precision floating points <ADD,MAX,MUL,MAD,DIV>Default 1,1,1,1,30
-ptx_opcode_latency_dp         8,19,8,8,330 # Opcode latencies for double precision floating points <ADD,MAX,MUL,MAD,DIV>Default 8,8,8,8,335
-ptx_opcode_initiation_int            1,2,2,1,8 # Opcode initiation intervals for integers <ADD,MAX,MUL,MAD,DIV>Default 1,1,4,4,32
-ptx_opcode_initiation_fp            1,2,1,1,4 # Opcode initiation intervals for single precision floating points <ADD,MAX,MUL,MAD,DIV>Default 1,1,1,1,5
-ptx_opcode_initiation_dp         8,16,8,8,130 # Opcode initiation intervals for double precision floating points <ADD,MAX,MUL,MAD,DIV>Default 8,8,8,8,130
DRAM Timing Options:
nbk                                    16 # number of banks
CCD                                     2 # column to column delay
RRD                                     6 # minimal delay between activation of rows in different banks
RCD                                    12 # row to column delay
RAS                                    28 # time needed to activate row
RP                                     12 # time needed to precharge (deactivate) row
RC                                     40 # row cycle time
CDLR                                    5 # switching from write to read (changes tWTR)
WR                                     12 # last data-in to row precharge
CL                                     12 # CAS latency
WL                                      4 # Write latency
nbkgrp                                  4 # number of bank groups
CCDL                                    3 # column to column delay between accesses to different bank groups
RTPL                                    2 # read to precharge delay between accesses to different bank groups
Total number of memory sub partition = 12
addr_dec_mask[CHIP]  = 0000000000000000 	high:64 low:0
addr_dec_mask[BK]    = 000000000000e100 	high:16 low:8
addr_dec_mask[ROW]   = 000000000fff0000 	high:28 low:16
addr_dec_mask[COL]   = 0000000000001eff 	high:13 low:0
addr_dec_mask[BURST] = 000000000000003f 	high:6 low:0
sub_partition_id_mask = 0000000000000100
GPGPU-Sim uArch: clock freqs: 700000000.000000:700000000.000000:700000000.000000:924000000.000000
GPGPU-Sim uArch: clock periods: 0.00000000142857142857:0.00000000142857142857:0.00000000142857142857:0.00000000108225108225
*** Initializing Memory Statistics ***
GPGPU-Sim uArch: interconnect node map (shaderID+MemID to icntID)
GPGPU-Sim uArch: Memory nodes ID start from index: 15
GPGPU-Sim uArch:    0   1   2   3   4
GPGPU-Sim uArch:    5   6   7   8   9
GPGPU-Sim uArch:   10  11  12  13  14
GPGPU-Sim uArch:   15  16  17  18  19
GPGPU-Sim uArch:   20  21  22  23  24
GPGPU-Sim uArch:   25  26
GPGPU-Sim uArch: interconnect node reverse map (icntID to shaderID+MemID)
GPGPU-Sim uArch: Memory nodes start from ID: 15
GPGPU-Sim uArch:    0   1   2   3   4
GPGPU-Sim uArch:    5   6   7   8   9
GPGPU-Sim uArch:   10  11  12  13  14
GPGPU-Sim uArch:   15  16  17  18  19
GPGPU-Sim uArch:   20  21  22  23  24
GPGPU-Sim uArch:   25  26
80b50253bde6f17c5205a361ba46a5eb  /sciclone/data10/hwang07/adwait/applications/benchmarks/CUDA/FWT/gpgpu_ptx_sim__FWT
GPGPU-Sim uArch: performance model initialization complete.
GPGPU-Sim PTX: __cudaRegisterFatBinary, fat_cubin_handle = 1, filename=fastWalshTransform.cu
self exe links to: /sciclone/data10/hwang07/adwait/applications/benchmarks/CUDA/FWT/gpgpu_ptx_sim__FWT
Running md5sum using "md5sum /sciclone/data10/hwang07/adwait/applications/benchmarks/CUDA/FWT/gpgpu_ptx_sim__FWT "
Parsing file _cuobjdump_complete_output_7OBA3S
######### cuobjdump parser ########
## Adding new section ELF
Adding arch: sm_20
Adding identifier: fastWalshTransform.cu
## Adding new section PTX
Adding ptx filename: _cuobjdump_1.ptx
Adding arch: sm_20
Adding identifier: fastWalshTransform.cu
Done parsing!!!
GPGPU-Sim PTX: __cudaRegisterFunction _Z14modulateKernelPfS_i : hostFun 0x0x405645, fat_cubin_handle = 1
GPGPU-Sim PTX: allocating shared region for "s_data" from 0x0 to 0x0 (shared memory space)
GPGPU-Sim PTX: instruction assembly for function '_Z15fwtBatch1KernelPfS_i'...   done.
GPGPU-Sim PTX: finding reconvergence points for '_Z15fwtBatch1KernelPfS_i'...
GPGPU-Sim PTX: Finding dominators for '_Z15fwtBatch1KernelPfS_i'...
GPGPU-Sim PTX: Finding immediate dominators for '_Z15fwtBatch1KernelPfS_i'...
GPGPU-Sim PTX: Finding postdominators for '_Z15fwtBatch1KernelPfS_i'...
GPGPU-Sim PTX: Finding immediate postdominators for '_Z15fwtBatch1KernelPfS_i'...
GPGPU-Sim PTX: pre-decoding instructions for '_Z15fwtBatch1KernelPfS_i'...
GPGPU-Sim PTX: reconvergence points for _Z15fwtBatch1KernelPfS_i...
GPGPU-Sim PTX:  1 (potential) branch divergence @  PC=0x028 (_1.ptx:69) @!%p1 bra $Lt_0_5122;
GPGPU-Sim PTX:    immediate post dominator      @  PC=0x0d8 (_1.ptx:95) mov.u64 %rd1, s_data;
GPGPU-Sim PTX:  2 (potential) branch divergence @  PC=0x0d0 (_1.ptx:93) @%p2 bra $Lt_0_5634;
GPGPU-Sim PTX:    immediate post dominator      @  PC=0x0d8 (_1.ptx:95) mov.u64 %rd1, s_data;
GPGPU-Sim PTX:  3 (potential) branch divergence @  PC=0x100 (_1.ptx:101) @%p3 bra $Lt_0_6146;
GPGPU-Sim PTX:    immediate post dominator      @  PC=0x250 (_1.ptx:155) and.b32 %r20, %r3, 1;
GPGPU-Sim PTX:  4 (potential) branch divergence @  PC=0x248 (_1.ptx:153) @%p4 bra $Lt_0_6658;
GPGPU-Sim PTX:    immediate post dominator      @  PC=0x250 (_1.ptx:155) and.b32 %r20, %r3, 1;
GPGPU-Sim PTX:  5 (potential) branch divergence @  PC=0x268 (_1.ptx:158) @%p5 bra $Lt_0_7170;
GPGPU-Sim PTX:    immediate post dominator      @  PC=0x328 (_1.ptx:193) bar.sync 0;
GPGPU-Sim PTX:  6 (potential) branch divergence @  PC=0x2b0 (_1.ptx:169) @%p6 bra $Lt_0_7682;
GPGPU-Sim PTX:    immediate post dominator      @  PC=0x328 (_1.ptx:193) bar.sync 0;
GPGPU-Sim PTX:  7 (potential) branch divergence @  PC=0x320 (_1.ptx:189) @%p7 bra $Lt_0_8194;
GPGPU-Sim PTX:    immediate post dominator      @  PC=0x328 (_1.ptx:193) bar.sync 0;
GPGPU-Sim PTX:  8 (potential) branch divergence @  PC=0x338 (_1.ptx:196) @!%p1 bra $Lt_0_8706;
GPGPU-Sim PTX:    immediate post dominator      @  PC=0x3e0 (_1.ptx:222) exit;
GPGPU-Sim PTX:  9 (potential) branch divergence @  PC=0x3d8 (_1.ptx:219) @%p8 bra $Lt_0_9218;
GPGPU-Sim PTX:    immediate post dominator      @  PC=0x3e0 (_1.ptx:222) exit;
GPGPU-Sim PTX: ... end of reconvergence points for _Z15fwtBatch1KernelPfS_i
GPGPU-Sim PTX: ... done pre-decoding instructions for '_Z15fwtBatch1KernelPfS_i'.
GPGPU-Sim PTX: instruction assembly for function '_Z15fwtBatch2KernelPfS_i'...   done.
GPGPU-Sim PTX: finding reconvergence points for '_Z15fwtBatch2KernelPfS_i'...
GPGPU-Sim PTX: Finding dominators for '_Z15fwtBatch2KernelPfS_i'...
GPGPU-Sim PTX: Finding immediate dominators for '_Z15fwtBatch2KernelPfS_i'...
GPGPU-Sim PTX: Finding postdominators for '_Z15fwtBatch2KernelPfS_i'...
GPGPU-Sim PTX: Finding immediate postdominators for '_Z15fwtBatch2KernelPfS_i'...
GPGPU-Sim PTX: pre-decoding instructions for '_Z15fwtBatch2KernelPfS_i'...
GPGPU-Sim PTX: reconvergence points for _Z15fwtBatch2KernelPfS_i...
GPGPU-Sim PTX: ... end of reconvergence points for _Z15fwtBatch2KernelPfS_i
GPGPU-Sim PTX: ... done pre-decoding instructions for '_Z15fwtBatch2KernelPfS_i'.
GPGPU-Sim PTX: instruction assembly for function '_Z14modulateKernelPfS_i'...   done.
GPGPU-Sim PTX: finding reconvergence points for '_Z14modulateKernelPfS_i'...
GPGPU-Sim PTX: Finding dominators for '_Z14modulateKernelPfS_i'...
GPGPU-Sim PTX: Finding immediate dominators for '_Z14modulateKernelPfS_i'...
GPGPU-Sim PTX: Finding postdominators for '_Z14modulateKernelPfS_i'...
GPGPU-Sim PTX: Finding immediate postdominators for '_Z14modulateKernelPfS_i'...
GPGPU-Sim PTX: pre-decoding instructions for '_Z14modulateKernelPfS_i'...
GPGPU-Sim PTX: reconvergence points for _Z14modulateKernelPfS_i...
GPGPU-Sim PTX:  1 (potential) branch divergence @  PC=0x5f8 (_1.ptx:326) @%p1 bra $Lt_2_1282;
GPGPU-Sim PTX:    immediate post dominator      @  PC=0x6b0 (_1.ptx:354) exit;
GPGPU-Sim PTX:  2 (potential) branch divergence @  PC=0x6a8 (_1.ptx:351) @%p2 bra $Lt_2_1794;
GPGPU-Sim PTX:    immediate post dominator      @  PC=0x6b0 (_1.ptx:354) exit;
GPGPU-Sim PTX: ... end of reconvergence points for _Z14modulateKernelPfS_i
GPGPU-Sim PTX: ... done pre-decoding instructions for '_Z14modulateKernelPfS_i'.
GPGPU-Sim PTX: finished parsing EMBEDDED .ptx file _1.ptx
Adding _cuobjdump_1.ptx with cubin handle 1
GPGPU-Sim PTX: extracting embedded .ptx to temporary file "_ptx_VvFgtd"
Running: cat _ptx_VvFgtd | sed 's/.version 1.5/.version 1.4/' | sed 's/, texmode_independent//' | sed 's/\(\.extern \.const\[1\] .b8 \w\+\)\[\]/\1\[1\]/' | sed 's/const\[.\]/const\[0\]/g' > _ptx2_vDHpaB
GPGPU-Sim PTX: generating ptxinfo using "$CUDA_INSTALL_PATH/bin/ptxas --gpu-name=sm_20 -v _ptx2_vDHpaB --output-file  /dev/null 2> _ptx_VvFgtdinfo"
GPGPU-Sim PTX: Kernel '_Z14modulateKernelPfS_i' : regs=14, lmem=0, smem=0, cmem=56
GPGPU-Sim PTX: Kernel '_Z15fwtBatch2KernelPfS_i' : regs=21, lmem=0, smem=0, cmem=52
GPGPU-Sim PTX: Kernel '_Z15fwtBatch1KernelPfS_i' : regs=14, lmem=0, smem=0, cmem=52
GPGPU-Sim PTX: removing ptxinfo using "rm -f _ptx_VvFgtd _ptx2_vDHpaB _ptx_VvFgtdinfo"
GPGPU-Sim PTX: loading globals with explicit initializers... 
GPGPU-Sim PTX: finished loading globals (0 bytes total).
GPGPU-Sim PTX: loading constants with explicit initializers...  done.
GPGPU-Sim PTX: __cudaRegisterFunction _Z15fwtBatch2KernelPfS_i : hostFun 0x0x405586, fat_cubin_handle = 1
GPGPU-Sim PTX: __cudaRegisterFunction _Z15fwtBatch1KernelPfS_i : hostFun 0x0x4054c7, fat_cubin_handle = 1
Initializing data...
...allocating CPU memory
...allocating GPU memory
...generating data
Data length: 8388608; kernel length: 128
Running GPU dyadic convolution using Fast Walsh Transform...
GPGPU-Sim: synchronize waiting for inactive GPU simulation
GPGPU-Sim API: Stream Manager State
GPGPU-Sim: detected inactive GPU simulation thread

GPGPU-Sim PTX: cudaLaunch for 0x0x405586 (mode=performance simulation) on stream 0
GPGPU-Sim PTX: pushing kernel '_Z15fwtBatch2KernelPfS_i' to stream 0, gridDim= (8192,1,1) blockDim = (256,1,1) 
kernel '_Z15fwtBatch2KernelPfS_i' transfer to GPU hardware scheduler
GPGPU-Sim uArch: Shader 1 bind to kernel 1 '_Z15fwtBatch2KernelPfS_i'
GPGPU-Sim uArch: CTA/core = 5, limited by: regs
GPGPU-Sim uArch: core:  1, cta: 0 initialized @(1,0)
GPGPU-Sim uArch: Shader 2 bind to kernel 1 '_Z15fwtBatch2KernelPfS_i'
GPGPU-Sim uArch: core:  2, cta: 0 initialized @(1,0)
GPGPU-Sim uArch: Shader 3 bind to kernel 1 '_Z15fwtBatch2KernelPfS_i'
GPGPU-Sim uArch: core:  3, cta: 0 initialized @(1,0)
GPGPU-Sim uArch: Shader 4 bind to kernel 1 '_Z15fwtBatch2KernelPfS_i'
GPGPU-Sim uArch: core:  4, cta: 0 initialized @(1,0)
GPGPU-Sim uArch: Shader 5 bind to kernel 1 '_Z15fwtBatch2KernelPfS_i'
GPGPU-Sim uArch: core:  5, cta: 0 initialized @(1,0)
GPGPU-Sim uArch: Shader 6 bind to kernel 1 '_Z15fwtBatch2KernelPfS_i'
GPGPU-Sim uArch: core:  6, cta: 0 initialized @(1,0)
GPGPU-Sim uArch: Shader 7 bind to kernel 1 '_Z15fwtBatch2KernelPfS_i'
GPGPU-Sim uArch: core:  7, cta: 0 initialized @(1,0)
GPGPU-Sim uArch: Shader 8 bind to kernel 1 '_Z15fwtBatch2KernelPfS_i'
GPGPU-Sim uArch: core:  8, cta: 0 initialized @(1,0)
GPGPU-Sim uArch: Shader 9 bind to kernel 1 '_Z15fwtBatch2KernelPfS_i'
GPGPU-Sim uArch: core:  9, cta: 0 initialized @(1,0)
GPGPU-Sim uArch: Shader 10 bind to kernel 1 '_Z15fwtBatch2KernelPfS_i'
GPGPU-Sim uArch: core: 10, cta: 0 initialized @(1,0)
GPGPU-Sim uArch: Shader 11 bind to kernel 1 '_Z15fwtBatch2KernelPfS_i'
GPGPU-Sim uArch: core: 11, cta: 0 initialized @(1,0)
GPGPU-Sim uArch: Shader 12 bind to kernel 1 '_Z15fwtBatch2KernelPfS_i'
GPGPU-Sim uArch: core: 12, cta: 0 initialized @(1,0)
GPGPU-Sim uArch: Shader 13 bind to kernel 1 '_Z15fwtBatch2KernelPfS_i'
GPGPU-Sim uArch: core: 13, cta: 0 initialized @(1,0)
GPGPU-Sim uArch: Shader 14 bind to kernel 1 '_Z15fwtBatch2KernelPfS_i'
GPGPU-Sim uArch: core: 14, cta: 0 initialized @(1,0)
GPGPU-Sim uArch: Shader 0 bind to kernel 1 '_Z15fwtBatch2KernelPfS_i'
GPGPU-Sim uArch: core:  0, cta: 0 initialized @(1,0)
GPGPU-Sim uArch: core:  1, cta: 1 initialized @(2,0)
GPGPU-Sim uArch: core:  2, cta: 1 initialized @(2,0)
GPGPU-Sim uArch: core:  3, cta: 1 initialized @(2,0)
GPGPU-Sim uArch: core:  4, cta: 1 initialized @(2,0)
GPGPU-Sim uArch: core:  5, cta: 1 initialized @(2,0)
GPGPU-Sim uArch: core:  6, cta: 1 initialized @(2,0)
GPGPU-Sim uArch: core:  7, cta: 1 initialized @(2,0)
GPGPU-Sim uArch: core:  8, cta: 1 initialized @(2,0)
GPGPU-Sim uArch: core:  9, cta: 1 initialized @(2,0)
GPGPU-Sim uArch: core: 10, cta: 1 initialized @(2,0)
GPGPU-Sim uArch: core: 11, cta: 1 initialized @(2,0)
GPGPU-Sim uArch: core: 12, cta: 1 initialized @(2,0)
GPGPU-Sim uArch: core: 13, cta: 1 initialized @(2,0)
GPGPU-Sim uArch: core: 14, cta: 1 initialized @(2,0)
GPGPU-Sim uArch: core:  0, cta: 1 initialized @(2,0)
GPGPU-Sim uArch: core:  1, cta: 2 initialized @(3,0)
GPGPU-Sim uArch: core:  2, cta: 2 initialized @(3,0)
GPGPU-Sim uArch: core:  3, cta: 2 initialized @(3,0)
GPGPU-Sim uArch: core:  4, cta: 2 initialized @(3,0)
GPGPU-Sim uArch: core:  5, cta: 2 initialized @(3,0)
GPGPU-Sim uArch: core:  6, cta: 2 initialized @(3,0)
GPGPU-Sim uArch: core:  7, cta: 2 initialized @(3,0)
GPGPU-Sim uArch: core:  8, cta: 2 initialized @(3,0)
GPGPU-Sim uArch: core:  9, cta: 2 initialized @(3,0)
GPGPU-Sim uArch: core: 10, cta: 2 initialized @(3,0)
GPGPU-Sim uArch: core: 11, cta: 2 initialized @(3,0)
GPGPU-Sim uArch: core: 12, cta: 2 initialized @(3,0)
GPGPU-Sim uArch: core: 13, cta: 2 initialized @(3,0)
GPGPU-Sim uArch: core: 14, cta: 2 initialized @(3,0)
GPGPU-Sim uArch: core:  0, cta: 2 initialized @(3,0)
GPGPU-Sim uArch: core:  1, cta: 3 initialized @(4,0)
GPGPU-Sim uArch: core:  2, cta: 3 initialized @(4,0)
GPGPU-Sim uArch: core:  3, cta: 3 initialized @(4,0)
GPGPU-Sim uArch: core:  4, cta: 3 initialized @(4,0)
GPGPU-Sim uArch: core:  5, cta: 3 initialized @(4,0)
GPGPU-Sim uArch: core:  6, cta: 3 initialized @(4,0)
GPGPU-Sim uArch: core:  7, cta: 3 initialized @(4,0)
GPGPU-Sim uArch: core:  8, cta: 3 initialized @(4,0)
GPGPU-Sim uArch: core:  9, cta: 3 initialized @(4,0)
GPGPU-Sim uArch: core: 10, cta: 3 initialized @(4,0)
GPGPU-Sim uArch: core: 11, cta: 3 initialized @(4,0)
GPGPU-Sim uArch: core: 12, cta: 3 initialized @(4,0)
GPGPU-Sim uArch: core: 13, cta: 3 initialized @(4,0)
GPGPU-Sim uArch: core: 14, cta: 3 initialized @(4,0)
GPGPU-Sim uArch: core:  0, cta: 3 initialized @(4,0)
GPGPU-Sim uArch: core:  1, cta: 4 initialized @(5,0)
GPGPU-Sim uArch: core:  2, cta: 4 initialized @(5,0)
GPGPU-Sim uArch: core:  3, cta: 4 initialized @(5,0)
GPGPU-Sim uArch: core:  4, cta: 4 initialized @(5,0)
GPGPU-Sim uArch: core:  5, cta: 4 initialized @(5,0)
GPGPU-Sim uArch: core:  6, cta: 4 initialized @(5,0)
GPGPU-Sim uArch: core:  7, cta: 4 initialized @(5,0)
GPGPU-Sim uArch: core:  8, cta: 4 initialized @(5,0)
GPGPU-Sim uArch: core:  9, cta: 4 initialized @(5,0)
GPGPU-Sim uArch: core: 10, cta: 4 initialized @(5,0)
GPGPU-Sim uArch: core: 11, cta: 4 initialized @(5,0)
GPGPU-Sim uArch: core: 12, cta: 4 initialized @(5,0)
GPGPU-Sim uArch: core: 13, cta: 4 initialized @(5,0)
GPGPU-Sim uArch: core: 14, cta: 4 initialized @(5,0)
GPGPU-Sim uArch: core:  0, cta: 4 initialized @(5,0)
GPGPU-Sim uArch: cycles simulated: 500  inst.: 23040 (ipc=46.1) sim_rate=3291 (inst/sec) elapsed = 0:0:00:07 / Tue Mar 22 12:49:09 2016
GPGPU-Sim PTX: 100000 instructions simulated : ctaid=(16,0,0) tid=(31,0,0)
GPGPU-Sim uArch: cycles simulated: 1000  inst.: 156160 (ipc=156.2) sim_rate=15616 (inst/sec) elapsed = 0:0:00:10 / Tue Mar 22 12:49:12 2016
GPGPU-Sim PTX: 200000 instructions simulated : ctaid=(0,0,0) tid=(223,0,0)
GPGPU-Sim uArch: cycles simulated: 1500  inst.: 256192 (ipc=170.8) sim_rate=19707 (inst/sec) elapsed = 0:0:00:13 / Tue Mar 22 12:49:15 2016
GPGPU-Sim PTX: 300000 instructions simulated : ctaid=(13,0,0) tid=(31,0,0)
GPGPU-Sim PTX: 400000 instructions simulated : ctaid=(25,0,0) tid=(159,0,0)
GPGPU-Sim PTX: 500000 instructions simulated : ctaid=(32,0,0) tid=(127,0,0)
GPGPU-Sim uArch: Shader 3 finished CTA #0 (2594,0), 4 CTAs running
GPGPU-Sim uArch: core:  3, cta: 0 initialized @(2595,0)
GPGPU-Sim uArch: Shader 1 finished CTA #0 (2617,0), 4 CTAs running
GPGPU-Sim uArch: core:  1, cta: 0 initialized @(2618,0)
GPGPU-Sim uArch: Shader 3 finished CTA #1 (2658,0), 4 CTAs running
GPGPU-Sim uArch: Shader 5 finished CTA #0 (2658,0), 4 CTAs running
GPGPU-Sim PTX: 600000 instructions simulated : ctaid=(53,0,0) tid=(63,0,0)
GPGPU-Sim uArch: core:  3, cta: 1 initialized @(2659,0)
GPGPU-Sim uArch: core:  5, cta: 0 initialized @(2659,0)
GPGPU-Sim uArch: Shader 2 finished CTA #0 (2676,0), 4 CTAs running
GPGPU-Sim uArch: core:  2, cta: 0 initialized @(2677,0)
GPGPU-Sim uArch: Shader 1 finished CTA #1 (2682,0), 4 CTAs running
GPGPU-Sim uArch: core:  1, cta: 1 initialized @(2683,0)
GPGPU-Sim uArch: Shader 0 finished CTA #0 (2689,0), 4 CTAs running
GPGPU-Sim uArch: core:  0, cta: 0 initialized @(2690,0)
GPGPU-Sim uArch: Shader 6 finished CTA #0 (2697,0), 4 CTAs running
GPGPU-Sim uArch: core:  6, cta: 0 initialized @(2698,0)
GPGPU-Sim uArch: Shader 7 finished CTA #0 (2726,0), 4 CTAs running
GPGPU-Sim uArch: core:  7, cta: 0 initialized @(2727,0)
GPGPU-Sim uArch: Shader 2 finished CTA #1 (2732,0), 4 CTAs running
GPGPU-Sim uArch: core:  2, cta: 1 initialized @(2733,0)
GPGPU-Sim uArch: Shader 4 finished CTA #0 (2734,0), 4 CTAs running
GPGPU-Sim uArch: core:  4, cta: 0 initialized @(2735,0)
GPGPU-Sim uArch: Shader 5 finished CTA #1 (2754,0), 4 CTAs running
GPGPU-Sim uArch: core:  5, cta: 1 initialized @(2755,0)
GPGPU-Sim uArch: Shader 0 finished CTA #1 (2756,0), 4 CTAs running
GPGPU-Sim uArch: core:  0, cta: 1 initialized @(2757,0)
GPGPU-Sim uArch: Shader 8 finished CTA #0 (2760,0), 4 CTAs running
GPGPU-Sim uArch: core:  8, cta: 0 initialized @(2761,0)
GPGPU-Sim uArch: Shader 6 finished CTA #1 (2776,0), 4 CTAs running
GPGPU-Sim uArch: Shader 7 finished CTA #1 (2776,0), 4 CTAs running
GPGPU-Sim uArch: core:  6, cta: 1 initialized @(2777,0)
GPGPU-Sim uArch: core:  7, cta: 1 initialized @(2777,0)
GPGPU-Sim uArch: Shader 8 finished CTA #1 (2814,0), 4 CTAs running
GPGPU-Sim uArch: Shader 9 finished CTA #0 (2814,0), 4 CTAs running
GPGPU-Sim uArch: core:  8, cta: 1 initialized @(2815,0)
GPGPU-Sim uArch: core:  9, cta: 0 initialized @(2815,0)
GPGPU-Sim uArch: Shader 4 finished CTA #1 (2818,0), 4 CTAs running
GPGPU-Sim uArch: core:  4, cta: 1 initialized @(2819,0)
GPGPU-Sim uArch: Shader 13 finished CTA #0 (2830,0), 4 CTAs running
GPGPU-Sim uArch: core: 13, cta: 0 initialized @(2831,0)
GPGPU-Sim uArch: Shader 12 finished CTA #0 (2831,0), 4 CTAs running
GPGPU-Sim uArch: core: 12, cta: 0 initialized @(2832,0)
GPGPU-Sim uArch: Shader 10 finished CTA #0 (2845,0), 4 CTAs running
GPGPU-Sim uArch: core: 10, cta: 0 initialized @(2846,0)
GPGPU-Sim uArch: Shader 9 finished CTA #1 (2862,0), 4 CTAs running
GPGPU-Sim uArch: core:  9, cta: 1 initialized @(2863,0)
GPGPU-Sim uArch: Shader 14 finished CTA #0 (2878,0), 4 CTAs running
GPGPU-Sim uArch: core: 14, cta: 0 initialized @(2879,0)
GPGPU-Sim uArch: Shader 13 finished CTA #1 (2909,0), 4 CTAs running
GPGPU-Sim uArch: core: 13, cta: 1 initialized @(2910,0)
GPGPU-Sim uArch: Shader 10 finished CTA #1 (2919,0), 4 CTAs running
GPGPU-Sim uArch: core: 10, cta: 1 initialized @(2920,0)
GPGPU-Sim uArch: Shader 12 finished CTA #1 (2921,0), 4 CTAs running
GPGPU-Sim uArch: core: 12, cta: 1 initialized @(2922,0)
GPGPU-Sim PTX: 700000 instructions simulated : ctaid=(51,0,0) tid=(223,0,0)
GPGPU-Sim uArch: Shader 11 finished CTA #0 (2965,0), 4 CTAs running
GPGPU-Sim uArch: core: 11, cta: 0 initialized @(2966,0)
GPGPU-Sim uArch: Shader 14 finished CTA #1 (2973,0), 4 CTAs running
GPGPU-Sim uArch: core: 14, cta: 1 initialized @(2974,0)
GPGPU-Sim uArch: cycles simulated: 3000  inst.: 690048 (ipc=230.0) sim_rate=49289 (inst/sec) elapsed = 0:0:00:14 / Tue Mar 22 12:49:16 2016
GPGPU-Sim uArch: Shader 11 finished CTA #1 (3067,0), 4 CTAs running
GPGPU-Sim uArch: core: 11, cta: 1 initialized @(3068,0)
GPGPU-Sim PTX: 800000 instructions simulated : ctaid=(71,0,0) tid=(31,0,0)
GPGPU-Sim uArch: cycles simulated: 3500  inst.: 866080 (ipc=247.5) sim_rate=57738 (inst/sec) elapsed = 0:0:00:15 / Tue Mar 22 12:49:17 2016
GPGPU-Sim PTX: 900000 instructions simulated : ctaid=(71,0,0) tid=(159,0,0)
GPGPU-Sim PTX: 1000000 instructions simulated : ctaid=(62,0,0) tid=(191,0,0)
GPGPU-Sim uArch: Shader 3 finished CTA #2 (3961,0), 4 CTAs running
GPGPU-Sim uArch: core:  3, cta: 2 initialized @(3962,0)
GPGPU-Sim uArch: Shader 1 finished CTA #2 (4005,0), 4 CTAs running
GPGPU-Sim uArch: core:  1, cta: 2 initialized @(4006,0)
GPGPU-Sim uArch: Shader 9 finished CTA #2 (4073,0), 4 CTAs running
GPGPU-Sim uArch: core:  9, cta: 2 initialized @(4074,0)
GPGPU-Sim uArch: Shader 2 finished CTA #2 (4109,0), 4 CTAs running
GPGPU-Sim uArch: core:  2, cta: 2 initialized @(4110,0)
GPGPU-Sim uArch: Shader 7 finished CTA #2 (4112,0), 4 CTAs running
GPGPU-Sim uArch: core:  7, cta: 2 initialized @(4113,0)
GPGPU-Sim uArch: Shader 8 finished CTA #2 (4154,0), 4 CTAs running
GPGPU-Sim uArch: core:  8, cta: 2 initialized @(4155,0)
GPGPU-Sim PTX: 1100000 instructions simulated : ctaid=(82,0,0) tid=(223,0,0)
GPGPU-Sim uArch: Shader 3 finished CTA #3 (4188,0), 4 CTAs running
GPGPU-Sim uArch: Shader 12 finished CTA #2 (4188,0), 4 CTAs running
GPGPU-Sim uArch: core: 12, cta: 2 initialized @(4189,0)
GPGPU-Sim uArch: core:  3, cta: 3 initialized @(4189,0)
GPGPU-Sim uArch: Shader 5 finished CTA #2 (4193,0), 4 CTAs running
GPGPU-Sim uArch: core:  5, cta: 2 initialized @(4194,0)
GPGPU-Sim uArch: Shader 0 finished CTA #2 (4205,0), 4 CTAs running
GPGPU-Sim uArch: core:  0, cta: 2 initialized @(4206,0)
GPGPU-Sim uArch: Shader 14 finished CTA #2 (4211,0), 4 CTAs running
GPGPU-Sim uArch: core: 14, cta: 2 initialized @(4212,0)
GPGPU-Sim uArch: Shader 6 finished CTA #2 (4268,0), 4 CTAs running
GPGPU-Sim uArch: core:  6, cta: 2 initialized @(4269,0)
GPGPU-Sim uArch: Shader 10 finished CTA #2 (4272,0), 4 CTAs running
GPGPU-Sim uArch: core: 10, cta: 2 initialized @(4273,0)
GPGPU-Sim uArch: Shader 4 finished CTA #2 (4283,0), 4 CTAs running
GPGPU-Sim uArch: core:  4, cta: 2 initialized @(4284,0)
GPGPU-Sim uArch: Shader 8 finished CTA #3 (4329,0), 4 CTAs running
GPGPU-Sim uArch: core:  8, cta: 3 initialized @(4330,0)
GPGPU-Sim uArch: Shader 6 finished CTA #3 (4379,0), 4 CTAs running
GPGPU-Sim uArch: core:  6, cta: 3 initialized @(4380,0)
GPGPU-Sim uArch: Shader 7 finished CTA #3 (4404,0), 4 CTAs running
GPGPU-Sim uArch: core:  7, cta: 3 initialized @(4405,0)
GPGPU-Sim uArch: Shader 5 finished CTA #3 (4417,0), 4 CTAs running
GPGPU-Sim uArch: core:  5, cta: 3 initialized @(4418,0)
GPGPU-Sim PTX: 1200000 instructions simulated : ctaid=(94,0,0) tid=(191,0,0)
GPGPU-Sim uArch: Shader 13 finished CTA #2 (4457,0), 4 CTAs running
GPGPU-Sim uArch: core: 13, cta: 2 initialized @(4458,0)
GPGPU-Sim uArch: Shader 9 finished CTA #3 (4473,0), 4 CTAs running
GPGPU-Sim uArch: core:  9, cta: 3 initialized @(4474,0)
GPGPU-Sim uArch: Shader 10 finished CTA #3 (4497,0), 4 CTAs running
GPGPU-Sim uArch: core: 10, cta: 3 initialized @(4498,0)
GPGPU-Sim uArch: cycles simulated: 4500  inst.: 1216768 (ipc=270.4) sim_rate=76048 (inst/sec) elapsed = 0:0:00:16 / Tue Mar 22 12:49:18 2016
GPGPU-Sim uArch: Shader 0 finished CTA #3 (4556,0), 4 CTAs running
GPGPU-Sim uArch: core:  0, cta: 3 initialized @(4557,0)
GPGPU-Sim uArch: Shader 2 finished CTA #3 (4571,0), 4 CTAs running
GPGPU-Sim uArch: core:  2, cta: 3 initialized @(4572,0)
GPGPU-Sim uArch: Shader 12 finished CTA #3 (4593,0), 4 CTAs running
GPGPU-Sim uArch: core: 12, cta: 3 initialized @(4594,0)
GPGPU-Sim uArch: Shader 1 finished CTA #3 (4595,0), 4 CTAs running
GPGPU-Sim uArch: core:  1, cta: 3 initialized @(4596,0)
GPGPU-Sim uArch: Shader 4 finished CTA #3 (4603,0), 4 CTAs running
GPGPU-Sim uArch: core:  4, cta: 3 initialized @(4604,0)
GPGPU-Sim uArch: Shader 11 finished CTA #2 (4659,0), 4 CTAs running
GPGPU-Sim uArch: core: 11, cta: 2 initialized @(4660,0)
GPGPU-Sim uArch: Shader 14 finished CTA #3 (4662,0), 4 CTAs running
GPGPU-Sim uArch: core: 14, cta: 3 initialized @(4663,0)
GPGPU-Sim PTX: 1300000 instructions simulated : ctaid=(78,0,0) tid=(159,0,0)
GPGPU-Sim uArch: Shader 13 finished CTA #3 (4696,0), 4 CTAs running
GPGPU-Sim uArch: core: 13, cta: 3 initialized @(4697,0)
GPGPU-Sim uArch: Shader 11 finished CTA #3 (4929,0), 4 CTAs running
GPGPU-Sim uArch: core: 11, cta: 3 initialized @(4930,0)
GPGPU-Sim uArch: cycles simulated: 5000  inst.: 1377120 (ipc=275.4) sim_rate=81007 (inst/sec) elapsed = 0:0:00:17 / Tue Mar 22 12:49:19 2016
GPGPU-Sim PTX: 1400000 instructions simulated : ctaid=(103,0,0) tid=(63,0,0)
GPGPU-Sim uArch: Shader 8 finished CTA #4 (5191,0), 4 CTAs running
GPGPU-Sim uArch: core:  8, cta: 4 initialized @(5192,0)
GPGPU-Sim uArch: Shader 9 finished CTA #4 (5339,0), 4 CTAs running
GPGPU-Sim uArch: core:  9, cta: 4 initialized @(5340,0)
GPGPU-Sim uArch: Shader 6 finished CTA #4 (5356,0), 4 CTAs running
GPGPU-Sim uArch: core:  6, cta: 4 initialized @(5357,0)
GPGPU-Sim PTX: 1500000 instructions simulated : ctaid=(86,0,0) tid=(31,0,0)
GPGPU-Sim uArch: Shader 2 finished CTA #4 (5461,0), 4 CTAs running
GPGPU-Sim uArch: core:  2, cta: 4 initialized @(5462,0)
GPGPU-Sim uArch: Shader 3 finished CTA #4 (5478,0), 4 CTAs running
GPGPU-Sim uArch: core:  3, cta: 4 initialized @(5479,0)
GPGPU-Sim uArch: Shader 7 finished CTA #4 (5480,0), 4 CTAs running
GPGPU-Sim uArch: core:  7, cta: 4 initialized @(5481,0)
GPGPU-Sim uArch: Shader 5 finished CTA #4 (5523,0), 4 CTAs running
GPGPU-Sim uArch: core:  5, cta: 4 initialized @(5524,0)
GPGPU-Sim uArch: Shader 10 finished CTA #4 (5563,0), 4 CTAs running
GPGPU-Sim uArch: core: 10, cta: 4 initialized @(5564,0)
GPGPU-Sim PTX: 1600000 instructions simulated : ctaid=(110,0,0) tid=(191,0,0)
GPGPU-Sim uArch: Shader 9 finished CTA #0 (5596,0), 4 CTAs running
GPGPU-Sim uArch: core:  9, cta: 0 initialized @(5597,0)
GPGPU-Sim uArch: Shader 5 finished CTA #0 (5642,0), 4 CTAs running
GPGPU-Sim uArch: core:  5, cta: 0 initialized @(5643,0)
GPGPU-Sim uArch: Shader 6 finished CTA #0 (5657,0), 4 CTAs running
GPGPU-Sim uArch: core:  6, cta: 0 initialized @(5658,0)
GPGPU-Sim uArch: Shader 3 finished CTA #0 (5683,0), 4 CTAs running
GPGPU-Sim uArch: core:  3, cta: 0 initialized @(5684,0)
GPGPU-Sim uArch: Shader 8 finished CTA #0 (5690,0), 4 CTAs running
GPGPU-Sim uArch: core:  8, cta: 0 initialized @(5691,0)
GPGPU-Sim uArch: Shader 12 finished CTA #4 (5701,0), 4 CTAs running
GPGPU-Sim uArch: core: 12, cta: 4 initialized @(5702,0)
GPGPU-Sim uArch: Shader 10 finished CTA #0 (5758,0), 4 CTAs running
GPGPU-Sim uArch: core: 10, cta: 0 initialized @(5759,0)
GPGPU-Sim uArch: Shader 0 finished CTA #4 (5778,0), 4 CTAs running
GPGPU-Sim uArch: core:  0, cta: 4 initialized @(5779,0)
GPGPU-Sim uArch: Shader 14 finished CTA #4 (5807,0), 4 CTAs running
GPGPU-Sim uArch: core: 14, cta: 4 initialized @(5808,0)
GPGPU-Sim uArch: Shader 13 finished CTA #4 (5852,0), 4 CTAs running
GPGPU-Sim uArch: core: 13, cta: 4 initialized @(5853,0)
GPGPU-Sim PTX: 1700000 instructions simulated : ctaid=(111,0,0) tid=(127,0,0)
GPGPU-Sim uArch: Shader 2 finished CTA #0 (5866,0), 4 CTAs running
GPGPU-Sim uArch: core:  2, cta: 0 initialized @(5867,0)
GPGPU-Sim uArch: Shader 4 finished CTA #4 (5969,0), 4 CTAs running
GPGPU-Sim uArch: core:  4, cta: 4 initialized @(5970,0)
GPGPU-Sim uArch: Shader 11 finished CTA #4 (5982,0), 4 CTAs running
GPGPU-Sim uArch: core: 11, cta: 4 initialized @(5983,0)
GPGPU-Sim uArch: cycles simulated: 6000  inst.: 1742752 (ipc=290.5) sim_rate=96819 (inst/sec) elapsed = 0:0:00:18 / Tue Mar 22 12:49:20 2016
GPGPU-Sim uArch: Shader 14 finished CTA #0 (6004,0), 4 CTAs running
GPGPU-Sim uArch: core: 14, cta: 0 initialized @(6005,0)
GPGPU-Sim uArch: Shader 7 finished CTA #0 (6028,0), 4 CTAs running
GPGPU-Sim uArch: core:  7, cta: 0 initialized @(6029,0)
GPGPU-Sim uArch: Shader 13 finished CTA #0 (6078,0), 4 CTAs running
GPGPU-Sim uArch: core: 13, cta: 0 initialized @(6079,0)
GPGPU-Sim uArch: Shader 0 finished CTA #0 (6083,0), 4 CTAs running
GPGPU-Sim uArch: core:  0, cta: 0 initialized @(6084,0)
GPGPU-Sim uArch: Shader 12 finished CTA #0 (6115,0), 4 CTAs running
GPGPU-Sim uArch: core: 12, cta: 0 initialized @(6116,0)
GPGPU-Sim PTX: 1800000 instructions simulated : ctaid=(134,0,0) tid=(95,0,0)
GPGPU-Sim uArch: Shader 8 finished CTA #1 (6200,0), 4 CTAs running
GPGPU-Sim uArch: core:  8, cta: 1 initialized @(6201,0)
GPGPU-Sim uArch: Shader 4 finished CTA #0 (6231,0), 4 CTAs running
GPGPU-Sim uArch: core:  4, cta: 0 initialized @(6232,0)
GPGPU-Sim uArch: Shader 1 finished CTA #4 (6259,0), 4 CTAs running
GPGPU-Sim uArch: core:  1, cta: 4 initialized @(6260,0)
GPGPU-Sim uArch: Shader 9 finished CTA #1 (6412,0), 4 CTAs running
GPGPU-Sim uArch: core:  9, cta: 1 initialized @(6413,0)
GPGPU-Sim PTX: 1900000 instructions simulated : ctaid=(122,0,0) tid=(127,0,0)
GPGPU-Sim uArch: Shader 11 finished CTA #0 (6451,0), 4 CTAs running
GPGPU-Sim uArch: core: 11, cta: 0 initialized @(6452,0)
GPGPU-Sim uArch: Shader 9 finished CTA #2 (6663,0), 4 CTAs running
GPGPU-Sim uArch: core:  9, cta: 2 initialized @(6664,0)
GPGPU-Sim PTX: 2000000 instructions simulated : ctaid=(109,0,0) tid=(191,0,0)
GPGPU-Sim uArch: Shader 2 finished CTA #1 (6699,0), 4 CTAs running
GPGPU-Sim uArch: core:  2, cta: 1 initialized @(6700,0)
GPGPU-Sim uArch: Shader 5 finished CTA #1 (6735,0), 4 CTAs running
GPGPU-Sim uArch: core:  5, cta: 1 initialized @(6736,0)
GPGPU-Sim uArch: Shader 3 finished CTA #1 (6781,0), 4 CTAs running
GPGPU-Sim uArch: core:  3, cta: 1 initialized @(6782,0)
GPGPU-Sim uArch: Shader 10 finished CTA #1 (6903,0), 4 CTAs running
GPGPU-Sim uArch: core: 10, cta: 1 initialized @(6904,0)
GPGPU-Sim uArch: Shader 7 finished CTA #1 (6912,0), 4 CTAs running
GPGPU-Sim uArch: core:  7, cta: 1 initialized @(6913,0)
GPGPU-Sim PTX: 2100000 instructions simulated : ctaid=(165,0,0) tid=(31,0,0)
GPGPU-Sim uArch: Shader 11 finished CTA #1 (6932,0), 4 CTAs running
GPGPU-Sim uArch: core: 11, cta: 1 initialized @(6933,0)
GPGPU-Sim uArch: Shader 3 finished CTA #2 (6961,0), 4 CTAs running
GPGPU-Sim uArch: core:  3, cta: 2 initialized @(6962,0)
GPGPU-Sim uArch: Shader 12 finished CTA #1 (6980,0), 4 CTAs running
GPGPU-Sim uArch: core: 12, cta: 1 initialized @(6981,0)
GPGPU-Sim uArch: cycles simulated: 7000  inst.: 2113024 (ipc=301.9) sim_rate=111211 (inst/sec) elapsed = 0:0:00:19 / Tue Mar 22 12:49:21 2016
GPGPU-Sim uArch: Shader 1 finished CTA #0 (7015,0), 4 CTAs running
GPGPU-Sim uArch: core:  1, cta: 0 initialized @(7016,0)
GPGPU-Sim uArch: Shader 6 finished CTA #1 (7028,0), 4 CTAs running
GPGPU-Sim uArch: core:  6, cta: 1 initialized @(7029,0)
GPGPU-Sim uArch: Shader 13 finished CTA #1 (7047,0), 4 CTAs running
GPGPU-Sim uArch: core: 13, cta: 1 initialized @(7048,0)
GPGPU-Sim uArch: Shader 4 finished CTA #1 (7050,0), 4 CTAs running
GPGPU-Sim uArch: core:  4, cta: 1 initialized @(7051,0)
GPGPU-Sim uArch: Shader 10 finished CTA #2 (7075,0), 4 CTAs running
GPGPU-Sim uArch: core: 10, cta: 2 initialized @(7076,0)
GPGPU-Sim uArch: Shader 14 finished CTA #1 (7084,0), 4 CTAs running
GPGPU-Sim uArch: core: 14, cta: 1 initialized @(7085,0)
GPGPU-Sim uArch: Shader 5 finished CTA #2 (7136,0), 4 CTAs running
GPGPU-Sim uArch: core:  5, cta: 2 initialized @(7137,0)
GPGPU-Sim uArch: Shader 0 finished CTA #1 (7187,0), 4 CTAs running
GPGPU-Sim uArch: core:  0, cta: 1 initialized @(7188,0)
GPGPU-Sim PTX: 2200000 instructions simulated : ctaid=(161,0,0) tid=(95,0,0)
GPGPU-Sim uArch: Shader 4 finished CTA #2 (7240,0), 4 CTAs running
GPGPU-Sim uArch: core:  4, cta: 2 initialized @(7241,0)
GPGPU-Sim uArch: Shader 2 finished CTA #2 (7287,0), 4 CTAs running
GPGPU-Sim uArch: core:  2, cta: 2 initialized @(7288,0)
GPGPU-Sim uArch: Shader 13 finished CTA #2 (7391,0), 4 CTAs running
GPGPU-Sim uArch: core: 13, cta: 2 initialized @(7392,0)
GPGPU-Sim uArch: Shader 7 finished CTA #2 (7422,0), 4 CTAs running
GPGPU-Sim uArch: core:  7, cta: 2 initialized @(7423,0)
GPGPU-Sim PTX: 2300000 instructions simulated : ctaid=(140,0,0) tid=(191,0,0)
GPGPU-Sim uArch: cycles simulated: 7500  inst.: 2299968 (ipc=306.7) sim_rate=114998 (inst/sec) elapsed = 0:0:00:20 / Tue Mar 22 12:49:22 2016
GPGPU-Sim uArch: Shader 11 finished CTA #2 (7503,0), 4 CTAs running
GPGPU-Sim uArch: core: 11, cta: 2 initialized @(7504,0)
GPGPU-Sim uArch: Shader 8 finished CTA #2 (7550,0), 4 CTAs running
GPGPU-Sim uArch: core:  8, cta: 2 initialized @(7551,0)
GPGPU-Sim uArch: Shader 12 finished CTA #2 (7599,0), 4 CTAs running
GPGPU-Sim uArch: core: 12, cta: 2 initialized @(7600,0)
GPGPU-Sim uArch: Shader 0 finished CTA #2 (7615,0), 4 CTAs running
GPGPU-Sim uArch: core:  0, cta: 2 initialized @(7616,0)
GPGPU-Sim uArch: Shader 5 finished CTA #3 (7623,0), 4 CTAs running
GPGPU-Sim uArch: core:  5, cta: 3 initialized @(7624,0)
GPGPU-Sim uArch: Shader 9 finished CTA #3 (7632,0), 4 CTAs running
GPGPU-Sim uArch: core:  9, cta: 3 initialized @(7633,0)
GPGPU-Sim uArch: Shader 3 finished CTA #3 (7739,0), 4 CTAs running
GPGPU-Sim uArch: core:  3, cta: 3 initialized @(7740,0)
GPGPU-Sim PTX: 2400000 instructions simulated : ctaid=(172,0,0) tid=(223,0,0)
GPGPU-Sim uArch: Shader 8 finished CTA #3 (7793,0), 4 CTAs running
GPGPU-Sim uArch: core:  8, cta: 3 initialized @(7794,0)
GPGPU-Sim uArch: Shader 14 finished CTA #2 (7857,0), 4 CTAs running
GPGPU-Sim uArch: core: 14, cta: 2 initialized @(7858,0)
GPGPU-Sim uArch: Shader 7 finished CTA #3 (7871,0), 4 CTAs running
GPGPU-Sim uArch: core:  7, cta: 3 initialized @(7872,0)
GPGPU-Sim uArch: Shader 2 finished CTA #3 (7961,0), 4 CTAs running
GPGPU-Sim uArch: core:  2, cta: 3 initialized @(7962,0)
GPGPU-Sim uArch: Shader 10 finished CTA #3 (8013,0), 4 CTAs running
GPGPU-Sim uArch: core: 10, cta: 3 initialized @(8014,0)
GPGPU-Sim PTX: 2500000 instructions simulated : ctaid=(129,0,0) tid=(127,0,0)
GPGPU-Sim uArch: Shader 6 finished CTA #2 (8085,0), 4 CTAs running
GPGPU-Sim uArch: core:  6, cta: 2 initialized @(8086,0)
GPGPU-Sim uArch: Shader 13 finished CTA #3 (8105,0), 4 CTAs running
GPGPU-Sim uArch: core: 13, cta: 3 initialized @(8106,0)
GPGPU-Sim uArch: Shader 11 finished CTA #3 (8173,0), 4 CTAs running
GPGPU-Sim uArch: core: 11, cta: 3 initialized @(8174,0)
GPGPU-Sim uArch: Shader 1 finished CTA #1 (8197,0), 4 CTAs running
GPGPU-Sim uArch: core:  1, cta: 1 initialized @(8198,0)
GPGPU-Sim uArch: Shader 3 finished CTA #4 (8208,0), 4 CTAs running
GPGPU-Sim uArch: core:  3, cta: 4 initialized @(8209,0)
GPGPU-Sim uArch: Shader 12 finished CTA #3 (8215,0), 4 CTAs running
GPGPU-Sim uArch: core: 12, cta: 3 initialized @(8216,0)
GPGPU-Sim uArch: Shader 10 finished CTA #4 (8273,0), 4 CTAs running
GPGPU-Sim uArch: core: 10, cta: 4 initialized @(8274,0)
GPGPU-Sim PTX: 2600000 instructions simulated : ctaid=(177,0,0) tid=(127,0,0)
GPGPU-Sim uArch: Shader 9 finished CTA #4 (8292,0), 4 CTAs running
GPGPU-Sim uArch: core:  9, cta: 4 initialized @(8293,0)
GPGPU-Sim uArch: Shader 5 finished CTA #4 (8325,0), 4 CTAs running
GPGPU-Sim uArch: core:  5, cta: 4 initialized @(8326,0)
GPGPU-Sim uArch: Shader 13 finished CTA #4 (8337,0), 4 CTAs running
GPGPU-Sim uArch: core: 13, cta: 4 initialized @(8338,0)
GPGPU-Sim uArch: Shader 11 finished CTA #4 (8450,0), 4 CTAs running
GPGPU-Sim uArch: core: 11, cta: 4 initialized @(8451,0)
GPGPU-Sim uArch: Shader 7 finished CTA #4 (8452,0), 4 CTAs running
GPGPU-Sim uArch: core:  7, cta: 4 initialized @(8453,0)
GPGPU-Sim uArch: Shader 14 finished CTA #3 (8496,0), 4 CTAs running
GPGPU-Sim uArch: core: 14, cta: 3 initialized @(8497,0)
GPGPU-Sim uArch: cycles simulated: 8500  inst.: 2669568 (ipc=314.1) sim_rate=127122 (inst/sec) elapsed = 0:0:00:21 / Tue Mar 22 12:49:23 2016
GPGPU-Sim uArch: Shader 6 finished CTA #3 (8518,0), 4 CTAs running
GPGPU-Sim uArch: core:  6, cta: 3 initialized @(8519,0)
GPGPU-Sim PTX: 2700000 instructions simulated : ctaid=(171,0,0) tid=(255,0,0)
GPGPU-Sim uArch: Shader 0 finished CTA #3 (8571,0), 4 CTAs running
GPGPU-Sim uArch: Shader 8 finished CTA #4 (8571,0), 4 CTAs running
GPGPU-Sim uArch: core:  8, cta: 4 initialized @(8572,0)
GPGPU-Sim uArch: core:  0, cta: 3 initialized @(8572,0)
GPGPU-Sim uArch: Shader 1 finished CTA #2 (8641,0), 4 CTAs running
GPGPU-Sim uArch: core:  1, cta: 2 initialized @(8642,0)
GPGPU-Sim uArch: Shader 9 finished CTA #0 (8652,0), 4 CTAs running
GPGPU-Sim uArch: core:  9, cta: 0 initialized @(8653,0)
GPGPU-Sim uArch: Shader 4 finished CTA #3 (8739,0), 4 CTAs running
GPGPU-Sim uArch: core:  4, cta: 3 initialized @(8740,0)
GPGPU-Sim uArch: Shader 12 finished CTA #4 (8769,0), 4 CTAs running
GPGPU-Sim uArch: core: 12, cta: 4 initialized @(8770,0)
GPGPU-Sim uArch: Shader 0 finished CTA #4 (8780,0), 4 CTAs running
GPGPU-Sim uArch: core:  0, cta: 4 initialized @(8781,0)
GPGPU-Sim uArch: Shader 2 finished CTA #4 (8818,0), 4 CTAs running
GPGPU-Sim uArch: core:  2, cta: 4 initialized @(8819,0)
GPGPU-Sim PTX: 2800000 instructions simulated : ctaid=(197,0,0) tid=(31,0,0)
GPGPU-Sim uArch: Shader 1 finished CTA #3 (8925,0), 4 CTAs running
GPGPU-Sim uArch: core:  1, cta: 3 initialized @(8926,0)
GPGPU-Sim uArch: Shader 4 finished CTA #4 (8931,0), 4 CTAs running
GPGPU-Sim uArch: core:  4, cta: 4 initialized @(8932,0)
GPGPU-Sim uArch: Shader 14 finished CTA #4 (8935,0), 4 CTAs running
GPGPU-Sim uArch: core: 14, cta: 4 initialized @(8936,0)
GPGPU-Sim uArch: Shader 13 finished CTA #0 (8961,0), 4 CTAs running
GPGPU-Sim uArch: core: 13, cta: 0 initialized @(8962,0)
GPGPU-Sim uArch: Shader 8 finished CTA #0 (8967,0), 4 CTAs running
GPGPU-Sim uArch: core:  8, cta: 0 initialized @(8968,0)
GPGPU-Sim uArch: Shader 7 finished CTA #0 (8971,0), 4 CTAs running
GPGPU-Sim uArch: core:  7, cta: 0 initialized @(8972,0)
GPGPU-Sim uArch: cycles simulated: 9000  inst.: 2844672 (ipc=316.1) sim_rate=129303 (inst/sec) elapsed = 0:0:00:22 / Tue Mar 22 12:49:24 2016
GPGPU-Sim uArch: Shader 10 finished CTA #0 (9017,0), 4 CTAs running
GPGPU-Sim uArch: core: 10, cta: 0 initialized @(9018,0)
GPGPU-Sim uArch: Shader 2 finished CTA #0 (9048,0), 4 CTAs running
GPGPU-Sim uArch: core:  2, cta: 0 initialized @(9049,0)
GPGPU-Sim PTX: 2900000 instructions simulated : ctaid=(181,0,0) tid=(127,0,0)
GPGPU-Sim uArch: Shader 11 finished CTA #0 (9136,0), 4 CTAs running
GPGPU-Sim uArch: core: 11, cta: 0 initialized @(9137,0)
GPGPU-Sim uArch: Shader 6 finished CTA #4 (9165,0), 4 CTAs running
GPGPU-Sim uArch: core:  6, cta: 4 initialized @(9166,0)
GPGPU-Sim uArch: Shader 13 finished CTA #1 (9275,0), 4 CTAs running
GPGPU-Sim uArch: core: 13, cta: 1 initialized @(9276,0)
GPGPU-Sim uArch: Shader 9 finished CTA #1 (9349,0), 4 CTAs running
GPGPU-Sim uArch: core:  9, cta: 1 initialized @(9350,0)
GPGPU-Sim PTX: 3000000 instructions simulated : ctaid=(178,0,0) tid=(191,0,0)
GPGPU-Sim uArch: Shader 3 finished CTA #0 (9422,0), 4 CTAs running
GPGPU-Sim uArch: core:  3, cta: 0 initialized @(9423,0)
GPGPU-Sim uArch: Shader 12 finished CTA #0 (9485,0), 4 CTAs running
GPGPU-Sim uArch: core: 12, cta: 0 initialized @(9486,0)
GPGPU-Sim uArch: Shader 0 finished CTA #0 (9487,0), 4 CTAs running
GPGPU-Sim uArch: core:  0, cta: 0 initialized @(9488,0)
GPGPU-Sim uArch: cycles simulated: 9500  inst.: 3028256 (ipc=318.8) sim_rate=131663 (inst/sec) elapsed = 0:0:00:23 / Tue Mar 22 12:49:25 2016
GPGPU-Sim uArch: Shader 10 finished CTA #1 (9524,0), 4 CTAs running
GPGPU-Sim uArch: core: 10, cta: 1 initialized @(9525,0)
GPGPU-Sim uArch: Shader 5 finished CTA #0 (9529,0), 4 CTAs running
GPGPU-Sim uArch: core:  5, cta: 0 initialized @(9530,0)
GPGPU-Sim uArch: Shader 6 finished CTA #0 (9565,0), 4 CTAs running
GPGPU-Sim uArch: core:  6, cta: 0 initialized @(9566,0)
GPGPU-Sim uArch: Shader 8 finished CTA #1 (9662,0), 4 CTAs running
GPGPU-Sim uArch: core:  8, cta: 1 initialized @(9663,0)
GPGPU-Sim PTX: 3100000 instructions simulated : ctaid=(175,0,0) tid=(63,0,0)
GPGPU-Sim uArch: Shader 7 finished CTA #1 (9743,0), 4 CTAs running
GPGPU-Sim uArch: core:  7, cta: 1 initialized @(9744,0)
GPGPU-Sim uArch: Shader 11 finished CTA #1 (9831,0), 4 CTAs running
GPGPU-Sim uArch: core: 11, cta: 1 initialized @(9832,0)
GPGPU-Sim uArch: Shader 1 finished CTA #4 (9897,0), 4 CTAs running
GPGPU-Sim uArch: core:  1, cta: 4 initialized @(9898,0)
GPGPU-Sim uArch: Shader 2 finished CTA #1 (9962,0), 4 CTAs running
GPGPU-Sim uArch: core:  2, cta: 1 initialized @(9963,0)
GPGPU-Sim uArch: Shader 6 finished CTA #1 (9969,0), 4 CTAs running
GPGPU-Sim uArch: core:  6, cta: 1 initialized @(9970,0)
GPGPU-Sim uArch: Shader 0 finished CTA #1 (9977,0), 4 CTAs running
GPGPU-Sim uArch: core:  0, cta: 1 initialized @(9978,0)
GPGPU-Sim PTX: 3200000 instructions simulated : ctaid=(239,0,0) tid=(159,0,0)
GPGPU-Sim uArch: cycles simulated: 10000  inst.: 3191232 (ipc=319.1) sim_rate=132968 (inst/sec) elapsed = 0:0:00:24 / Tue Mar 22 12:49:26 2016
GPGPU-Sim uArch: Shader 14 finished CTA #0 (10017,0), 4 CTAs running
GPGPU-Sim uArch: core: 14, cta: 0 initialized @(10018,0)
GPGPU-Sim uArch: Shader 3 finished CTA #1 (10061,0), 4 CTAs running
GPGPU-Sim uArch: core:  3, cta: 1 initialized @(10062,0)
GPGPU-Sim uArch: Shader 8 finished CTA #2 (10089,0), 4 CTAs running
GPGPU-Sim uArch: core:  8, cta: 2 initialized @(10090,0)
GPGPU-Sim uArch: Shader 12 finished CTA #1 (10147,0), 4 CTAs running
GPGPU-Sim uArch: core: 12, cta: 1 initialized @(10148,0)
GPGPU-Sim uArch: Shader 13 finished CTA #2 (10208,0), 4 CTAs running
GPGPU-Sim uArch: core: 13, cta: 2 initialized @(10209,0)
GPGPU-Sim uArch: Shader 10 finished CTA #2 (10266,0), 4 CTAs running
GPGPU-Sim uArch: core: 10, cta: 2 initialized @(10267,0)
GPGPU-Sim PTX: 3300000 instructions simulated : ctaid=(220,0,0) tid=(255,0,0)
GPGPU-Sim uArch: Shader 4 finished CTA #0 (10309,0), 4 CTAs running
GPGPU-Sim uArch: core:  4, cta: 0 initialized @(10310,0)
GPGPU-Sim uArch: Shader 11 finished CTA #2 (10392,0), 4 CTAs running
GPGPU-Sim uArch: core: 11, cta: 2 initialized @(10393,0)
GPGPU-Sim uArch: Shader 2 finished CTA #2 (10397,0), 4 CTAs running
GPGPU-Sim uArch: core:  2, cta: 2 initialized @(10398,0)
GPGPU-Sim uArch: Shader 6 finished CTA #2 (10423,0), 4 CTAs running
GPGPU-Sim uArch: core:  6, cta: 2 initialized @(10424,0)
GPGPU-Sim uArch: Shader 4 finished CTA #1 (10430,0), 4 CTAs running
GPGPU-Sim uArch: core:  4, cta: 1 initialized @(10431,0)
GPGPU-Sim uArch: Shader 12 finished CTA #2 (10459,0), 4 CTAs running
GPGPU-Sim uArch: core: 12, cta: 2 initialized @(10460,0)
GPGPU-Sim uArch: Shader 5 finished CTA #1 (10465,0), 4 CTAs running
GPGPU-Sim uArch: core:  5, cta: 1 initialized @(10466,0)
GPGPU-Sim uArch: cycles simulated: 10500  inst.: 3366336 (ipc=320.6) sim_rate=134653 (inst/sec) elapsed = 0:0:00:25 / Tue Mar 22 12:49:27 2016
GPGPU-Sim uArch: Shader 9 finished CTA #2 (10528,0), 4 CTAs running
GPGPU-Sim uArch: core:  9, cta: 2 initialized @(10529,0)
GPGPU-Sim uArch: Shader 1 finished CTA #0 (10530,0), 4 CTAs running
GPGPU-Sim uArch: core:  1, cta: 0 initialized @(10531,0)
GPGPU-Sim PTX: 3400000 instructions simulated : ctaid=(194,0,0) tid=(191,0,0)
GPGPU-Sim uArch: Shader 10 finished CTA #3 (10587,0), 4 CTAs running
GPGPU-Sim uArch: core: 10, cta: 3 initialized @(10588,0)
GPGPU-Sim uArch: Shader 0 finished CTA #2 (10619,0), 4 CTAs running
GPGPU-Sim uArch: core:  0, cta: 2 initialized @(10620,0)
GPGPU-Sim uArch: Shader 7 finished CTA #2 (10652,0), 4 CTAs running
GPGPU-Sim uArch: core:  7, cta: 2 initialized @(10653,0)
GPGPU-Sim uArch: Shader 3 finished CTA #2 (10690,0), 4 CTAs running
GPGPU-Sim uArch: core:  3, cta: 2 initialized @(10691,0)
GPGPU-Sim uArch: Shader 14 finished CTA #1 (10761,0), 4 CTAs running
GPGPU-Sim uArch: core: 14, cta: 1 initialized @(10762,0)
GPGPU-Sim uArch: Shader 8 finished CTA #3 (10823,0), 4 CTAs running
GPGPU-Sim uArch: core:  8, cta: 3 initialized @(10824,0)
GPGPU-Sim uArch: Shader 1 finished CTA #1 (10831,0), 4 CTAs running
GPGPU-Sim uArch: core:  1, cta: 1 initialized @(10832,0)
GPGPU-Sim uArch: Shader 6 finished CTA #3 (10843,0), 4 CTAs running
GPGPU-Sim uArch: core:  6, cta: 3 initialized @(10844,0)
GPGPU-Sim PTX: 3500000 instructions simulated : ctaid=(223,0,0) tid=(223,0,0)
GPGPU-Sim uArch: Shader 0 finished CTA #3 (10885,0), 4 CTAs running
GPGPU-Sim uArch: core:  0, cta: 3 initialized @(10886,0)
GPGPU-Sim uArch: Shader 7 finished CTA #3 (10959,0), 4 CTAs running
GPGPU-Sim uArch: core:  7, cta: 3 initialized @(10960,0)
GPGPU-Sim uArch: Shader 8 finished CTA #4 (11179,0), 4 CTAs running
GPGPU-Sim uArch: core:  8, cta: 4 initialized @(11180,0)
GPGPU-Sim PTX: 3600000 instructions simulated : ctaid=(249,0,0) tid=(223,0,0)
GPGPU-Sim uArch: Shader 2 finished CTA #3 (11273,0), 4 CTAs running
GPGPU-Sim uArch: core:  2, cta: 3 initialized @(11274,0)
GPGPU-Sim uArch: Shader 4 finished CTA #2 (11276,0), 4 CTAs running
GPGPU-Sim uArch: core:  4, cta: 2 initialized @(11277,0)
GPGPU-Sim uArch: Shader 10 finished CTA #4 (11288,0), 4 CTAs running
GPGPU-Sim uArch: core: 10, cta: 4 initialized @(11289,0)
GPGPU-Sim uArch: Shader 14 finished CTA #2 (11312,0), 4 CTAs running
GPGPU-Sim uArch: core: 14, cta: 2 initialized @(11313,0)
GPGPU-Sim uArch: Shader 13 finished CTA #3 (11344,0), 4 CTAs running
GPGPU-Sim uArch: core: 13, cta: 3 initialized @(11345,0)
GPGPU-Sim uArch: Shader 5 finished CTA #2 (11382,0), 4 CTAs running
GPGPU-Sim uArch: core:  5, cta: 2 initialized @(11383,0)
GPGPU-Sim uArch: Shader 3 finished CTA #3 (11416,0), 4 CTAs running
GPGPU-Sim uArch: core:  3, cta: 3 initialized @(11417,0)
GPGPU-Sim PTX: 3700000 instructions simulated : ctaid=(249,0,0) tid=(63,0,0)
GPGPU-Sim uArch: cycles simulated: 11500  inst.: 3702880 (ipc=322.0) sim_rate=142418 (inst/sec) elapsed = 0:0:00:26 / Tue Mar 22 12:49:28 2016
GPGPU-Sim uArch: Shader 2 finished CTA #4 (11510,0), 4 CTAs running
GPGPU-Sim uArch: core:  2, cta: 4 initialized @(11511,0)
GPGPU-Sim uArch: Shader 4 finished CTA #3 (11511,0), 4 CTAs running
GPGPU-Sim uArch: core:  4, cta: 3 initialized @(11512,0)
GPGPU-Sim uArch: Shader 12 finished CTA #3 (11524,0), 4 CTAs running
GPGPU-Sim uArch: core: 12, cta: 3 initialized @(11525,0)
GPGPU-Sim uArch: Shader 7 finished CTA #4 (11577,0), 4 CTAs running
GPGPU-Sim uArch: core:  7, cta: 4 initialized @(11578,0)
GPGPU-Sim uArch: Shader 13 finished CTA #4 (11596,0), 4 CTAs running
GPGPU-Sim uArch: core: 13, cta: 4 initialized @(11597,0)
GPGPU-Sim uArch: Shader 6 finished CTA #4 (11613,0), 4 CTAs running
GPGPU-Sim uArch: core:  6, cta: 4 initialized @(11614,0)
GPGPU-Sim uArch: Shader 14 finished CTA #3 (11679,0), 4 CTAs running
GPGPU-Sim uArch: core: 14, cta: 3 initialized @(11680,0)
GPGPU-Sim uArch: Shader 8 finished CTA #0 (11723,0), 4 CTAs running
GPGPU-Sim uArch: core:  8, cta: 0 initialized @(11724,0)
GPGPU-Sim uArch: Shader 12 finished CTA #4 (11731,0), 4 CTAs running
GPGPU-Sim uArch: core: 12, cta: 4 initialized @(11732,0)
GPGPU-Sim PTX: 3800000 instructions simulated : ctaid=(250,0,0) tid=(223,0,0)
GPGPU-Sim uArch: Shader 6 finished CTA #0 (11798,0), 4 CTAs running
GPGPU-Sim uArch: core:  6, cta: 0 initialized @(11799,0)
GPGPU-Sim uArch: Shader 2 finished CTA #0 (11934,0), 4 CTAs running
GPGPU-Sim uArch: core:  2, cta: 0 initialized @(11935,0)
GPGPU-Sim uArch: Shader 9 finished CTA #3 (11937,0), 4 CTAs running
GPGPU-Sim uArch: core:  9, cta: 3 initialized @(11938,0)
GPGPU-Sim uArch: cycles simulated: 12000  inst.: 3860640 (ipc=321.7) sim_rate=142986 (inst/sec) elapsed = 0:0:00:27 / Tue Mar 22 12:49:29 2016
GPGPU-Sim uArch: Shader 5 finished CTA #3 (12029,0), 4 CTAs running
GPGPU-Sim uArch: core:  5, cta: 3 initialized @(12030,0)
GPGPU-Sim uArch: Shader 1 finished CTA #2 (12033,0), 4 CTAs running
GPGPU-Sim uArch: core:  1, cta: 2 initialized @(12034,0)
GPGPU-Sim uArch: Shader 7 finished CTA #0 (12057,0), 4 CTAs running
GPGPU-Sim uArch: core:  7, cta: 0 initialized @(12058,0)
GPGPU-Sim uArch: Shader 8 finished CTA #1 (12071,0), 4 CTAs running
GPGPU-Sim uArch: core:  8, cta: 1 initialized @(12072,0)
GPGPU-Sim PTX: 3900000 instructions simulated : ctaid=(254,0,0) tid=(255,0,0)
GPGPU-Sim uArch: Shader 10 finished CTA #0 (12217,0), 4 CTAs running
GPGPU-Sim uArch: core: 10, cta: 0 initialized @(12218,0)
GPGPU-Sim uArch: Shader 13 finished CTA #0 (12265,0), 4 CTAs running
GPGPU-Sim uArch: core: 13, cta: 0 initialized @(12266,0)
GPGPU-Sim uArch: Shader 14 finished CTA #4 (12280,0), 4 CTAs running
GPGPU-Sim uArch: core: 14, cta: 4 initialized @(12281,0)
GPGPU-Sim uArch: Shader 11 finished CTA #3 (12333,0), 4 CTAs running
GPGPU-Sim uArch: core: 11, cta: 3 initialized @(12334,0)
GPGPU-Sim PTX: 4000000 instructions simulated : ctaid=(241,0,0) tid=(127,0,0)
GPGPU-Sim uArch: Shader 0 finished CTA #4 (12384,0), 4 CTAs running
GPGPU-Sim uArch: core:  0, cta: 4 initialized @(12385,0)
GPGPU-Sim uArch: Shader 2 finished CTA #1 (12440,0), 4 CTAs running
GPGPU-Sim uArch: core:  2, cta: 1 initialized @(12441,0)
GPGPU-Sim uArch: Shader 4 finished CTA #4 (12471,0), 4 CTAs running
GPGPU-Sim uArch: core:  4, cta: 4 initialized @(12472,0)
GPGPU-Sim uArch: Shader 7 finished CTA #1 (12491,0), 4 CTAs running
GPGPU-Sim uArch: core:  7, cta: 1 initialized @(12492,0)
GPGPU-Sim uArch: cycles simulated: 12500  inst.: 4037440 (ipc=323.0) sim_rate=144194 (inst/sec) elapsed = 0:0:00:28 / Tue Mar 22 12:49:30 2016
GPGPU-Sim uArch: Shader 3 finished CTA #4 (12539,0), 4 CTAs running
GPGPU-Sim uArch: core:  3, cta: 4 initialized @(12540,0)
GPGPU-Sim uArch: Shader 5 finished CTA #4 (12548,0), 4 CTAs running
GPGPU-Sim uArch: core:  5, cta: 4 initialized @(12549,0)
GPGPU-Sim uArch: Shader 6 finished CTA #1 (12588,0), 4 CTAs running
GPGPU-Sim uArch: core:  6, cta: 1 initialized @(12589,0)
GPGPU-Sim uArch: Shader 13 finished CTA #1 (12598,0), 4 CTAs running
GPGPU-Sim uArch: core: 13, cta: 1 initialized @(12599,0)
GPGPU-Sim uArch: Shader 11 finished CTA #4 (12600,0), 4 CTAs running
GPGPU-Sim uArch: core: 11, cta: 4 initialized @(12601,0)
GPGPU-Sim uArch: Shader 12 finished CTA #0 (12602,0), 4 CTAs running
GPGPU-Sim uArch: core: 12, cta: 0 initialized @(12603,0)
GPGPU-Sim PTX: 4100000 instructions simulated : ctaid=(252,0,0) tid=(255,0,0)
GPGPU-Sim uArch: Shader 8 finished CTA #2 (12747,0), 4 CTAs running
GPGPU-Sim uArch: core:  8, cta: 2 initialized @(12748,0)
GPGPU-Sim uArch: Shader 12 finished CTA #1 (12754,0), 4 CTAs running
GPGPU-Sim uArch: core: 12, cta: 1 initialized @(12755,0)
GPGPU-Sim uArch: Shader 1 finished CTA #3 (12772,0), 4 CTAs running
GPGPU-Sim uArch: core:  1, cta: 3 initialized @(12773,0)
GPGPU-Sim uArch: Shader 3 finished CTA #0 (12781,0), 4 CTAs running
GPGPU-Sim uArch: core:  3, cta: 0 initialized @(12782,0)
GPGPU-Sim uArch: Shader 9 finished CTA #4 (12858,0), 4 CTAs running
GPGPU-Sim uArch: core:  9, cta: 4 initialized @(12859,0)
GPGPU-Sim PTX: 4200000 instructions simulated : ctaid=(245,0,0) tid=(127,0,0)
GPGPU-Sim uArch: Shader 9 finished CTA #0 (12944,0), 4 CTAs running
GPGPU-Sim uArch: core:  9, cta: 0 initialized @(12945,0)
GPGPU-Sim uArch: Shader 10 finished CTA #1 (12966,0), 4 CTAs running
GPGPU-Sim uArch: core: 10, cta: 1 initialized @(12967,0)
GPGPU-Sim uArch: cycles simulated: 13000  inst.: 4213728 (ipc=324.1) sim_rate=145300 (inst/sec) elapsed = 0:0:00:29 / Tue Mar 22 12:49:31 2016
GPGPU-Sim uArch: Shader 8 finished CTA #3 (13014,0), 4 CTAs running
GPGPU-Sim uArch: core:  8, cta: 3 initialized @(13015,0)
GPGPU-Sim uArch: Shader 0 finished CTA #0 (13020,0), 4 CTAs running
GPGPU-Sim uArch: core:  0, cta: 0 initialized @(13021,0)
GPGPU-Sim uArch: Shader 6 finished CTA #2 (13069,0), 4 CTAs running
GPGPU-Sim uArch: core:  6, cta: 2 initialized @(13070,0)
GPGPU-Sim uArch: Shader 5 finished CTA #0 (13138,0), 4 CTAs running
GPGPU-Sim uArch: core:  5, cta: 0 initialized @(13139,0)
GPGPU-Sim uArch: Shader 14 finished CTA #0 (13162,0), 4 CTAs running
GPGPU-Sim uArch: core: 14, cta: 0 initialized @(13163,0)
GPGPU-Sim PTX: 4300000 instructions simulated : ctaid=(307,0,0) tid=(31,0,0)
GPGPU-Sim uArch: Shader 0 finished CTA #1 (13253,0), 4 CTAs running
GPGPU-Sim uArch: core:  0, cta: 1 initialized @(13254,0)
GPGPU-Sim uArch: Shader 13 finished CTA #2 (13305,0), 4 CTAs running
GPGPU-Sim uArch: core: 13, cta: 2 initialized @(13306,0)
GPGPU-Sim uArch: Shader 4 finished CTA #0 (13319,0), 4 CTAs running
GPGPU-Sim uArch: core:  4, cta: 0 initialized @(13320,0)
GPGPU-Sim uArch: Shader 14 finished CTA #1 (13327,0), 4 CTAs running
GPGPU-Sim uArch: core: 14, cta: 1 initialized @(13328,0)
GPGPU-Sim uArch: Shader 10 finished CTA #2 (13351,0), 4 CTAs running
GPGPU-Sim uArch: core: 10, cta: 2 initialized @(13352,0)
GPGPU-Sim uArch: Shader 7 finished CTA #2 (13368,0), 4 CTAs running
GPGPU-Sim uArch: core:  7, cta: 2 initialized @(13369,0)
GPGPU-Sim uArch: Shader 12 finished CTA #2 (13429,0), 4 CTAs running
GPGPU-Sim uArch: core: 12, cta: 2 initialized @(13430,0)
GPGPU-Sim uArch: Shader 5 finished CTA #1 (13440,0), 4 CTAs running
GPGPU-Sim uArch: core:  5, cta: 1 initialized @(13441,0)
GPGPU-Sim uArch: Shader 1 finished CTA #4 (13448,0), 4 CTAs running
GPGPU-Sim uArch: core:  1, cta: 4 initialized @(13449,0)
GPGPU-Sim uArch: Shader 2 finished CTA #2 (13475,0), 4 CTAs running
GPGPU-Sim uArch: core:  2, cta: 2 initialized @(13476,0)
GPGPU-Sim PTX: 4400000 instructions simulated : ctaid=(308,0,0) tid=(63,0,0)
GPGPU-Sim uArch: Shader 3 finished CTA #1 (13633,0), 4 CTAs running
GPGPU-Sim uArch: core:  3, cta: 1 initialized @(13634,0)
GPGPU-Sim uArch: Shader 9 finished CTA #1 (13637,0), 4 CTAs running
GPGPU-Sim uArch: core:  9, cta: 1 initialized @(13638,0)
GPGPU-Sim uArch: Shader 10 finished CTA #3 (13710,0), 4 CTAs running
GPGPU-Sim uArch: core: 10, cta: 3 initialized @(13711,0)
GPGPU-Sim PTX: 4500000 instructions simulated : ctaid=(283,0,0) tid=(127,0,0)
GPGPU-Sim uArch: Shader 3 finished CTA #2 (13869,0), 4 CTAs running
GPGPU-Sim uArch: core:  3, cta: 2 initialized @(13870,0)
GPGPU-Sim uArch: Shader 7 finished CTA #3 (13874,0), 4 CTAs running
GPGPU-Sim uArch: core:  7, cta: 3 initialized @(13875,0)
GPGPU-Sim uArch: Shader 12 finished CTA #3 (13877,0), 4 CTAs running
GPGPU-Sim uArch: core: 12, cta: 3 initialized @(13878,0)
GPGPU-Sim uArch: Shader 11 finished CTA #0 (13895,0), 4 CTAs running
GPGPU-Sim uArch: core: 11, cta: 0 initialized @(13896,0)
GPGPU-Sim uArch: Shader 0 finished CTA #2 (13897,0), 4 CTAs running
GPGPU-Sim uArch: core:  0, cta: 2 initialized @(13898,0)
GPGPU-Sim uArch: cycles simulated: 14000  inst.: 4530656 (ipc=323.6) sim_rate=151021 (inst/sec) elapsed = 0:0:00:30 / Tue Mar 22 12:49:32 2016
GPGPU-Sim uArch: Shader 8 finished CTA #4 (14056,0), 4 CTAs running
GPGPU-Sim uArch: core:  8, cta: 4 initialized @(14057,0)
GPGPU-Sim uArch: Shader 1 finished CTA #0 (14081,0), 4 CTAs running
GPGPU-Sim uArch: core:  1, cta: 0 initialized @(14082,0)
GPGPU-Sim PTX: 4600000 instructions simulated : ctaid=(274,0,0) tid=(63,0,0)
GPGPU-Sim uArch: Shader 13 finished CTA #3 (14138,0), 4 CTAs running
GPGPU-Sim uArch: core: 13, cta: 3 initialized @(14139,0)
GPGPU-Sim uArch: Shader 4 finished CTA #1 (14186,0), 4 CTAs running
GPGPU-Sim uArch: core:  4, cta: 1 initialized @(14187,0)
GPGPU-Sim uArch: Shader 11 finished CTA #1 (14249,0), 4 CTAs running
GPGPU-Sim uArch: core: 11, cta: 1 initialized @(14250,0)
GPGPU-Sim uArch: Shader 2 finished CTA #3 (14306,0), 4 CTAs running
GPGPU-Sim uArch: core:  2, cta: 3 initialized @(14307,0)
GPGPU-Sim PTX: 4700000 instructions simulated : ctaid=(307,0,0) tid=(191,0,0)
GPGPU-Sim uArch: Shader 14 finished CTA #2 (14430,0), 4 CTAs running
GPGPU-Sim uArch: core: 14, cta: 2 initialized @(14431,0)
GPGPU-Sim uArch: Shader 7 finished CTA #4 (14468,0), 4 CTAs running
GPGPU-Sim uArch: core:  7, cta: 4 initialized @(14469,0)
GPGPU-Sim uArch: Shader 3 finished CTA #3 (14472,0), 4 CTAs running
GPGPU-Sim uArch: core:  3, cta: 3 initialized @(14473,0)
GPGPU-Sim uArch: cycles simulated: 14500  inst.: 4734592 (ipc=326.5) sim_rate=152728 (inst/sec) elapsed = 0:0:00:31 / Tue Mar 22 12:49:33 2016
GPGPU-Sim uArch: Shader 9 finished CTA #2 (14518,0), 4 CTAs running
GPGPU-Sim uArch: core:  9, cta: 2 initialized @(14519,0)
GPGPU-Sim uArch: Shader 0 finished CTA #3 (14522,0), 4 CTAs running
GPGPU-Sim uArch: core:  0, cta: 3 initialized @(14523,0)
GPGPU-Sim uArch: Shader 6 finished CTA #3 (14526,0), 4 CTAs running
GPGPU-Sim uArch: core:  6, cta: 3 initialized @(14527,0)
GPGPU-Sim uArch: Shader 12 finished CTA #4 (14620,0), 4 CTAs running
GPGPU-Sim uArch: core: 12, cta: 4 initialized @(14621,0)
GPGPU-Sim PTX: 4800000 instructions simulated : ctaid=(314,0,0) tid=(31,0,0)
GPGPU-Sim uArch: Shader 5 finished CTA #2 (14641,0), 4 CTAs running
GPGPU-Sim uArch: core:  5, cta: 2 initialized @(14642,0)
GPGPU-Sim uArch: Shader 14 finished CTA #3 (14715,0), 4 CTAs running
GPGPU-Sim uArch: core: 14, cta: 3 initialized @(14716,0)
GPGPU-Sim uArch: Shader 8 finished CTA #0 (14721,0), 4 CTAs running
GPGPU-Sim uArch: core:  8, cta: 0 initialized @(14722,0)
GPGPU-Sim uArch: Shader 10 finished CTA #4 (14785,0), 4 CTAs running
GPGPU-Sim uArch: core: 10, cta: 4 initialized @(14786,0)
GPGPU-Sim uArch: Shader 13 finished CTA #4 (14789,0), 4 CTAs running
GPGPU-Sim uArch: core: 13, cta: 4 initialized @(14790,0)
GPGPU-Sim uArch: Shader 3 finished CTA #4 (14833,0), 4 CTAs running
GPGPU-Sim uArch: core:  3, cta: 4 initialized @(14834,0)
GPGPU-Sim uArch: Shader 6 finished CTA #4 (14857,0), 4 CTAs running
GPGPU-Sim uArch: core:  6, cta: 4 initialized @(14858,0)
GPGPU-Sim uArch: Shader 12 finished CTA #0 (14859,0), 4 CTAs running
GPGPU-Sim uArch: core: 12, cta: 0 initialized @(14860,0)
GPGPU-Sim uArch: Shader 1 finished CTA #1 (14884,0), 4 CTAs running
GPGPU-Sim uArch: core:  1, cta: 1 initialized @(14885,0)
GPGPU-Sim uArch: Shader 11 finished CTA #2 (14913,0), 4 CTAs running
GPGPU-Sim uArch: core: 11, cta: 2 initialized @(14914,0)
GPGPU-Sim PTX: 4900000 instructions simulated : ctaid=(361,0,0) tid=(95,0,0)
GPGPU-Sim uArch: Shader 4 finished CTA #2 (15025,0), 4 CTAs running
GPGPU-Sim uArch: core:  4, cta: 2 initialized @(15026,0)
GPGPU-Sim uArch: Shader 7 finished CTA #0 (15046,0), 4 CTAs running
GPGPU-Sim uArch: core:  7, cta: 0 initialized @(15047,0)
GPGPU-Sim uArch: Shader 8 finished CTA #1 (15062,0), 4 CTAs running
GPGPU-Sim uArch: core:  8, cta: 1 initialized @(15063,0)
GPGPU-Sim uArch: Shader 11 finished CTA #3 (15081,0), 4 CTAs running
GPGPU-Sim uArch: core: 11, cta: 3 initialized @(15082,0)
GPGPU-Sim uArch: Shader 2 finished CTA #4 (15096,0), 4 CTAs running
GPGPU-Sim uArch: core:  2, cta: 4 initialized @(15097,0)
GPGPU-Sim uArch: Shader 1 finished CTA #2 (15098,0), 4 CTAs running
GPGPU-Sim uArch: core:  1, cta: 2 initialized @(15099,0)
GPGPU-Sim uArch: Shader 4 finished CTA #3 (15235,0), 4 CTAs running
GPGPU-Sim uArch: core:  4, cta: 3 initialized @(15236,0)
GPGPU-Sim uArch: Shader 0 finished CTA #4 (15253,0), 4 CTAs running
GPGPU-Sim uArch: core:  0, cta: 4 initialized @(15254,0)
GPGPU-Sim PTX: 5000000 instructions simulated : ctaid=(318,0,0) tid=(191,0,0)
GPGPU-Sim uArch: Shader 10 finished CTA #0 (15353,0), 4 CTAs running
GPGPU-Sim uArch: core: 10, cta: 0 initialized @(15354,0)
GPGPU-Sim uArch: Shader 2 finished CTA #0 (15377,0), 4 CTAs running
GPGPU-Sim uArch: core:  2, cta: 0 initialized @(15378,0)
GPGPU-Sim uArch: Shader 13 finished CTA #0 (15434,0), 4 CTAs running
GPGPU-Sim uArch: core: 13, cta: 0 initialized @(15435,0)
GPGPU-Sim uArch: Shader 5 finished CTA #3 (15438,0), 4 CTAs running
GPGPU-Sim uArch: core:  5, cta: 3 initialized @(15439,0)
GPGPU-Sim uArch: cycles simulated: 15500  inst.: 5061280 (ipc=326.5) sim_rate=158165 (inst/sec) elapsed = 0:0:00:32 / Tue Mar 22 12:49:34 2016
GPGPU-Sim uArch: Shader 6 finished CTA #0 (15509,0), 4 CTAs running
GPGPU-Sim uArch: core:  6, cta: 0 initialized @(15510,0)
GPGPU-Sim uArch: Shader 3 finished CTA #0 (15513,0), 4 CTAs running
GPGPU-Sim uArch: core:  3, cta: 0 initialized @(15514,0)
GPGPU-Sim PTX: 5100000 instructions simulated : ctaid=(304,0,0) tid=(191,0,0)
GPGPU-Sim uArch: Shader 3 finished CTA #1 (15676,0), 4 CTAs running
GPGPU-Sim uArch: core:  3, cta: 1 initialized @(15677,0)
GPGPU-Sim uArch: Shader 8 finished CTA #2 (15740,0), 4 CTAs running
GPGPU-Sim uArch: core:  8, cta: 2 initialized @(15741,0)
GPGPU-Sim PTX: 5200000 instructions simulated : ctaid=(367,0,0) tid=(159,0,0)
GPGPU-Sim uArch: Shader 4 finished CTA #4 (15943,0), 4 CTAs running
GPGPU-Sim uArch: core:  4, cta: 4 initialized @(15944,0)
GPGPU-Sim uArch: Shader 14 finished CTA #4 (15945,0), 4 CTAs running
GPGPU-Sim uArch: core: 14, cta: 4 initialized @(15946,0)
GPGPU-Sim uArch: Shader 1 finished CTA #3 (15965,0), 4 CTAs running
GPGPU-Sim uArch: core:  1, cta: 3 initialized @(15966,0)
GPGPU-Sim uArch: Shader 8 finished CTA #3 (15979,0), 4 CTAs running
GPGPU-Sim uArch: core:  8, cta: 3 initialized @(15980,0)
GPGPU-Sim uArch: Shader 11 finished CTA #4 (15981,0), 4 CTAs running
GPGPU-Sim uArch: core: 11, cta: 4 initialized @(15982,0)
GPGPU-Sim uArch: Shader 2 finished CTA #1 (15997,0), 4 CTAs running
GPGPU-Sim uArch: core:  2, cta: 1 initialized @(15998,0)
GPGPU-Sim uArch: Shader 0 finished CTA #0 (15998,0), 4 CTAs running
GPGPU-Sim uArch: core:  0, cta: 0 initialized @(15999,0)
GPGPU-Sim uArch: cycles simulated: 16000  inst.: 5238176 (ipc=327.4) sim_rate=158732 (inst/sec) elapsed = 0:0:00:33 / Tue Mar 22 12:49:35 2016
GPGPU-Sim uArch: Shader 7 finished CTA #1 (16013,0), 4 CTAs running
GPGPU-Sim uArch: core:  7, cta: 1 initialized @(16014,0)
GPGPU-Sim uArch: Shader 14 finished CTA #0 (16022,0), 4 CTAs running
GPGPU-Sim uArch: core: 14, cta: 0 initialized @(16023,0)
GPGPU-Sim uArch: Shader 13 finished CTA #1 (16031,0), 4 CTAs running
GPGPU-Sim uArch: core: 13, cta: 1 initialized @(16032,0)
GPGPU-Sim uArch: Shader 5 finished CTA #4 (16032,0), 4 CTAs running
GPGPU-Sim uArch: core:  5, cta: 4 initialized @(16033,0)
GPGPU-Sim uArch: Shader 12 finished CTA #1 (16033,0), 4 CTAs running
GPGPU-Sim uArch: core: 12, cta: 1 initialized @(16034,0)
GPGPU-Sim uArch: Shader 9 finished CTA #3 (16080,0), 4 CTAs running
GPGPU-Sim uArch: core:  9, cta: 3 initialized @(16081,0)
GPGPU-Sim PTX: 5300000 instructions simulated : ctaid=(360,0,0) tid=(255,0,0)
GPGPU-Sim uArch: Shader 1 finished CTA #4 (16130,0), 4 CTAs running
GPGPU-Sim uArch: core:  1, cta: 4 initialized @(16131,0)
GPGPU-Sim uArch: Shader 10 finished CTA #1 (16158,0), 4 CTAs running
GPGPU-Sim uArch: core: 10, cta: 1 initialized @(16159,0)
GPGPU-Sim uArch: Shader 9 finished CTA #4 (16211,0), 4 CTAs running
GPGPU-Sim uArch: core:  9, cta: 4 initialized @(16212,0)
GPGPU-Sim uArch: Shader 2 finished CTA #2 (16229,0), 4 CTAs running
GPGPU-Sim uArch: core:  2, cta: 2 initialized @(16230,0)
GPGPU-Sim uArch: Shader 4 finished CTA #0 (16243,0), 4 CTAs running
GPGPU-Sim uArch: core:  4, cta: 0 initialized @(16244,0)
GPGPU-Sim uArch: Shader 11 finished CTA #0 (16417,0), 4 CTAs running
GPGPU-Sim uArch: core: 11, cta: 0 initialized @(16418,0)
GPGPU-Sim PTX: 5400000 instructions simulated : ctaid=(324,0,0) tid=(127,0,0)
GPGPU-Sim uArch: Shader 6 finished CTA #1 (16435,0), 4 CTAs running
GPGPU-Sim uArch: core:  6, cta: 1 initialized @(16436,0)
GPGPU-Sim uArch: Shader 5 finished CTA #0 (16464,0), 4 CTAs running
GPGPU-Sim uArch: core:  5, cta: 0 initialized @(16465,0)
GPGPU-Sim uArch: Shader 3 finished CTA #2 (16471,0), 4 CTAs running
GPGPU-Sim uArch: core:  3, cta: 2 initialized @(16472,0)
GPGPU-Sim uArch: Shader 8 finished CTA #4 (16475,0), 4 CTAs running
GPGPU-Sim uArch: core:  8, cta: 4 initialized @(16476,0)
GPGPU-Sim uArch: cycles simulated: 16500  inst.: 5403552 (ipc=327.5) sim_rate=158928 (inst/sec) elapsed = 0:0:00:34 / Tue Mar 22 12:49:36 2016
GPGPU-Sim uArch: Shader 3 finished CTA #3 (16759,0), 4 CTAs running
GPGPU-Sim uArch: core:  3, cta: 3 initialized @(16760,0)
GPGPU-Sim PTX: 5500000 instructions simulated : ctaid=(365,0,0) tid=(63,0,0)
GPGPU-Sim uArch: Shader 7 finished CTA #2 (16826,0), 4 CTAs running
GPGPU-Sim uArch: core:  7, cta: 2 initialized @(16827,0)
GPGPU-Sim uArch: Shader 14 finished CTA #1 (16831,0), 4 CTAs running
GPGPU-Sim uArch: core: 14, cta: 1 initialized @(16832,0)
GPGPU-Sim uArch: Shader 10 finished CTA #2 (16992,0), 4 CTAs running
GPGPU-Sim uArch: core: 10, cta: 2 initialized @(16993,0)
GPGPU-Sim uArch: Shader 12 finished CTA #2 (16998,0), 4 CTAs running
GPGPU-Sim uArch: core: 12, cta: 2 initialized @(16999,0)
GPGPU-Sim uArch: Shader 13 finished CTA #2 (17038,0), 4 CTAs running
GPGPU-Sim uArch: core: 13, cta: 2 initialized @(17039,0)
GPGPU-Sim PTX: 5600000 instructions simulated : ctaid=(404,0,0) tid=(223,0,0)
GPGPU-Sim uArch: Shader 1 finished CTA #0 (17172,0), 4 CTAs running
GPGPU-Sim uArch: core:  1, cta: 0 initialized @(17173,0)
GPGPU-Sim uArch: Shader 2 finished CTA #3 (17196,0), 4 CTAs running
GPGPU-Sim uArch: core:  2, cta: 3 initialized @(17197,0)
GPGPU-Sim uArch: Shader 8 finished CTA #0 (17203,0), 4 CTAs running
GPGPU-Sim uArch: core:  8, cta: 0 initialized @(17204,0)
GPGPU-Sim uArch: Shader 11 finished CTA #1 (17224,0), 4 CTAs running
GPGPU-Sim uArch: core: 11, cta: 1 initialized @(17225,0)
GPGPU-Sim uArch: Shader 5 finished CTA #1 (17262,0), 4 CTAs running
GPGPU-Sim uArch: core:  5, cta: 1 initialized @(17263,0)
GPGPU-Sim uArch: Shader 9 finished CTA #0 (17314,0), 4 CTAs running
GPGPU-Sim uArch: core:  9, cta: 0 initialized @(17315,0)
GPGPU-Sim uArch: Shader 14 finished CTA #2 (17322,0), 4 CTAs running
GPGPU-Sim uArch: core: 14, cta: 2 initialized @(17323,0)
GPGPU-Sim PTX: 5700000 instructions simulated : ctaid=(360,0,0) tid=(255,0,0)
GPGPU-Sim uArch: Shader 0 finished CTA #1 (17426,0), 4 CTAs running
GPGPU-Sim uArch: core:  0, cta: 1 initialized @(17427,0)
GPGPU-Sim uArch: cycles simulated: 17500  inst.: 5710048 (ipc=326.3) sim_rate=163144 (inst/sec) elapsed = 0:0:00:35 / Tue Mar 22 12:49:37 2016
GPGPU-Sim uArch: Shader 9 finished CTA #1 (17505,0), 4 CTAs running
GPGPU-Sim uArch: core:  9, cta: 1 initialized @(17506,0)
GPGPU-Sim uArch: Shader 12 finished CTA #3 (17507,0), 4 CTAs running
GPGPU-Sim uArch: core: 12, cta: 3 initialized @(17508,0)
GPGPU-Sim uArch: Shader 0 finished CTA #2 (17521,0), 4 CTAs running
GPGPU-Sim uArch: core:  0, cta: 2 initialized @(17522,0)
GPGPU-Sim uArch: Shader 2 finished CTA #4 (17599,0), 4 CTAs running
GPGPU-Sim uArch: core:  2, cta: 4 initialized @(17600,0)
GPGPU-Sim uArch: Shader 7 finished CTA #3 (17651,0), 4 CTAs running
GPGPU-Sim uArch: core:  7, cta: 3 initialized @(17652,0)
GPGPU-Sim uArch: Shader 10 finished CTA #3 (17710,0), 4 CTAs running
GPGPU-Sim uArch: core: 10, cta: 3 initialized @(17711,0)
GPGPU-Sim uArch: Shader 6 finished CTA #2 (17718,0), 4 CTAs running
GPGPU-Sim uArch: core:  6, cta: 2 initialized @(17719,0)
GPGPU-Sim PTX: 5800000 instructions simulated : ctaid=(389,0,0) tid=(63,0,0)
GPGPU-Sim uArch: Shader 7 finished CTA #4 (17804,0), 4 CTAs running
GPGPU-Sim uArch: Shader 13 finished CTA #3 (17804,0), 4 CTAs running
GPGPU-Sim uArch: core:  7, cta: 4 initialized @(17805,0)
GPGPU-Sim uArch: core: 13, cta: 3 initialized @(17805,0)
GPGPU-Sim uArch: Shader 10 finished CTA #4 (17826,0), 4 CTAs running
GPGPU-Sim uArch: core: 10, cta: 4 initialized @(17827,0)
[...]
gpgpu_stall_shd_mem[l_mem_st][icnt_rc] = 0
gpgpu_stall_shd_mem[l_mem_ld][wb_icnt_rc] = 0
gpgpu_stall_shd_mem[l_mem_ld][wb_rsrv_fail] = 0
gpu_reg_bank_conflict_stalls = 0
Warp Occupancy Distribution:
Stall:10733810	W0_Idle:65941	W0_Scoreboard:3020075	W1:0	W2:0	W3:0	W4:0	W5:0	W6:0	W7:0	W8:0	W9:0	W10:0	W11:0	W12:0	W13:0	W14:0	W15:0	W16:0	W17:0	W18:0	W19:0	W20:0	W21:0	W22:0	W23:0	W24:0	W25:0	W26:0	W27:0	W28:0	W29:0	W30:0	W31:0	W32:7602176
traffic_breakdown_coretomem[CONST_ACC_R] = 120 {8:15,}
traffic_breakdown_coretomem[GLOBAL_ACC_R] = 4194304 {8:524288,}
traffic_breakdown_coretomem[GLOBAL_ACC_W] = 71303168 {136:524288,}
traffic_breakdown_coretomem[INST_ACC_R] = 600 {8:75,}
traffic_breakdown_memtocore[CONST_ACC_R] = 1080 {72:15,}
traffic_breakdown_memtocore[GLOBAL_ACC_R] = 71303168 {136:524288,}
traffic_breakdown_memtocore[GLOBAL_ACC_W] = 4194304 {8:524288,}
traffic_breakdown_memtocore[INST_ACC_R] = 10200 {136:75,}
maxmrqlatency = 493 
maxdqlatency = 0 
maxmflatency = 1064 
averagemflatency = 310 
max_icnt2mem_latency = 345 
max_icnt2sh_latency = 715207 
mrq_lat_table:396107 	23044 	27972 	49875 	95531 	151625 	196104 	96024 	6156 	0 	0 	0 	0 	0 	0 	0 	0 	0 	0 	0 	0 	0 	0 	0 	0 	0 	0 	0 	0 	0 	0 	0 	
dq_lat_table:0 	0 	0 	0 	0 	0 	0 	0 	0 	0 	0 	0 	0 	0 	0 	0 	0 	0 	0 	0 	0 	0 	0 	0 	0 	0 	0 	0 	0 	0 	0 	0 	
mf_lat_table:0 	0 	0 	0 	0 	0 	0 	464977 	526371 	57237 	6 	0 	0 	0 	0 	0 	0 	0 	0 	0 	0 	0 	0 	0 	0 	0 	0 	0 	0 	0 	0 	0 	
icnt2mem_lat_table:0 	0 	0 	155008 	198029 	312810 	375116 	7597 	106 	0 	0 	0 	0 	0 	0 	0 	0 	0 	0 	0 	0 	0 	0 	0 	
icnt2sh_lat_table:0 	0 	0 	81548 	303956 	135250 	3549 	0 	0 	0 	3 	1591 	3192 	6226 	11797 	24112 	48012 	96719 	191538 	141098 	0 	0 	0 	0 	
mf_lat_pw_table:0 	0 	0 	0 	0 	0 	0 	7 	1421 	1 	0 	0 	0 	0 	0 	0 	0 	0 	0 	0 	0 	0 	0 	0 	0 	0 	0 	0 	0 	0 	0 	0 	
maximum concurrent accesses to same row:
dram[0]:        32        32        32        32        32        32        32        32        32        32        31        30        28        25        32        32 
dram[1]:        32        32        32        32        32        32        32        32        32        32        31        29        26        25        32        32 
dram[2]:        32        32        32        32        32        32        32        32        32        32        31        30        25        28        31        32 
dram[3]:        32        32        32        32        32        32        32        32        32        32        31        30        25        28        31        31 
dram[4]:        32        32        32        32        32        32        32        32        32        32        31        30        28        26        32        31 
dram[5]:        29        32        32        32        32        31        32        32        32        32        30        30        28        26        32        31 
maximum service time to same row:
dram[0]:      4641      4814      4798      4493      4512      3840      4578      5040      4318      4743      3757      2763      2779      2879      4110      4335 
dram[1]:      4653      4900      4673      4434      4190      3669      4832      5029      4266      4752      3800      2839      2774      2879      4122      4357 
dram[2]:      4737      4564      4844      5038      4384      3871      5093      4494      4312      4649      3804      3180      2756      2896      4265      4132 
dram[3]:      4742      4788      4903      5034      4418      3843      5231      4640      4293      4572      4193      2987      2854      2850      4288      4309 
dram[4]:      4838      4744      4437      5054      3821      4000      4729      4790      4742      4557      2696      3310      2854      2890      4131      4144 
dram[5]:      3207      4810      4444      5097      3788      3782      4806      4820      4678      4360      2640      3128      2874      2904      4260      4363 
average row accesses per activate:
dram[0]:  2.850499  2.720843  2.937602  2.770215  2.947454  2.803211  3.202834  3.010824  2.886510  2.734280  2.977839  2.734438  2.951147  2.803590  3.155581  2.964412 
dram[1]:  2.670606  2.687810  2.790722  2.708531  2.754707  2.711245  2.963125  2.920840  2.664032  2.623206  2.821882  2.618121  2.782897  2.767401  2.956380  2.904445 
dram[2]:  2.599569  3.052336  2.667652  3.120784  2.632142  3.098140  2.825736  3.399561  2.589818  3.039459  2.607571  3.091373  2.662284  3.127002  2.765332  3.354442 
dram[3]:  2.504386  2.808180  2.591050  2.890016  2.572107  2.954434  2.731118  3.136167  2.546399  2.780815  2.534109  2.916734  2.583038  2.955393  2.697651  3.124857 
dram[4]:  2.877984  2.684484  2.889245  2.771633  2.910215  2.796488  3.180299  3.004986  2.879573  2.700050  2.872133  2.807732  2.934514  2.808839  3.178561  2.946004 
dram[5]:  2.708437  2.629181  2.767382  2.716688  2.716006  2.748921  2.960699  2.889718  2.732894  2.614303  2.752400  2.710624  2.766001  2.745354  2.892895  2.849830 
average row locality = 1042438/369095 = 2.824308
number of total memory accesses made:
dram[0]:         0         0         0         0         0         0         0         0         0         0         0         0         0         0         0         0 
dram[1]:         0         0         0         0         0         0         0         0         0         0         0         0         0         0         0         0 
dram[2]:         0         0         0         0         0         0         0         0         0         0         0         0         0         0         0         0 
dram[3]:         0         0         0         0         0         0         0         0         0         0         0         0         0         0         0         0 
dram[4]:         0         0         0         0         0         0         0         0         0         0         0         0         0         0         0         0 
dram[5]:         0         0         0         0         0         0         0         0         0         0         0         0         0         0         0         0 
total accesses: 0
min_bank_accesses = 0!
min_chip_accesses = 0!
number of total read accesses:
dram[0]:      5441      5440      5440      5440      5440      5440      5440      5440      5440      5440      5480      5484      5504      5504      5504      5504 
dram[1]:      5440      5440      5440      5440      5440      5440      5440      5440      5440      5440      5480      5484      5504      5504      5504      5504 
dram[2]:      5440      5440      5440      5440      5440      5440      5440      5440      5440      5440      5480      5484      5504      5504      5504      5504 
dram[3]:      5441      5440      5440      5440      5440      5440      5440      5440      5440      5440      5480      5484      5504      5504      5504      5504 
dram[4]:      5442      5440      5440      5440      5440      5440      5440      5440      5440      5440      5484      5484      5504      5504      5504      5504 
dram[5]:      5442      5440      5440      5440      5440      5440      5440      5440      5440      5440      5484      5484      5504      5504      5504      5504 
total reads: 524294
bank skew: 5504/5440 = 1.01
chip skew: 87386/87380 = 1.00
number of total write accesses:
dram[0]:      5408      5408      5388      5386      5386      5386      5408      5408      5344      5344      5404      5410      5430      5430      5408      5408 
dram[1]:      5408      5408      5388      5386      5386      5386      5408      5408      5344      5344      5404      5410      5430      5430      5408      5408 
dram[2]:      5408      5408      5388      5386      5386      5388      5408      5408      5344      5344      5404      5410      5430      5428      5408      5408 
dram[3]:      5408      5408      5388      5386      5386      5388      5408      5408      5344      5344      5404      5410      5430      5428      5408      5408 
dram[4]:      5408      5408      5386      5386      5386      5388      5408      5408      5344      5344      5410      5410      5430      5428      5408      5408 
dram[5]:      5408      5408      5386      5386      5386      5388      5408      5408      5344      5344      5410      5410      5430      5428      5408      5408 
total reads: 518144
bank skew: 5430/5344 = 1.02
chip skew: 86360/86356 = 1.00
average mf latency per bank:
dram[0]:        303       309       306       310       305       313       316       325       302       308       305       311       309       317       317       327
dram[1]:        302       306       308       311       308       314       318       325       304       306       306       309       311       317       318       325
dram[2]:        303       304       307       309       308       310       317       323       305       305       307       309       312       315       317       324
dram[3]:        304       306       307       311       309       313       317       325       305       307       307       312       313       317       317       325
dram[4]:        299       309       303       311       305       316       314       326       300       310       303       313       308       318       316       326
dram[5]:        302       308       307       311       308       313       317       326       303       307       305       311       311       317       318       324
maximum mf latency per bank:
dram[0]:        936       931       850       845       960      1064       940       911       701       785       884       828       810       775       779       849
dram[1]:        706       780       742       833       974       956       852       887       753       760       765       790       771       788       815       911
dram[2]:        700      1013       815       822       937      1038       907       819       715       788       837      1017       732       791       777       841
dram[3]:        759       832       769       824       822       995       824       921       740       717       752       844       774       802       876       849
dram[4]:        896       899       724       837       945      1018       775       899       665       846       935       908       764       851       779       890
dram[5]:        712       819       805       750       719       987       901       929       711       840       816       845       753       793       918       884

Number of Memory Banks Accessed per Memory Operation per Warp (from 0):
0	0	0	0	0	0	0	0	0	0	0	0	0	0	0	0	0	0	0	0	0	0	0	0	0	0	0	0	0	0	0	0	0	0	0	0	0	0	0	0	0	0	0	0	0	0	0	0	0	0	0	0	0	0	0	0	0	0	0	0	0	0	0	0	0	0	0	0	0	0	0	0	0	0	0	0	0	0	0	0	0	0	0	0	0	0	0	0	0	0	0	0	0	0	0	0	
Average # of Memory Banks Accessed per Memory Operation per Warp=-nan

position of mrq chosen
0	0	0	0	0	0	0	0	0	0	0	0	0	0	0	0	

average position of mrq chosen = -nan
Memory Partition 0: 
Cache L2_bank_000:
MSHR contents

Cache L2_bank_001:
MSHR contents

In Dram Latency Queue (total = 0): 
DRAM[0]: 16 bks, busW=4 BL=8 CL=12, tRRD=2 tCCD=6, tRCD=12 tRAS=28 tRP=12 tRC=40
n_cmd=944073 n_nop=476663 n_act=59976 n_pre=59960 n_req=173737 n_rd=174762 n_write=172712 bw_util=0.7361
n_activity=938152 dram_eff=0.7408
bk0: 10882a 446053i bk1: 10880a 400549i bk2: 10880a 438651i bk3: 10880a 405440i bk4: 10880a 419067i bk5: 10880a 374495i bk6: 10880a 371702i bk7: 10880a 320340i bk8: 10880a 457308i bk9: 10880a 408821i bk10: 10960a 440319i bk11: 10968a 395483i bk12: 11008a 414238i bk13: 11008a 362264i bk14: 11008a 368483i bk15: 11008a 321859i 
dram_util_bins: 0 0 0 0 0 0 0 0 0 0
dram_eff_bins: 0 0 0 0 0 0 0 0 0 0
mrqq: max=16 avg=10.5971
Memory Partition 1: 
Cache L2_bank_002:
MSHR contents

Cache L2_bank_003:
MSHR contents

In Dram Latency Queue (total = 0): 
DRAM[1]: 16 bks, busW=4 BL=8 CL=12, tRRD=2 tCCD=6, tRCD=12 tRAS=28 tRP=12 tRC=40
n_cmd=944073 n_nop=471061 n_act=62778 n_pre=62762 n_req=173736 n_rd=174760 n_write=172712 bw_util=0.7361
n_activity=938194 dram_eff=0.7407
bk0: 10880a 444917i bk1: 10880a 408148i bk2: 10880a 433652i bk3: 10880a 398524i bk4: 10880a 404534i bk5: 10880a 365918i bk6: 10880a 361587i bk7: 10880a 319061i bk8: 10880a 445724i bk9: 10880a 413425i bk10: 10960a 431653i bk11: 10968a 396780i bk12: 11008a 404983i bk13: 11008a 358080i bk14: 11008a 364780i bk15: 11008a 315478i 
dram_util_bins: 0 0 0 0 0 0 0 0 0 0
dram_eff_bins: 0 0 0 0 0 0 0 0 0 0
mrqq: max=16 avg=10.6281
Memory Partition 2: 
Cache L2_bank_004:
MSHR contents

Cache L2_bank_005:
MSHR contents

In Dram Latency Queue (total = 0): 
DRAM[2]: 16 bks, busW=4 BL=8 CL=12, tRRD=2 tCCD=6, tRCD=12 tRAS=28 tRP=12 tRC=40
n_cmd=944073 n_nop=476407 n_act=60105 n_pre=60089 n_req=173736 n_rd=174760 n_write=172712 bw_util=0.7361
n_activity=938008 dram_eff=0.7409
bk0: 10880a 443040i bk1: 10880a 421099i bk2: 10880a 428808i bk3: 10880a 409627i bk4: 10880a 404106i bk5: 10880a 383639i bk6: 10880a 369095i bk7: 10880a 333280i bk8: 10880a 442783i bk9: 10880a 426768i bk10: 10960a 430110i bk11: 10968a 413292i bk12: 11008a 401377i bk13: 11008a 377950i bk14: 11008a 363079i bk15: 11008a 327728i 
dram_util_bins: 0 0 0 0 0 0 0 0 0 0
dram_eff_bins: 0 0 0 0 0 0 0 0 0 0
mrqq: max=16 avg=10.5727
Memory Partition 3: 
Cache L2_bank_006:
MSHR contents

Cache L2_bank_007:
MSHR contents

In Dram Latency Queue (total = 0): 
DRAM[3]: 16 bks, busW=4 BL=8 CL=12, tRRD=2 tCCD=6, tRCD=12 tRAS=28 tRP=12 tRC=40
n_cmd=944073 n_nop=470541 n_act=63037 n_pre=63021 n_req=173737 n_rd=174762 n_write=172712 bw_util=0.7361
n_activity=938378 dram_eff=0.7406
bk0: 10882a 437305i bk1: 10880a 417309i bk2: 10880a 426799i bk3: 10880a 407189i bk4: 10880a 398513i bk5: 10880a 373127i bk6: 10880a 368313i bk7: 10880a 327029i bk8: 10880a 442439i bk9: 10880a 414943i bk10: 10960a 425853i bk11: 10968a 403297i bk12: 11008a 392764i bk13: 11008a 370354i bk14: 11008a 360346i bk15: 11008a 326871i 
dram_util_bins: 0 0 0 0 0 0 0 0 0 0
dram_eff_bins: 0 0 0 0 0 0 0 0 0 0
mrqq: max=16 avg=10.554
Memory Partition 4: 
Cache L2_bank_008:
MSHR contents

Cache L2_bank_009:
MSHR contents

In Dram Latency Queue (total = 0): 
DRAM[4]: 16 bks, busW=4 BL=8 CL=12, tRRD=2 tCCD=6, tRCD=12 tRAS=28 tRP=12 tRC=40
n_cmd=944073 n_nop=476109 n_act=60244 n_pre=60228 n_req=173746 n_rd=174772 n_write=172720 bw_util=0.7362
n_activity=937765 dram_eff=0.7411
bk0: 10884a 450346i bk1: 10880a 408168i bk2: 10880a 433046i bk3: 10880a 401280i bk4: 10880a 415830i bk5: 10880a 367354i bk6: 10880a 372516i bk7: 10880a 325761i bk8: 10880a 457061i bk9: 10880a 404330i bk10: 10968a 436100i bk11: 10968a 399815i bk12: 11008a 412574i bk13: 11008a 363703i bk14: 11008a 371941i bk15: 11008a 324075i 
dram_util_bins: 0 0 0 0 0 0 0 0 0 0
dram_eff_bins: 0 0 0 0 0 0 0 0 0 0
mrqq: max=16 avg=10.5839
Memory Partition 5: 
Cache L2_bank_010:
MSHR contents

Cache L2_bank_011:
MSHR contents

In Dram Latency Queue (total = 0): 
DRAM[5]: 16 bks, busW=4 BL=8 CL=12, tRRD=2 tCCD=6, tRCD=12 tRAS=28 tRP=12 tRC=40
n_cmd=944073 n_nop=470685 n_act=62956 n_pre=62940 n_req=173746 n_rd=174772 n_write=172720 bw_util=0.7362
n_activity=938377 dram_eff=0.7406
bk0: 10884a 451385i bk1: 10880a 405597i bk2: 10880a 425859i bk3: 10880a 396264i bk4: 10880a 406167i bk5: 10880a 371451i bk6: 10880a 362499i bk7: 10880a 319059i bk8: 10880a 447568i bk9: 10880a 409737i bk10: 10968a 430015i bk11: 10968a 397798i bk12: 11008a 398889i bk13: 11008a 363018i bk14: 11008a 361387i bk15: 11008a 322862i 
dram_util_bins: 0 0 0 0 0 0 0 0 0 0
dram_eff_bins: 0 0 0 0 0 0 0 0 0 0
mrqq: max=16 avg=10.5991

========= L2 cache stats =========
L2_cache_bank[0]: Access = 87391, Miss = 43689, Miss_rate = 0.500, Pending_hits = 3, Reservation_fails = 414
L2_cache_bank[1]: Access = 87384, Miss = 43692, Miss_rate = 0.500, Pending_hits = 0, Reservation_fails = 526
L2_cache_bank[2]: Access = 87376, Miss = 43688, Miss_rate = 0.500, Pending_hits = 0, Reservation_fails = 279
L2_cache_bank[3]: Access = 87384, Miss = 43692, Miss_rate = 0.500, Pending_hits = 0, Reservation_fails = 0
L2_cache_bank[4]: Access = 87376, Miss = 43688, Miss_rate = 0.500, Pending_hits = 0, Reservation_fails = 216
L2_cache_bank[5]: Access = 87384, Miss = 43692, Miss_rate = 0.500, Pending_hits = 0, Reservation_fails = 580
L2_cache_bank[6]: Access = 87391, Miss = 43689, Miss_rate = 0.500, Pending_hits = 3, Reservation_fails = 116
L2_cache_bank[7]: Access = 87384, Miss = 43692, Miss_rate = 0.500, Pending_hits = 0, Reservation_fails = 410
L2_cache_bank[8]: Access = 87414, Miss = 43694, Miss_rate = 0.500, Pending_hits = 6, Reservation_fails = 571
L2_cache_bank[9]: Access = 87384, Miss = 43692, Miss_rate = 0.500, Pending_hits = 0, Reservation_fails = 476
L2_cache_bank[10]: Access = 87414, Miss = 43694, Miss_rate = 0.500, Pending_hits = 6, Reservation_fails = 358
L2_cache_bank[11]: Access = 87384, Miss = 43692, Miss_rate = 0.500, Pending_hits = 0, Reservation_fails = 126
L2_total_cache_accesses = 1048666
L2_total_cache_misses = 524294
L2_total_cache_miss_rate = 0.5000
L2_total_cache_pending_hits = 18
L2_total_cache_reservation_fails = 4072
L2_total_cache_breakdown:
	L2_cache_stats_breakdown[GLOBAL_ACC_R][MISS] = 524288
	L2_cache_stats_breakdown[GLOBAL_ACC_R][RESERVATION_FAIL] = 3516
	L2_cache_stats_breakdown[CONST_ACC_R][HIT] = 11
	L2_cache_stats_breakdown[CONST_ACC_R][HIT_RESERVED] = 3
	L2_cache_stats_breakdown[CONST_ACC_R][MISS] = 1
	L2_cache_stats_breakdown[CONST_ACC_R][RESERVATION_FAIL] = 100
	L2_cache_stats_breakdown[GLOBAL_ACC_W][HIT] = 524288
	L2_cache_stats_breakdown[INST_ACC_R][HIT] = 55
	L2_cache_stats_breakdown[INST_ACC_R][HIT_RESERVED] = 15
	L2_cache_stats_breakdown[INST_ACC_R][MISS] = 5
	L2_cache_stats_breakdown[INST_ACC_R][RESERVATION_FAIL] = 456
L2_cache_data_port_util = 0.486
L2_cache_fill_port_util = 0.244

icnt_total_pkts_mem_to_simt=3146148
icnt_total_pkts_simt_to_mem=3145818
LD_mem_lat_dist  0 0 0 0 0 0 0 0 0 0 0 0 0 0 0 0 0 0 0 0 0 0 0 0 0 0 0
ST_mem_lat_dist  0 0 0 0 0 0 0 0 0 0 0 0 0 0 0 0 0 0 0 0 0 0 0 0 0 0 0
----------------------------Interconnect-DETAILS--------------------------------
Class 0:
Packet latency average = 24.8691
	minimum = 6
	maximum = 268
Network latency average = 17.8868
	minimum = 6
	maximum = 211
Slowest packet = 1051493
Flit latency average = 14.7119
	minimum = 6
	maximum = 211
Slowest flit = 3153738
Fragmentation average = 0.00157738
	minimum = 0
	maximum = 120
Injected packet rate average = 0.109043
	minimum = 0.0964979 (at node 14)
	maximum = 0.122678 (at node 16)
Accepted packet rate average = 0.109043
	minimum = 0.0964979 (at node 14)
	maximum = 0.122678 (at node 16)
Injected flit rate average = 0.32713
	minimum = 0.289494 (at node 14)
	maximum = 0.368033 (at node 16)
Accepted flit rate average= 0.32713
	minimum = 0.289494 (at node 14)
	maximum = 0.368033 (at node 16)
Injected packet length average = 3
Accepted packet length average = 3
Total in-flight flits = 0 (0 measured)
====== Overall Traffic Statistics ======
====== Traffic class 0 ======
Packet latency average = 24.8271 (2 samples)
	minimum = 6 (2 samples)
	maximum = 262 (2 samples)
Network latency average = 17.866 (2 samples)
	minimum = 6 (2 samples)
	maximum = 212.5 (2 samples)
Flit latency average = 14.6981 (2 samples)
	minimum = 6 (2 samples)
	maximum = 212.5 (2 samples)
Fragmentation average = 0.00193242 (2 samples)
	minimum = 0 (2 samples)
	maximum = 128.5 (2 samples)
Injected packet rate average = 0.108612 (2 samples)
	minimum = 0.0954033 (2 samples)
	maximum = 0.122224 (2 samples)
Accepted packet rate average = 0.108612 (2 samples)
	minimum = 0.0954033 (2 samples)
	maximum = 0.122224 (2 samples)
Injected flit rate average = 0.325835 (2 samples)
	minimum = 0.286193 (2 samples)
	maximum = 0.366754 (2 samples)
Accepted flit rate average = 0.325835 (2 samples)
	minimum = 0.286224 (2 samples)
	maximum = 0.366587 (2 samples)
Injected packet size average = 2.99999 (2 samples)
Accepted packet size average = 2.99999 (2 samples)
Hops average = 1 (2 samples)
