

        *** GPGPU-Sim Simulator Version 3.2.2  [build 0] ***


GPGPU-Sim PTX: simulation mode 0 (can change with PTX_SIM_MODE_FUNC environment variable:
               1=functional simulation only, 0=detailed performance simulator)
GPGPU-Sim: Configuration options:

-network_mode                           1 # Interconnection network mode
-inter_config_file   config_fermi_islip.icnt # Interconnection network config file
-gpgpu_ptx_use_cuobjdump                    1 # Use cuobjdump to extract ptx and sass from binaries
-gpgpu_experimental_lib_support                    0 # Try to extract code from cuda libraries [Broken because of unknown cudaGetExportTable]
-gpgpu_ptx_convert_to_ptxplus                    0 # Convert SASS (native ISA) to ptxplus and run ptxplus
-gpgpu_ptx_force_max_capability                   20 # Force maximum compute capability
-gpgpu_ptx_inst_debug_to_file                    0 # Dump executed instructions' debug information to file
-gpgpu_ptx_inst_debug_file       inst_debug.txt # Executed instructions' debug output file
-gpgpu_ptx_inst_debug_thread_uid                    1 # Thread UID for executed instructions' debug output
-gpgpu_simd_model                       1 # 1 = post-dominator
-gpgpu_shader_core_pipeline              1536:32 # shader core pipeline config, i.e., {<nthread>:<warpsize>}
-gpgpu_tex_cache:l1  4:128:24,L:R:m:N:L,F:128:4,128:2 # per-shader L1 texture cache  (READ-ONLY) config  {<nsets>:<bsize>:<assoc>,<rep>:<wr>:<alloc>:<wr_alloc>,<mshr>:<N>:<merge>,<mq>:<rf>}
-gpgpu_const_cache:l1 64:64:2,L:R:f:N:L,A:2:32,4 # per-shader L1 constant memory cache  (READ-ONLY) config  {<nsets>:<bsize>:<assoc>,<rep>:<wr>:<alloc>:<wr_alloc>,<mshr>:<N>:<merge>,<mq>} 
-gpgpu_cache:il1     4:128:4,L:R:f:N:L,A:2:32,4 # shader L1 instruction cache config  {<nsets>:<bsize>:<assoc>,<rep>:<wr>:<alloc>:<wr_alloc>,<mshr>:<N>:<merge>,<mq>} 
-gpgpu_cache:dl1     32:128:4,L:L:m:N:H,A:32:8,8:2,0,1:0:1:1:0:1,1:4:8:16:32:64,/sciclone/data10/hwang07/GPU_RESEARCH/swl/swl_outputs/RESULTS/swl4/ # per-shader L1 data cache config  {<nsets>:<bsize>:<assoc>,<rep>:<wr>:<alloc>:<wr_alloc>,<mshr>:<N>:<merge>,<mq> | none}
-gpgpu_cache:dl1PrefL1                 none # per-shader L1 data cache config  {<nsets>:<bsize>:<assoc>,<rep>:<wr>:<alloc>:<wr_alloc>,<mshr>:<N>:<merge>,<mq> | none}
-gpgpu_cache:dl1PreShared                 none # per-shader L1 data cache config  {<nsets>:<bsize>:<assoc>,<rep>:<wr>:<alloc>:<wr_alloc>,<mshr>:<N>:<merge>,<mq> | none}
-gmem_skip_L1D                          0 # global memory access skip L1D cache (implements -Xptxas -dlcm=cg, default=no skip)
-gpgpu_perfect_mem                      0 # enable perfect memory mode (no cache miss)
-n_regfile_gating_group                    4 # group of lanes that should be read/written together)
-gpgpu_clock_gated_reg_file                    0 # enable clock gated reg file for power calculations
-gpgpu_clock_gated_lanes                    0 # enable clock gated lanes for power calculations
-gpgpu_shader_registers                32768 # Number of registers per shader core. Limits number of concurrent CTAs. (default 8192)
-gpgpu_shader_cta                       8 # Maximum number of concurrent CTAs in shader (default 8)
-gpgpu_num_cta_barriers                   16 # Maximum number of named barriers per CTA (default 16)
-gpgpu_n_clusters                      15 # number of processing clusters
-gpgpu_n_cores_per_cluster                    1 # number of simd cores per cluster
-gpgpu_n_cluster_ejection_buffer_size                    8 # number of packets in ejection buffer
-gpgpu_n_ldst_response_buffer_size                    2 # number of response packets in ld/st unit ejection buffer
-gpgpu_shmem_size                   16384 # Size of shared memory per shader core (default 16kB)
-gpgpu_shmem_size                   49152 # Size of shared memory per shader core (default 16kB)
-gpgpu_shmem_size_PrefL1                16384 # Size of shared memory per shader core (default 16kB)
-gpgpu_shmem_size_PrefShared                16384 # Size of shared memory per shader core (default 16kB)
-gpgpu_shmem_num_banks                   32 # Number of banks in the shared memory in each shader core (default 16)
-gpgpu_shmem_limited_broadcast                    0 # Limit shared memory to do one broadcast per cycle (default on)
-gpgpu_shmem_warp_parts                    1 # Number of portions a warp is divided into for shared memory bank conflict check 
-gpgpu_warpdistro_shader                   -1 # Specify which shader core to collect the warp size distribution from
-gpgpu_warp_issue_shader                    0 # Specify which shader core to collect the warp issue distribution from
-gpgpu_local_mem_map                    1 # Mapping from local memory space address to simulated GPU physical address space (default = enabled)
-gpgpu_num_reg_banks                   16 # Number of register banks (default = 8)
-gpgpu_reg_bank_use_warp_id                    0 # Use warp ID in mapping registers to banks (default = off)
-gpgpu_operand_collector_num_units_sp                    6 # number of collector units (default = 4)
-gpgpu_operand_collector_num_units_sfu                    8 # number of collector units (default = 4)
-gpgpu_operand_collector_num_units_mem                    2 # number of collector units (default = 2)
-gpgpu_operand_collector_num_units_gen                    0 # number of collector units (default = 0)
-gpgpu_operand_collector_num_in_ports_sp                    2 # number of collector unit in ports (default = 1)
-gpgpu_operand_collector_num_in_ports_sfu                    1 # number of collector unit in ports (default = 1)
-gpgpu_operand_collector_num_in_ports_mem                    1 # number of collector unit in ports (default = 1)
-gpgpu_operand_collector_num_in_ports_gen                    0 # number of collector unit in ports (default = 0)
-gpgpu_operand_collector_num_out_ports_sp                    2 # number of collector unit in ports (default = 1)
-gpgpu_operand_collector_num_out_ports_sfu                    1 # number of collector unit in ports (default = 1)
-gpgpu_operand_collector_num_out_ports_mem                    1 # number of collector unit in ports (default = 1)
-gpgpu_operand_collector_num_out_ports_gen                    0 # number of collector unit in ports (default = 0)
-gpgpu_coalesce_arch                   13 # Coalescing arch (default = 13, anything else is off for now)
-gpgpu_num_sched_per_core                    2 # Number of warp schedulers per core
-gpgpu_max_insn_issue_per_warp                    1 # Max number of instructions that can be issued per warp in one cycle by scheduler
-gpgpu_simt_core_sim_order                    1 # Select the simulation order of cores in a cluster (0=Fix, 1=Round-Robin)
-gpgpu_pipeline_widths        2,1,1,2,1,1,2 # Pipeline widths ID_OC_SP,ID_OC_SFU,ID_OC_MEM,OC_EX_SP,OC_EX_SFU,OC_EX_MEM,EX_WB
-gpgpu_num_sp_units                     2 # Number of SP units (default=1)
-gpgpu_num_sfu_units                    1 # Number of SF units (default=1)
-gpgpu_num_mem_units                    1 # Number if ldst units (default=1) WARNING: not hooked up to anything
-gpgpu_scheduler        warp_limiting:2:4 # Scheduler configuration: < lrr | gto | two_level_active > If two_level_active:<num_active_warps>:<inner_prioritization>:<outer_prioritization>For complete list of prioritization values see shader.h enum scheduler_prioritization_typeDefault: gto
-gpgpu_dram_scheduler                    1 # 0 = fifo, 1 = FR-FCFS (defaul)
-gpgpu_dram_partition_queues              8:8:8:8 # i2$:$2d:d2$:$2i
-l2_ideal                               0 # Use a ideal L2 cache that always hit
-gpgpu_cache:dl2     64:128:8,L:B:m:W:L,A:32:4,4:0,32 # unified banked L2 data cache config  {<nsets>:<bsize>:<assoc>,<rep>:<wr>:<alloc>:<wr_alloc>,<mshr>:<N>:<merge>,<mq>}
-gpgpu_cache:dl2_texture_only                    0 # L2 cache used for texture only
-gpgpu_n_mem                            6 # number of memory modules (e.g. memory controllers) in gpu
-gpgpu_n_sub_partition_per_mchannel                    2 # number of memory subpartition in each memory module
-gpgpu_n_mem_per_ctrlr                    2 # number of memory chips per memory controller
-gpgpu_memlatency_stat                   14 # track and display latency statistics 0x2 enables MC, 0x4 enables queue logs
-gpgpu_frfcfs_dram_sched_queue_size                   16 # 0 = unlimited (default); # entries per chip
-gpgpu_dram_return_queue_size                  116 # 0 = unlimited (default); # entries per chip
-gpgpu_dram_buswidth                    4 # default = 4 bytes (8 bytes per cycle at DDR)
-gpgpu_dram_burst_length                    8 # Burst length of each DRAM request (default = 4 data bus cycle)
-dram_data_command_freq_ratio                    4 # Frequency ratio between DRAM data bus and command bus (default = 2 times, i.e. DDR)
-gpgpu_dram_timing_opt nbk=16:CCD=2:RRD=6:RCD=12:RAS=28:RP=12:RC=40: CL=12:WL=4:CDLR=5:WR=12:nbkgrp=4:CCDL=3:RTPL=2 # DRAM timing parameters = {nbk:tCCD:tRRD:tRCD:tRAS:tRP:tRC:CL:WL:tCDLR:tWR:nbkgrp:tCCDL:tRTPL}
-rop_latency                          120 # ROP queue latency (default 85)
-dram_latency                         100 # DRAM latency (default 30)
-gpgpu_mem_addr_mapping dramid@8;00000000.00000000.00000000.00000000.0000RRRR.RRRRRRRR.BBBCCCCB.CCSSSSSS # mapping memory address to dram model {dramid@<start bit>;<memory address map>}
-gpgpu_mem_addr_test                    0 # run sweep test to check address mapping for aliased address
-gpgpu_mem_address_mask                    1 # 0 = old addressing mask, 1 = new addressing mask, 2 = new add. mask + flipped bank sel and chip sel bits
-gpuwattch_xml_file  gpuwattch_gtx480.xml # GPUWattch XML file
-power_simulation_enabled                    0 # Turn on power simulator (1=On, 0=Off)
-power_per_cycle_dump                    0 # Dump detailed power output each cycle
-power_trace_enabled                    0 # produce a file for the power trace (1=On, 0=Off)
-power_trace_zlevel                     6 # Compression level of the power trace output log (0=no comp, 9=highest)
-steady_power_levels_enabled                    0 # produce a file for the steady power levels (1=On, 0=Off)
-steady_state_definition                  8:4 # allowed deviation:number of samples
-gpgpu_max_cycle                        0 # terminates gpu simulation early (0 = no limit)
-gpgpu_max_insn                         0 # terminates gpu simulation early (0 = no limit)
-gpgpu_max_cta                          0 # terminates gpu simulation early (0 = no limit)
-gpgpu_runtime_stat                   500 # display runtime statistics such as dram utilization {<freq>:<flag>}
-liveness_message_freq                    1 # Minimum number of seconds between simulation liveness messages (0 = always print)
-gpgpu_flush_l1_cache                    0 # Flush L1 cache at the end of each kernel call
-gpgpu_flush_l2_cache                    0 # Flush L2 cache at the end of each kernel call
-gpgpu_deadlock_detect                    1 # Stop the simulation at deadlock (1=on (default), 0=off)
-gpgpu_ptx_instruction_classification                    0 # if enabled will classify ptx instruction types per kernel (Max 255 kernels now)
-gpgpu_ptx_sim_mode                     0 # Select between Performance (default) or Functional simulation (1)
-gpgpu_clock_domains 700.0:700.0:700.0:924.0 # Clock Domain Frequencies in MhZ {<Core Clock>:<ICNT Clock>:<L2 Clock>:<DRAM Clock>}
-gpgpu_max_concurrent_kernel                    8 # maximum kernels that can run concurrently on GPU
-gpgpu_cflog_interval                    0 # Interval between each snapshot in control flow logger
-visualizer_enabled                     0 # Turn on visualizer output (1=On, 0=Off)
-visualizer_outputfile                 NULL # Specifies the output log file for visualizer
-visualizer_zlevel                      6 # Compression level of the visualizer output log (0=no comp, 9=highest)
-trace_enabled                          0 # Turn on traces
-trace_components                    none # comma seperated list of traces to enable. Complete list found in trace_streams.tup. Default none
-trace_sampling_core                    0 # The core which is printed using CORE_DPRINTF. Default 0
-trace_sampling_memory_partition                   -1 # The memory partition which is printed using MEMPART_DPRINTF. Default -1 (i.e. all)
-enable_ptx_file_line_stats                    1 # Turn on PTX source line statistic profiling. (1 = On)
-ptx_line_stats_filename gpgpu_inst_stats.txt # Output file for PTX source line statistics.
-save_embedded_ptx                      0 # saves ptx files embedded in binary as <n>.ptx
-keep                                   0 # keep intermediate files created by GPGPU-Sim when interfacing with external programs
-gpgpu_ptx_save_converted_ptxplus                    0 # Saved converted ptxplus to a file
-ptx_opcode_latency_int         4,13,4,5,145 # Opcode latencies for integers <ADD,MAX,MUL,MAD,DIV>Default 1,1,19,25,145
-ptx_opcode_latency_fp          4,13,4,5,39 # Opcode latencies for single precision floating points <ADD,MAX,MUL,MAD,DIV>Default 1,1,1,1,30
-ptx_opcode_latency_dp         8,19,8,8,330 # Opcode latencies for double precision floating points <ADD,MAX,MUL,MAD,DIV>Default 8,8,8,8,335
-ptx_opcode_initiation_int            1,2,2,1,8 # Opcode initiation intervals for integers <ADD,MAX,MUL,MAD,DIV>Default 1,1,4,4,32
-ptx_opcode_initiation_fp            1,2,1,1,4 # Opcode initiation intervals for single precision floating points <ADD,MAX,MUL,MAD,DIV>Default 1,1,1,1,5
-ptx_opcode_initiation_dp         8,16,8,8,130 # Opcode initiation intervals for double precision floating points <ADD,MAX,MUL,MAD,DIV>Default 8,8,8,8,130
DRAM Timing Options:
nbk                                    16 # number of banks
CCD                                     2 # column to column delay
RRD                                     6 # minimal delay between activation of rows in different banks
RCD                                    12 # row to column delay
RAS                                    28 # time needed to activate row
RP                                     12 # time needed to precharge (deactivate) row
RC                                     40 # row cycle time
CDLR                                    5 # switching from write to read (changes tWTR)
WR                                     12 # last data-in to row precharge
CL                                     12 # CAS latency
WL                                      4 # Write latency
nbkgrp                                  4 # number of bank groups
CCDL                                    3 # column to column delay between accesses to different bank groups
RTPL                                    2 # read to precharge delay between accesses to different bank groups
Total number of memory sub partition = 12
addr_dec_mask[CHIP]  = 0000000000000000 	high:64 low:0
addr_dec_mask[BK]    = 000000000000e100 	high:16 low:8
addr_dec_mask[ROW]   = 000000000fff0000 	high:28 low:16
addr_dec_mask[COL]   = 0000000000001eff 	high:13 low:0
addr_dec_mask[BURST] = 000000000000003f 	high:6 low:0
sub_partition_id_mask = 0000000000000100
GPGPU-Sim uArch: clock freqs: 700000000.000000:700000000.000000:700000000.000000:924000000.000000
GPGPU-Sim uArch: clock periods: 0.00000000142857142857:0.00000000142857142857:0.00000000142857142857:0.00000000108225108225
*** Initializing Memory Statistics ***
GPGPU-Sim uArch: interconnect node map (shaderID+MemID to icntID)
GPGPU-Sim uArch: Memory nodes ID start from index: 15
GPGPU-Sim uArch:    0   1   2   3   4
GPGPU-Sim uArch:    5   6   7   8   9
GPGPU-Sim uArch:   10  11  12  13  14
GPGPU-Sim uArch:   15  16  17  18  19
GPGPU-Sim uArch:   20  21  22  23  24
GPGPU-Sim uArch:   25  26
GPGPU-Sim uArch: interconnect node reverse map (icntID to shaderID+MemID)
GPGPU-Sim uArch: Memory nodes start from ID: 15
GPGPU-Sim uArch:    0   1   2   3   4
GPGPU-Sim uArch:    5   6   7   8   9
GPGPU-Sim uArch:   10  11  12  13  14
GPGPU-Sim uArch:   15  16  17  18  19
GPGPU-Sim uArch:   20  21  22  23  24
GPGPU-Sim uArch:   25  26
916227844eacf47b27f90dc95594571e  /sciclone/data10/hwang07/adwait/applications/benchmarks/CUDA/kmeans/gpgpu_ptx_sim__kmeans
GPGPU-Sim uArch: performance model initialization complete.
GPGPU-Sim PTX: __cudaRegisterFatBinary, fat_cubin_handle = 1, filename=kmeans_cuda.cu
self exe links to: /sciclone/data10/hwang07/adwait/applications/benchmarks/CUDA/kmeans/gpgpu_ptx_sim__kmeans
Running md5sum using "md5sum /sciclone/data10/hwang07/adwait/applications/benchmarks/CUDA/kmeans/gpgpu_ptx_sim__kmeans "
Parsing file _cuobjdump_complete_output_LesqY7
######### cuobjdump parser ########
## Adding new section ELF
Adding arch: sm_20
Adding identifier: kmeans_cuda.cu
## Adding new section PTX
Adding ptx filename: _cuobjdump_1.ptx
Adding arch: sm_20
Adding identifier: kmeans_cuda.cu
Done parsing!!!
GPGPU-Sim PTX: __cudaRegisterFunction _Z11kmeansPointPfiiiPiS_S_S0_ : hostFun 0x0x402e47, fat_cubin_handle = 1
GPGPU-Sim PTX: instruction assembly for function '_Z14invert_mappingPfS_ii'...   done.
GPGPU-Sim PTX: finding reconvergence points for '_Z14invert_mappingPfS_ii'...
GPGPU-Sim PTX: Finding dominators for '_Z14invert_mappingPfS_ii'...
GPGPU-Sim PTX: Finding immediate dominators for '_Z14invert_mappingPfS_ii'...
GPGPU-Sim PTX: Finding postdominators for '_Z14invert_mappingPfS_ii'...
GPGPU-Sim PTX: Finding immediate postdominators for '_Z14invert_mappingPfS_ii'...
GPGPU-Sim PTX: pre-decoding instructions for '_Z14invert_mappingPfS_ii'...
GPGPU-Sim PTX: reconvergence points for _Z14invert_mappingPfS_ii...
GPGPU-Sim PTX:  1 (potential) branch divergence @  PC=0x038 (_1.ptx:70) @%p1 bra $Lt_0_2050;
GPGPU-Sim PTX:    immediate post dominator      @  PC=0x110 (_1.ptx:103) exit;
GPGPU-Sim PTX:  2 (potential) branch divergence @  PC=0x058 (_1.ptx:74) @%p2 bra $Lt_0_2562;
GPGPU-Sim PTX:    immediate post dominator      @  PC=0x110 (_1.ptx:103) exit;
GPGPU-Sim PTX:  3 (potential) branch divergence @  PC=0x108 (_1.ptx:99) @%p3 bra $Lt_0_3074;
GPGPU-Sim PTX:    immediate post dominator      @  PC=0x110 (_1.ptx:103) exit;
GPGPU-Sim PTX: ... end of reconvergence points for _Z14invert_mappingPfS_ii
GPGPU-Sim PTX: ... done pre-decoding instructions for '_Z14invert_mappingPfS_ii'.
GPGPU-Sim PTX: allocating global region for "t_features" from 0x100 to 0x104 (global memory space)
GPGPU-Sim PTX: allocating constant region for "c_clusters" from 0x180 to 0x1280 (global memory space) 1
GPGPU-Sim PTX: instruction assembly for function '_Z11kmeansPointPfiiiPiS_S_S0_'...   done.
GPGPU-Sim PTX: finding reconvergence points for '_Z11kmeansPointPfiiiPiS_S_S0_'...
GPGPU-Sim PTX: Finding dominators for '_Z11kmeansPointPfiiiPiS_S_S0_'...
GPGPU-Sim PTX: Finding immediate dominators for '_Z11kmeansPointPfiiiPiS_S_S0_'...
GPGPU-Sim PTX: Finding postdominators for '_Z11kmeansPointPfiiiPiS_S_S0_'...
GPGPU-Sim PTX: Finding immediate postdominators for '_Z11kmeansPointPfiiiPiS_S_S0_'...
GPGPU-Sim PTX: pre-decoding instructions for '_Z11kmeansPointPfiiiPiS_S_S0_'...
GPGPU-Sim PTX: reconvergence points for _Z11kmeansPointPfiiiPiS_S_S0_...
GPGPU-Sim PTX:  1 (potential) branch divergence @  PC=0x180 (_1.ptx:138) @!%p1 bra $Lt_1_4866;
GPGPU-Sim PTX:    immediate post dominator      @  PC=0x338 (_1.ptx:207) @!%p1 bra $Lt_1_7682;
GPGPU-Sim PTX:  2 (potential) branch divergence @  PC=0x1a0 (_1.ptx:142) @%p2 bra $Lt_1_8194;
GPGPU-Sim PTX:    immediate post dominator      @  PC=0x338 (_1.ptx:207) @!%p1 bra $Lt_1_7682;
GPGPU-Sim PTX:  3 (potential) branch divergence @  PC=0x1f0 (_1.ptx:154) @!%p3 bra $Lt_1_8450;
GPGPU-Sim PTX:    immediate post dominator      @  PC=0x2e0 (_1.ptx:190) setp.lt.f32 %p5, %f2, %f1;
GPGPU-Sim PTX:  4 (potential) branch divergence @  PC=0x2c8 (_1.ptx:185) @%p4 bra $Lt_1_6402;
GPGPU-Sim PTX:    immediate post dominator      @  PC=0x2d0 (_1.ptx:186) bra.uni $Lt_1_5890;
GPGPU-Sim PTX:  5 (potential) branch divergence @  PC=0x2d0 (_1.ptx:186) bra.uni $Lt_1_5890;
GPGPU-Sim PTX:    immediate post dominator      @  PC=0x2e0 (_1.ptx:190) setp.lt.f32 %p5, %f2, %f1;
GPGPU-Sim PTX:  6 (potential) branch divergence @  PC=0x2e8 (_1.ptx:191) @!%p5 bra $Lt_1_6914;
GPGPU-Sim PTX:    immediate post dominator      @  PC=0x300 (_1.ptx:197) add.s32 %r18, %r18, 1;
GPGPU-Sim PTX:  7 (potential) branch divergence @  PC=0x310 (_1.ptx:199) @%p6 bra $Lt_1_5634;
GPGPU-Sim PTX:    immediate post dominator      @  PC=0x318 (_1.ptx:200) bra.uni $Lt_1_4610;
GPGPU-Sim PTX:  8 (potential) branch divergence @  PC=0x318 (_1.ptx:200) bra.uni $Lt_1_4610;
GPGPU-Sim PTX:    immediate post dominator      @  PC=0x338 (_1.ptx:207) @!%p1 bra $Lt_1_7682;
GPGPU-Sim PTX:  9 (potential) branch divergence @  PC=0x328 (_1.ptx:203) bra.uni $Lt_1_4610;
GPGPU-Sim PTX:    immediate post dominator      @  PC=0x338 (_1.ptx:207) @!%p1 bra $Lt_1_7682;
GPGPU-Sim PTX: 10 (potential) branch divergence @  PC=0x338 (_1.ptx:207) @!%p1 bra $Lt_1_7682;
GPGPU-Sim PTX:    immediate post dominator      @  PC=0x368 (_1.ptx:216) exit;
GPGPU-Sim PTX: ... end of reconvergence points for _Z11kmeansPointPfiiiPiS_S_S0_
GPGPU-Sim PTX: ... done pre-decoding instructions for '_Z11kmeansPointPfiiiPiS_S_S0_'.
GPGPU-Sim PTX: allocating global region for "t_features_flipped" from 0x1280 to 0x1284 (global memory space)
GPGPU-Sim PTX: allocating global region for "t_clusters" from 0x1284 to 0x1288 (global memory space)
GPGPU-Sim PTX: finished parsing EMBEDDED .ptx file _1.ptx
Adding _cuobjdump_1.ptx with cubin handle 1
GPGPU-Sim PTX: extracting embedded .ptx to temporary file "_ptx_E2VCjF"
Running: cat _ptx_E2VCjF | sed 's/.version 1.5/.version 1.4/' | sed 's/, texmode_independent//' | sed 's/\(\.extern \.const\[1\] .b8 \w\+\)\[\]/\1\[1\]/' | sed 's/const\[.\]/const\[0\]/g' > _ptx2_Kt6Eef
GPGPU-Sim PTX: generating ptxinfo using "$CUDA_INSTALL_PATH/bin/ptxas --gpu-name=sm_20 -v _ptx2_Kt6Eef --output-file  /dev/null 2> _ptx_E2VCjFinfo"
GPGPU-Sim PTX: Kernel '_Z11kmeansPointPfiiiPiS_S_S0_' : regs=12, lmem=0, smem=0, cmem=4440
GPGPU-Sim PTX: Kernel '_Z14invert_mappingPfS_ii' : regs=10, lmem=0, smem=0, cmem=4408
GPGPU-Sim PTX: removing ptxinfo using "rm -f _ptx_E2VCjF _ptx2_Kt6Eef _ptx_E2VCjFinfo"
GPGPU-Sim PTX: loading globals with explicit initializers... 
GPGPU-Sim PTX: finished loading globals (0 bytes total).
GPGPU-Sim PTX: loading constants with explicit initializers...  done.
GPGPU-Sim PTX: __cudaRegisterFunction _Z14invert_mappingPfS_ii : hostFun 0x0x402cb7, fat_cubin_handle = 1
GPGPU-Sim PTX: in __cudaRegisterTexture:
GPGPU-Sim PTX:   int dim = 1
GPGPU-Sim PTX:   int norm = 0
GPGPU-Sim PTX:   int ext = 0
GPGPU-Sim PTX:   Execution warning: Not finished implementing "void __cudaRegisterTexture(void**, const textureReference*, const void**, const char*, int, int, int)"
GPGPU-Sim PTX: in __cudaRegisterTexture:
GPGPU-Sim PTX:   int dim = 1
GPGPU-Sim PTX:   int norm = 0
GPGPU-Sim PTX:   int ext = 0
GPGPU-Sim PTX:   Execution warning: Not finished implementing "void __cudaRegisterTexture(void**, const textureReference*, const void**, const char*, int, int, int)"
GPGPU-Sim PTX: in __cudaRegisterTexture:
GPGPU-Sim PTX:   int dim = 1
GPGPU-Sim PTX:   int norm = 0
GPGPU-Sim PTX:   int ext = 0
GPGPU-Sim PTX:   Execution warning: Not finished implementing "void __cudaRegisterTexture(void**, const textureReference*, const void**, const char*, int, int, int)"
GPGPU-Sim PTX: __cudaRegisterVar: hostVar = 0x6085e0; deviceAddress = c_clusters; deviceName = c_clusters
GPGPU-Sim PTX: __cudaRegisterVar: Registering const memory space of 4352 bytes
GPGPU-Sim PTX registering constant c_clusters (4352 bytes) to name mapping

I/O completed

Number of objects: 204800
Number of features: 34

GPGPU-Sim PTX: cudaLaunch for 0x0x402cb7 (mode=performance simulation) on stream 0
GPGPU-Sim PTX: pushing kernel '_Z14invert_mappingPfS_ii' to stream 0, gridDim= (841,1,1) blockDim = (256,1,1) 
kernel '_Z14invert_mappingPfS_ii' transfer to GPU hardware scheduler
GPGPU-Sim uArch: Shader 1 bind to kernel 1 '_Z14invert_mappingPfS_ii'
GPGPU-Sim uArch: CTA/core = 6, limited by: threads
GPGPU-Sim uArch: core:  1, cta: 0 initialized @(1,0)
GPGPU-Sim uArch: Shader 2 bind to kernel 1 '_Z14invert_mappingPfS_ii'
GPGPU-Sim uArch: core:  2, cta: 0 initialized @(1,0)
GPGPU-Sim uArch: Shader 3 bind to kernel 1 '_Z14invert_mappingPfS_ii'
GPGPU-Sim uArch: core:  3, cta: 0 initialized @(1,0)
GPGPU-Sim uArch: Shader 4 bind to kernel 1 '_Z14invert_mappingPfS_ii'
GPGPU-Sim uArch: core:  4, cta: 0 initialized @(1,0)
GPGPU-Sim uArch: Shader 5 bind to kernel 1 '_Z14invert_mappingPfS_ii'
GPGPU-Sim uArch: core:  5, cta: 0 initialized @(1,0)
GPGPU-Sim uArch: Shader 6 bind to kernel 1 '_Z14invert_mappingPfS_ii'
GPGPU-Sim uArch: core:  6, cta: 0 initialized @(1,0)
GPGPU-Sim uArch: Shader 7 bind to kernel 1 '_Z14invert_mappingPfS_ii'
GPGPU-Sim uArch: core:  7, cta: 0 initialized @(1,0)
GPGPU-Sim uArch: Shader 8 bind to kernel 1 '_Z14invert_mappingPfS_ii'
GPGPU-Sim uArch: core:  8, cta: 0 initialized @(1,0)
GPGPU-Sim uArch: Shader 9 bind to kernel 1 '_Z14invert_mappingPfS_ii'
GPGPU-Sim uArch: core:  9, cta: 0 initialized @(1,0)
GPGPU-Sim uArch: Shader 10 bind to kernel 1 '_Z14invert_mappingPfS_ii'
GPGPU-Sim uArch: core: 10, cta: 0 initialized @(1,0)
GPGPU-Sim uArch: Shader 11 bind to kernel 1 '_Z14invert_mappingPfS_ii'
GPGPU-Sim uArch: core: 11, cta: 0 initialized @(1,0)
GPGPU-Sim uArch: Shader 12 bind to kernel 1 '_Z14invert_mappingPfS_ii'
GPGPU-Sim uArch: core: 12, cta: 0 initialized @(1,0)
GPGPU-Sim uArch: Shader 13 bind to kernel 1 '_Z14invert_mappingPfS_ii'
GPGPU-Sim uArch: core: 13, cta: 0 initialized @(1,0)
GPGPU-Sim uArch: Shader 14 bind to kernel 1 '_Z14invert_mappingPfS_ii'
GPGPU-Sim uArch: core: 14, cta: 0 initialized @(1,0)
GPGPU-Sim uArch: Shader 0 bind to kernel 1 '_Z14invert_mappingPfS_ii'
GPGPU-Sim uArch: core:  0, cta: 0 initialized @(1,0)
GPGPU-Sim uArch: core:  1, cta: 1 initialized @(2,0)
GPGPU-Sim uArch: core:  2, cta: 1 initialized @(2,0)
GPGPU-Sim uArch: core:  3, cta: 1 initialized @(2,0)
GPGPU-Sim uArch: core:  4, cta: 1 initialized @(2,0)
GPGPU-Sim uArch: core:  5, cta: 1 initialized @(2,0)
GPGPU-Sim uArch: core:  6, cta: 1 initialized @(2,0)
GPGPU-Sim uArch: core:  7, cta: 1 initialized @(2,0)
GPGPU-Sim uArch: core:  8, cta: 1 initialized @(2,0)
GPGPU-Sim uArch: core:  9, cta: 1 initialized @(2,0)
GPGPU-Sim uArch: core: 10, cta: 1 initialized @(2,0)
GPGPU-Sim uArch: core: 11, cta: 1 initialized @(2,0)
GPGPU-Sim uArch: core: 12, cta: 1 initialized @(2,0)
GPGPU-Sim uArch: core: 13, cta: 1 initialized @(2,0)
GPGPU-Sim uArch: core: 14, cta: 1 initialized @(2,0)
GPGPU-Sim uArch: core:  0, cta: 1 initialized @(2,0)
GPGPU-Sim uArch: core:  1, cta: 2 initialized @(3,0)
GPGPU-Sim uArch: core:  2, cta: 2 initialized @(3,0)
GPGPU-Sim uArch: core:  3, cta: 2 initialized @(3,0)
GPGPU-Sim uArch: core:  4, cta: 2 initialized @(3,0)
GPGPU-Sim uArch: core:  5, cta: 2 initialized @(3,0)
GPGPU-Sim uArch: core:  6, cta: 2 initialized @(3,0)
GPGPU-Sim uArch: core:  7, cta: 2 initialized @(3,0)
GPGPU-Sim uArch: core:  8, cta: 2 initialized @(3,0)
GPGPU-Sim uArch: core:  9, cta: 2 initialized @(3,0)
GPGPU-Sim uArch: core: 10, cta: 2 initialized @(3,0)
GPGPU-Sim uArch: core: 11, cta: 2 initialized @(3,0)
GPGPU-Sim uArch: core: 12, cta: 2 initialized @(3,0)
GPGPU-Sim uArch: core: 13, cta: 2 initialized @(3,0)
GPGPU-Sim uArch: core: 14, cta: 2 initialized @(3,0)
GPGPU-Sim uArch: core:  0, cta: 2 initialized @(3,0)
GPGPU-Sim uArch: core:  1, cta: 3 initialized @(4,0)
GPGPU-Sim uArch: core:  2, cta: 3 initialized @(4,0)
GPGPU-Sim uArch: core:  3, cta: 3 initialized @(4,0)
GPGPU-Sim uArch: core:  4, cta: 3 initialized @(4,0)
GPGPU-Sim uArch: core:  5, cta: 3 initialized @(4,0)
GPGPU-Sim uArch: core:  6, cta: 3 initialized @(4,0)
GPGPU-Sim uArch: core:  7, cta: 3 initialized @(4,0)
GPGPU-Sim uArch: core:  8, cta: 3 initialized @(4,0)
GPGPU-Sim uArch: core:  9, cta: 3 initialized @(4,0)
GPGPU-Sim uArch: core: 10, cta: 3 initialized @(4,0)
GPGPU-Sim uArch: core: 11, cta: 3 initialized @(4,0)
GPGPU-Sim uArch: core: 12, cta: 3 initialized @(4,0)
GPGPU-Sim uArch: core: 13, cta: 3 initialized @(4,0)
GPGPU-Sim uArch: core: 14, cta: 3 initialized @(4,0)
GPGPU-Sim uArch: core:  0, cta: 3 initialized @(4,0)
GPGPU-Sim uArch: core:  1, cta: 4 initialized @(5,0)
GPGPU-Sim uArch: core:  2, cta: 4 initialized @(5,0)
GPGPU-Sim uArch: core:  3, cta: 4 initialized @(5,0)
GPGPU-Sim uArch: core:  4, cta: 4 initialized @(5,0)
GPGPU-Sim uArch: core:  5, cta: 4 initialized @(5,0)
GPGPU-Sim uArch: core:  6, cta: 4 initialized @(5,0)
GPGPU-Sim uArch: core:  7, cta: 4 initialized @(5,0)
GPGPU-Sim uArch: core:  8, cta: 4 initialized @(5,0)
GPGPU-Sim uArch: core:  9, cta: 4 initialized @(5,0)
GPGPU-Sim uArch: core: 10, cta: 4 initialized @(5,0)
GPGPU-Sim uArch: core: 11, cta: 4 initialized @(5,0)
GPGPU-Sim uArch: core: 12, cta: 4 initialized @(5,0)
GPGPU-Sim uArch: core: 13, cta: 4 initialized @(5,0)
GPGPU-Sim uArch: core: 14, cta: 4 initialized @(5,0)
GPGPU-Sim uArch: core:  0, cta: 4 initialized @(5,0)
GPGPU-Sim uArch: core:  1, cta: 5 initialized @(6,0)
GPGPU-Sim uArch: core:  2, cta: 5 initialized @(6,0)
GPGPU-Sim uArch: core:  3, cta: 5 initialized @(6,0)
GPGPU-Sim uArch: core:  4, cta: 5 initialized @(6,0)
GPGPU-Sim uArch: core:  5, cta: 5 initialized @(6,0)
GPGPU-Sim uArch: core:  6, cta: 5 initialized @(6,0)
GPGPU-Sim uArch: core:  7, cta: 5 initialized @(6,0)
GPGPU-Sim uArch: core:  8, cta: 5 initialized @(6,0)
GPGPU-Sim uArch: core:  9, cta: 5 initialized @(6,0)
GPGPU-Sim uArch: core: 10, cta: 5 initialized @(6,0)
GPGPU-Sim uArch: core: 11, cta: 5 initialized @(6,0)
GPGPU-Sim uArch: core: 12, cta: 5 initialized @(6,0)
GPGPU-Sim uArch: core: 13, cta: 5 initialized @(6,0)
GPGPU-Sim uArch: core: 14, cta: 5 initialized @(6,0)
GPGPU-Sim uArch: core:  0, cta: 5 initialized @(6,0)
GPGPU-Sim uArch: cycles simulated: 500  inst.: 19200 (ipc=38.4) sim_rate=3200 (inst/sec) elapsed = 0:0:00:06 / Tue Mar 22 12:46:18 2016
GPGPU-Sim uArch: cycles simulated: 1000  inst.: 73056 (ipc=73.1) sim_rate=5619 (inst/sec) elapsed = 0:0:00:13 / Tue Mar 22 12:46:25 2016
GPGPU-Sim PTX: 100000 instructions simulated : ctaid=(8,0,0) tid=(63,0,0)
GPGPU-Sim uArch: cycles simulated: 1500  inst.: 96000 (ipc=64.0) sim_rate=6857 (inst/sec) elapsed = 0:0:00:14 / Tue Mar 22 12:46:26 2016
GPGPU-Sim uArch: cycles simulated: 2500  inst.: 98240 (ipc=39.3) sim_rate=6549 (inst/sec) elapsed = 0:0:00:15 / Tue Mar 22 12:46:27 2016
GPGPU-Sim uArch: cycles simulated: 4000  inst.: 105824 (ipc=26.5) sim_rate=6614 (inst/sec) elapsed = 0:0:00:16 / Tue Mar 22 12:46:28 2016
GPGPU-Sim uArch: cycles simulated: 5500  inst.: 119968 (ipc=21.8) sim_rate=7056 (inst/sec) elapsed = 0:0:00:17 / Tue Mar 22 12:46:29 2016
GPGPU-Sim uArch: cycles simulated: 7000  inst.: 134656 (ipc=19.2) sim_rate=7480 (inst/sec) elapsed = 0:0:00:18 / Tue Mar 22 12:46:30 2016
GPGPU-Sim uArch: cycles simulated: 8000  inst.: 143680 (ipc=18.0) sim_rate=7562 (inst/sec) elapsed = 0:0:00:19 / Tue Mar 22 12:46:31 2016
GPGPU-Sim uArch: cycles simulated: 9500  inst.: 156000 (ipc=16.4) sim_rate=7800 (inst/sec) elapsed = 0:0:00:20 / Tue Mar 22 12:46:32 2016
GPGPU-Sim uArch: cycles simulated: 11000  inst.: 173184 (ipc=15.7) sim_rate=8246 (inst/sec) elapsed = 0:0:00:21 / Tue Mar 22 12:46:33 2016
GPGPU-Sim uArch: cycles simulated: 12500  inst.: 185248 (ipc=14.8) sim_rate=8420 (inst/sec) elapsed = 0:0:00:22 / Tue Mar 22 12:46:34 2016
GPGPU-Sim PTX: 200000 instructions simulated : ctaid=(10,0,0) tid=(63,0,0)
GPGPU-Sim uArch: cycles simulated: 13500  inst.: 195520 (ipc=14.5) sim_rate=8500 (inst/sec) elapsed = 0:0:00:23 / Tue Mar 22 12:46:35 2016
GPGPU-Sim uArch: cycles simulated: 15000  inst.: 209120 (ipc=13.9) sim_rate=8713 (inst/sec) elapsed = 0:0:00:24 / Tue Mar 22 12:46:36 2016
GPGPU-Sim uArch: cycles simulated: 16500  inst.: 221216 (ipc=13.4) sim_rate=8848 (inst/sec) elapsed = 0:0:00:25 / Tue Mar 22 12:46:37 2016
GPGPU-Sim uArch: cycles simulated: 18000  inst.: 237280 (ipc=13.2) sim_rate=9126 (inst/sec) elapsed = 0:0:00:26 / Tue Mar 22 12:46:38 2016
GPGPU-Sim uArch: cycles simulated: 19000  inst.: 246784 (ipc=13.0) sim_rate=9140 (inst/sec) elapsed = 0:0:00:27 / Tue Mar 22 12:46:39 2016
GPGPU-Sim uArch: cycles simulated: 20500  inst.: 260160 (ipc=12.7) sim_rate=9291 (inst/sec) elapsed = 0:0:00:28 / Tue Mar 22 12:46:40 2016
GPGPU-Sim uArch: cycles simulated: 21500  inst.: 270592 (ipc=12.6) sim_rate=9330 (inst/sec) elapsed = 0:0:00:29 / Tue Mar 22 12:46:41 2016
GPGPU-Sim uArch: cycles simulated: 23000  inst.: 284800 (ipc=12.4) sim_rate=9493 (inst/sec) elapsed = 0:0:00:30 / Tue Mar 22 12:46:42 2016
GPGPU-Sim PTX: 300000 instructions simulated : ctaid=(9,0,0) tid=(63,0,0)
GPGPU-Sim uArch: cycles simulated: 24500  inst.: 298112 (ipc=12.2) sim_rate=9616 (inst/sec) elapsed = 0:0:00:31 / Tue Mar 22 12:46:43 2016
GPGPU-Sim uArch: cycles simulated: 25500  inst.: 308800 (ipc=12.1) sim_rate=9650 (inst/sec) elapsed = 0:0:00:32 / Tue Mar 22 12:46:44 2016
GPGPU-Sim uArch: cycles simulated: 27000  inst.: 322048 (ipc=11.9) sim_rate=9759 (inst/sec) elapsed = 0:0:00:33 / Tue Mar 22 12:46:45 2016
GPGPU-Sim uArch: cycles simulated: 28500  inst.: 335712 (ipc=11.8) sim_rate=9873 (inst/sec) elapsed = 0:0:00:34 / Tue Mar 22 12:46:46 2016
GPGPU-Sim uArch: cycles simulated: 30000  inst.: 350976 (ipc=11.7) sim_rate=10027 (inst/sec) elapsed = 0:0:00:35 / Tue Mar 22 12:46:47 2016
GPGPU-Sim uArch: cycles simulated: 31000  inst.: 358912 (ipc=11.6) sim_rate=9969 (inst/sec) elapsed = 0:0:00:36 / Tue Mar 22 12:46:48 2016
GPGPU-Sim uArch: cycles simulated: 32500  inst.: 372384 (ipc=11.5) sim_rate=10064 (inst/sec) elapsed = 0:0:00:37 / Tue Mar 22 12:46:49 2016
GPGPU-Sim uArch: cycles simulated: 34000  inst.: 386208 (ipc=11.4) sim_rate=10163 (inst/sec) elapsed = 0:0:00:38 / Tue Mar 22 12:46:50 2016
GPGPU-Sim PTX: 400000 instructions simulated : ctaid=(6,0,0) tid=(31,0,0)
GPGPU-Sim uArch: cycles simulated: 35500  inst.: 399808 (ipc=11.3) sim_rate=10251 (inst/sec) elapsed = 0:0:00:39 / Tue Mar 22 12:46:51 2016
GPGPU-Sim uArch: cycles simulated: 37000  inst.: 415008 (ipc=11.2) sim_rate=10375 (inst/sec) elapsed = 0:0:00:40 / Tue Mar 22 12:46:52 2016
GPGPU-Sim uArch: cycles simulated: 38500  inst.: 427456 (ipc=11.1) sim_rate=10425 (inst/sec) elapsed = 0:0:00:41 / Tue Mar 22 12:46:53 2016
GPGPU-Sim uArch: cycles simulated: 40000  inst.: 441824 (ipc=11.0) sim_rate=10519 (inst/sec) elapsed = 0:0:00:42 / Tue Mar 22 12:46:54 2016
GPGPU-Sim uArch: cycles simulated: 41500  inst.: 456960 (ipc=11.0) sim_rate=10626 (inst/sec) elapsed = 0:0:00:43 / Tue Mar 22 12:46:55 2016
GPGPU-Sim uArch: cycles simulated: 43000  inst.: 470432 (ipc=10.9) sim_rate=10691 (inst/sec) elapsed = 0:0:00:44 / Tue Mar 22 12:46:56 2016
GPGPU-Sim uArch: cycles simulated: 44000  inst.: 480000 (ipc=10.9) sim_rate=10666 (inst/sec) elapsed = 0:0:00:45 / Tue Mar 22 12:46:57 2016
GPGPU-Sim PTX: 500000 instructions simulated : ctaid=(13,0,0) tid=(63,0,0)
GPGPU-Sim uArch: cycles simulated: 45500  inst.: 493408 (ipc=10.8) sim_rate=10726 (inst/sec) elapsed = 0:0:00:46 / Tue Mar 22 12:46:58 2016
GPGPU-Sim uArch: cycles simulated: 47000  inst.: 506304 (ipc=10.8) sim_rate=10772 (inst/sec) elapsed = 0:0:00:47 / Tue Mar 22 12:46:59 2016
GPGPU-Sim uArch: cycles simulated: 48500  inst.: 520704 (ipc=10.7) sim_rate=10848 (inst/sec) elapsed = 0:0:00:48 / Tue Mar 22 12:47:00 2016
GPGPU-Sim uArch: cycles simulated: 49500  inst.: 528960 (ipc=10.7) sim_rate=10795 (inst/sec) elapsed = 0:0:00:49 / Tue Mar 22 12:47:01 2016
GPGPU-Sim uArch: cycles simulated: 51000  inst.: 542112 (ipc=10.6) sim_rate=10842 (inst/sec) elapsed = 0:0:00:50 / Tue Mar 22 12:47:02 2016
GPGPU-Sim uArch: cycles simulated: 52500  inst.: 556128 (ipc=10.6) sim_rate=10904 (inst/sec) elapsed = 0:0:00:51 / Tue Mar 22 12:47:03 2016
GPGPU-Sim uArch: cycles simulated: 53500  inst.: 565280 (ipc=10.6) sim_rate=10870 (inst/sec) elapsed = 0:0:00:52 / Tue Mar 22 12:47:04 2016
GPGPU-Sim uArch: cycles simulated: 55000  inst.: 579296 (ipc=10.5) sim_rate=10930 (inst/sec) elapsed = 0:0:00:53 / Tue Mar 22 12:47:05 2016
GPGPU-Sim PTX: 600000 instructions simulated : ctaid=(0,0,0) tid=(31,0,0)
GPGPU-Sim uArch: cycles simulated: 56500  inst.: 594464 (ipc=10.5) sim_rate=11008 (inst/sec) elapsed = 0:0:00:54 / Tue Mar 22 12:47:06 2016
GPGPU-Sim uArch: cycles simulated: 57500  inst.: 603488 (ipc=10.5) sim_rate=10972 (inst/sec) elapsed = 0:0:00:55 / Tue Mar 22 12:47:07 2016
GPGPU-Sim uArch: cycles simulated: 59000  inst.: 617568 (ipc=10.5) sim_rate=11028 (inst/sec) elapsed = 0:0:00:56 / Tue Mar 22 12:47:08 2016
GPGPU-Sim uArch: cycles simulated: 60500  inst.: 630848 (ipc=10.4) sim_rate=11067 (inst/sec) elapsed = 0:0:00:57 / Tue Mar 22 12:47:09 2016
GPGPU-Sim uArch: cycles simulated: 62000  inst.: 645664 (ipc=10.4) sim_rate=11132 (inst/sec) elapsed = 0:0:00:58 / Tue Mar 22 12:47:10 2016
GPGPU-Sim uArch: cycles simulated: 63500  inst.: 657504 (ipc=10.4) sim_rate=11144 (inst/sec) elapsed = 0:0:00:59 / Tue Mar 22 12:47:11 2016
GPGPU-Sim uArch: cycles simulated: 64500  inst.: 667328 (ipc=10.3) sim_rate=11122 (inst/sec) elapsed = 0:0:01:00 / Tue Mar 22 12:47:12 2016
GPGPU-Sim uArch: cycles simulated: 66000  inst.: 681088 (ipc=10.3) sim_rate=11165 (inst/sec) elapsed = 0:0:01:01 / Tue Mar 22 12:47:13 2016
GPGPU-Sim PTX: 700000 instructions simulated : ctaid=(2,0,0) tid=(95,0,0)
GPGPU-Sim uArch: cycles simulated: 67500  inst.: 695680 (ipc=10.3) sim_rate=11220 (inst/sec) elapsed = 0:0:01:02 / Tue Mar 22 12:47:14 2016
GPGPU-Sim uArch: cycles simulated: 69000  inst.: 709088 (ipc=10.3) sim_rate=11255 (inst/sec) elapsed = 0:0:01:03 / Tue Mar 22 12:47:15 2016
GPGPU-Sim uArch: cycles simulated: 70000  inst.: 718592 (ipc=10.3) sim_rate=11228 (inst/sec) elapsed = 0:0:01:04 / Tue Mar 22 12:47:16 2016
GPGPU-Sim uArch: cycles simulated: 71500  inst.: 732480 (ipc=10.2) sim_rate=11268 (inst/sec) elapsed = 0:0:01:05 / Tue Mar 22 12:47:17 2016
GPGPU-Sim uArch: cycles simulated: 73000  inst.: 746720 (ipc=10.2) sim_rate=11313 (inst/sec) elapsed = 0:0:01:06 / Tue Mar 22 12:47:18 2016
GPGPU-Sim uArch: cycles simulated: 74500  inst.: 763936 (ipc=10.3) sim_rate=11402 (inst/sec) elapsed = 0:0:01:07 / Tue Mar 22 12:47:19 2016
GPGPU-Sim uArch: cycles simulated: 75500  inst.: 783744 (ipc=10.4) sim_rate=11525 (inst/sec) elapsed = 0:0:01:08 / Tue Mar 22 12:47:20 2016
GPGPU-Sim PTX: 800000 instructions simulated : ctaid=(0,0,0) tid=(191,0,0)
GPGPU-Sim uArch: cycles simulated: 77000  inst.: 820320 (ipc=10.7) sim_rate=11888 (inst/sec) elapsed = 0:0:01:09 / Tue Mar 22 12:47:21 2016
GPGPU-Sim uArch: cycles simulated: 78000  inst.: 841632 (ipc=10.8) sim_rate=12023 (inst/sec) elapsed = 0:0:01:10 / Tue Mar 22 12:47:22 2016
GPGPU-Sim uArch: cycles simulated: 79500  inst.: 858784 (ipc=10.8) sim_rate=12095 (inst/sec) elapsed = 0:0:01:11 / Tue Mar 22 12:47:23 2016
GPGPU-Sim uArch: cycles simulated: 80500  inst.: 867712 (ipc=10.8) sim_rate=12051 (inst/sec) elapsed = 0:0:01:12 / Tue Mar 22 12:47:24 2016
GPGPU-Sim uArch: cycles simulated: 82000  inst.: 881024 (ipc=10.7) sim_rate=12068 (inst/sec) elapsed = 0:0:01:13 / Tue Mar 22 12:47:25 2016
GPGPU-Sim PTX: 900000 instructions simulated : ctaid=(29,0,0) tid=(31,0,0)
GPGPU-Sim uArch: cycles simulated: 83500  inst.: 895552 (ipc=10.7) sim_rate=12102 (inst/sec) elapsed = 0:0:01:14 / Tue Mar 22 12:47:26 2016
GPGPU-Sim uArch: cycles simulated: 84500  inst.: 904448 (ipc=10.7) sim_rate=12059 (inst/sec) elapsed = 0:0:01:15 / Tue Mar 22 12:47:27 2016
GPGPU-Sim uArch: cycles simulated: 86000  inst.: 918624 (ipc=10.7) sim_rate=12087 (inst/sec) elapsed = 0:0:01:16 / Tue Mar 22 12:47:28 2016
GPGPU-Sim uArch: cycles simulated: 87000  inst.: 928576 (ipc=10.7) sim_rate=12059 (inst/sec) elapsed = 0:0:01:17 / Tue Mar 22 12:47:29 2016
GPGPU-Sim uArch: cycles simulated: 88500  inst.: 942784 (ipc=10.7) sim_rate=12086 (inst/sec) elapsed = 0:0:01:18 / Tue Mar 22 12:47:30 2016
GPGPU-Sim uArch: cycles simulated: 89500  inst.: 952032 (ipc=10.6) sim_rate=12051 (inst/sec) elapsed = 0:0:01:19 / Tue Mar 22 12:47:31 2016
GPGPU-Sim uArch: cycles simulated: 90500  inst.: 960448 (ipc=10.6) sim_rate=12005 (inst/sec) elapsed = 0:0:01:20 / Tue Mar 22 12:47:32 2016
GPGPU-Sim uArch: cycles simulated: 92000  inst.: 975424 (ipc=10.6) sim_rate=12042 (inst/sec) elapsed = 0:0:01:21 / Tue Mar 22 12:47:33 2016
GPGPU-Sim PTX: 1000000 instructions simulated : ctaid=(3,0,0) tid=(191,0,0)
GPGPU-Sim uArch: cycles simulated: 93000  inst.: 984224 (ipc=10.6) sim_rate=12002 (inst/sec) elapsed = 0:0:01:22 / Tue Mar 22 12:47:34 2016
GPGPU-Sim uArch: cycles simulated: 94500  inst.: 998016 (ipc=10.6) sim_rate=12024 (inst/sec) elapsed = 0:0:01:23 / Tue Mar 22 12:47:35 2016
GPGPU-Sim uArch: cycles simulated: 95500  inst.: 1008480 (ipc=10.6) sim_rate=12005 (inst/sec) elapsed = 0:0:01:24 / Tue Mar 22 12:47:36 2016
GPGPU-Sim uArch: cycles simulated: 97000  inst.: 1021760 (ipc=10.5) sim_rate=12020 (inst/sec) elapsed = 0:0:01:25 / Tue Mar 22 12:47:37 2016
GPGPU-Sim uArch: cycles simulated: 98000  inst.: 1030912 (ipc=10.5) sim_rate=11987 (inst/sec) elapsed = 0:0:01:26 / Tue Mar 22 12:47:38 2016
GPGPU-Sim uArch: cycles simulated: 99500  inst.: 1047904 (ipc=10.5) sim_rate=12044 (inst/sec) elapsed = 0:0:01:27 / Tue Mar 22 12:47:39 2016
GPGPU-Sim uArch: cycles simulated: 100500  inst.: 1057792 (ipc=10.5) sim_rate=12020 (inst/sec) elapsed = 0:0:01:28 / Tue Mar 22 12:47:40 2016
GPGPU-Sim uArch: cycles simulated: 102000  inst.: 1076608 (ipc=10.6) sim_rate=12096 (inst/sec) elapsed = 0:0:01:29 / Tue Mar 22 12:47:41 2016
GPGPU-Sim PTX: 1100000 instructions simulated : ctaid=(21,0,0) tid=(127,0,0)
GPGPU-Sim uArch: cycles simulated: 103000  inst.: 1090016 (ipc=10.6) sim_rate=12111 (inst/sec) elapsed = 0:0:01:30 / Tue Mar 22 12:47:42 2016
GPGPU-Sim uArch: cycles simulated: 104000  inst.: 1102272 (ipc=10.6) sim_rate=12112 (inst/sec) elapsed = 0:0:01:31 / Tue Mar 22 12:47:43 2016
GPGPU-Sim uArch: cycles simulated: 105500  inst.: 1117632 (ipc=10.6) sim_rate=12148 (inst/sec) elapsed = 0:0:01:32 / Tue Mar 22 12:47:44 2016
GPGPU-Sim uArch: cycles simulated: 106500  inst.: 1129696 (ipc=10.6) sim_rate=12147 (inst/sec) elapsed = 0:0:01:33 / Tue Mar 22 12:47:45 2016
GPGPU-Sim uArch: cycles simulated: 107500  inst.: 1141056 (ipc=10.6) sim_rate=12138 (inst/sec) elapsed = 0:0:01:34 / Tue Mar 22 12:47:46 2016
GPGPU-Sim uArch: cycles simulated: 109000  inst.: 1157216 (ipc=10.6) sim_rate=12181 (inst/sec) elapsed = 0:0:01:35 / Tue Mar 22 12:47:47 2016
GPGPU-Sim uArch: cycles simulated: 111000  inst.: 1176000 (ipc=10.6) sim_rate=12250 (inst/sec) elapsed = 0:0:01:36 / Tue Mar 22 12:47:48 2016
GPGPU-Sim PTX: 1200000 instructions simulated : ctaid=(27,0,0) tid=(223,0,0)
GPGPU-Sim uArch: cycles simulated: 112500  inst.: 1190080 (ipc=10.6) sim_rate=12268 (inst/sec) elapsed = 0:0:01:37 / Tue Mar 22 12:47:49 2016
GPGPU-Sim uArch: cycles simulated: 114000  inst.: 1202464 (ipc=10.5) sim_rate=12270 (inst/sec) elapsed = 0:0:01:38 / Tue Mar 22 12:47:50 2016
GPGPU-Sim uArch: cycles simulated: 115500  inst.: 1216800 (ipc=10.5) sim_rate=12290 (inst/sec) elapsed = 0:0:01:39 / Tue Mar 22 12:47:51 2016
GPGPU-Sim uArch: cycles simulated: 117000  inst.: 1231072 (ipc=10.5) sim_rate=12310 (inst/sec) elapsed = 0:0:01:40 / Tue Mar 22 12:47:52 2016
GPGPU-Sim uArch: cycles simulated: 118500  inst.: 1245536 (ipc=10.5) sim_rate=12332 (inst/sec) elapsed = 0:0:01:41 / Tue Mar 22 12:47:53 2016
GPGPU-Sim uArch: cycles simulated: 120500  inst.: 1264032 (ipc=10.5) sim_rate=12392 (inst/sec) elapsed = 0:0:01:42 / Tue Mar 22 12:47:54 2016
GPGPU-Sim uArch: cycles simulated: 121500  inst.: 1272928 (ipc=10.5) sim_rate=12358 (inst/sec) elapsed = 0:0:01:43 / Tue Mar 22 12:47:55 2016
GPGPU-Sim PTX: 1300000 instructions simulated : ctaid=(8,0,0) tid=(255,0,0)
GPGPU-Sim uArch: cycles simulated: 123000  inst.: 1287072 (ipc=10.5) sim_rate=12375 (inst/sec) elapsed = 0:0:01:44 / Tue Mar 22 12:47:56 2016
GPGPU-Sim uArch: cycles simulated: 124000  inst.: 1296864 (ipc=10.5) sim_rate=12351 (inst/sec) elapsed = 0:0:01:45 / Tue Mar 22 12:47:57 2016
GPGPU-Sim uArch: cycles simulated: 125500  inst.: 1312704 (ipc=10.5) sim_rate=12384 (inst/sec) elapsed = 0:0:01:46 / Tue Mar 22 12:47:58 2016
GPGPU-Sim uArch: cycles simulated: 126500  inst.: 1322848 (ipc=10.5) sim_rate=12363 (inst/sec) elapsed = 0:0:01:47 / Tue Mar 22 12:47:59 2016
GPGPU-Sim uArch: cycles simulated: 127500  inst.: 1332544 (ipc=10.5) sim_rate=12338 (inst/sec) elapsed = 0:0:01:48 / Tue Mar 22 12:48:00 2016
GPGPU-Sim uArch: cycles simulated: 129000  inst.: 1349280 (ipc=10.5) sim_rate=12378 (inst/sec) elapsed = 0:0:01:49 / Tue Mar 22 12:48:01 2016
GPGPU-Sim uArch: cycles simulated: 130000  inst.: 1360832 (ipc=10.5) sim_rate=12371 (inst/sec) elapsed = 0:0:01:50 / Tue Mar 22 12:48:02 2016
GPGPU-Sim uArch: cycles simulated: 131000  inst.: 1369664 (ipc=10.5) sim_rate=12339 (inst/sec) elapsed = 0:0:01:51 / Tue Mar 22 12:48:03 2016
GPGPU-Sim PTX: 1400000 instructions simulated : ctaid=(4,0,0) tid=(255,0,0)
GPGPU-Sim uArch: cycles simulated: 132500  inst.: 1385888 (ipc=10.5) sim_rate=12374 (inst/sec) elapsed = 0:0:01:52 / Tue Mar 22 12:48:04 2016
GPGPU-Sim uArch: cycles simulated: 133500  inst.: 1396736 (ipc=10.5) sim_rate=12360 (inst/sec) elapsed = 0:0:01:53 / Tue Mar 22 12:48:05 2016
GPGPU-Sim uArch: cycles simulated: 134500  inst.: 1404704 (ipc=10.4) sim_rate=12321 (inst/sec) elapsed = 0:0:01:54 / Tue Mar 22 12:48:06 2016
GPGPU-Sim uArch: cycles simulated: 136000  inst.: 1418848 (ipc=10.4) sim_rate=12337 (inst/sec) elapsed = 0:0:01:55 / Tue Mar 22 12:48:07 2016
GPGPU-Sim uArch: cycles simulated: 137000  inst.: 1428320 (ipc=10.4) sim_rate=12313 (inst/sec) elapsed = 0:0:01:56 / Tue Mar 22 12:48:08 2016
GPGPU-Sim uArch: cycles simulated: 138500  inst.: 1442880 (ipc=10.4) sim_rate=12332 (inst/sec) elapsed = 0:0:01:57 / Tue Mar 22 12:48:09 2016
GPGPU-Sim uArch: cycles simulated: 139500  inst.: 1452448 (ipc=10.4) sim_rate=12308 (inst/sec) elapsed = 0:0:01:58 / Tue Mar 22 12:48:10 2016
GPGPU-Sim uArch: cycles simulated: 140500  inst.: 1462880 (ipc=10.4) sim_rate=12293 (inst/sec) elapsed = 0:0:01:59 / Tue Mar 22 12:48:11 2016
GPGPU-Sim uArch: cycles simulated: 142000  inst.: 1475840 (ipc=10.4) sim_rate=12298 (inst/sec) elapsed = 0:0:02:00 / Tue Mar 22 12:48:12 2016
GPGPU-Sim PTX: 1500000 instructions simulated : ctaid=(25,0,0) tid=(223,0,0)
GPGPU-Sim uArch: cycles simulated: 143000  inst.: 1484512 (ipc=10.4) sim_rate=12268 (inst/sec) elapsed = 0:0:02:01 / Tue Mar 22 12:48:13 2016
GPGPU-Sim uArch: cycles simulated: 144000  inst.: 1493760 (ipc=10.4) sim_rate=12243 (inst/sec) elapsed = 0:0:02:02 / Tue Mar 22 12:48:14 2016
GPGPU-Sim uArch: cycles simulated: 145500  inst.: 1506304 (ipc=10.4) sim_rate=12246 (inst/sec) elapsed = 0:0:02:03 / Tue Mar 22 12:48:15 2016
GPGPU-Sim uArch: cycles simulated: 146500  inst.: 1517152 (ipc=10.4) sim_rate=12235 (inst/sec) elapsed = 0:0:02:04 / Tue Mar 22 12:48:16 2016
GPGPU-Sim uArch: cycles simulated: 148000  inst.: 1534656 (ipc=10.4) sim_rate=12277 (inst/sec) elapsed = 0:0:02:05 / Tue Mar 22 12:48:17 2016
GPGPU-Sim uArch: cycles simulated: 149000  inst.: 1546304 (ipc=10.4) sim_rate=12272 (inst/sec) elapsed = 0:0:02:06 / Tue Mar 22 12:48:18 2016
GPGPU-Sim uArch: cycles simulated: 150500  inst.: 1573344 (ipc=10.5) sim_rate=12388 (inst/sec) elapsed = 0:0:02:07 / Tue Mar 22 12:48:19 2016
GPGPU-Sim PTX: 1600000 instructions simulated : ctaid=(20,0,0) tid=(95,0,0)
GPGPU-Sim uArch: cycles simulated: 151500  inst.: 1596288 (ipc=10.5) sim_rate=12471 (inst/sec) elapsed = 0:0:02:08 / Tue Mar 22 12:48:20 2016
GPGPU-Sim uArch: cycles simulated: 152500  inst.: 1616096 (ipc=10.6) sim_rate=12527 (inst/sec) elapsed = 0:0:02:09 / Tue Mar 22 12:48:21 2016
GPGPU-Sim uArch: cycles simulated: 154000  inst.: 1638240 (ipc=10.6) sim_rate=12601 (inst/sec) elapsed = 0:0:02:10 / Tue Mar 22 12:48:22 2016
GPGPU-Sim uArch: cycles simulated: 155000  inst.: 1648064 (ipc=10.6) sim_rate=12580 (inst/sec) elapsed = 0:0:02:11 / Tue Mar 22 12:48:23 2016
GPGPU-Sim uArch: cycles simulated: 156500  inst.: 1661600 (ipc=10.6) sim_rate=12587 (inst/sec) elapsed = 0:0:02:12 / Tue Mar 22 12:48:24 2016
GPGPU-Sim uArch: cycles simulated: 157500  inst.: 1672160 (ipc=10.6) sim_rate=12572 (inst/sec) elapsed = 0:0:02:13 / Tue Mar 22 12:48:25 2016
GPGPU-Sim PTX: 1700000 instructions simulated : ctaid=(41,0,0) tid=(95,0,0)
GPGPU-Sim uArch: cycles simulated: 158500  inst.: 1680992 (ipc=10.6) sim_rate=12544 (inst/sec) elapsed = 0:0:02:14 / Tue Mar 22 12:48:26 2016
GPGPU-Sim uArch: cycles simulated: 160000  inst.: 1694080 (ipc=10.6) sim_rate=12548 (inst/sec) elapsed = 0:0:02:15 / Tue Mar 22 12:48:27 2016
GPGPU-Sim uArch: cycles simulated: 161000  inst.: 1703296 (ipc=10.6) sim_rate=12524 (inst/sec) elapsed = 0:0:02:16 / Tue Mar 22 12:48:28 2016
GPGPU-Sim uArch: cycles simulated: 162500  inst.: 1716032 (ipc=10.6) sim_rate=12525 (inst/sec) elapsed = 0:0:02:17 / Tue Mar 22 12:48:29 2016
GPGPU-Sim uArch: cycles simulated: 163500  inst.: 1725184 (ipc=10.6) sim_rate=12501 (inst/sec) elapsed = 0:0:02:18 / Tue Mar 22 12:48:30 2016
GPGPU-Sim uArch: cycles simulated: 165000  inst.: 1739104 (ipc=10.5) sim_rate=12511 (inst/sec) elapsed = 0:0:02:19 / Tue Mar 22 12:48:31 2016
GPGPU-Sim uArch: cycles simulated: 166000  inst.: 1748960 (ipc=10.5) sim_rate=12492 (inst/sec) elapsed = 0:0:02:20 / Tue Mar 22 12:48:32 2016
GPGPU-Sim uArch: cycles simulated: 167500  inst.: 1762400 (ipc=10.5) sim_rate=12499 (inst/sec) elapsed = 0:0:02:21 / Tue Mar 22 12:48:33 2016
GPGPU-Sim uArch: cycles simulated: 168500  inst.: 1772224 (ipc=10.5) sim_rate=12480 (inst/sec) elapsed = 0:0:02:22 / Tue Mar 22 12:48:34 2016
GPGPU-Sim PTX: 1800000 instructions simulated : ctaid=(33,0,0) tid=(159,0,0)
GPGPU-Sim uArch: cycles simulated: 170000  inst.: 1785056 (ipc=10.5) sim_rate=12482 (inst/sec) elapsed = 0:0:02:23 / Tue Mar 22 12:48:35 2016
GPGPU-Sim uArch: cycles simulated: 171500  inst.: 1797984 (ipc=10.5) sim_rate=12486 (inst/sec) elapsed = 0:0:02:24 / Tue Mar 22 12:48:36 2016
GPGPU-Sim uArch: cycles simulated: 172500  inst.: 1808832 (ipc=10.5) sim_rate=12474 (inst/sec) elapsed = 0:0:02:25 / Tue Mar 22 12:48:37 2016
GPGPU-Sim uArch: cycles simulated: 174000  inst.: 1820320 (ipc=10.5) sim_rate=12467 (inst/sec) elapsed = 0:0:02:26 / Tue Mar 22 12:48:38 2016
GPGPU-Sim uArch: cycles simulated: 175000  inst.: 1830080 (ipc=10.5) sim_rate=12449 (inst/sec) elapsed = 0:0:02:27 / Tue Mar 22 12:48:39 2016
GPGPU-Sim uArch: cycles simulated: 176500  inst.: 1843808 (ipc=10.4) sim_rate=12458 (inst/sec) elapsed = 0:0:02:28 / Tue Mar 22 12:48:40 2016
GPGPU-Sim uArch: cycles simulated: 177500  inst.: 1853088 (ipc=10.4) sim_rate=12436 (inst/sec) elapsed = 0:0:02:29 / Tue Mar 22 12:48:41 2016
GPGPU-Sim uArch: cycles simulated: 179000  inst.: 1865504 (ipc=10.4) sim_rate=12436 (inst/sec) elapsed = 0:0:02:30 / Tue Mar 22 12:48:42 2016
GPGPU-Sim PTX: 1900000 instructions simulated : ctaid=(15,0,0) tid=(63,0,0)
GPGPU-Sim uArch: cycles simulated: 180000  inst.: 1876288 (ipc=10.4) sim_rate=12425 (inst/sec) elapsed = 0:0:02:31 / Tue Mar 22 12:48:43 2016
GPGPU-Sim uArch: cycles simulated: 181500  inst.: 1888480 (ipc=10.4) sim_rate=12424 (inst/sec) elapsed = 0:0:02:32 / Tue Mar 22 12:48:44 2016
GPGPU-Sim uArch: cycles simulated: 182500  inst.: 1898432 (ipc=10.4) sim_rate=12408 (inst/sec) elapsed = 0:0:02:33 / Tue Mar 22 12:48:45 2016
GPGPU-Sim uArch: cycles simulated: 183500  inst.: 1907520 (ipc=10.4) sim_rate=12386 (inst/sec) elapsed = 0:0:02:34 / Tue Mar 22 12:48:46 2016
GPGPU-Sim uArch: cycles simulated: 185000  inst.: 1921568 (ipc=10.4) sim_rate=12397 (inst/sec) elapsed = 0:0:02:35 / Tue Mar 22 12:48:47 2016
GPGPU-Sim uArch: Shader 4 finished CTA #0 (185208,0), 5 CTAs running
GPGPU-Sim uArch: core:  4, cta: 0 initialized @(185209,0)
GPGPU-Sim uArch: cycles simulated: 186000  inst.: 1931264 (ipc=10.4) sim_rate=12379 (inst/sec) elapsed = 0:0:02:36 / Tue Mar 22 12:48:48 2016
GPGPU-Sim uArch: Shader 14 finished CTA #0 (186980,0), 5 CTAs running
GPGPU-Sim uArch: core: 14, cta: 0 initialized @(186981,0)
GPGPU-Sim uArch: Shader 3 finished CTA #0 (187382,0), 5 CTAs running
GPGPU-Sim uArch: core:  3, cta: 0 initialized @(187383,0)
GPGPU-Sim uArch: cycles simulated: 187500  inst.: 1946144 (ipc=10.4) sim_rate=12395 (inst/sec) elapsed = 0:0:02:37 / Tue Mar 22 12:48:49 2016
GPGPU-Sim uArch: Shader 8 finished CTA #0 (187619,0), 5 CTAs running
GPGPU-Sim uArch: core:  8, cta: 0 initialized @(187620,0)
GPGPU-Sim uArch: Shader 13 finished CTA #0 (188247,0), 5 CTAs running
GPGPU-Sim uArch: core: 13, cta: 0 initialized @(188248,0)
GPGPU-Sim uArch: cycles simulated: 188500  inst.: 1959072 (ipc=10.4) sim_rate=12399 (inst/sec) elapsed = 0:0:02:38 / Tue Mar 22 12:48:50 2016
GPGPU-Sim uArch: Shader 12 finished CTA #0 (188504,0), 5 CTAs running
GPGPU-Sim uArch: core: 12, cta: 0 initialized @(188505,0)
GPGPU-Sim uArch: Shader 1 finished CTA #0 (188629,0), 5 CTAs running
GPGPU-Sim uArch: core:  1, cta: 0 initialized @(188630,0)
GPGPU-Sim uArch: Shader 10 finished CTA #0 (189091,0), 5 CTAs running
GPGPU-Sim uArch: core: 10, cta: 0 initialized @(189092,0)
GPGPU-Sim uArch: cycles simulated: 190000  inst.: 1972768 (ipc=10.4) sim_rate=12407 (inst/sec) elapsed = 0:0:02:39 / Tue Mar 22 12:48:51 2016
GPGPU-Sim PTX: 2000000 instructions simulated : ctaid=(19,0,0) tid=(255,0,0)
GPGPU-Sim uArch: Shader 6 finished CTA #0 (190535,0), 5 CTAs running
GPGPU-Sim uArch: core:  6, cta: 0 initialized @(190536,0)
GPGPU-Sim uArch: Shader 0 finished CTA #0 (190689,0), 5 CTAs running
GPGPU-Sim uArch: core:  0, cta: 0 initialized @(190690,0)
GPGPU-Sim uArch: Shader 5 finished CTA #0 (190948,0), 5 CTAs running
GPGPU-Sim uArch: core:  5, cta: 0 initialized @(190949,0)
GPGPU-Sim uArch: cycles simulated: 191000  inst.: 1984736 (ipc=10.4) sim_rate=12404 (inst/sec) elapsed = 0:0:02:40 / Tue Mar 22 12:48:52 2016
GPGPU-Sim uArch: Shader 9 finished CTA #0 (191941,0), 5 CTAs running
GPGPU-Sim uArch: core:  9, cta: 0 initialized @(191942,0)
GPGPU-Sim uArch: cycles simulated: 192000  inst.: 1993728 (ipc=10.4) sim_rate=12383 (inst/sec) elapsed = 0:0:02:41 / Tue Mar 22 12:48:53 2016
GPGPU-Sim uArch: Shader 2 finished CTA #0 (192005,0), 5 CTAs running
GPGPU-Sim uArch: core:  2, cta: 0 initialized @(192006,0)
GPGPU-Sim uArch: Shader 11 finished CTA #0 (193362,0), 5 CTAs running
GPGPU-Sim uArch: core: 11, cta: 0 initialized @(193363,0)
GPGPU-Sim uArch: cycles simulated: 193500  inst.: 2008992 (ipc=10.4) sim_rate=12401 (inst/sec) elapsed = 0:0:02:42 / Tue Mar 22 12:48:54 2016
GPGPU-Sim uArch: cycles simulated: 194500  inst.: 2018944 (ipc=10.4) sim_rate=12386 (inst/sec) elapsed = 0:0:02:43 / Tue Mar 22 12:48:55 2016
GPGPU-Sim uArch: Shader 7 finished CTA #0 (194652,0), 5 CTAs running
GPGPU-Sim uArch: core:  7, cta: 0 initialized @(194653,0)
GPGPU-Sim uArch: cycles simulated: 195500  inst.: 2028704 (ipc=10.4) sim_rate=12370 (inst/sec) elapsed = 0:0:02:44 / Tue Mar 22 12:48:56 2016
GPGPU-Sim uArch: cycles simulated: 197000  inst.: 2040992 (ipc=10.4) sim_rate=12369 (inst/sec) elapsed = 0:0:02:45 / Tue Mar 22 12:48:57 2016
GPGPU-Sim uArch: cycles simulated: 198000  inst.: 2052192 (ipc=10.4) sim_rate=12362 (inst/sec) elapsed = 0:0:02:46 / Tue Mar 22 12:48:58 2016
GPGPU-Sim uArch: cycles simulated: 199500  inst.: 2065888 (ipc=10.4) sim_rate=12370 (inst/sec) elapsed = 0:0:02:47 / Tue Mar 22 12:48:59 2016
GPGPU-Sim PTX: 2100000 instructions simulated : ctaid=(26,0,0) tid=(127,0,0)
GPGPU-Sim uArch: cycles simulated: 201500  inst.: 2082912 (ipc=10.3) sim_rate=12398 (inst/sec) elapsed = 0:0:02:48 / Tue Mar 22 12:49:00 2016
GPGPU-Sim uArch: cycles simulated: 203000  inst.: 2096448 (ipc=10.3) sim_rate=12405 (inst/sec) elapsed = 0:0:02:49 / Tue Mar 22 12:49:01 2016
GPGPU-Sim uArch: cycles simulated: 205000  inst.: 2115392 (ipc=10.3) sim_rate=12443 (inst/sec) elapsed = 0:0:02:50 / Tue Mar 22 12:49:02 2016
GPGPU-Sim uArch: cycles simulated: 206500  inst.: 2132032 (ipc=10.3) sim_rate=12468 (inst/sec) elapsed = 0:0:02:51 / Tue Mar 22 12:49:03 2016
GPGPU-Sim uArch: cycles simulated: 207500  inst.: 2141216 (ipc=10.3) sim_rate=12448 (inst/sec) elapsed = 0:0:02:52 / Tue Mar 22 12:49:04 2016
GPGPU-Sim uArch: cycles simulated: 208500  inst.: 2151360 (ipc=10.3) sim_rate=12435 (inst/sec) elapsed = 0:0:02:53 / Tue Mar 22 12:49:05 2016
GPGPU-Sim uArch: cycles simulated: 210000  inst.: 2165760 (ipc=10.3) sim_rate=12446 (inst/sec) elapsed = 0:0:02:54 / Tue Mar 22 12:49:06 2016
GPGPU-Sim PTX: 2200000 instructions simulated : ctaid=(38,0,0) tid=(31,0,0)
GPGPU-Sim uArch: cycles simulated: 211000  inst.: 2174784 (ipc=10.3) sim_rate=12427 (inst/sec) elapsed = 0:0:02:55 / Tue Mar 22 12:49:07 2016
GPGPU-Sim uArch: cycles simulated: 212000  inst.: 2185760 (ipc=10.3) sim_rate=12419 (inst/sec) elapsed = 0:0:02:56 / Tue Mar 22 12:49:08 2016
GPGPU-Sim uArch: cycles simulated: 213500  inst.: 2201632 (ipc=10.3) sim_rate=12438 (inst/sec) elapsed = 0:0:02:57 / Tue Mar 22 12:49:09 2016
GPGPU-Sim uArch: cycles simulated: 214500  inst.: 2212128 (ipc=10.3) sim_rate=12427 (inst/sec) elapsed = 0:0:02:58 / Tue Mar 22 12:49:10 2016
GPGPU-Sim uArch: cycles simulated: 216000  inst.: 2227328 (ipc=10.3) sim_rate=12443 (inst/sec) elapsed = 0:0:02:59 / Tue Mar 22 12:49:11 2016
GPGPU-Sim uArch: cycles simulated: 217000  inst.: 2239680 (ipc=10.3) sim_rate=12442 (inst/sec) elapsed = 0:0:03:00 / Tue Mar 22 12:49:12 2016
GPGPU-Sim uArch: cycles simulated: 218000  inst.: 2249504 (ipc=10.3) sim_rate=12428 (inst/sec) elapsed = 0:0:03:01 / Tue Mar 22 12:49:13 2016
GPGPU-Sim uArch: cycles simulated: 219500  inst.: 2267264 (ipc=10.3) sim_rate=12457 (inst/sec) elapsed = 0:0:03:02 / Tue Mar 22 12:49:14 2016
GPGPU-Sim PTX: 2300000 instructions simulated : ctaid=(29,0,0) tid=(191,0,0)
GPGPU-Sim uArch: cycles simulated: 220500  inst.: 2279040 (ipc=10.3) sim_rate=12453 (inst/sec) elapsed = 0:0:03:03 / Tue Mar 22 12:49:15 2016
GPGPU-Sim uArch: cycles simulated: 222000  inst.: 2295200 (ipc=10.3) sim_rate=12473 (inst/sec) elapsed = 0:0:03:04 / Tue Mar 22 12:49:16 2016
GPGPU-Sim uArch: cycles simulated: 223000  inst.: 2304960 (ipc=10.3) sim_rate=12459 (inst/sec) elapsed = 0:0:03:05 / Tue Mar 22 12:49:17 2016
GPGPU-Sim uArch: cycles simulated: 224500  inst.: 2325024 (ipc=10.4) sim_rate=12500 (inst/sec) elapsed = 0:0:03:06 / Tue Mar 22 12:49:18 2016
GPGPU-Sim uArch: cycles simulated: 225500  inst.: 2338944 (ipc=10.4) sim_rate=12507 (inst/sec) elapsed = 0:0:03:07 / Tue Mar 22 12:49:19 2016
GPGPU-Sim PTX: 2400000 instructions simulated : ctaid=(35,0,0) tid=(63,0,0)
GPGPU-Sim uArch: cycles simulated: 227000  inst.: 2372096 (ipc=10.4) sim_rate=12617 (inst/sec) elapsed = 0:0:03:08 / Tue Mar 22 12:49:20 2016
GPGPU-Sim uArch: cycles simulated: 228000  inst.: 2392064 (ipc=10.5) sim_rate=12656 (inst/sec) elapsed = 0:0:03:09 / Tue Mar 22 12:49:21 2016
GPGPU-Sim uArch: cycles simulated: 229000  inst.: 2409568 (ipc=10.5) sim_rate=12681 (inst/sec) elapsed = 0:0:03:10 / Tue Mar 22 12:49:22 2016
GPGPU-Sim uArch: cycles simulated: 230500  inst.: 2425984 (ipc=10.5) sim_rate=12701 (inst/sec) elapsed = 0:0:03:11 / Tue Mar 22 12:49:23 2016
GPGPU-Sim uArch: cycles simulated: 232000  inst.: 2441088 (ipc=10.5) sim_rate=12714 (inst/sec) elapsed = 0:0:03:12 / Tue Mar 22 12:49:24 2016
GPGPU-Sim uArch: cycles simulated: 233000  inst.: 2450720 (ipc=10.5) sim_rate=12698 (inst/sec) elapsed = 0:0:03:13 / Tue Mar 22 12:49:25 2016
GPGPU-Sim uArch: cycles simulated: 234500  inst.: 2464192 (ipc=10.5) sim_rate=12702 (inst/sec) elapsed = 0:0:03:14 / Tue Mar 22 12:49:26 2016
GPGPU-Sim PTX: 2500000 instructions simulated : ctaid=(54,0,0) tid=(31,0,0)
GPGPU-Sim uArch: cycles simulated: 235500  inst.: 2474880 (ipc=10.5) sim_rate=12691 (inst/sec) elapsed = 0:0:03:15 / Tue Mar 22 12:49:27 2016
GPGPU-Sim uArch: cycles simulated: 237000  inst.: 2488000 (ipc=10.5) sim_rate=12693 (inst/sec) elapsed = 0:0:03:16 / Tue Mar 22 12:49:28 2016
GPGPU-Sim uArch: cycles simulated: 238000  inst.: 2500320 (ipc=10.5) sim_rate=12691 (inst/sec) elapsed = 0:0:03:17 / Tue Mar 22 12:49:29 2016
GPGPU-Sim uArch: cycles simulated: 239500  inst.: 2514752 (ipc=10.5) sim_rate=12700 (inst/sec) elapsed = 0:0:03:18 / Tue Mar 22 12:49:30 2016
GPGPU-Sim uArch: cycles simulated: 240500  inst.: 2524512 (ipc=10.5) sim_rate=12685 (inst/sec) elapsed = 0:0:03:19 / Tue Mar 22 12:49:31 2016
GPGPU-Sim uArch: cycles simulated: 242000  inst.: 2538080 (ipc=10.5) sim_rate=12690 (inst/sec) elapsed = 0:0:03:20 / Tue Mar 22 12:49:32 2016
GPGPU-Sim uArch: cycles simulated: 243500  inst.: 2552672 (ipc=10.5) sim_rate=12699 (inst/sec) elapsed = 0:0:03:21 / Tue Mar 22 12:49:33 2016
GPGPU-Sim PTX: 2600000 instructions simulated : ctaid=(30,0,0) tid=(127,0,0)
GPGPU-Sim uArch: cycles simulated: 244500  inst.: 2564224 (ipc=10.5) sim_rate=12694 (inst/sec) elapsed = 0:0:03:22 / Tue Mar 22 12:49:34 2016
GPGPU-Sim uArch: cycles simulated: 246500  inst.: 2583360 (ipc=10.5) sim_rate=12725 (inst/sec) elapsed = 0:0:03:23 / Tue Mar 22 12:49:35 2016
GPGPU-Sim uArch: cycles simulated: 247500  inst.: 2593056 (ipc=10.5) sim_rate=12711 (inst/sec) elapsed = 0:0:03:24 / Tue Mar 22 12:49:36 2016
GPGPU-Sim uArch: cycles simulated: 249000  inst.: 2608096 (ipc=10.5) sim_rate=12722 (inst/sec) elapsed = 0:0:03:25 / Tue Mar 22 12:49:37 2016
GPGPU-Sim uArch: cycles simulated: 250000  inst.: 2616544 (ipc=10.5) sim_rate=12701 (inst/sec) elapsed = 0:0:03:26 / Tue Mar 22 12:49:38 2016
GPGPU-Sim uArch: cycles simulated: 251500  inst.: 2630016 (ipc=10.5) sim_rate=12705 (inst/sec) elapsed = 0:0:03:27 / Tue Mar 22 12:49:39 2016
GPGPU-Sim uArch: cycles simulated: 253000  inst.: 2644000 (ipc=10.5) sim_rate=12711 (inst/sec) elapsed = 0:0:03:28 / Tue Mar 22 12:49:40 2016
GPGPU-Sim uArch: cycles simulated: 254000  inst.: 2652192 (ipc=10.4) sim_rate=12689 (inst/sec) elapsed = 0:0:03:29 / Tue Mar 22 12:49:41 2016
GPGPU-Sim PTX: 2700000 instructions simulated : ctaid=(45,0,0) tid=(95,0,0)
GPGPU-Sim uArch: cycles simulated: 255500  inst.: 2666528 (ipc=10.4) sim_rate=12697 (inst/sec) elapsed = 0:0:03:30 / Tue Mar 22 12:49:42 2016
GPGPU-Sim uArch: cycles simulated: 257000  inst.: 2680128 (ipc=10.4) sim_rate=12702 (inst/sec) elapsed = 0:0:03:31 / Tue Mar 22 12:49:43 2016
GPGPU-Sim uArch: cycles simulated: 258500  inst.: 2694176 (ipc=10.4) sim_rate=12708 (inst/sec) elapsed = 0:0:03:32 / Tue Mar 22 12:49:44 2016
GPGPU-Sim uArch: cycles simulated: 259500  inst.: 2703104 (ipc=10.4) sim_rate=12690 (inst/sec) elapsed = 0:0:03:33 / Tue Mar 22 12:49:45 2016
GPGPU-Sim uArch: cycles simulated: 261000  inst.: 2716448 (ipc=10.4) sim_rate=12693 (inst/sec) elapsed = 0:0:03:34 / Tue Mar 22 12:49:46 2016
GPGPU-Sim uArch: cycles simulated: 262500  inst.: 2728480 (ipc=10.4) sim_rate=12690 (inst/sec) elapsed = 0:0:03:35 / Tue Mar 22 12:49:47 2016
GPGPU-Sim uArch: cycles simulated: 264000  inst.: 2743968 (ipc=10.4) sim_rate=12703 (inst/sec) elapsed = 0:0:03:36 / Tue Mar 22 12:49:48 2016
GPGPU-Sim uArch: cycles simulated: 265500  inst.: 2757088 (ipc=10.4) sim_rate=12705 (inst/sec) elapsed = 0:0:03:37 / Tue Mar 22 12:49:49 2016
GPGPU-Sim PTX: 2800000 instructions simulated : ctaid=(50,0,0) tid=(95,0,0)
GPGPU-Sim uArch: cycles simulated: 267000  inst.: 2771200 (ipc=10.4) sim_rate=12711 (inst/sec) elapsed = 0:0:03:38 / Tue Mar 22 12:49:50 2016
GPGPU-Sim uArch: cycles simulated: 268500  inst.: 2783104 (ipc=10.4) sim_rate=12708 (inst/sec) elapsed = 0:0:03:39 / Tue Mar 22 12:49:51 2016
GPGPU-Sim uArch: cycles simulated: 269500  inst.: 2793568 (ipc=10.4) sim_rate=12698 (inst/sec) elapsed = 0:0:03:40 / Tue Mar 22 12:49:52 2016
GPGPU-Sim uArch: cycles simulated: 271000  inst.: 2807328 (ipc=10.4) sim_rate=12702 (inst/sec) elapsed = 0:0:03:41 / Tue Mar 22 12:49:53 2016
GPGPU-Sim uArch: cycles simulated: 272500  inst.: 2821280 (ipc=10.4) sim_rate=12708 (inst/sec) elapsed = 0:0:03:42 / Tue Mar 22 12:49:54 2016
GPGPU-Sim uArch: cycles simulated: 273500  inst.: 2830528 (ipc=10.3) sim_rate=12692 (inst/sec) elapsed = 0:0:03:43 / Tue Mar 22 12:49:55 2016
GPGPU-Sim uArch: cycles simulated: 275000  inst.: 2844256 (ipc=10.3) sim_rate=12697 (inst/sec) elapsed = 0:0:03:44 / Tue Mar 22 12:49:56 2016
GPGPU-Sim uArch: cycles simulated: 276500  inst.: 2857536 (ipc=10.3) sim_rate=12700 (inst/sec) elapsed = 0:0:03:45 / Tue Mar 22 12:49:57 2016
GPGPU-Sim PTX: 2900000 instructions simulated : ctaid=(21,0,0) tid=(191,0,0)
GPGPU-Sim uArch: cycles simulated: 277500  inst.: 2867328 (ipc=10.3) sim_rate=12687 (inst/sec) elapsed = 0:0:03:46 / Tue Mar 22 12:49:58 2016
GPGPU-Sim uArch: cycles simulated: 279000  inst.: 2881472 (ipc=10.3) sim_rate=12693 (inst/sec) elapsed = 0:0:03:47 / Tue Mar 22 12:49:59 2016
GPGPU-Sim uArch: cycles simulated: 280500  inst.: 2893600 (ipc=10.3) sim_rate=12691 (inst/sec) elapsed = 0:0:03:48 / Tue Mar 22 12:50:00 2016
GPGPU-Sim uArch: cycles simulated: 282000  inst.: 2910400 (ipc=10.3) sim_rate=12709 (inst/sec) elapsed = 0:0:03:49 / Tue Mar 22 12:50:01 2016
GPGPU-Sim uArch: cycles simulated: 283500  inst.: 2925184 (ipc=10.3) sim_rate=12718 (inst/sec) elapsed = 0:0:03:50 / Tue Mar 22 12:50:02 2016
GPGPU-Sim uArch: cycles simulated: 284500  inst.: 2934272 (ipc=10.3) sim_rate=12702 (inst/sec) elapsed = 0:0:03:51 / Tue Mar 22 12:50:03 2016
GPGPU-Sim uArch: cycles simulated: 286000  inst.: 2949984 (ipc=10.3) sim_rate=12715 (inst/sec) elapsed = 0:0:03:52 / Tue Mar 22 12:50:04 2016
GPGPU-Sim PTX: 3000000 instructions simulated : ctaid=(43,0,0) tid=(191,0,0)
GPGPU-Sim uArch: cycles simulated: 287500  inst.: 2966816 (ipc=10.3) sim_rate=12733 (inst/sec) elapsed = 0:0:03:53 / Tue Mar 22 12:50:05 2016
GPGPU-Sim uArch: cycles simulated: 288500  inst.: 2976928 (ipc=10.3) sim_rate=12721 (inst/sec) elapsed = 0:0:03:54 / Tue Mar 22 12:50:06 2016
GPGPU-Sim uArch: cycles simulated: 290500  inst.: 2998592 (ipc=10.3) sim_rate=12759 (inst/sec) elapsed = 0:0:03:55 / Tue Mar 22 12:50:07 2016
GPGPU-Sim uArch: cycles simulated: 292000  inst.: 3012320 (ipc=10.3) sim_rate=12764 (inst/sec) elapsed = 0:0:03:56 / Tue Mar 22 12:50:08 2016
GPGPU-Sim uArch: cycles simulated: 294000  inst.: 3032544 (ipc=10.3) sim_rate=12795 (inst/sec) elapsed = 0:0:03:57 / Tue Mar 22 12:50:09 2016
GPGPU-Sim uArch: cycles simulated: 295500  inst.: 3047968 (ipc=10.3) sim_rate=12806 (inst/sec) elapsed = 0:0:03:58 / Tue Mar 22 12:50:10 2016
GPGPU-Sim PTX: 3100000 instructions simulated : ctaid=(55,0,0) tid=(223,0,0)
GPGPU-Sim uArch: cycles simulated: 297000  inst.: 3064736 (ipc=10.3) sim_rate=12823 (inst/sec) elapsed = 0:0:03:59 / Tue Mar 22 12:50:11 2016
GPGPU-Sim uArch: cycles simulated: 298500  inst.: 3081760 (ipc=10.3) sim_rate=12840 (inst/sec) elapsed = 0:0:04:00 / Tue Mar 22 12:50:12 2016
GPGPU-Sim uArch: cycles simulated: 299500  inst.: 3093984 (ipc=10.3) sim_rate=12838 (inst/sec) elapsed = 0:0:04:01 / Tue Mar 22 12:50:13 2016
GPGPU-Sim uArch: cycles simulated: 301000  inst.: 3117984 (ipc=10.4) sim_rate=12884 (inst/sec) elapsed = 0:0:04:02 / Tue Mar 22 12:50:14 2016
GPGPU-Sim uArch: cycles simulated: 303000  inst.: 3151488 (ipc=10.4) sim_rate=12969 (inst/sec) elapsed = 0:0:04:03 / Tue Mar 22 12:50:15 2016
GPGPU-Sim PTX: 3200000 instructions simulated : ctaid=(62,0,0) tid=(159,0,0)
GPGPU-Sim uArch: cycles simulated: 304000  inst.: 3169024 (ipc=10.4) sim_rate=12987 (inst/sec) elapsed = 0:0:04:04 / Tue Mar 22 12:50:16 2016
GPGPU-Sim uArch: cycles simulated: 305500  inst.: 3185856 (ipc=10.4) sim_rate=13003 (inst/sec) elapsed = 0:0:04:05 / Tue Mar 22 12:50:17 2016
GPGPU-Sim uArch: cycles simulated: 307000  inst.: 3207200 (ipc=10.4) sim_rate=13037 (inst/sec) elapsed = 0:0:04:06 / Tue Mar 22 12:50:18 2016
GPGPU-Sim uArch: Shader 8 finished CTA #1 (308216,0), 5 CTAs running
GPGPU-Sim uArch: core:  8, cta: 1 initialized @(308217,0)
GPGPU-Sim uArch: cycles simulated: 308500  inst.: 3224928 (ipc=10.5) sim_rate=13056 (inst/sec) elapsed = 0:0:04:07 / Tue Mar 22 12:50:19 2016
GPGPU-Sim uArch: cycles simulated: 310000  inst.: 3238656 (ipc=10.4) sim_rate=13059 (inst/sec) elapsed = 0:0:04:08 / Tue Mar 22 12:50:20 2016
GPGPU-Sim uArch: cycles simulated: 311000  inst.: 3247392 (ipc=10.4) sim_rate=13041 (inst/sec) elapsed = 0:0:04:09 / Tue Mar 22 12:50:21 2016
GPGPU-Sim PTX: 3300000 instructions simulated : ctaid=(61,0,0) tid=(31,0,0)
GPGPU-Sim uArch: cycles simulated: 312500  inst.: 3262304 (ipc=10.4) sim_rate=13049 (inst/sec) elapsed = 0:0:04:10 / Tue Mar 22 12:50:22 2016
GPGPU-Sim uArch: Shader 7 finished CTA #1 (313440,0), 5 CTAs running
GPGPU-Sim uArch: core:  7, cta: 1 initialized @(313441,0)
GPGPU-Sim uArch: cycles simulated: 314000  inst.: 3276512 (ipc=10.4) sim_rate=13053 (inst/sec) elapsed = 0:0:04:11 / Tue Mar 22 12:50:23 2016
GPGPU-Sim uArch: cycles simulated: 316000  inst.: 3294272 (ipc=10.4) sim_rate=13072 (inst/sec) elapsed = 0:0:04:12 / Tue Mar 22 12:50:24 2016
GPGPU-Sim uArch: cycles simulated: 317000  inst.: 3303648 (ipc=10.4) sim_rate=13057 (inst/sec) elapsed = 0:0:04:13 / Tue Mar 22 12:50:25 2016
GPGPU-Sim uArch: Shader 11 finished CTA #1 (317515,0), 5 CTAs running
GPGPU-Sim uArch: core: 11, cta: 1 initialized @(317516,0)
GPGPU-Sim uArch: Shader 12 finished CTA #1 (318425,0), 5 CTAs running
GPGPU-Sim uArch: core: 12, cta: 1 initialized @(318426,0)
GPGPU-Sim uArch: cycles simulated: 318500  inst.: 3318848 (ipc=10.4) sim_rate=13066 (inst/sec) elapsed = 0:0:04:14 / Tue Mar 22 12:50:26 2016
GPGPU-Sim uArch: Shader 1 finished CTA #1 (319822,0), 5 CTAs running
GPGPU-Sim uArch: core:  1, cta: 1 initialized @(319823,0)
GPGPU-Sim uArch: cycles simulated: 320000  inst.: 3333792 (ipc=10.4) sim_rate=13073 (inst/sec) elapsed = 0:0:04:15 / Tue Mar 22 12:50:27 2016
GPGPU-Sim uArch: Shader 5 finished CTA #1 (320275,0), 5 CTAs running
GPGPU-Sim uArch: core:  5, cta: 1 initialized @(320276,0)
GPGPU-Sim uArch: Shader 3 finished CTA #1 (320886,0), 5 CTAs running
GPGPU-Sim uArch: core:  3, cta: 1 initialized @(320887,0)
GPGPU-Sim uArch: Shader 0 finished CTA #1 (321026,0), 5 CTAs running
GPGPU-Sim uArch: core:  0, cta: 1 initialized @(321027,0)
GPGPU-Sim uArch: cycles simulated: 321500  inst.: 3349152 (ipc=10.4) sim_rate=13082 (inst/sec) elapsed = 0:0:04:16 / Tue Mar 22 12:50:28 2016
GPGPU-Sim uArch: Shader 9 finished CTA #1 (321935,0), 5 CTAs running
GPGPU-Sim uArch: core:  9, cta: 1 initialized @(321936,0)
GPGPU-Sim PTX: 3400000 instructions simulated : ctaid=(61,0,0) tid=(223,0,0)
GPGPU-Sim uArch: cycles simulated: 323000  inst.: 3362528 (ipc=10.4) sim_rate=13083 (inst/sec) elapsed = 0:0:04:17 / Tue Mar 22 12:50:29 2016
GPGPU-Sim uArch: Shader 13 finished CTA #1 (323381,0), 5 CTAs running
GPGPU-Sim uArch: core: 13, cta: 1 initialized @(323382,0)
GPGPU-Sim uArch: Shader 4 finished CTA #1 (323747,0), 5 CTAs running
GPGPU-Sim uArch: core:  4, cta: 1 initialized @(323748,0)
GPGPU-Sim uArch: Shader 14 finished CTA #1 (324039,0), 5 CTAs running
GPGPU-Sim uArch: core: 14, cta: 1 initialized @(324040,0)
GPGPU-Sim uArch: cycles simulated: 324500  inst.: 3377472 (ipc=10.4) sim_rate=13090 (inst/sec) elapsed = 0:0:04:18 / Tue Mar 22 12:50:30 2016
GPGPU-Sim uArch: Shader 10 finished CTA #1 (324865,0), 5 CTAs running
GPGPU-Sim uArch: core: 10, cta: 1 initialized @(324866,0)
GPGPU-Sim uArch: cycles simulated: 326000  inst.: 3394176 (ipc=10.4) sim_rate=13104 (inst/sec) elapsed = 0:0:04:19 / Tue Mar 22 12:50:31 2016
GPGPU-Sim uArch: Shader 2 finished CTA #1 (326161,0), 5 CTAs running
GPGPU-Sim uArch: core:  2, cta: 1 initialized @(326162,0)
GPGPU-Sim uArch: Shader 6 finished CTA #1 (326993,0), 5 CTAs running
GPGPU-Sim uArch: core:  6, cta: 1 initialized @(326994,0)
GPGPU-Sim uArch: cycles simulated: 327500  inst.: 3408320 (ipc=10.4) sim_rate=13108 (inst/sec) elapsed = 0:0:04:20 / Tue Mar 22 12:50:32 2016
GPGPU-Sim uArch: cycles simulated: 329000  inst.: 3422752 (ipc=10.4) sim_rate=13113 (inst/sec) elapsed = 0:0:04:21 / Tue Mar 22 12:50:33 2016
GPGPU-Sim uArch: cycles simulated: 330500  inst.: 3437088 (ipc=10.4) sim_rate=13118 (inst/sec) elapsed = 0:0:04:22 / Tue Mar 22 12:50:34 2016
GPGPU-Sim uArch: cycles simulated: 332000  inst.: 3450368 (ipc=10.4) sim_rate=13119 (inst/sec) elapsed = 0:0:04:23 / Tue Mar 22 12:50:35 2016
GPGPU-Sim PTX: 3500000 instructions simulated : ctaid=(69,0,0) tid=(159,0,0)
GPGPU-Sim uArch: cycles simulated: 333500  inst.: 3465152 (ipc=10.4) sim_rate=13125 (inst/sec) elapsed = 0:0:04:24 / Tue Mar 22 12:50:36 2016
GPGPU-Sim uArch: cycles simulated: 335000  inst.: 3480320 (ipc=10.4) sim_rate=13133 (inst/sec) elapsed = 0:0:04:25 / Tue Mar 22 12:50:37 2016
GPGPU-Sim uArch: cycles simulated: 337000  inst.: 3499296 (ipc=10.4) sim_rate=13155 (inst/sec) elapsed = 0:0:04:26 / Tue Mar 22 12:50:38 2016
GPGPU-Sim uArch: cycles simulated: 338500  inst.: 3514048 (ipc=10.4) sim_rate=13161 (inst/sec) elapsed = 0:0:04:27 / Tue Mar 22 12:50:39 2016
GPGPU-Sim uArch: cycles simulated: 340000  inst.: 3531200 (ipc=10.4) sim_rate=13176 (inst/sec) elapsed = 0:0:04:28 / Tue Mar 22 12:50:40 2016
GPGPU-Sim uArch: cycles simulated: 341500  inst.: 3548448 (ipc=10.4) sim_rate=13191 (inst/sec) elapsed = 0:0:04:29 / Tue Mar 22 12:50:41 2016
GPGPU-Sim PTX: 3600000 instructions simulated : ctaid=(69,0,0) tid=(31,0,0)
GPGPU-Sim uArch: cycles simulated: 343000  inst.: 3563040 (ipc=10.4) sim_rate=13196 (inst/sec) elapsed = 0:0:04:30 / Tue Mar 22 12:50:42 2016
GPGPU-Sim uArch: cycles simulated: 344500  inst.: 3580992 (ipc=10.4) sim_rate=13213 (inst/sec) elapsed = 0:0:04:31 / Tue Mar 22 12:50:43 2016
GPGPU-Sim uArch: cycles simulated: 346500  inst.: 3601376 (ipc=10.4) sim_rate=13240 (inst/sec) elapsed = 0:0:04:32 / Tue Mar 22 12:50:44 2016
GPGPU-Sim uArch: cycles simulated: 348000  inst.: 3616704 (ipc=10.4) sim_rate=13248 (inst/sec) elapsed = 0:0:04:33 / Tue Mar 22 12:50:45 2016
GPGPU-Sim uArch: cycles simulated: 350000  inst.: 3634784 (ipc=10.4) sim_rate=13265 (inst/sec) elapsed = 0:0:04:34 / Tue Mar 22 12:50:46 2016
GPGPU-Sim uArch: cycles simulated: 351500  inst.: 3649888 (ipc=10.4) sim_rate=13272 (inst/sec) elapsed = 0:0:04:35 / Tue Mar 22 12:50:47 2016
GPGPU-Sim PTX: 3700000 instructions simulated : ctaid=(38,0,0) tid=(191,0,0)
GPGPU-Sim uArch: cycles simulated: 352500  inst.: 3660096 (ipc=10.4) sim_rate=13261 (inst/sec) elapsed = 0:0:04:36 / Tue Mar 22 12:50:48 2016
GPGPU-Sim uArch: cycles simulated: 354000  inst.: 3674752 (ipc=10.4) sim_rate=13266 (inst/sec) elapsed = 0:0:04:37 / Tue Mar 22 12:50:49 2016
GPGPU-Sim uArch: cycles simulated: 355500  inst.: 3690304 (ipc=10.4) sim_rate=13274 (inst/sec) elapsed = 0:0:04:38 / Tue Mar 22 12:50:50 2016
GPGPU-Sim uArch: cycles simulated: 357000  inst.: 3702592 (ipc=10.4) sim_rate=13270 (inst/sec) elapsed = 0:0:04:39 / Tue Mar 22 12:50:51 2016
GPGPU-Sim uArch: cycles simulated: 358500  inst.: 3716672 (ipc=10.4) sim_rate=13273 (inst/sec) elapsed = 0:0:04:40 / Tue Mar 22 12:50:52 2016
GPGPU-Sim uArch: cycles simulated: 360000  inst.: 3729920 (ipc=10.4) sim_rate=13273 (inst/sec) elapsed = 0:0:04:41 / Tue Mar 22 12:50:53 2016
GPGPU-Sim uArch: cycles simulated: 361000  inst.: 3739488 (ipc=10.4) sim_rate=13260 (inst/sec) elapsed = 0:0:04:42 / Tue Mar 22 12:50:54 2016
GPGPU-Sim PTX: 3800000 instructions simulated : ctaid=(66,0,0) tid=(223,0,0)
GPGPU-Sim uArch: cycles simulated: 362500  inst.: 3753952 (ipc=10.4) sim_rate=13264 (inst/sec) elapsed = 0:0:04:43 / Tue Mar 22 12:50:55 2016
GPGPU-Sim uArch: cycles simulated: 363500  inst.: 3763040 (ipc=10.4) sim_rate=13250 (inst/sec) elapsed = 0:0:04:44 / Tue Mar 22 12:50:56 2016
GPGPU-Sim uArch: cycles simulated: 365000  inst.: 3776608 (ipc=10.3) sim_rate=13251 (inst/sec) elapsed = 0:0:04:45 / Tue Mar 22 12:50:57 2016
GPGPU-Sim uArch: cycles simulated: 366000  inst.: 3787168 (ipc=10.3) sim_rate=13241 (inst/sec) elapsed = 0:0:04:46 / Tue Mar 22 12:50:58 2016
GPGPU-Sim uArch: cycles simulated: 367500  inst.: 3799936 (ipc=10.3) sim_rate=13240 (inst/sec) elapsed = 0:0:04:47 / Tue Mar 22 12:50:59 2016
GPGPU-Sim uArch: cycles simulated: 368500  inst.: 3809856 (ipc=10.3) sim_rate=13228 (inst/sec) elapsed = 0:0:04:48 / Tue Mar 22 12:51:00 2016
GPGPU-Sim uArch: cycles simulated: 370000  inst.: 3823360 (ipc=10.3) sim_rate=13229 (inst/sec) elapsed = 0:0:04:49 / Tue Mar 22 12:51:01 2016
GPGPU-Sim uArch: cycles simulated: 371500  inst.: 3837984 (ipc=10.3) sim_rate=13234 (inst/sec) elapsed = 0:0:04:50 / Tue Mar 22 12:51:02 2016
GPGPU-Sim uArch: cycles simulated: 372500  inst.: 3848480 (ipc=10.3) sim_rate=13225 (inst/sec) elapsed = 0:0:04:51 / Tue Mar 22 12:51:03 2016
GPGPU-Sim PTX: 3900000 instructions simulated : ctaid=(66,0,0) tid=(31,0,0)
GPGPU-Sim uArch: cycles simulated: 374000  inst.: 3864672 (ipc=10.3) sim_rate=13235 (inst/sec) elapsed = 0:0:04:52 / Tue Mar 22 12:51:04 2016
GPGPU-Sim uArch: cycles simulated: 375500  inst.: 3889312 (ipc=10.4) sim_rate=13274 (inst/sec) elapsed = 0:0:04:53 / Tue Mar 22 12:51:05 2016
GPGPU-Sim uArch: cycles simulated: 377000  inst.: 3909664 (ipc=10.4) sim_rate=13298 (inst/sec) elapsed = 0:0:04:54 / Tue Mar 22 12:51:06 2016
GPGPU-Sim uArch: cycles simulated: 378500  inst.: 3931328 (ipc=10.4) sim_rate=13326 (inst/sec) elapsed = 0:0:04:55 / Tue Mar 22 12:51:07 2016
GPGPU-Sim PTX: 4000000 instructions simulated : ctaid=(56,0,0) tid=(127,0,0)
GPGPU-Sim uArch: cycles simulated: 380500  inst.: 3957632 (ipc=10.4) sim_rate=13370 (inst/sec) elapsed = 0:0:04:56 / Tue Mar 22 12:51:08 2016
GPGPU-Sim uArch: cycles simulated: 381500  inst.: 3972256 (ipc=10.4) sim_rate=13374 (inst/sec) elapsed = 0:0:04:57 / Tue Mar 22 12:51:09 2016
GPGPU-Sim uArch: cycles simulated: 382500  inst.: 3987232 (ipc=10.4) sim_rate=13379 (inst/sec) elapsed = 0:0:04:58 / Tue Mar 22 12:51:10 2016
GPGPU-Sim uArch: cycles simulated: 384000  inst.: 4001632 (ipc=10.4) sim_rate=13383 (inst/sec) elapsed = 0:0:04:59 / Tue Mar 22 12:51:11 2016
GPGPU-Sim uArch: cycles simulated: 386000  inst.: 4021600 (ipc=10.4) sim_rate=13405 (inst/sec) elapsed = 0:0:05:00 / Tue Mar 22 12:51:12 2016
GPGPU-Sim uArch: cycles simulated: 387500  inst.: 4036736 (ipc=10.4) sim_rate=13411 (inst/sec) elapsed = 0:0:05:01 / Tue Mar 22 12:51:13 2016
GPGPU-Sim PTX: 4100000 instructions simulated : ctaid=(86,0,0) tid=(95,0,0)
GPGPU-Sim uArch: cycles simulated: 389000  inst.: 4051104 (ipc=10.4) sim_rate=13414 (inst/sec) elapsed = 0:0:05:02 / Tue Mar 22 12:51:14 2016
GPGPU-Sim uArch: cycles simulated: 390500  inst.: 4065440 (ipc=10.4) sim_rate=13417 (inst/sec) elapsed = 0:0:05:03 / Tue Mar 22 12:51:15 2016
GPGPU-Sim uArch: cycles simulated: 392000  inst.: 4079648 (ipc=10.4) sim_rate=13419 (inst/sec) elapsed = 0:0:05:04 / Tue Mar 22 12:51:16 2016
GPGPU-Sim uArch: cycles simulated: 393500  inst.: 4095584 (ipc=10.4) sim_rate=13428 (inst/sec) elapsed = 0:0:05:05 / Tue Mar 22 12:51:17 2016
GPGPU-Sim uArch: cycles simulated: 394500  inst.: 4103328 (ipc=10.4) sim_rate=13409 (inst/sec) elapsed = 0:0:05:06 / Tue Mar 22 12:51:18 2016
GPGPU-Sim uArch: cycles simulated: 396500  inst.: 4124096 (ipc=10.4) sim_rate=13433 (inst/sec) elapsed = 0:0:05:07 / Tue Mar 22 12:51:19 2016
GPGPU-Sim uArch: cycles simulated: 398000  inst.: 4138400 (ipc=10.4) sim_rate=13436 (inst/sec) elapsed = 0:0:05:08 / Tue Mar 22 12:51:20 2016
GPGPU-Sim PTX: 4200000 instructions simulated : ctaid=(85,0,0) tid=(31,0,0)
GPGPU-Sim uArch: cycles simulated: 399500  inst.: 4152960 (ipc=10.4) sim_rate=13440 (inst/sec) elapsed = 0:0:05:09 / Tue Mar 22 12:51:21 2016
GPGPU-Sim uArch: cycles simulated: 401000  inst.: 4167840 (ipc=10.4) sim_rate=13444 (inst/sec) elapsed = 0:0:05:10 / Tue Mar 22 12:51:22 2016
GPGPU-Sim uArch: cycles simulated: 402000  inst.: 4177120 (ipc=10.4) sim_rate=13431 (inst/sec) elapsed = 0:0:05:11 / Tue Mar 22 12:51:23 2016
GPGPU-Sim uArch: cycles simulated: 403500  inst.: 4191104 (ipc=10.4) sim_rate=13433 (inst/sec) elapsed = 0:0:05:12 / Tue Mar 22 12:51:24 2016
GPGPU-Sim uArch: cycles simulated: 404500  inst.: 4201408 (ipc=10.4) sim_rate=13423 (inst/sec) elapsed = 0:0:05:13 / Tue Mar 22 12:51:25 2016
GPGPU-Sim uArch: cycles simulated: 406000  inst.: 4215360 (ipc=10.4) sim_rate=13424 (inst/sec) elapsed = 0:0:05:14 / Tue Mar 22 12:51:26 2016
GPGPU-Sim uArch: cycles simulated: 407000  inst.: 4226400 (ipc=10.4) sim_rate=13417 (inst/sec) elapsed = 0:0:05:15 / Tue Mar 22 12:51:27 2016
[...]
GPGPU-Sim PTX: 14900000 instructions simulated : ctaid=(169,0,0) tid=(255,0,0)
GPGPU-Sim uArch: Shader 8 finished CTA #5 (1319035,0), 5 CTAs running
GPGPU-Sim uArch: core:  8, cta: 5 initialized @(1319036,0)
GPGPU-Sim uArch: cycles simulated: 1319500  inst.: 14773792 (ipc=11.2) sim_rate=14642 (inst/sec) elapsed = 0:0:16:49 / Tue Mar 22 13:03:01 2016
GPGPU-Sim uArch: Shader 13 finished CTA #5 (1319697,0), 5 CTAs running
GPGPU-Sim uArch: core: 13, cta: 5 initialized @(1319698,0)
GPGPU-Sim uArch: Shader 10 finished CTA #5 (1319699,0), 5 CTAs running
GPGPU-Sim uArch: core: 10, cta: 5 initialized @(1319700,0)
GPGPU-Sim uArch: cycles simulated: 1321000  inst.: 14814592 (ipc=11.2) sim_rate=14667 (inst/sec) elapsed = 0:0:16:50 / Tue Mar 22 13:03:02 2016
GPGPU-Sim uArch: Shader 5 finished CTA #5 (1321146,0), 5 CTAs running
GPGPU-Sim uArch: core:  5, cta: 5 initialized @(1321147,0)
GPGPU-Sim PTX: 15000000 instructions simulated : ctaid=(251,0,0) tid=(95,0,0)
GPGPU-Sim uArch: cycles simulated: 1322000  inst.: 14839872 (ipc=11.2) sim_rate=14678 (inst/sec) elapsed = 0:0:16:51 / Tue Mar 22 13:03:03 2016
GPGPU-Sim uArch: cycles simulated: 1323000  inst.: 14864416 (ipc=11.2) sim_rate=14688 (inst/sec) elapsed = 0:0:16:52 / Tue Mar 22 13:03:04 2016
GPGPU-Sim uArch: Shader 4 finished CTA #5 (1323238,0), 5 CTAs running
GPGPU-Sim uArch: core:  4, cta: 5 initialized @(1323239,0)
GPGPU-Sim uArch: Shader 11 finished CTA #5 (1323566,0), 5 CTAs running
GPGPU-Sim uArch: core: 11, cta: 5 initialized @(1323567,0)
GPGPU-Sim uArch: Shader 14 finished CTA #5 (1323699,0), 5 CTAs running
GPGPU-Sim uArch: core: 14, cta: 5 initialized @(1323700,0)
GPGPU-Sim uArch: cycles simulated: 1324000  inst.: 14901120 (ipc=11.3) sim_rate=14709 (inst/sec) elapsed = 0:0:16:53 / Tue Mar 22 13:03:05 2016
GPGPU-Sim PTX: 15100000 instructions simulated : ctaid=(194,0,0) tid=(127,0,0)
GPGPU-Sim uArch: cycles simulated: 1325000  inst.: 14925824 (ipc=11.3) sim_rate=14719 (inst/sec) elapsed = 0:0:16:54 / Tue Mar 22 13:03:06 2016
GPGPU-Sim uArch: Shader 3 finished CTA #5 (1325792,0), 5 CTAs running
GPGPU-Sim uArch: core:  3, cta: 5 initialized @(1325793,0)
GPGPU-Sim uArch: Shader 2 finished CTA #5 (1325808,0), 5 CTAs running
GPGPU-Sim uArch: core:  2, cta: 5 initialized @(1325809,0)
GPGPU-Sim uArch: Shader 0 finished CTA #5 (1325900,0), 5 CTAs running
GPGPU-Sim uArch: core:  0, cta: 5 initialized @(1325901,0)
GPGPU-Sim uArch: cycles simulated: 1326000  inst.: 14946144 (ipc=11.3) sim_rate=14725 (inst/sec) elapsed = 0:0:16:55 / Tue Mar 22 13:03:07 2016
GPGPU-Sim uArch: cycles simulated: 1327000  inst.: 14971296 (ipc=11.3) sim_rate=14735 (inst/sec) elapsed = 0:0:16:56 / Tue Mar 22 13:03:08 2016
GPGPU-Sim uArch: Shader 1 finished CTA #5 (1327012,0), 5 CTAs running
GPGPU-Sim uArch: core:  1, cta: 5 initialized @(1327013,0)
GPGPU-Sim uArch: Shader 6 finished CTA #5 (1327201,0), 5 CTAs running
GPGPU-Sim uArch: core:  6, cta: 5 initialized @(1327202,0)
GPGPU-Sim uArch: cycles simulated: 1328000  inst.: 14989792 (ipc=11.3) sim_rate=14739 (inst/sec) elapsed = 0:0:16:57 / Tue Mar 22 13:03:09 2016
GPGPU-Sim uArch: cycles simulated: 1329000  inst.: 15001056 (ipc=11.3) sim_rate=14735 (inst/sec) elapsed = 0:0:16:58 / Tue Mar 22 13:03:10 2016
GPGPU-Sim uArch: Shader 7 finished CTA #5 (1330043,0), 5 CTAs running
GPGPU-Sim uArch: core:  7, cta: 5 initialized @(1330044,0)
GPGPU-Sim PTX: 15200000 instructions simulated : ctaid=(268,0,0) tid=(31,0,0)
GPGPU-Sim uArch: Shader 12 finished CTA #5 (1330466,0), 5 CTAs running
GPGPU-Sim uArch: core: 12, cta: 5 initialized @(1330467,0)
GPGPU-Sim uArch: cycles simulated: 1330500  inst.: 15027040 (ipc=11.3) sim_rate=14746 (inst/sec) elapsed = 0:0:16:59 / Tue Mar 22 13:03:11 2016
GPGPU-Sim uArch: cycles simulated: 1331500  inst.: 15039968 (ipc=11.3) sim_rate=14745 (inst/sec) elapsed = 0:0:17:00 / Tue Mar 22 13:03:12 2016
GPGPU-Sim uArch: cycles simulated: 1332500  inst.: 15048864 (ipc=11.3) sim_rate=14739 (inst/sec) elapsed = 0:0:17:01 / Tue Mar 22 13:03:13 2016
GPGPU-Sim uArch: cycles simulated: 1333500  inst.: 15058272 (ipc=11.3) sim_rate=14734 (inst/sec) elapsed = 0:0:17:02 / Tue Mar 22 13:03:14 2016
GPGPU-Sim uArch: cycles simulated: 1334500  inst.: 15068896 (ipc=11.3) sim_rate=14730 (inst/sec) elapsed = 0:0:17:03 / Tue Mar 22 13:03:15 2016
GPGPU-Sim uArch: cycles simulated: 1335500  inst.: 15076992 (ipc=11.3) sim_rate=14723 (inst/sec) elapsed = 0:0:17:04 / Tue Mar 22 13:03:16 2016
GPGPU-Sim uArch: cycles simulated: 1336500  inst.: 15085920 (ipc=11.3) sim_rate=14717 (inst/sec) elapsed = 0:0:17:05 / Tue Mar 22 13:03:17 2016
GPGPU-Sim uArch: cycles simulated: 1337500  inst.: 15094944 (ipc=11.3) sim_rate=14712 (inst/sec) elapsed = 0:0:17:06 / Tue Mar 22 13:03:18 2016
GPGPU-Sim uArch: cycles simulated: 1338500  inst.: 15103584 (ipc=11.3) sim_rate=14706 (inst/sec) elapsed = 0:0:17:07 / Tue Mar 22 13:03:19 2016
GPGPU-Sim uArch: cycles simulated: 1339500  inst.: 15114368 (ipc=11.3) sim_rate=14702 (inst/sec) elapsed = 0:0:17:08 / Tue Mar 22 13:03:20 2016
GPGPU-Sim PTX: 15300000 instructions simulated : ctaid=(267,0,0) tid=(223,0,0)
GPGPU-Sim uArch: cycles simulated: 1340500  inst.: 15122144 (ipc=11.3) sim_rate=14695 (inst/sec) elapsed = 0:0:17:09 / Tue Mar 22 13:03:21 2016
GPGPU-Sim uArch: cycles simulated: 1342000  inst.: 15136128 (ipc=11.3) sim_rate=14695 (inst/sec) elapsed = 0:0:17:10 / Tue Mar 22 13:03:22 2016
GPGPU-Sim uArch: cycles simulated: 1343000  inst.: 15146688 (ipc=11.3) sim_rate=14691 (inst/sec) elapsed = 0:0:17:11 / Tue Mar 22 13:03:23 2016
GPGPU-Sim uArch: cycles simulated: 1344000  inst.: 15154432 (ipc=11.3) sim_rate=14684 (inst/sec) elapsed = 0:0:17:12 / Tue Mar 22 13:03:24 2016
GPGPU-Sim uArch: cycles simulated: 1345000  inst.: 15163872 (ipc=11.3) sim_rate=14679 (inst/sec) elapsed = 0:0:17:13 / Tue Mar 22 13:03:25 2016
GPGPU-Sim uArch: cycles simulated: 1346000  inst.: 15175392 (ipc=11.3) sim_rate=14676 (inst/sec) elapsed = 0:0:17:14 / Tue Mar 22 13:03:26 2016
GPGPU-Sim uArch: cycles simulated: 1347000  inst.: 15185120 (ipc=11.3) sim_rate=14671 (inst/sec) elapsed = 0:0:17:15 / Tue Mar 22 13:03:27 2016
GPGPU-Sim uArch: cycles simulated: 1349000  inst.: 15205120 (ipc=11.3) sim_rate=14676 (inst/sec) elapsed = 0:0:17:16 / Tue Mar 22 13:03:28 2016
GPGPU-Sim uArch: cycles simulated: 1350500  inst.: 15218560 (ipc=11.3) sim_rate=14675 (inst/sec) elapsed = 0:0:17:17 / Tue Mar 22 13:03:29 2016
GPGPU-Sim PTX: 15400000 instructions simulated : ctaid=(188,0,0) tid=(255,0,0)
GPGPU-Sim uArch: cycles simulated: 1352000  inst.: 15231712 (ipc=11.3) sim_rate=14674 (inst/sec) elapsed = 0:0:17:18 / Tue Mar 22 13:03:30 2016
GPGPU-Sim uArch: cycles simulated: 1353500  inst.: 15246656 (ipc=11.3) sim_rate=14674 (inst/sec) elapsed = 0:0:17:19 / Tue Mar 22 13:03:31 2016
GPGPU-Sim uArch: cycles simulated: 1354500  inst.: 15255808 (ipc=11.3) sim_rate=14669 (inst/sec) elapsed = 0:0:17:20 / Tue Mar 22 13:03:32 2016
GPGPU-Sim uArch: cycles simulated: 1355500  inst.: 15267072 (ipc=11.3) sim_rate=14665 (inst/sec) elapsed = 0:0:17:21 / Tue Mar 22 13:03:33 2016
GPGPU-Sim uArch: cycles simulated: 1357000  inst.: 15282336 (ipc=11.3) sim_rate=14666 (inst/sec) elapsed = 0:0:17:22 / Tue Mar 22 13:03:34 2016
GPGPU-Sim uArch: cycles simulated: 1358000  inst.: 15292096 (ipc=11.3) sim_rate=14661 (inst/sec) elapsed = 0:0:17:23 / Tue Mar 22 13:03:35 2016
GPGPU-Sim uArch: cycles simulated: 1359000  inst.: 15301472 (ipc=11.3) sim_rate=14656 (inst/sec) elapsed = 0:0:17:24 / Tue Mar 22 13:03:36 2016
GPGPU-Sim uArch: cycles simulated: 1360000  inst.: 15310112 (ipc=11.3) sim_rate=14650 (inst/sec) elapsed = 0:0:17:25 / Tue Mar 22 13:03:37 2016
GPGPU-Sim PTX: 15500000 instructions simulated : ctaid=(264,0,0) tid=(31,0,0)
GPGPU-Sim uArch: cycles simulated: 1361500  inst.: 15327456 (ipc=11.3) sim_rate=14653 (inst/sec) elapsed = 0:0:17:26 / Tue Mar 22 13:03:38 2016
GPGPU-Sim uArch: cycles simulated: 1362500  inst.: 15336064 (ipc=11.3) sim_rate=14647 (inst/sec) elapsed = 0:0:17:27 / Tue Mar 22 13:03:39 2016
GPGPU-Sim uArch: cycles simulated: 1363500  inst.: 15345856 (ipc=11.3) sim_rate=14642 (inst/sec) elapsed = 0:0:17:28 / Tue Mar 22 13:03:40 2016
GPGPU-Sim uArch: cycles simulated: 1364500  inst.: 15355200 (ipc=11.3) sim_rate=14637 (inst/sec) elapsed = 0:0:17:29 / Tue Mar 22 13:03:41 2016
GPGPU-Sim uArch: cycles simulated: 1366000  inst.: 15370848 (ipc=11.3) sim_rate=14638 (inst/sec) elapsed = 0:0:17:30 / Tue Mar 22 13:03:42 2016
GPGPU-Sim uArch: cycles simulated: 1367000  inst.: 15379776 (ipc=11.3) sim_rate=14633 (inst/sec) elapsed = 0:0:17:31 / Tue Mar 22 13:03:43 2016
GPGPU-Sim uArch: cycles simulated: 1368000  inst.: 15389536 (ipc=11.2) sim_rate=14628 (inst/sec) elapsed = 0:0:17:32 / Tue Mar 22 13:03:44 2016
GPGPU-Sim uArch: cycles simulated: 1369500  inst.: 15404032 (ipc=11.2) sim_rate=14628 (inst/sec) elapsed = 0:0:17:33 / Tue Mar 22 13:03:45 2016
GPGPU-Sim uArch: cycles simulated: 1370500  inst.: 15413472 (ipc=11.2) sim_rate=14623 (inst/sec) elapsed = 0:0:17:34 / Tue Mar 22 13:03:46 2016
GPGPU-Sim PTX: 15600000 instructions simulated : ctaid=(266,0,0) tid=(159,0,0)
GPGPU-Sim uArch: cycles simulated: 1371500  inst.: 15423456 (ipc=11.2) sim_rate=14619 (inst/sec) elapsed = 0:0:17:35 / Tue Mar 22 13:03:47 2016
GPGPU-Sim uArch: cycles simulated: 1372500  inst.: 15433888 (ipc=11.2) sim_rate=14615 (inst/sec) elapsed = 0:0:17:36 / Tue Mar 22 13:03:48 2016
GPGPU-Sim uArch: cycles simulated: 1374000  inst.: 15448512 (ipc=11.2) sim_rate=14615 (inst/sec) elapsed = 0:0:17:37 / Tue Mar 22 13:03:49 2016
GPGPU-Sim uArch: cycles simulated: 1375000  inst.: 15458496 (ipc=11.2) sim_rate=14611 (inst/sec) elapsed = 0:0:17:38 / Tue Mar 22 13:03:50 2016
GPGPU-Sim uArch: cycles simulated: 1376000  inst.: 15468480 (ipc=11.2) sim_rate=14606 (inst/sec) elapsed = 0:0:17:39 / Tue Mar 22 13:03:51 2016
GPGPU-Sim uArch: cycles simulated: 1377000  inst.: 15478368 (ipc=11.2) sim_rate=14602 (inst/sec) elapsed = 0:0:17:40 / Tue Mar 22 13:03:52 2016
GPGPU-Sim uArch: cycles simulated: 1378500  inst.: 15491712 (ipc=11.2) sim_rate=14601 (inst/sec) elapsed = 0:0:17:41 / Tue Mar 22 13:03:53 2016
GPGPU-Sim uArch: cycles simulated: 1379500  inst.: 15501728 (ipc=11.2) sim_rate=14596 (inst/sec) elapsed = 0:0:17:42 / Tue Mar 22 13:03:54 2016
GPGPU-Sim uArch: cycles simulated: 1380500  inst.: 15511808 (ipc=11.2) sim_rate=14592 (inst/sec) elapsed = 0:0:17:43 / Tue Mar 22 13:03:55 2016
GPGPU-Sim PTX: 15700000 instructions simulated : ctaid=(187,0,0) tid=(191,0,0)
GPGPU-Sim uArch: cycles simulated: 1382000  inst.: 15526048 (ipc=11.2) sim_rate=14592 (inst/sec) elapsed = 0:0:17:44 / Tue Mar 22 13:03:56 2016
GPGPU-Sim uArch: cycles simulated: 1383000  inst.: 15534816 (ipc=11.2) sim_rate=14586 (inst/sec) elapsed = 0:0:17:45 / Tue Mar 22 13:03:57 2016
GPGPU-Sim uArch: cycles simulated: 1384000  inst.: 15545760 (ipc=11.2) sim_rate=14583 (inst/sec) elapsed = 0:0:17:46 / Tue Mar 22 13:03:58 2016
GPGPU-Sim uArch: cycles simulated: 1385500  inst.: 15558368 (ipc=11.2) sim_rate=14581 (inst/sec) elapsed = 0:0:17:47 / Tue Mar 22 13:03:59 2016
GPGPU-Sim uArch: cycles simulated: 1386500  inst.: 15567648 (ipc=11.2) sim_rate=14576 (inst/sec) elapsed = 0:0:17:48 / Tue Mar 22 13:04:00 2016
GPGPU-Sim uArch: cycles simulated: 1387500  inst.: 15579584 (ipc=11.2) sim_rate=14573 (inst/sec) elapsed = 0:0:17:49 / Tue Mar 22 13:04:01 2016
GPGPU-Sim uArch: cycles simulated: 1388500  inst.: 15588096 (ipc=11.2) sim_rate=14568 (inst/sec) elapsed = 0:0:17:50 / Tue Mar 22 13:04:02 2016
GPGPU-Sim uArch: cycles simulated: 1390000  inst.: 15602464 (ipc=11.2) sim_rate=14568 (inst/sec) elapsed = 0:0:17:51 / Tue Mar 22 13:04:03 2016
GPGPU-Sim uArch: cycles simulated: 1391000  inst.: 15612640 (ipc=11.2) sim_rate=14564 (inst/sec) elapsed = 0:0:17:52 / Tue Mar 22 13:04:04 2016
GPGPU-Sim PTX: 15800000 instructions simulated : ctaid=(256,0,0) tid=(31,0,0)
GPGPU-Sim uArch: cycles simulated: 1392000  inst.: 15624928 (ipc=11.2) sim_rate=14561 (inst/sec) elapsed = 0:0:17:53 / Tue Mar 22 13:04:05 2016
GPGPU-Sim uArch: cycles simulated: 1393500  inst.: 15642208 (ipc=11.2) sim_rate=14564 (inst/sec) elapsed = 0:0:17:54 / Tue Mar 22 13:04:06 2016
GPGPU-Sim uArch: cycles simulated: 1394500  inst.: 15656256 (ipc=11.2) sim_rate=14563 (inst/sec) elapsed = 0:0:17:55 / Tue Mar 22 13:04:07 2016
GPGPU-Sim uArch: Shader 9 finished CTA #0 (1395395,0), 5 CTAs running
GPGPU-Sim uArch: core:  9, cta: 0 initialized @(1395396,0)
GPGPU-Sim uArch: cycles simulated: 1395500  inst.: 15674816 (ipc=11.2) sim_rate=14567 (inst/sec) elapsed = 0:0:17:56 / Tue Mar 22 13:04:08 2016
GPGPU-Sim uArch: cycles simulated: 1397000  inst.: 15699840 (ipc=11.2) sim_rate=14577 (inst/sec) elapsed = 0:0:17:57 / Tue Mar 22 13:04:09 2016
GPGPU-Sim uArch: cycles simulated: 1398000  inst.: 15716704 (ipc=11.2) sim_rate=14579 (inst/sec) elapsed = 0:0:17:58 / Tue Mar 22 13:04:10 2016
GPGPU-Sim PTX: 15900000 instructions simulated : ctaid=(270,0,0) tid=(223,0,0)
GPGPU-Sim uArch: cycles simulated: 1399500  inst.: 15748256 (ipc=11.3) sim_rate=14595 (inst/sec) elapsed = 0:0:17:59 / Tue Mar 22 13:04:11 2016
GPGPU-Sim uArch: Shader 13 finished CTA #0 (1399614,0), 5 CTAs running
GPGPU-Sim uArch: core: 13, cta: 0 initialized @(1399615,0)
GPGPU-Sim uArch: Shader 10 finished CTA #0 (1400084,0), 5 CTAs running
GPGPU-Sim uArch: core: 10, cta: 0 initialized @(1400085,0)
GPGPU-Sim uArch: cycles simulated: 1401000  inst.: 15786688 (ipc=11.3) sim_rate=14617 (inst/sec) elapsed = 0:0:18:00 / Tue Mar 22 13:04:12 2016
GPGPU-Sim PTX: 16000000 instructions simulated : ctaid=(203,0,0) tid=(191,0,0)
GPGPU-Sim uArch: cycles simulated: 1402500  inst.: 15823808 (ipc=11.3) sim_rate=14638 (inst/sec) elapsed = 0:0:18:01 / Tue Mar 22 13:04:13 2016
GPGPU-Sim uArch: Shader 8 finished CTA #0 (1403154,0), 5 CTAs running
GPGPU-Sim uArch: core:  8, cta: 0 initialized @(1403155,0)
GPGPU-Sim uArch: Shader 0 finished CTA #0 (1403362,0), 5 CTAs running
GPGPU-Sim uArch: core:  0, cta: 0 initialized @(1403363,0)
GPGPU-Sim uArch: cycles simulated: 1403500  inst.: 15855904 (ipc=11.3) sim_rate=14654 (inst/sec) elapsed = 0:0:18:02 / Tue Mar 22 13:04:14 2016
GPGPU-Sim uArch: Shader 3 finished CTA #0 (1403584,0), 5 CTAs running
GPGPU-Sim uArch: core:  3, cta: 0 initialized @(1403585,0)
GPGPU-Sim uArch: Shader 14 finished CTA #0 (1404089,0), 5 CTAs running
GPGPU-Sim uArch: core: 14, cta: 0 initialized @(1404090,0)
GPGPU-Sim uArch: Shader 1 finished CTA #0 (1404531,0), 5 CTAs running
GPGPU-Sim uArch: core:  1, cta: 0 initialized @(1404532,0)
GPGPU-Sim uArch: Shader 5 finished CTA #0 (1404801,0), 5 CTAs running
GPGPU-Sim uArch: core:  5, cta: 0 initialized @(1404802,0)
GPGPU-Sim uArch: cycles simulated: 1405000  inst.: 15898496 (ipc=11.3) sim_rate=14680 (inst/sec) elapsed = 0:0:18:03 / Tue Mar 22 13:04:15 2016
GPGPU-Sim uArch: Shader 4 finished CTA #0 (1405195,0), 5 CTAs running
GPGPU-Sim uArch: core:  4, cta: 0 initialized @(1405196,0)
GPGPU-Sim PTX: 16100000 instructions simulated : ctaid=(279,0,0) tid=(31,0,0)
GPGPU-Sim uArch: cycles simulated: 1406500  inst.: 15931136 (ipc=11.3) sim_rate=14696 (inst/sec) elapsed = 0:0:18:04 / Tue Mar 22 13:04:16 2016
GPGPU-Sim uArch: Shader 6 finished CTA #0 (1406682,0), 5 CTAs running
GPGPU-Sim uArch: core:  6, cta: 0 initialized @(1406683,0)
GPGPU-Sim uArch: cycles simulated: 1407500  inst.: 15950560 (ipc=11.3) sim_rate=14700 (inst/sec) elapsed = 0:0:18:05 / Tue Mar 22 13:04:17 2016
GPGPU-Sim uArch: cycles simulated: 1409000  inst.: 15973440 (ipc=11.3) sim_rate=14708 (inst/sec) elapsed = 0:0:18:06 / Tue Mar 22 13:04:18 2016
GPGPU-Sim uArch: Shader 11 finished CTA #0 (1409909,0), 5 CTAs running
GPGPU-Sim uArch: core: 11, cta: 0 initialized @(1409910,0)
GPGPU-Sim uArch: Shader 7 finished CTA #0 (1410089,0), 5 CTAs running
GPGPU-Sim uArch: core:  7, cta: 0 initialized @(1410090,0)
GPGPU-Sim uArch: Shader 2 finished CTA #0 (1410103,0), 5 CTAs running
GPGPU-Sim uArch: core:  2, cta: 0 initialized @(1410104,0)
GPGPU-Sim uArch: cycles simulated: 1410500  inst.: 16005888 (ipc=11.3) sim_rate=14724 (inst/sec) elapsed = 0:0:18:07 / Tue Mar 22 13:04:19 2016
GPGPU-Sim PTX: 16200000 instructions simulated : ctaid=(272,0,0) tid=(159,0,0)
GPGPU-Sim uArch: cycles simulated: 1411500  inst.: 16015712 (ipc=11.3) sim_rate=14720 (inst/sec) elapsed = 0:0:18:08 / Tue Mar 22 13:04:20 2016
GPGPU-Sim uArch: Shader 12 finished CTA #0 (1412554,0), 5 CTAs running
GPGPU-Sim uArch: core: 12, cta: 0 initialized @(1412555,0)
GPGPU-Sim uArch: cycles simulated: 1413000  inst.: 16036448 (ipc=11.3) sim_rate=14725 (inst/sec) elapsed = 0:0:18:09 / Tue Mar 22 13:04:21 2016
GPGPU-Sim uArch: cycles simulated: 1414500  inst.: 16051424 (ipc=11.3) sim_rate=14726 (inst/sec) elapsed = 0:0:18:10 / Tue Mar 22 13:04:22 2016
GPGPU-Sim uArch: cycles simulated: 1416000  inst.: 16067552 (ipc=11.3) sim_rate=14727 (inst/sec) elapsed = 0:0:18:11 / Tue Mar 22 13:04:23 2016
GPGPU-Sim uArch: cycles simulated: 1417000  inst.: 16078176 (ipc=11.3) sim_rate=14723 (inst/sec) elapsed = 0:0:18:12 / Tue Mar 22 13:04:24 2016
GPGPU-Sim uArch: cycles simulated: 1418500  inst.: 16091360 (ipc=11.3) sim_rate=14722 (inst/sec) elapsed = 0:0:18:13 / Tue Mar 22 13:04:25 2016
GPGPU-Sim uArch: cycles simulated: 1419500  inst.: 16101344 (ipc=11.3) sim_rate=14717 (inst/sec) elapsed = 0:0:18:14 / Tue Mar 22 13:04:26 2016
GPGPU-Sim PTX: 16300000 instructions simulated : ctaid=(281,0,0) tid=(223,0,0)
GPGPU-Sim uArch: cycles simulated: 1421000  inst.: 16115904 (ipc=11.3) sim_rate=14717 (inst/sec) elapsed = 0:0:18:15 / Tue Mar 22 13:04:27 2016
GPGPU-Sim uArch: cycles simulated: 1422500  inst.: 16129728 (ipc=11.3) sim_rate=14716 (inst/sec) elapsed = 0:0:18:16 / Tue Mar 22 13:04:28 2016
GPGPU-Sim uArch: cycles simulated: 1423500  inst.: 16140768 (ipc=11.3) sim_rate=14713 (inst/sec) elapsed = 0:0:18:17 / Tue Mar 22 13:04:29 2016
GPGPU-Sim uArch: cycles simulated: 1425000  inst.: 16154144 (ipc=11.3) sim_rate=14712 (inst/sec) elapsed = 0:0:18:18 / Tue Mar 22 13:04:30 2016
GPGPU-Sim uArch: cycles simulated: 1426500  inst.: 16168128 (ipc=11.3) sim_rate=14711 (inst/sec) elapsed = 0:0:18:19 / Tue Mar 22 13:04:31 2016
GPGPU-Sim uArch: cycles simulated: 1427500  inst.: 16177440 (ipc=11.3) sim_rate=14706 (inst/sec) elapsed = 0:0:18:20 / Tue Mar 22 13:04:32 2016
GPGPU-Sim uArch: cycles simulated: 1429000  inst.: 16192864 (ipc=11.3) sim_rate=14707 (inst/sec) elapsed = 0:0:18:21 / Tue Mar 22 13:04:33 2016
GPGPU-Sim uArch: cycles simulated: 1430500  inst.: 16206496 (ipc=11.3) sim_rate=14706 (inst/sec) elapsed = 0:0:18:22 / Tue Mar 22 13:04:34 2016
GPGPU-Sim PTX: 16400000 instructions simulated : ctaid=(206,0,0) tid=(127,0,0)
GPGPU-Sim uArch: cycles simulated: 1432000  inst.: 16221248 (ipc=11.3) sim_rate=14706 (inst/sec) elapsed = 0:0:18:23 / Tue Mar 22 13:04:35 2016
GPGPU-Sim uArch: cycles simulated: 1433500  inst.: 16237280 (ipc=11.3) sim_rate=14707 (inst/sec) elapsed = 0:0:18:24 / Tue Mar 22 13:04:36 2016
GPGPU-Sim uArch: cycles simulated: 1435000  inst.: 16251648 (ipc=11.3) sim_rate=14707 (inst/sec) elapsed = 0:0:18:25 / Tue Mar 22 13:04:37 2016
GPGPU-Sim uArch: cycles simulated: 1436000  inst.: 16260224 (ipc=11.3) sim_rate=14701 (inst/sec) elapsed = 0:0:18:26 / Tue Mar 22 13:04:38 2016
GPGPU-Sim uArch: cycles simulated: 1437500  inst.: 16276704 (ipc=11.3) sim_rate=14703 (inst/sec) elapsed = 0:0:18:27 / Tue Mar 22 13:04:39 2016
GPGPU-Sim uArch: cycles simulated: 1439000  inst.: 16290688 (ipc=11.3) sim_rate=14702 (inst/sec) elapsed = 0:0:18:28 / Tue Mar 22 13:04:40 2016
GPGPU-Sim uArch: cycles simulated: 1440500  inst.: 16307392 (ipc=11.3) sim_rate=14704 (inst/sec) elapsed = 0:0:18:29 / Tue Mar 22 13:04:41 2016
GPGPU-Sim PTX: 16500000 instructions simulated : ctaid=(279,0,0) tid=(223,0,0)
GPGPU-Sim uArch: cycles simulated: 1442000  inst.: 16322016 (ipc=11.3) sim_rate=14704 (inst/sec) elapsed = 0:0:18:30 / Tue Mar 22 13:04:42 2016
GPGPU-Sim uArch: cycles simulated: 1443500  inst.: 16335520 (ipc=11.3) sim_rate=14703 (inst/sec) elapsed = 0:0:18:31 / Tue Mar 22 13:04:43 2016
