

        *** GPGPU-Sim Simulator Version 3.2.2  [build 0] ***


GPGPU-Sim PTX: simulation mode 0 (can change with PTX_SIM_MODE_FUNC environment variable:
               1=functional simulation only, 0=detailed performance simulator)
GPGPU-Sim: Configuration options:

-network_mode                           1 # Interconnection network mode
-inter_config_file   config_fermi_islip.icnt # Interconnection network config file
-gpgpu_ptx_use_cuobjdump                    1 # Use cuobjdump to extract ptx and sass from binaries
-gpgpu_experimental_lib_support                    0 # Try to extract code from cuda libraries [Broken because of unknown cudaGetExportTable]
-gpgpu_ptx_convert_to_ptxplus                    0 # Convert SASS (native ISA) to ptxplus and run ptxplus
-gpgpu_ptx_force_max_capability                   20 # Force maximum compute capability
-gpgpu_ptx_inst_debug_to_file                    0 # Dump executed instructions' debug information to file
-gpgpu_ptx_inst_debug_file       inst_debug.txt # Executed instructions' debug output file
-gpgpu_ptx_inst_debug_thread_uid                    1 # Thread UID for executed instructions' debug output
-gpgpu_simd_model                       1 # 1 = post-dominator
-gpgpu_shader_core_pipeline              1536:32 # shader core pipeline config, i.e., {<nthread>:<warpsize>}
-gpgpu_tex_cache:l1  4:128:24,L:R:m:N:L,F:128:4,128:2 # per-shader L1 texture cache  (READ-ONLY) config  {<nsets>:<bsize>:<assoc>,<rep>:<wr>:<alloc>:<wr_alloc>,<mshr>:<N>:<merge>,<mq>:<rf>}
-gpgpu_const_cache:l1 64:64:2,L:R:f:N:L,A:2:32,4 # per-shader L1 constant memory cache  (READ-ONLY) config  {<nsets>:<bsize>:<assoc>,<rep>:<wr>:<alloc>:<wr_alloc>,<mshr>:<N>:<merge>,<mq>} 
-gpgpu_cache:il1     4:128:4,L:R:f:N:L,A:2:32,4 # shader L1 instruction cache config  {<nsets>:<bsize>:<assoc>,<rep>:<wr>:<alloc>:<wr_alloc>,<mshr>:<N>:<merge>,<mq>} 
-gpgpu_cache:dl1     32:128:4,L:L:m:N:H,A:32:8,8:2,0,1:0:1:1:0:1,1:4:8:16:32:64,/sciclone/data10/hwang07/GPU_RESEARCH/swl/swl_outputs/RESULTS/lrr/ # per-shader L1 data cache config  {<nsets>:<bsize>:<assoc>,<rep>:<wr>:<alloc>:<wr_alloc>,<mshr>:<N>:<merge>,<mq> | none}
-gpgpu_cache:dl1PrefL1                 none # per-shader L1 data cache config  {<nsets>:<bsize>:<assoc>,<rep>:<wr>:<alloc>:<wr_alloc>,<mshr>:<N>:<merge>,<mq> | none}
-gpgpu_cache:dl1PreShared                 none # per-shader L1 data cache config  {<nsets>:<bsize>:<assoc>,<rep>:<wr>:<alloc>:<wr_alloc>,<mshr>:<N>:<merge>,<mq> | none}
-gmem_skip_L1D                          0 # global memory access skip L1D cache (implements -Xptxas -dlcm=cg, default=no skip)
-gpgpu_perfect_mem                      0 # enable perfect memory mode (no cache miss)
-n_regfile_gating_group                    4 # group of lanes that should be read/written together)
-gpgpu_clock_gated_reg_file                    0 # enable clock gated reg file for power calculations
-gpgpu_clock_gated_lanes                    0 # enable clock gated lanes for power calculations
-gpgpu_shader_registers                32768 # Number of registers per shader core. Limits number of concurrent CTAs. (default 8192)
-gpgpu_shader_cta                       8 # Maximum number of concurrent CTAs in shader (default 8)
-gpgpu_num_cta_barriers                   16 # Maximum number of named barriers per CTA (default 16)
-gpgpu_n_clusters                      15 # number of processing clusters
-gpgpu_n_cores_per_cluster                    1 # number of simd cores per cluster
-gpgpu_n_cluster_ejection_buffer_size                    8 # number of packets in ejection buffer
-gpgpu_n_ldst_response_buffer_size                    2 # number of response packets in ld/st unit ejection buffer
-gpgpu_shmem_size                   16384 # Size of shared memory per shader core (default 16kB)
-gpgpu_shmem_size                   49152 # Size of shared memory per shader core (default 16kB)
-gpgpu_shmem_size_PrefL1                16384 # Size of shared memory per shader core (default 16kB)
-gpgpu_shmem_size_PrefShared                16384 # Size of shared memory per shader core (default 16kB)
-gpgpu_shmem_num_banks                   32 # Number of banks in the shared memory in each shader core (default 16)
-gpgpu_shmem_limited_broadcast                    0 # Limit shared memory to do one broadcast per cycle (default on)
-gpgpu_shmem_warp_parts                    1 # Number of portions a warp is divided into for shared memory bank conflict check 
-gpgpu_warpdistro_shader                   -1 # Specify which shader core to collect the warp size distribution from
-gpgpu_warp_issue_shader                    0 # Specify which shader core to collect the warp issue distribution from
-gpgpu_local_mem_map                    1 # Mapping from local memory space address to simulated GPU physical address space (default = enabled)
-gpgpu_num_reg_banks                   16 # Number of register banks (default = 8)
-gpgpu_reg_bank_use_warp_id                    0 # Use warp ID in mapping registers to banks (default = off)
-gpgpu_operand_collector_num_units_sp                    6 # number of collector units (default = 4)
-gpgpu_operand_collector_num_units_sfu                    8 # number of collector units (default = 4)
-gpgpu_operand_collector_num_units_mem                    2 # number of collector units (default = 2)
-gpgpu_operand_collector_num_units_gen                    0 # number of collector units (default = 0)
-gpgpu_operand_collector_num_in_ports_sp                    2 # number of collector unit in ports (default = 1)
-gpgpu_operand_collector_num_in_ports_sfu                    1 # number of collector unit in ports (default = 1)
-gpgpu_operand_collector_num_in_ports_mem                    1 # number of collector unit in ports (default = 1)
-gpgpu_operand_collector_num_in_ports_gen                    0 # number of collector unit in ports (default = 0)
-gpgpu_operand_collector_num_out_ports_sp                    2 # number of collector unit in ports (default = 1)
-gpgpu_operand_collector_num_out_ports_sfu                    1 # number of collector unit in ports (default = 1)
-gpgpu_operand_collector_num_out_ports_mem                    1 # number of collector unit in ports (default = 1)
-gpgpu_operand_collector_num_out_ports_gen                    0 # number of collector unit in ports (default = 0)
-gpgpu_coalesce_arch                   13 # Coalescing arch (default = 13, anything else is off for now)
-gpgpu_num_sched_per_core                    2 # Number of warp schedulers per core
-gpgpu_max_insn_issue_per_warp                    1 # Max number of instructions that can be issued per warp in one cycle by scheduler
-gpgpu_simt_core_sim_order                    1 # Select the simulation order of cores in a cluster (0=Fix, 1=Round-Robin)
-gpgpu_pipeline_widths        2,1,1,2,1,1,2 # Pipeline widths ID_OC_SP,ID_OC_SFU,ID_OC_MEM,OC_EX_SP,OC_EX_SFU,OC_EX_MEM,EX_WB
-gpgpu_num_sp_units                     2 # Number of SP units (default=1)
-gpgpu_num_sfu_units                    1 # Number of SF units (default=1)
-gpgpu_num_mem_units                    1 # Number if ldst units (default=1) WARNING: not hooked up to anything
-gpgpu_scheduler                      lrr # Scheduler configuration: < lrr | gto | two_level_active > If two_level_active:<num_active_warps>:<inner_prioritization>:<outer_prioritization>For complete list of prioritization values see shader.h enum scheduler_prioritization_typeDefault: gto
-gpgpu_dram_scheduler                    1 # 0 = fifo, 1 = FR-FCFS (defaul)
-gpgpu_dram_partition_queues              8:8:8:8 # i2$:$2d:d2$:$2i
-l2_ideal                               0 # Use a ideal L2 cache that always hit
-gpgpu_cache:dl2     64:128:8,L:B:m:W:L,A:32:4,4:0,32 # unified banked L2 data cache config  {<nsets>:<bsize>:<assoc>,<rep>:<wr>:<alloc>:<wr_alloc>,<mshr>:<N>:<merge>,<mq>}
-gpgpu_cache:dl2_texture_only                    0 # L2 cache used for texture only
-gpgpu_n_mem                            6 # number of memory modules (e.g. memory controllers) in gpu
-gpgpu_n_sub_partition_per_mchannel                    2 # number of memory subpartition in each memory module
-gpgpu_n_mem_per_ctrlr                    2 # number of memory chips per memory controller
-gpgpu_memlatency_stat                   14 # track and display latency statistics 0x2 enables MC, 0x4 enables queue logs
-gpgpu_frfcfs_dram_sched_queue_size                   16 # 0 = unlimited (default); # entries per chip
-gpgpu_dram_return_queue_size                  116 # 0 = unlimited (default); # entries per chip
-gpgpu_dram_buswidth                    4 # default = 4 bytes (8 bytes per cycle at DDR)
-gpgpu_dram_burst_length                    8 # Burst length of each DRAM request (default = 4 data bus cycle)
-dram_data_command_freq_ratio                    4 # Frequency ratio between DRAM data bus and command bus (default = 2 times, i.e. DDR)
-gpgpu_dram_timing_opt nbk=16:CCD=2:RRD=6:RCD=12:RAS=28:RP=12:RC=40: CL=12:WL=4:CDLR=5:WR=12:nbkgrp=4:CCDL=3:RTPL=2 # DRAM timing parameters = {nbk:tCCD:tRRD:tRCD:tRAS:tRP:tRC:CL:WL:tCDLR:tWR:nbkgrp:tCCDL:tRTPL}
-rop_latency                          120 # ROP queue latency (default 85)
-dram_latency                         100 # DRAM latency (default 30)
-gpgpu_mem_addr_mapping dramid@8;00000000.00000000.00000000.00000000.0000RRRR.RRRRRRRR.BBBCCCCB.CCSSSSSS # mapping memory address to dram model {dramid@<start bit>;<memory address map>}
-gpgpu_mem_addr_test                    0 # run sweep test to check address mapping for aliased address
-gpgpu_mem_address_mask                    1 # 0 = old addressing mask, 1 = new addressing mask, 2 = new add. mask + flipped bank sel and chip sel bits
-gpuwattch_xml_file  gpuwattch_gtx480.xml # GPUWattch XML file
-power_simulation_enabled                    0 # Turn on power simulator (1=On, 0=Off)
-power_per_cycle_dump                    0 # Dump detailed power output each cycle
-power_trace_enabled                    0 # produce a file for the power trace (1=On, 0=Off)
-power_trace_zlevel                     6 # Compression level of the power trace output log (0=no comp, 9=highest)
-steady_power_levels_enabled                    0 # produce a file for the steady power levels (1=On, 0=Off)
-steady_state_definition                  8:4 # allowed deviation:number of samples
-gpgpu_max_cycle                        0 # terminates gpu simulation early (0 = no limit)
-gpgpu_max_insn                         0 # terminates gpu simulation early (0 = no limit)
-gpgpu_max_cta                          0 # terminates gpu simulation early (0 = no limit)
-gpgpu_runtime_stat                   500 # display runtime statistics such as dram utilization {<freq>:<flag>}
-liveness_message_freq                    1 # Minimum number of seconds between simulation liveness messages (0 = always print)
-gpgpu_flush_l1_cache                    0 # Flush L1 cache at the end of each kernel call
-gpgpu_flush_l2_cache                    0 # Flush L2 cache at the end of each kernel call
-gpgpu_deadlock_detect                    1 # Stop the simulation at deadlock (1=on (default), 0=off)
-gpgpu_ptx_instruction_classification                    0 # if enabled will classify ptx instruction types per kernel (Max 255 kernels now)
-gpgpu_ptx_sim_mode                     0 # Select between Performance (default) or Functional simulation (1)
-gpgpu_clock_domains 700.0:700.0:700.0:924.0 # Clock Domain Frequencies in MhZ {<Core Clock>:<ICNT Clock>:<L2 Clock>:<DRAM Clock>}
-gpgpu_max_concurrent_kernel                    8 # maximum kernels that can run concurrently on GPU
-gpgpu_cflog_interval                    0 # Interval between each snapshot in control flow logger
-visualizer_enabled                     0 # Turn on visualizer output (1=On, 0=Off)
-visualizer_outputfile                 NULL # Specifies the output log file for visualizer
-visualizer_zlevel                      6 # Compression level of the visualizer output log (0=no comp, 9=highest)
-trace_enabled                          0 # Turn on traces
-trace_components                    none # comma seperated list of traces to enable. Complete list found in trace_streams.tup. Default none
-trace_sampling_core                    0 # The core which is printed using CORE_DPRINTF. Default 0
-trace_sampling_memory_partition                   -1 # The memory partition which is printed using MEMPART_DPRINTF. Default -1 (i.e. all)
-enable_ptx_file_line_stats                    1 # Turn on PTX source line statistic profiling. (1 = On)
-ptx_line_stats_filename gpgpu_inst_stats.txt # Output file for PTX source line statistics.
-save_embedded_ptx                      0 # saves ptx files embedded in binary as <n>.ptx
-keep                                   0 # keep intermediate files created by GPGPU-Sim when interfacing with external programs
-gpgpu_ptx_save_converted_ptxplus                    0 # Saved converted ptxplus to a file
-ptx_opcode_latency_int         4,13,4,5,145 # Opcode latencies for integers <ADD,MAX,MUL,MAD,DIV>Default 1,1,19,25,145
-ptx_opcode_latency_fp          4,13,4,5,39 # Opcode latencies for single precision floating points <ADD,MAX,MUL,MAD,DIV>Default 1,1,1,1,30
-ptx_opcode_latency_dp         8,19,8,8,330 # Opcode latencies for double precision floating points <ADD,MAX,MUL,MAD,DIV>Default 8,8,8,8,335
-ptx_opcode_initiation_int            1,2,2,1,8 # Opcode initiation intervals for integers <ADD,MAX,MUL,MAD,DIV>Default 1,1,4,4,32
-ptx_opcode_initiation_fp            1,2,1,1,4 # Opcode initiation intervals for single precision floating points <ADD,MAX,MUL,MAD,DIV>Default 1,1,1,1,5
-ptx_opcode_initiation_dp         8,16,8,8,130 # Opcode initiation intervals for double precision floating points <ADD,MAX,MUL,MAD,DIV>Default 8,8,8,8,130
DRAM Timing Options:
nbk                                    16 # number of banks
CCD                                     2 # column to column delay
RRD                                     6 # minimal delay between activation of rows in different banks
RCD                                    12 # row to column delay
RAS                                    28 # time needed to activate row
RP                                     12 # time needed to precharge (deactivate) row
RC                                     40 # row cycle time
CDLR                                    5 # switching from write to read (changes tWTR)
WR                                     12 # last data-in to row precharge
CL                                     12 # CAS latency
WL                                      4 # Write latency
nbkgrp                                  4 # number of bank groups
CCDL                                    3 # column to column delay between accesses to different bank groups
RTPL                                    2 # read to precharge delay between accesses to different bank groups
Total number of memory sub partition = 12
addr_dec_mask[CHIP]  = 0000000000000000 	high:64 low:0
addr_dec_mask[BK]    = 000000000000e100 	high:16 low:8
addr_dec_mask[ROW]   = 000000000fff0000 	high:28 low:16
addr_dec_mask[COL]   = 0000000000001eff 	high:13 low:0
addr_dec_mask[BURST] = 000000000000003f 	high:6 low:0
sub_partition_id_mask = 0000000000000100
GPGPU-Sim uArch: clock freqs: 700000000.000000:700000000.000000:700000000.000000:924000000.000000
GPGPU-Sim uArch: clock periods: 0.00000000142857142857:0.00000000142857142857:0.00000000142857142857:0.00000000108225108225
*** Initializing Memory Statistics ***
GPGPU-Sim uArch: interconnect node map (shaderID+MemID to icntID)
GPGPU-Sim uArch: Memory nodes ID start from index: 15
GPGPU-Sim uArch:    0   1   2   3   4
GPGPU-Sim uArch:    5   6   7   8   9
GPGPU-Sim uArch:   10  11  12  13  14
GPGPU-Sim uArch:   15  16  17  18  19
GPGPU-Sim uArch:   20  21  22  23  24
GPGPU-Sim uArch:   25  26
GPGPU-Sim uArch: interconnect node reverse map (icntID to shaderID+MemID)
GPGPU-Sim uArch: Memory nodes start from ID: 15
GPGPU-Sim uArch:    0   1   2   3   4
GPGPU-Sim uArch:    5   6   7   8   9
GPGPU-Sim uArch:   10  11  12  13  14
GPGPU-Sim uArch:   15  16  17  18  19
GPGPU-Sim uArch:   20  21  22  23  24
GPGPU-Sim uArch:   25  26
63bd3ec3b64f8e638c2c8523e2878dda  /sciclone/data10/hwang07/adwait/applications/benchmarks/rodinia/cuda/particlefilter/gpgpu_ptx_sim__particlefilter_float
GPGPU-Sim uArch: performance model initialization complete.
GPGPU-Sim PTX: __cudaRegisterFatBinary, fat_cubin_handle = 1, filename=ex_particle_CUDA_float_seq.cu
self exe links to: /sciclone/data10/hwang07/adwait/applications/benchmarks/rodinia/cuda/particlefilter/gpgpu_ptx_sim__particlefilter_float
Running md5sum using "md5sum /sciclone/data10/hwang07/adwait/applications/benchmarks/rodinia/cuda/particlefilter/gpgpu_ptx_sim__particlefilter_float "
Parsing file _cuobjdump_complete_output_GAkLQ4
######### cuobjdump parser ########
## Adding new section PTX
Adding ptx filename: _cuobjdump_1.ptx
Adding arch: sm_13
Adding identifier: ex_particle_CUDA_float_seq.cu
## Adding new section ELF
Adding arch: sm_13
Adding identifier: ex_particle_CUDA_float_seq.cu
Done parsing!!!
GPGPU-Sim PTX: __cudaRegisterFunction _Z17likelihood_kernelPfS_S_PiS0_S_PhS_S_iiiiiiS0_S_ : hostFun 0x0x4014b0, fat_cubin_handle = 1
GPGPU-Sim PTX: encountered texture directive tex_CDF.
GPGPU-Sim PTX: instruction assembly for function '_Z17find_index_kernelPfS_S_S_S_S_S_i'...   done.
GPGPU-Sim PTX: finding reconvergence points for '_Z17find_index_kernelPfS_S_S_S_S_S_i'...
GPGPU-Sim PTX: Finding dominators for '_Z17find_index_kernelPfS_S_S_S_S_S_i'...
GPGPU-Sim PTX: Finding immediate dominators for '_Z17find_index_kernelPfS_S_S_S_S_S_i'...
GPGPU-Sim PTX: Finding postdominators for '_Z17find_index_kernelPfS_S_S_S_S_S_i'...
GPGPU-Sim PTX: Finding immediate postdominators for '_Z17find_index_kernelPfS_S_S_S_S_S_i'...
GPGPU-Sim PTX: pre-decoding instructions for '_Z17find_index_kernelPfS_S_S_S_S_S_i'...
GPGPU-Sim PTX: reconvergence points for _Z17find_index_kernelPfS_S_S_S_S_S_i...
GPGPU-Sim PTX:  1 (potential) branch divergence @  PC=0x040 (_1.ptx:76) @%p1 bra $Lt_0_3842;
GPGPU-Sim PTX:    immediate post dominator      @  PC=0x218 (_1.ptx:153) exit;
GPGPU-Sim PTX:  2 (potential) branch divergence @  PC=0x060 (_1.ptx:80) @%p2 bra $Lt_0_5890;
GPGPU-Sim PTX:    immediate post dominator      @  PC=0x158 (_1.ptx:124) ld.param.s32 %r5, [__cudaparm__Z17find_index_kernelPfS_S_S_S_S_S_i_Nparticles];
GPGPU-Sim PTX:  3 (potential) branch divergence @  PC=0x100 (_1.ptx:103) @!%p3 bra $Lt_0_5122;
GPGPU-Sim PTX:    immediate post dominator      @  PC=0x158 (_1.ptx:124) ld.param.s32 %r5, [__cudaparm__Z17find_index_kernelPfS_S_S_S_S_S_i_Nparticles];
GPGPU-Sim PTX:  4 (potential) branch divergence @  PC=0x110 (_1.ptx:107) bra.uni $Lt_0_258;
GPGPU-Sim PTX:    immediate post dominator      @  PC=0x158 (_1.ptx:124) ld.param.s32 %r5, [__cudaparm__Z17find_index_kernelPfS_S_S_S_S_S_i_Nparticles];
GPGPU-Sim PTX:  5 (potential) branch divergence @  PC=0x130 (_1.ptx:115) @%p4 bra $Lt_0_4866;
GPGPU-Sim PTX:    immediate post dominator      @  PC=0x158 (_1.ptx:124) ld.param.s32 %r5, [__cudaparm__Z17find_index_kernelPfS_S_S_S_S_S_i_Nparticles];
GPGPU-Sim PTX:  6 (potential) branch divergence @  PC=0x138 (_1.ptx:116) bra.uni $Lt_0_4354;
GPGPU-Sim PTX:    immediate post dominator      @  PC=0x150 (_1.ptx:121) mov.s32 %r17, -1;
GPGPU-Sim PTX: ... end of reconvergence points for _Z17find_index_kernelPfS_S_S_S_S_S_i
GPGPU-Sim PTX: ... done pre-decoding instructions for '_Z17find_index_kernelPfS_S_S_S_S_S_i'.
GPGPU-Sim PTX: allocating shared region for "__cuda_local_var_35012_36_non_const_sumWeights" from 0x0 to 0x4 (shared memory space)
GPGPU-Sim PTX: allocating shared region for "__cuda_local_var_35012_32_non_const_u1" from 0x4 to 0x8 (shared memory space)
GPGPU-Sim PTX: instruction assembly for function '_Z24normalize_weights_kernelPfiS_S_S_Pi'...   done.
GPGPU-Sim PTX: finding reconvergence points for '_Z24normalize_weights_kernelPfiS_S_S_Pi'...
GPGPU-Sim PTX: Finding dominators for '_Z24normalize_weights_kernelPfiS_S_S_Pi'...
GPGPU-Sim PTX: Finding immediate dominators for '_Z24normalize_weights_kernelPfiS_S_S_Pi'...
GPGPU-Sim PTX: Finding postdominators for '_Z24normalize_weights_kernelPfiS_S_S_Pi'...
GPGPU-Sim PTX: Finding immediate postdominators for '_Z24normalize_weights_kernelPfiS_S_S_Pi'...
GPGPU-Sim PTX: pre-decoding instructions for '_Z24normalize_weights_kernelPfiS_S_S_Pi'...
GPGPU-Sim PTX: reconvergence points for _Z24normalize_weights_kernelPfiS_S_S_Pi...
GPGPU-Sim PTX:  1 (potential) branch divergence @  PC=0x278 (_1.ptx:186) @!%p1 bra $Lt_1_3586;
GPGPU-Sim PTX:    immediate post dominator      @  PC=0x2b8 (_1.ptx:196) mov.u32 %r6, 0;
GPGPU-Sim PTX:  2 (potential) branch divergence @  PC=0x2c8 (_1.ptx:198) @%p2 bra $Lt_1_4098;
GPGPU-Sim PTX:    immediate post dominator      @  PC=0x490 (_1.ptx:272) @!%p1 bra $Lt_1_5634;
GPGPU-Sim PTX:  3 (potential) branch divergence @  PC=0x308 (_1.ptx:209) @%p3 bra $Lt_1_4610;
GPGPU-Sim PTX:    immediate post dominator      @  PC=0x3a0 (_1.ptx:237) ld.param.u64 %rd10, [__cudaparm__Z24normalize_weights_kernelPfiS_S_S_Pi_seed];
GPGPU-Sim PTX:  4 (potential) branch divergence @  PC=0x398 (_1.ptx:234) @%p4 bra $Lt_1_5122;
GPGPU-Sim PTX:    immediate post dominator      @  PC=0x3a0 (_1.ptx:237) ld.param.u64 %rd10, [__cudaparm__Z24normalize_weights_kernelPfiS_S_S_Pi_seed];
GPGPU-Sim PTX:  5 (potential) branch divergence @  PC=0x490 (_1.ptx:272) @!%p1 bra $Lt_1_5634;
GPGPU-Sim PTX:    immediate post dominator      @  PC=0x4f0 (_1.ptx:288) exit;
GPGPU-Sim PTX: ... end of reconvergence points for _Z24normalize_weights_kernelPfiS_S_S_Pi
GPGPU-Sim PTX: ... done pre-decoding instructions for '_Z24normalize_weights_kernelPfiS_S_S_Pi'.
GPGPU-Sim PTX: encountered texture directive tex_sums.
GPGPU-Sim PTX: instruction assembly for function '_Z10sum_kernelPfi'...   done.
GPGPU-Sim PTX: finding reconvergence points for '_Z10sum_kernelPfi'...
GPGPU-Sim PTX: Finding dominators for '_Z10sum_kernelPfi'...
GPGPU-Sim PTX: Finding immediate dominators for '_Z10sum_kernelPfi'...
GPGPU-Sim PTX: Finding postdominators for '_Z10sum_kernelPfi'...
GPGPU-Sim PTX: Finding immediate postdominators for '_Z10sum_kernelPfi'...
GPGPU-Sim PTX: pre-decoding instructions for '_Z10sum_kernelPfi'...
GPGPU-Sim PTX: reconvergence points for _Z10sum_kernelPfi...
GPGPU-Sim PTX:  1 (potential) branch divergence @  PC=0x538 (_1.ptx:312) @%p1 bra $Lt_2_2050;
GPGPU-Sim PTX:    immediate post dominator      @  PC=0x630 (_1.ptx:351) exit;
GPGPU-Sim PTX:  2 (potential) branch divergence @  PC=0x580 (_1.ptx:321) @%p2 bra $Lt_2_3586;
GPGPU-Sim PTX:    immediate post dominator      @  PC=0x620 (_1.ptx:347) ld.param.u64 %rd1, [__cudaparm__Z10sum_kernelPfi_partial_sums];
GPGPU-Sim PTX:  3 (potential) branch divergence @  PC=0x608 (_1.ptx:341) @%p3 bra $Lt_2_3074;
GPGPU-Sim PTX:    immediate post dominator      @  PC=0x610 (_1.ptx:342) bra.uni $Lt_2_2562;
GPGPU-Sim PTX:  4 (potential) branch divergence @  PC=0x610 (_1.ptx:342) bra.uni $Lt_2_2562;
GPGPU-Sim PTX:    immediate post dominator      @  PC=0x620 (_1.ptx:347) ld.param.u64 %rd1, [__cudaparm__Z10sum_kernelPfi_partial_sums];
GPGPU-Sim PTX: ... end of reconvergence points for _Z10sum_kernelPfi
GPGPU-Sim PTX: ... done pre-decoding instructions for '_Z10sum_kernelPfi'.
GPGPU-Sim PTX: allocating shared region for "__cuda___cuda_local_var_35086_32_non_const_buffer240" from 0x0 to 0x800 (shared memory space)
GPGPU-Sim PTX: instruction assembly for function '_Z17likelihood_kernelPfS_S_PiS0_S_PhS_S_iiiiiiS0_S_'...   done.
GPGPU-Sim PTX: finding reconvergence points for '_Z17likelihood_kernelPfS_S_PiS0_S_PhS_S_iiiiiiS0_S_'...
GPGPU-Sim PTX: Finding dominators for '_Z17likelihood_kernelPfS_S_PiS0_S_PhS_S_iiiiiiS0_S_'...
GPGPU-Sim PTX: Finding immediate dominators for '_Z17likelihood_kernelPfS_S_PiS0_S_PhS_S_iiiiiiS0_S_'...
GPGPU-Sim PTX: Finding postdominators for '_Z17likelihood_kernelPfS_S_PiS0_S_PhS_S_iiiiiiS0_S_'...
GPGPU-Sim PTX: Finding immediate postdominators for '_Z17likelihood_kernelPfS_S_PiS0_S_PhS_S_iiiiiiS0_S_'...
GPGPU-Sim PTX: pre-decoding instructions for '_Z17likelihood_kernelPfS_S_PiS0_S_PhS_S_iiiiiiS0_S_'...
GPGPU-Sim PTX: reconvergence points for _Z17likelihood_kernelPfS_S_PiS0_S_PhS_S_iiiiiiS0_S_...
GPGPU-Sim PTX:  1 (potential) branch divergence @  PC=0x670 (_1.ptx:389) @!%p1 bra $Lt_3_18690;
GPGPU-Sim PTX:    immediate post dominator      @  PC=0xa80 (_1.ptx:527) @!%p1 bra $Lt_3_27394;
GPGPU-Sim PTX:  2 (potential) branch divergence @  PC=0xa80 (_1.ptx:527) @!%p1 bra $Lt_3_27394;
GPGPU-Sim PTX:    immediate post dominator      @  PC=0x1100 (_1.ptx:803) exit;
GPGPU-Sim PTX:  3 (potential) branch divergence @  PC=0xaa0 (_1.ptx:531) @!%p6 bra $Lt_3_27906;
GPGPU-Sim PTX:    immediate post dominator      @  PC=0xd28 (_1.ptx:631) @!%p6 bra $Lt_3_28162;
GPGPU-Sim PTX:  4 (potential) branch divergence @  PC=0xbd0 (_1.ptx:572) @!%p8 bra $Lt_3_20482;
GPGPU-Sim PTX:    immediate post dominator      @  PC=0xbe0 (_1.ptx:577) ld.global.s32 %r75, [%rd10+4];
GPGPU-Sim PTX:  5 (potential) branch divergence @  PC=0xc60 (_1.ptx:595) @!%p10 bra $Lt_3_20994;
GPGPU-Sim PTX:    immediate post dominator      @  PC=0xc70 (_1.ptx:600) ld.global.s32 %r79, [%rd10+0];
GPGPU-Sim PTX:  6 (potential) branch divergence @  PC=0xcd0 (_1.ptx:615) @%p11 bra $Lt_3_21506;
GPGPU-Sim PTX:    immediate post dominator      @  PC=0xce8 (_1.ptx:620) add.u64 %rd16, %rd16, 4;
GPGPU-Sim PTX:  7 (potential) branch divergence @  PC=0xd08 (_1.ptx:624) @%p12 bra $Lt_3_20226;
GPGPU-Sim PTX:    immediate post dominator      @  PC=0xd10 (_1.ptx:625) bra.uni $Lt_3_19714;
GPGPU-Sim PTX:  8 (potential) branch divergence @  PC=0xd10 (_1.ptx:625) bra.uni $Lt_3_19714;
GPGPU-Sim PTX:    immediate post dominator      @  PC=0xd28 (_1.ptx:631) @!%p6 bra $Lt_3_28162;
GPGPU-Sim PTX:  9 (potential) branch divergence @  PC=0xd28 (_1.ptx:631) @!%p6 bra $Lt_3_28162;
GPGPU-Sim PTX:    immediate post dominator      @  PC=0xf48 (_1.ptx:730) ld.param.s32 %r61, [__cudaparm__Z17likelihood_kernelPfS_S_PiS0_S_PhS_S_iiiiiiS0_S__countOnes];
GPGPU-Sim PTX: 10 (potential) branch divergence @  PC=0xe08 (_1.ptx:669) @%p13 bra $Lt_3_23042;
GPGPU-Sim PTX:    immediate post dominator      @  PC=0xe18 (_1.ptx:674) shr.u32 %r91, %r91, 1;
GPGPU-Sim PTX: 11 (potential) branch divergence @  PC=0xe30 (_1.ptx:677) @%p14 bra $Lt_3_23554;
GPGPU-Sim PTX:    immediate post dominator      @  PC=0xe38 (_1.ptx:679) mov.f32 %f73, %f72;
GPGPU-Sim PTX: 12 (potential) branch divergence @  PC=0xe40 (_1.ptx:680) bra.uni $LDWendi_powif_216_3;
GPGPU-Sim PTX:    immediate post dominator      @  PC=0xe60 (_1.ptx:688) mov.f32 %f75, %f70;
GPGPU-Sim PTX: 13 (potential) branch divergence @  PC=0xe58 (_1.ptx:685) bra.uni $Lt_3_14850;
GPGPU-Sim PTX:    immediate post dominator      @  PC=0xdf0 (_1.ptx:666) and.b32 %r92, %r91, 1;
GPGPU-Sim PTX: 14 (potential) branch divergence @  PC=0xe90 (_1.ptx:697) @%p15 bra $Lt_3_24066;
GPGPU-Sim PTX:    immediate post dominator      @  PC=0xea0 (_1.ptx:702) shr.u32 %r91, %r91, 1;
GPGPU-Sim PTX: 15 (potential) branch divergence @  PC=0xeb8 (_1.ptx:705) @%p16 bra $Lt_3_24578;
GPGPU-Sim PTX:    immediate post dominator      @  PC=0xec0 (_1.ptx:706) bra.uni $LDWendi_powif_216_1;
GPGPU-Sim PTX: 16 (potential) branch divergence @  PC=0xec0 (_1.ptx:706) bra.uni $LDWendi_powif_216_1;
GPGPU-Sim PTX:    immediate post dominator      @  PC=0xee0 (_1.ptx:714) cvt.f64.f32 %fd13, %f68;
GPGPU-Sim PTX: 17 (potential) branch divergence @  PC=0xed8 (_1.ptx:711) bra.uni $Lt_3_16130;
GPGPU-Sim PTX:    immediate post dominator      @  PC=0xe78 (_1.ptx:694) and.b32 %r95, %r91, 1;
GPGPU-Sim PTX: 18 (potential) branch divergence @  PC=0xf30 (_1.ptx:724) @%p17 bra $Lt_3_22786;
GPGPU-Sim PTX:    immediate post dominator      @  PC=0xf38 (_1.ptx:725) bra.uni $Lt_3_22274;
GPGPU-Sim PTX: 19 (potential) branch divergence @  PC=0xf38 (_1.ptx:725) bra.uni $Lt_3_22274;
GPGPU-Sim PTX:    immediate post dominator      @  PC=0xf48 (_1.ptx:730) ld.param.s32 %r61, [__cudaparm__Z17likelihood_kernelPfS_S_PiS0_S_PhS_S_iiiiiiS0_S__countOnes];
GPGPU-Sim PTX: 20 (potential) branch divergence @  PC=0xf80 (_1.ptx:740) @!%p1 bra $Lt_3_27394;
GPGPU-Sim PTX:    immediate post dominator      @  PC=0x1100 (_1.ptx:803) exit;
GPGPU-Sim PTX: 21 (potential) branch divergence @  PC=0x1038 (_1.ptx:768) @%p18 bra $Lt_3_25858;
GPGPU-Sim PTX:    immediate post dominator      @  PC=0x10b8 (_1.ptx:790) mov.u32 %r103, 0;
GPGPU-Sim PTX: 22 (potential) branch divergence @  PC=0x1048 (_1.ptx:771) @%p19 bra $Lt_3_26626;
GPGPU-Sim PTX:    immediate post dominator      @  PC=0x1090 (_1.ptx:783) bar.sync 0;
GPGPU-Sim PTX: 23 (potential) branch divergence @  PC=0x10b0 (_1.ptx:788) @%p20 bra $Lt_3_26370;
GPGPU-Sim PTX:    immediate post dominator      @  PC=0x10b8 (_1.ptx:790) mov.u32 %r103, 0;
GPGPU-Sim PTX: 24 (potential) branch divergence @  PC=0x10c8 (_1.ptx:792) @%p21 bra $Lt_3_27394;
GPGPU-Sim PTX:    immediate post dominator      @  PC=0x1100 (_1.ptx:803) exit;
GPGPU-Sim PTX: ... end of reconvergence points for _Z17likelihood_kernelPfS_S_PiS0_S_PhS_S_iiiiiiS0_S_
GPGPU-Sim PTX: ... done pre-decoding instructions for '_Z17likelihood_kernelPfS_S_PiS0_S_PhS_S_iiiiiiS0_S_'.
GPGPU-Sim PTX: finished parsing EMBEDDED .ptx file _1.ptx
Adding _cuobjdump_1.ptx with cubin handle 1
GPGPU-Sim PTX: extracting embedded .ptx to temporary file "_ptx_RtDJlF"
Running: cat _ptx_RtDJlF | sed 's/.version 1.5/.version 1.4/' | sed 's/, texmode_independent//' | sed 's/\(\.extern \.const\[1\] .b8 \w\+\)\[\]/\1\[1\]/' | sed 's/const\[.\]/const\[0\]/g' > _ptx2_0objEi
GPGPU-Sim PTX: generating ptxinfo using "$CUDA_INSTALL_PATH/bin/ptxas --gpu-name=sm_20 -v _ptx2_0objEi --output-file  /dev/null 2> _ptx_RtDJlFinfo"
GPGPU-Sim PTX: Kernel '_Z17likelihood_kernelPfS_S_PiS0_S_PhS_S_iiiiiiS0_S_' : regs=27, lmem=0, smem=2048, cmem=156
GPGPU-Sim PTX: Kernel '_Z10sum_kernelPfi' : regs=6, lmem=0, smem=0, cmem=44
GPGPU-Sim PTX: Kernel '_Z24normalize_weights_kernelPfiS_S_S_Pi' : regs=10, lmem=0, smem=8, cmem=88
GPGPU-Sim PTX: Kernel '_Z17find_index_kernelPfS_S_S_S_S_S_i' : regs=12, lmem=0, smem=0, cmem=92
GPGPU-Sim PTX: removing ptxinfo using "rm -f _ptx_RtDJlF _ptx2_0objEi _ptx_RtDJlFinfo"
GPGPU-Sim PTX: loading globals with explicit initializers... 
GPGPU-Sim PTX: finished loading globals (0 bytes total).
GPGPU-Sim PTX: loading constants with explicit initializers...  done.
GPGPU-Sim PTX: __cudaRegisterFunction _Z10sum_kernelPfi : hostFun 0x0x4026b0, fat_cubin_handle = 1
GPGPU-Sim PTX: __cudaRegisterFunction _Z24normalize_weights_kernelPfiS_S_S_Pi : hostFun 0x0x401610, fat_cubin_handle = 1
GPGPU-Sim PTX: __cudaRegisterFunction _Z17find_index_kernelPfS_S_S_S_S_S_i : hostFun 0x0x401730, fat_cubin_handle = 1
GPGPU-Sim PTX: in __cudaRegisterTexture:
GPGPU-Sim PTX:   int dim = 1
GPGPU-Sim PTX:   int norm = 0
GPGPU-Sim PTX:   int ext = 0
GPGPU-Sim PTX:   Execution warning: Not finished implementing "void __cudaRegisterTexture(void**, const textureReference*, const void**, const char*, int, int, int)"
GPGPU-Sim PTX: in __cudaRegisterTexture:
GPGPU-Sim PTX:   int dim = 1
GPGPU-Sim PTX:   int norm = 0
GPGPU-Sim PTX:   int ext = 0
GPGPU-Sim PTX:   Execution warning: Not finished implementing "void __cudaRegisterTexture(void**, const textureReference*, const void**, const char*, int, int, int)"
VIDEO SEQUENCE TOOK 0.034811
TIME TO SEND TO GPU: 0.010445

GPGPU-Sim PTX: cudaLaunch for 0x0x4014b0 (mode=performance simulation) on stream 0
GPGPU-Sim PTX: pushing kernel '_Z17likelihood_kernelPfS_S_PiS0_S_PhS_S_iiiiiiS0_S_' to stream 0, gridDim= (20,1,1) blockDim = (512,1,1) 
kernel '_Z17likelihood_kernelPfS_S_PiS0_S_PhS_S_iiiiiiS0_S_' transfer to GPU hardware scheduler
GPGPU-Sim uArch: Shader 1 bind to kernel 1 '_Z17likelihood_kernelPfS_S_PiS0_S_PhS_S_iiiiiiS0_S_'
GPGPU-Sim uArch: CTA/core = 2, limited by: regs
GPGPU-Sim uArch: core:  1, cta: 0 initialized @(1,0)
GPGPU-Sim uArch: Shader 2 bind to kernel 1 '_Z17likelihood_kernelPfS_S_PiS0_S_PhS_S_iiiiiiS0_S_'
GPGPU-Sim uArch: core:  2, cta: 0 initialized @(1,0)
GPGPU-Sim uArch: Shader 3 bind to kernel 1 '_Z17likelihood_kernelPfS_S_PiS0_S_PhS_S_iiiiiiS0_S_'
GPGPU-Sim uArch: core:  3, cta: 0 initialized @(1,0)
GPGPU-Sim uArch: Shader 4 bind to kernel 1 '_Z17likelihood_kernelPfS_S_PiS0_S_PhS_S_iiiiiiS0_S_'
GPGPU-Sim uArch: core:  4, cta: 0 initialized @(1,0)
GPGPU-Sim uArch: Shader 5 bind to kernel 1 '_Z17likelihood_kernelPfS_S_PiS0_S_PhS_S_iiiiiiS0_S_'
GPGPU-Sim uArch: core:  5, cta: 0 initialized @(1,0)
GPGPU-Sim uArch: Shader 6 bind to kernel 1 '_Z17likelihood_kernelPfS_S_PiS0_S_PhS_S_iiiiiiS0_S_'
GPGPU-Sim uArch: core:  6, cta: 0 initialized @(1,0)
GPGPU-Sim uArch: Shader 7 bind to kernel 1 '_Z17likelihood_kernelPfS_S_PiS0_S_PhS_S_iiiiiiS0_S_'
GPGPU-Sim uArch: core:  7, cta: 0 initialized @(1,0)
GPGPU-Sim uArch: Shader 8 bind to kernel 1 '_Z17likelihood_kernelPfS_S_PiS0_S_PhS_S_iiiiiiS0_S_'
GPGPU-Sim uArch: core:  8, cta: 0 initialized @(1,0)
GPGPU-Sim uArch: Shader 9 bind to kernel 1 '_Z17likelihood_kernelPfS_S_PiS0_S_PhS_S_iiiiiiS0_S_'
GPGPU-Sim uArch: core:  9, cta: 0 initialized @(1,0)
GPGPU-Sim uArch: Shader 10 bind to kernel 1 '_Z17likelihood_kernelPfS_S_PiS0_S_PhS_S_iiiiiiS0_S_'
GPGPU-Sim uArch: core: 10, cta: 0 initialized @(1,0)
GPGPU-Sim uArch: Shader 11 bind to kernel 1 '_Z17likelihood_kernelPfS_S_PiS0_S_PhS_S_iiiiiiS0_S_'
GPGPU-Sim uArch: core: 11, cta: 0 initialized @(1,0)
GPGPU-Sim uArch: Shader 12 bind to kernel 1 '_Z17likelihood_kernelPfS_S_PiS0_S_PhS_S_iiiiiiS0_S_'
GPGPU-Sim uArch: core: 12, cta: 0 initialized @(1,0)
GPGPU-Sim uArch: Shader 13 bind to kernel 1 '_Z17likelihood_kernelPfS_S_PiS0_S_PhS_S_iiiiiiS0_S_'
GPGPU-Sim uArch: core: 13, cta: 0 initialized @(1,0)
GPGPU-Sim uArch: Shader 14 bind to kernel 1 '_Z17likelihood_kernelPfS_S_PiS0_S_PhS_S_iiiiiiS0_S_'
GPGPU-Sim uArch: core: 14, cta: 0 initialized @(1,0)
GPGPU-Sim uArch: Shader 0 bind to kernel 1 '_Z17likelihood_kernelPfS_S_PiS0_S_PhS_S_iiiiiiS0_S_'
GPGPU-Sim uArch: core:  0, cta: 0 initialized @(1,0)
GPGPU-Sim uArch: core:  1, cta: 1 initialized @(2,0)
GPGPU-Sim uArch: core:  2, cta: 1 initialized @(2,0)
GPGPU-Sim uArch: core:  3, cta: 1 initialized @(2,0)
GPGPU-Sim uArch: core:  4, cta: 1 initialized @(2,0)
GPGPU-Sim uArch: core:  5, cta: 1 initialized @(2,0)
GPGPU-Sim uArch: cycles simulated: 500  inst.: 51200 (ipc=102.4) sim_rate=5688 (inst/sec) elapsed = 0:0:00:09 / Tue Mar 22 07:38:47 2016
GPGPU-Sim PTX: 100000 instructions simulated : ctaid=(19,0,0) tid=(495,0,0)
GPGPU-Sim uArch: cycles simulated: 1000  inst.: 112144 (ipc=112.1) sim_rate=7476 (inst/sec) elapsed = 0:0:00:15 / Tue Mar 22 07:38:53 2016
GPGPU-Sim PTX: 200000 instructions simulated : ctaid=(1,0,0) tid=(367,0,0)
GPGPU-Sim uArch: cycles simulated: 1500  inst.: 230181 (ipc=153.5) sim_rate=14386 (inst/sec) elapsed = 0:0:00:16 / Tue Mar 22 07:38:54 2016
GPGPU-Sim PTX: 300000 instructions simulated : ctaid=(10,0,0) tid=(335,0,0)
GPGPU-Sim PTX: 400000 instructions simulated : ctaid=(13,0,0) tid=(495,0,0)
GPGPU-Sim PTX: 500000 instructions simulated : ctaid=(9,0,0) tid=(287,0,0)
GPGPU-Sim PTX: 600000 instructions simulated : ctaid=(1,0,0) tid=(367,0,0)
GPGPU-Sim PTX: 700000 instructions simulated : ctaid=(0,0,0) tid=(287,0,0)
GPGPU-Sim uArch: cycles simulated: 3500  inst.: 706339 (ipc=201.8) sim_rate=41549 (inst/sec) elapsed = 0:0:00:17 / Tue Mar 22 07:38:55 2016
GPGPU-Sim PTX: 800000 instructions simulated : ctaid=(17,0,0) tid=(47,0,0)
GPGPU-Sim PTX: 900000 instructions simulated : ctaid=(14,0,0) tid=(351,0,0)
GPGPU-Sim PTX: 1000000 instructions simulated : ctaid=(5,0,0) tid=(191,0,0)
GPGPU-Sim PTX: 1100000 instructions simulated : ctaid=(12,0,0) tid=(479,0,0)
GPGPU-Sim PTX: 1200000 instructions simulated : ctaid=(15,0,0) tid=(223,0,0)
GPGPU-Sim uArch: cycles simulated: 5000  inst.: 1227372 (ipc=245.5) sim_rate=68187 (inst/sec) elapsed = 0:0:00:18 / Tue Mar 22 07:38:56 2016
GPGPU-Sim PTX: 1300000 instructions simulated : ctaid=(5,0,0) tid=(463,0,0)
GPGPU-Sim PTX: 1400000 instructions simulated : ctaid=(6,0,0) tid=(15,0,0)
GPGPU-Sim PTX: 1500000 instructions simulated : ctaid=(0,0,0) tid=(495,0,0)
GPGPU-Sim PTX: 1600000 instructions simulated : ctaid=(16,0,0) tid=(447,0,0)
GPGPU-Sim PTX: 1700000 instructions simulated : ctaid=(10,0,0) tid=(399,0,0)
GPGPU-Sim PTX: 1800000 instructions simulated : ctaid=(15,0,0) tid=(79,0,0)
GPGPU-Sim uArch: cycles simulated: 7000  inst.: 1763084 (ipc=251.9) sim_rate=92793 (inst/sec) elapsed = 0:0:00:19 / Tue Mar 22 07:38:57 2016
GPGPU-Sim PTX: 1900000 instructions simulated : ctaid=(3,0,0) tid=(223,0,0)
GPGPU-Sim PTX: 2000000 instructions simulated : ctaid=(16,0,0) tid=(351,0,0)
GPGPU-Sim uArch: cycles simulated: 9000  inst.: 2019036 (ipc=224.3) sim_rate=100951 (inst/sec) elapsed = 0:0:00:20 / Tue Mar 22 07:38:58 2016
GPGPU-Sim uArch: cycles simulated: 11500  inst.: 2037900 (ipc=177.2) sim_rate=97042 (inst/sec) elapsed = 0:0:00:21 / Tue Mar 22 07:38:59 2016
GPGPU-Sim PTX: 2100000 instructions simulated : ctaid=(10,0,0) tid=(223,0,0)
GPGPU-Sim uArch: cycles simulated: 14000  inst.: 2070252 (ipc=147.9) sim_rate=94102 (inst/sec) elapsed = 0:0:00:22 / Tue Mar 22 07:39:00 2016
GPGPU-Sim uArch: cycles simulated: 16000  inst.: 2126508 (ipc=132.9) sim_rate=92456 (inst/sec) elapsed = 0:0:00:23 / Tue Mar 22 07:39:01 2016
GPGPU-Sim PTX: 2200000 instructions simulated : ctaid=(7,0,0) tid=(479,0,0)
GPGPU-Sim PTX: 2300000 instructions simulated : ctaid=(13,0,0) tid=(223,0,0)
GPGPU-Sim uArch: cycles simulated: 18000  inst.: 2252428 (ipc=125.1) sim_rate=93851 (inst/sec) elapsed = 0:0:00:24 / Tue Mar 22 07:39:02 2016
GPGPU-Sim uArch: cycles simulated: 20000  inst.: 2324140 (ipc=116.2) sim_rate=92965 (inst/sec) elapsed = 0:0:00:25 / Tue Mar 22 07:39:03 2016
GPGPU-Sim PTX: 2400000 instructions simulated : ctaid=(9,0,0) tid=(47,0,0)
GPGPU-Sim uArch: cycles simulated: 22000  inst.: 2409884 (ipc=109.5) sim_rate=92687 (inst/sec) elapsed = 0:0:00:26 / Tue Mar 22 07:39:04 2016
GPGPU-Sim PTX: 2500000 instructions simulated : ctaid=(14,0,0) tid=(127,0,0)
GPGPU-Sim uArch: cycles simulated: 24500  inst.: 2485196 (ipc=101.4) sim_rate=92044 (inst/sec) elapsed = 0:0:00:27 / Tue Mar 22 07:39:05 2016
GPGPU-Sim PTX: 2600000 instructions simulated : ctaid=(16,0,0) tid=(351,0,0)
GPGPU-Sim uArch: cycles simulated: 26500  inst.: 2597436 (ipc=98.0) sim_rate=92765 (inst/sec) elapsed = 0:0:00:28 / Tue Mar 22 07:39:06 2016
GPGPU-Sim PTX: 2700000 instructions simulated : ctaid=(7,0,0) tid=(79,0,0)
GPGPU-Sim uArch: cycles simulated: 28000  inst.: 2693852 (ipc=96.2) sim_rate=92891 (inst/sec) elapsed = 0:0:00:29 / Tue Mar 22 07:39:07 2016
GPGPU-Sim PTX: 2800000 instructions simulated : ctaid=(8,0,0) tid=(111,0,0)
GPGPU-Sim PTX: 2900000 instructions simulated : ctaid=(9,0,0) tid=(367,0,0)
GPGPU-Sim uArch: cycles simulated: 30000  inst.: 2854540 (ipc=95.2) sim_rate=95151 (inst/sec) elapsed = 0:0:00:30 / Tue Mar 22 07:39:08 2016
GPGPU-Sim uArch: cycles simulated: 32000  inst.: 2895996 (ipc=90.5) sim_rate=93419 (inst/sec) elapsed = 0:0:00:31 / Tue Mar 22 07:39:09 2016
GPGPU-Sim PTX: 3000000 instructions simulated : ctaid=(6,0,0) tid=(271,0,0)
GPGPU-Sim uArch: cycles simulated: 34000  inst.: 2987676 (ipc=87.9) sim_rate=93364 (inst/sec) elapsed = 0:0:00:32 / Tue Mar 22 07:39:10 2016
GPGPU-Sim PTX: 3100000 instructions simulated : ctaid=(6,0,0) tid=(351,0,0)
GPGPU-Sim uArch: cycles simulated: 36500  inst.: 3143212 (ipc=86.1) sim_rate=95248 (inst/sec) elapsed = 0:0:00:33 / Tue Mar 22 07:39:11 2016
GPGPU-Sim PTX: 3200000 instructions simulated : ctaid=(7,0,0) tid=(479,0,0)
GPGPU-Sim uArch: cycles simulated: 38500  inst.: 3242220 (ipc=84.2) sim_rate=95359 (inst/sec) elapsed = 0:0:00:34 / Tue Mar 22 07:39:12 2016
GPGPU-Sim PTX: 3300000 instructions simulated : ctaid=(7,0,0) tid=(63,0,0)
GPGPU-Sim uArch: cycles simulated: 40500  inst.: 3326540 (ipc=82.1) sim_rate=95044 (inst/sec) elapsed = 0:0:00:35 / Tue Mar 22 07:39:13 2016
GPGPU-Sim PTX: 3400000 instructions simulated : ctaid=(10,0,0) tid=(143,0,0)
GPGPU-Sim uArch: cycles simulated: 43000  inst.: 3398908 (ipc=79.0) sim_rate=94414 (inst/sec) elapsed = 0:0:00:36 / Tue Mar 22 07:39:14 2016
GPGPU-Sim PTX: 3500000 instructions simulated : ctaid=(9,0,0) tid=(367,0,0)
GPGPU-Sim uArch: cycles simulated: 45000  inst.: 3480220 (ipc=77.3) sim_rate=94060 (inst/sec) elapsed = 0:0:00:37 / Tue Mar 22 07:39:15 2016
GPGPU-Sim uArch: cycles simulated: 47000  inst.: 3536636 (ipc=75.2) sim_rate=93069 (inst/sec) elapsed = 0:0:00:38 / Tue Mar 22 07:39:16 2016
GPGPU-Sim PTX: 3600000 instructions simulated : ctaid=(7,0,0) tid=(335,0,0)
GPGPU-Sim uArch: cycles simulated: 49000  inst.: 3641404 (ipc=74.3) sim_rate=93369 (inst/sec) elapsed = 0:0:00:39 / Tue Mar 22 07:39:17 2016
GPGPU-Sim PTX: 3700000 instructions simulated : ctaid=(14,0,0) tid=(271,0,0)
GPGPU-Sim PTX: 3800000 instructions simulated : ctaid=(4,0,0) tid=(223,0,0)
GPGPU-Sim uArch: cycles simulated: 51000  inst.: 3778572 (ipc=74.1) sim_rate=94464 (inst/sec) elapsed = 0:0:00:40 / Tue Mar 22 07:39:18 2016
GPGPU-Sim PTX: 3900000 instructions simulated : ctaid=(8,0,0) tid=(223,0,0)
GPGPU-Sim uArch: cycles simulated: 52500  inst.: 3854732 (ipc=73.4) sim_rate=94017 (inst/sec) elapsed = 0:0:00:41 / Tue Mar 22 07:39:19 2016
GPGPU-Sim uArch: cycles simulated: 54500  inst.: 3926908 (ipc=72.1) sim_rate=93497 (inst/sec) elapsed = 0:0:00:42 / Tue Mar 22 07:39:20 2016
GPGPU-Sim PTX: 4000000 instructions simulated : ctaid=(10,0,0) tid=(303,0,0)
GPGPU-Sim uArch: cycles simulated: 56500  inst.: 4025484 (ipc=71.2) sim_rate=93615 (inst/sec) elapsed = 0:0:00:43 / Tue Mar 22 07:39:21 2016
GPGPU-Sim PTX: 4100000 instructions simulated : ctaid=(7,0,0) tid=(31,0,0)
GPGPU-Sim uArch: cycles simulated: 58500  inst.: 4141644 (ipc=70.8) sim_rate=94128 (inst/sec) elapsed = 0:0:00:44 / Tue Mar 22 07:39:22 2016
GPGPU-Sim PTX: 4200000 instructions simulated : ctaid=(2,0,0) tid=(207,0,0)
GPGPU-Sim uArch: cycles simulated: 60500  inst.: 4238236 (ipc=70.1) sim_rate=94183 (inst/sec) elapsed = 0:0:00:45 / Tue Mar 22 07:39:23 2016
GPGPU-Sim PTX: 4300000 instructions simulated : ctaid=(12,0,0) tid=(415,0,0)
GPGPU-Sim uArch: cycles simulated: 62500  inst.: 4307436 (ipc=68.9) sim_rate=93639 (inst/sec) elapsed = 0:0:00:46 / Tue Mar 22 07:39:24 2016
GPGPU-Sim PTX: 4400000 instructions simulated : ctaid=(7,0,0) tid=(239,0,0)
GPGPU-Sim uArch: cycles simulated: 64500  inst.: 4400764 (ipc=68.2) sim_rate=93633 (inst/sec) elapsed = 0:0:00:47 / Tue Mar 22 07:39:25 2016
GPGPU-Sim PTX: 4500000 instructions simulated : ctaid=(17,0,0) tid=(447,0,0)
GPGPU-Sim uArch: cycles simulated: 66500  inst.: 4492956 (ipc=67.6) sim_rate=93603 (inst/sec) elapsed = 0:0:00:48 / Tue Mar 22 07:39:26 2016
GPGPU-Sim PTX: 4600000 instructions simulated : ctaid=(8,0,0) tid=(463,0,0)
GPGPU-Sim uArch: cycles simulated: 68500  inst.: 4575772 (ipc=66.8) sim_rate=93383 (inst/sec) elapsed = 0:0:00:49 / Tue Mar 22 07:39:27 2016
GPGPU-Sim PTX: 4700000 instructions simulated : ctaid=(12,0,0) tid=(47,0,0)
GPGPU-Sim uArch: cycles simulated: 71000  inst.: 4683196 (ipc=66.0) sim_rate=93663 (inst/sec) elapsed = 0:0:00:50 / Tue Mar 22 07:39:28 2016
GPGPU-Sim PTX: 4800000 instructions simulated : ctaid=(19,0,0) tid=(143,0,0)
GPGPU-Sim uArch: cycles simulated: 73000  inst.: 4807340 (ipc=65.9) sim_rate=94261 (inst/sec) elapsed = 0:0:00:51 / Tue Mar 22 07:39:29 2016
GPGPU-Sim PTX: 4900000 instructions simulated : ctaid=(11,0,0) tid=(271,0,0)
GPGPU-Sim uArch: cycles simulated: 75000  inst.: 4905708 (ipc=65.4) sim_rate=94340 (inst/sec) elapsed = 0:0:00:52 / Tue Mar 22 07:39:30 2016
GPGPU-Sim PTX: 5000000 instructions simulated : ctaid=(5,0,0) tid=(159,0,0)
GPGPU-Sim uArch: cycles simulated: 77500  inst.: 4991212 (ipc=64.4) sim_rate=94173 (inst/sec) elapsed = 0:0:00:53 / Tue Mar 22 07:39:31 2016
GPGPU-Sim PTX: 5100000 instructions simulated : ctaid=(8,0,0) tid=(255,0,0)
GPGPU-Sim uArch: cycles simulated: 79500  inst.: 5095212 (ipc=64.1) sim_rate=94355 (inst/sec) elapsed = 0:0:00:54 / Tue Mar 22 07:39:32 2016
GPGPU-Sim PTX: 5200000 instructions simulated : ctaid=(14,0,0) tid=(335,0,0)
GPGPU-Sim uArch: cycles simulated: 81500  inst.: 5168252 (ipc=63.4) sim_rate=93968 (inst/sec) elapsed = 0:0:00:55 / Tue Mar 22 07:39:33 2016
GPGPU-Sim PTX: 5300000 instructions simulated : ctaid=(11,0,0) tid=(79,0,0)
GPGPU-Sim uArch: cycles simulated: 84000  inst.: 5295612 (ipc=63.0) sim_rate=94564 (inst/sec) elapsed = 0:0:00:56 / Tue Mar 22 07:39:34 2016
GPGPU-Sim PTX: 5400000 instructions simulated : ctaid=(10,0,0) tid=(127,0,0)
GPGPU-Sim uArch: cycles simulated: 86000  inst.: 5428780 (ipc=63.1) sim_rate=95241 (inst/sec) elapsed = 0:0:00:57 / Tue Mar 22 07:39:35 2016
GPGPU-Sim PTX: 5500000 instructions simulated : ctaid=(4,0,0) tid=(447,0,0)
GPGPU-Sim uArch: cycles simulated: 88000  inst.: 5491004 (ipc=62.4) sim_rate=94672 (inst/sec) elapsed = 0:0:00:58 / Tue Mar 22 07:39:36 2016
GPGPU-Sim PTX: 5600000 instructions simulated : ctaid=(9,0,0) tid=(15,0,0)
GPGPU-Sim uArch: cycles simulated: 90500  inst.: 5582524 (ipc=61.7) sim_rate=94619 (inst/sec) elapsed = 0:0:00:59 / Tue Mar 22 07:39:37 2016
GPGPU-Sim PTX: 5700000 instructions simulated : ctaid=(15,0,0) tid=(399,0,0)
GPGPU-Sim uArch: cycles simulated: 92500  inst.: 5677244 (ipc=61.4) sim_rate=94620 (inst/sec) elapsed = 0:0:01:00 / Tue Mar 22 07:39:38 2016
GPGPU-Sim PTX: 5800000 instructions simulated : ctaid=(6,0,0) tid=(95,0,0)
GPGPU-Sim uArch: cycles simulated: 94500  inst.: 5817340 (ipc=61.6) sim_rate=95366 (inst/sec) elapsed = 0:0:01:01 / Tue Mar 22 07:39:39 2016
GPGPU-Sim PTX: 5900000 instructions simulated : ctaid=(7,0,0) tid=(399,0,0)
GPGPU-Sim uArch: cycles simulated: 97000  inst.: 5936236 (ipc=61.2) sim_rate=95745 (inst/sec) elapsed = 0:0:01:02 / Tue Mar 22 07:39:40 2016
GPGPU-Sim PTX: 6000000 instructions simulated : ctaid=(8,0,0) tid=(511,0,0)
GPGPU-Sim PTX: 6100000 instructions simulated : ctaid=(12,0,0) tid=(287,0,0)
GPGPU-Sim uArch: cycles simulated: 99000  inst.: 6049228 (ipc=61.1) sim_rate=96019 (inst/sec) elapsed = 0:0:01:03 / Tue Mar 22 07:39:41 2016
GPGPU-Sim uArch: cycles simulated: 101000  inst.: 6119084 (ipc=60.6) sim_rate=95610 (inst/sec) elapsed = 0:0:01:04 / Tue Mar 22 07:39:42 2016
GPGPU-Sim PTX: 6200000 instructions simulated : ctaid=(14,0,0) tid=(79,0,0)
GPGPU-Sim uArch: cycles simulated: 103500  inst.: 6217308 (ipc=60.1) sim_rate=95650 (inst/sec) elapsed = 0:0:01:05 / Tue Mar 22 07:39:43 2016
GPGPU-Sim PTX: 6300000 instructions simulated : ctaid=(13,0,0) tid=(239,0,0)
GPGPU-Sim uArch: cycles simulated: 105500  inst.: 6304396 (ipc=59.8) sim_rate=95521 (inst/sec) elapsed = 0:0:01:06 / Tue Mar 22 07:39:44 2016
GPGPU-Sim PTX: 6400000 instructions simulated : ctaid=(5,0,0) tid=(47,0,0)
GPGPU-Sim uArch: cycles simulated: 107500  inst.: 6416348 (ipc=59.7) sim_rate=95766 (inst/sec) elapsed = 0:0:01:07 / Tue Mar 22 07:39:45 2016
GPGPU-Sim PTX: 6500000 instructions simulated : ctaid=(11,0,0) tid=(415,0,0)
GPGPU-Sim uArch: cycles simulated: 109500  inst.: 6512620 (ipc=59.5) sim_rate=95773 (inst/sec) elapsed = 0:0:01:08 / Tue Mar 22 07:39:46 2016
GPGPU-Sim PTX: 6600000 instructions simulated : ctaid=(6,0,0) tid=(335,0,0)
GPGPU-Sim uArch: cycles simulated: 112000  inst.: 6621628 (ipc=59.1) sim_rate=95965 (inst/sec) elapsed = 0:0:01:09 / Tue Mar 22 07:39:47 2016
GPGPU-Sim PTX: 6700000 instructions simulated : ctaid=(2,0,0) tid=(79,0,0)
GPGPU-Sim uArch: cycles simulated: 114000  inst.: 6676396 (ipc=58.6) sim_rate=95377 (inst/sec) elapsed = 0:0:01:10 / Tue Mar 22 07:39:48 2016
GPGPU-Sim PTX: 6800000 instructions simulated : ctaid=(18,0,0) tid=(223,0,0)
GPGPU-Sim uArch: cycles simulated: 116000  inst.: 6775724 (ipc=58.4) sim_rate=95432 (inst/sec) elapsed = 0:0:01:11 / Tue Mar 22 07:39:49 2016
GPGPU-Sim PTX: 6900000 instructions simulated : ctaid=(2,0,0) tid=(47,0,0)
GPGPU-Sim uArch: cycles simulated: 118500  inst.: 6856092 (ipc=57.9) sim_rate=95223 (inst/sec) elapsed = 0:0:01:12 / Tue Mar 22 07:39:50 2016
GPGPU-Sim PTX: 7000000 instructions simulated : ctaid=(13,0,0) tid=(463,0,0)
GPGPU-Sim uArch: cycles simulated: 120500  inst.: 6971996 (ipc=57.9) sim_rate=95506 (inst/sec) elapsed = 0:0:01:13 / Tue Mar 22 07:39:51 2016
GPGPU-Sim PTX: 7100000 instructions simulated : ctaid=(2,0,0) tid=(351,0,0)
GPGPU-Sim uArch: cycles simulated: 122500  inst.: 7086044 (ipc=57.8) sim_rate=95757 (inst/sec) elapsed = 0:0:01:14 / Tue Mar 22 07:39:52 2016
GPGPU-Sim PTX: 7200000 instructions simulated : ctaid=(19,0,0) tid=(79,0,0)
GPGPU-Sim uArch: cycles simulated: 125000  inst.: 7162956 (ipc=57.3) sim_rate=95506 (inst/sec) elapsed = 0:0:01:15 / Tue Mar 22 07:39:53 2016
GPGPU-Sim PTX: 7300000 instructions simulated : ctaid=(8,0,0) tid=(271,0,0)
GPGPU-Sim uArch: cycles simulated: 127000  inst.: 7250364 (ipc=57.1) sim_rate=95399 (inst/sec) elapsed = 0:0:01:16 / Tue Mar 22 07:39:54 2016
GPGPU-Sim PTX: 7400000 instructions simulated : ctaid=(7,0,0) tid=(399,0,0)
GPGPU-Sim uArch: cycles simulated: 129500  inst.: 7353692 (ipc=56.8) sim_rate=95502 (inst/sec) elapsed = 0:0:01:17 / Tue Mar 22 07:39:55 2016
GPGPU-Sim uArch: cycles simulated: 131500  inst.: 7445212 (ipc=56.6) sim_rate=95451 (inst/sec) elapsed = 0:0:01:18 / Tue Mar 22 07:39:56 2016
GPGPU-Sim PTX: 7500000 instructions simulated : ctaid=(13,0,0) tid=(335,0,0)
GPGPU-Sim uArch: cycles simulated: 133500  inst.: 7546572 (ipc=56.5) sim_rate=95526 (inst/sec) elapsed = 0:0:01:19 / Tue Mar 22 07:39:57 2016
GPGPU-Sim PTX: 7600000 instructions simulated : ctaid=(15,0,0) tid=(383,0,0)
GPGPU-Sim PTX: 7700000 instructions simulated : ctaid=(11,0,0) tid=(399,0,0)
GPGPU-Sim uArch: cycles simulated: 136000  inst.: 7655516 (ipc=56.3) sim_rate=95693 (inst/sec) elapsed = 0:0:01:20 / Tue Mar 22 07:39:58 2016
GPGPU-Sim PTX: 7800000 instructions simulated : ctaid=(12,0,0) tid=(271,0,0)
GPGPU-Sim uArch: cycles simulated: 138000  inst.: 7760012 (ipc=56.2) sim_rate=95802 (inst/sec) elapsed = 0:0:01:21 / Tue Mar 22 07:39:59 2016
GPGPU-Sim uArch: cycles simulated: 140000  inst.: 7845772 (ipc=56.0) sim_rate=95680 (inst/sec) elapsed = 0:0:01:22 / Tue Mar 22 07:40:00 2016
GPGPU-Sim PTX: 7900000 instructions simulated : ctaid=(1,0,0) tid=(415,0,0)
GPGPU-Sim PTX: 8000000 instructions simulated : ctaid=(13,0,0) tid=(143,0,0)
GPGPU-Sim uArch: cycles simulated: 142500  inst.: 7953404 (ipc=55.8) sim_rate=95824 (inst/sec) elapsed = 0:0:01:23 / Tue Mar 22 07:40:01 2016
GPGPU-Sim PTX: 8100000 instructions simulated : ctaid=(0,0,0) tid=(511,0,0)
GPGPU-Sim uArch: cycles simulated: 144500  inst.: 8064492 (ipc=55.8) sim_rate=96005 (inst/sec) elapsed = 0:0:01:24 / Tue Mar 22 07:40:02 2016
GPGPU-Sim PTX: 8200000 instructions simulated : ctaid=(12,0,0) tid=(463,0,0)
GPGPU-Sim uArch: cycles simulated: 146500  inst.: 8173340 (ipc=55.8) sim_rate=96156 (inst/sec) elapsed = 0:0:01:25 / Tue Mar 22 07:40:03 2016
GPGPU-Sim PTX: 8300000 instructions simulated : ctaid=(13,0,0) tid=(335,0,0)
GPGPU-Sim uArch: cycles simulated: 149000  inst.: 8285356 (ipc=55.6) sim_rate=96341 (inst/sec) elapsed = 0:0:01:26 / Tue Mar 22 07:40:04 2016
GPGPU-Sim PTX: 8400000 instructions simulated : ctaid=(17,0,0) tid=(287,0,0)
GPGPU-Sim uArch: cycles simulated: 151000  inst.: 8370892 (ipc=55.4) sim_rate=96217 (inst/sec) elapsed = 0:0:01:27 / Tue Mar 22 07:40:05 2016
GPGPU-Sim PTX: 8500000 instructions simulated : ctaid=(3,0,0) tid=(95,0,0)
GPGPU-Sim uArch: cycles simulated: 153000  inst.: 8455628 (ipc=55.3) sim_rate=96086 (inst/sec) elapsed = 0:0:01:28 / Tue Mar 22 07:40:06 2016
GPGPU-Sim PTX: 8600000 instructions simulated : ctaid=(18,0,0) tid=(319,0,0)
GPGPU-Sim uArch: cycles simulated: 155000  inst.: 8552572 (ipc=55.2) sim_rate=96096 (inst/sec) elapsed = 0:0:01:29 / Tue Mar 22 07:40:07 2016
GPGPU-Sim uArch: cycles simulated: 157000  inst.: 8646572 (ipc=55.1) sim_rate=96073 (inst/sec) elapsed = 0:0:01:30 / Tue Mar 22 07:40:08 2016
GPGPU-Sim PTX: 8700000 instructions simulated : ctaid=(9,0,0) tid=(223,0,0)
GPGPU-Sim PTX: 8800000 instructions simulated : ctaid=(9,0,0) tid=(511,0,0)
GPGPU-Sim uArch: cycles simulated: 159000  inst.: 8749340 (ipc=55.0) sim_rate=96146 (inst/sec) elapsed = 0:0:01:31 / Tue Mar 22 07:40:09 2016
GPGPU-Sim uArch: cycles simulated: 161000  inst.: 8842604 (ipc=54.9) sim_rate=96115 (inst/sec) elapsed = 0:0:01:32 / Tue Mar 22 07:40:10 2016
GPGPU-Sim PTX: 8900000 instructions simulated : ctaid=(16,0,0) tid=(271,0,0)
GPGPU-Sim PTX: 9000000 instructions simulated : ctaid=(14,0,0) tid=(143,0,0)
GPGPU-Sim uArch: cycles simulated: 163000  inst.: 8970652 (ipc=55.0) sim_rate=96458 (inst/sec) elapsed = 0:0:01:33 / Tue Mar 22 07:40:11 2016
GPGPU-Sim PTX: 9100000 instructions simulated : ctaid=(13,0,0) tid=(287,0,0)
GPGPU-Sim uArch: cycles simulated: 165000  inst.: 9056508 (ipc=54.9) sim_rate=96345 (inst/sec) elapsed = 0:0:01:34 / Tue Mar 22 07:40:12 2016
GPGPU-Sim uArch: cycles simulated: 167000  inst.: 9131452 (ipc=54.7) sim_rate=96120 (inst/sec) elapsed = 0:0:01:35 / Tue Mar 22 07:40:13 2016
GPGPU-Sim PTX: 9200000 instructions simulated : ctaid=(13,0,0) tid=(223,0,0)
GPGPU-Sim uArch: cycles simulated: 169500  inst.: 9239916 (ipc=54.5) sim_rate=96249 (inst/sec) elapsed = 0:0:01:36 / Tue Mar 22 07:40:14 2016
GPGPU-Sim PTX: 9300000 instructions simulated : ctaid=(9,0,0) tid=(79,0,0)
GPGPU-Sim uArch: cycles simulated: 171500  inst.: 9321404 (ipc=54.4) sim_rate=96096 (inst/sec) elapsed = 0:0:01:37 / Tue Mar 22 07:40:15 2016
GPGPU-Sim PTX: 9400000 instructions simulated : ctaid=(9,0,0) tid=(463,0,0)
GPGPU-Sim uArch: cycles simulated: 173500  inst.: 9414396 (ipc=54.3) sim_rate=96065 (inst/sec) elapsed = 0:0:01:38 / Tue Mar 22 07:40:16 2016
GPGPU-Sim PTX: 9500000 instructions simulated : ctaid=(5,0,0) tid=(447,0,0)
GPGPU-Sim uArch: cycles simulated: 175500  inst.: 9524204 (ipc=54.3) sim_rate=96204 (inst/sec) elapsed = 0:0:01:39 / Tue Mar 22 07:40:17 2016
GPGPU-Sim PTX: 9600000 instructions simulated : ctaid=(13,0,0) tid=(271,0,0)
GPGPU-Sim uArch: cycles simulated: 177500  inst.: 9614044 (ipc=54.2) sim_rate=96140 (inst/sec) elapsed = 0:0:01:40 / Tue Mar 22 07:40:18 2016
GPGPU-Sim PTX: 9700000 instructions simulated : ctaid=(2,0,0) tid=(15,0,0)
GPGPU-Sim uArch: cycles simulated: 180000  inst.: 9740620 (ipc=54.1) sim_rate=96441 (inst/sec) elapsed = 0:0:01:41 / Tue Mar 22 07:40:19 2016
GPGPU-Sim PTX: 9800000 instructions simulated : ctaid=(17,0,0) tid=(303,0,0)
GPGPU-Sim uArch: cycles simulated: 182000  inst.: 9835500 (ipc=54.0) sim_rate=96426 (inst/sec) elapsed = 0:0:01:42 / Tue Mar 22 07:40:20 2016
GPGPU-Sim PTX: 9900000 instructions simulated : ctaid=(1,0,0) tid=(127,0,0)
GPGPU-Sim uArch: cycles simulated: 184000  inst.: 9914316 (ipc=53.9) sim_rate=96255 (inst/sec) elapsed = 0:0:01:43 / Tue Mar 22 07:40:21 2016
GPGPU-Sim PTX: 10000000 instructions simulated : ctaid=(5,0,0) tid=(191,0,0)
GPGPU-Sim uArch: cycles simulated: 186000  inst.: 9996716 (ipc=53.7) sim_rate=96122 (inst/sec) elapsed = 0:0:01:44 / Tue Mar 22 07:40:22 2016
GPGPU-Sim PTX: 10100000 instructions simulated : ctaid=(14,0,0) tid=(223,0,0)
GPGPU-Sim uArch: cycles simulated: 188000  inst.: 10130588 (ipc=53.9) sim_rate=96481 (inst/sec) elapsed = 0:0:01:45 / Tue Mar 22 07:40:23 2016
GPGPU-Sim PTX: 10200000 instructions simulated : ctaid=(3,0,0) tid=(511,0,0)
GPGPU-Sim uArch: cycles simulated: 190500  inst.: 10226956 (ipc=53.7) sim_rate=96480 (inst/sec) elapsed = 0:0:01:46 / Tue Mar 22 07:40:24 2016
GPGPU-Sim PTX: 10300000 instructions simulated : ctaid=(18,0,0) tid=(159,0,0)
GPGPU-Sim uArch: cycles simulated: 192500  inst.: 10306972 (ipc=53.5) sim_rate=96326 (inst/sec) elapsed = 0:0:01:47 / Tue Mar 22 07:40:25 2016
GPGPU-Sim PTX: 10400000 instructions simulated : ctaid=(9,0,0) tid=(15,0,0)
GPGPU-Sim uArch: cycles simulated: 194500  inst.: 10394300 (ipc=53.4) sim_rate=96243 (inst/sec) elapsed = 0:0:01:48 / Tue Mar 22 07:40:26 2016
GPGPU-Sim PTX: 10500000 instructions simulated : ctaid=(3,0,0) tid=(479,0,0)
GPGPU-Sim uArch: cycles simulated: 197000  inst.: 10499020 (ipc=53.3) sim_rate=96321 (inst/sec) elapsed = 0:0:01:49 / Tue Mar 22 07:40:27 2016
GPGPU-Sim PTX: 10600000 instructions simulated : ctaid=(5,0,0) tid=(367,0,0)
GPGPU-Sim uArch: cycles simulated: 199000  inst.: 10583788 (ipc=53.2) sim_rate=96216 (inst/sec) elapsed = 0:0:01:50 / Tue Mar 22 07:40:28 2016
GPGPU-Sim PTX: 10700000 instructions simulated : ctaid=(14,0,0) tid=(15,0,0)
GPGPU-Sim uArch: cycles simulated: 201000  inst.: 10676380 (ipc=53.1) sim_rate=96183 (inst/sec) elapsed = 0:0:01:51 / Tue Mar 22 07:40:29 2016
GPGPU-Sim PTX: 10800000 instructions simulated : ctaid=(18,0,0) tid=(191,0,0)
GPGPU-Sim uArch: cycles simulated: 203000  inst.: 10803564 (ipc=53.2) sim_rate=96460 (inst/sec) elapsed = 0:0:01:52 / Tue Mar 22 07:40:30 2016
GPGPU-Sim PTX: 10900000 instructions simulated : ctaid=(10,0,0) tid=(159,0,0)
GPGPU-Sim uArch: cycles simulated: 205500  inst.: 10899772 (ipc=53.0) sim_rate=96458 (inst/sec) elapsed = 0:0:01:53 / Tue Mar 22 07:40:31 2016
GPGPU-Sim PTX: 11000000 instructions simulated : ctaid=(5,0,0) tid=(399,0,0)
GPGPU-Sim uArch: cycles simulated: 207500  inst.: 10962716 (ipc=52.8) sim_rate=96164 (inst/sec) elapsed = 0:0:01:54 / Tue Mar 22 07:40:32 2016
GPGPU-Sim PTX: 11100000 instructions simulated : ctaid=(7,0,0) tid=(463,0,0)
GPGPU-Sim uArch: cycles simulated: 209500  inst.: 11081452 (ipc=52.9) sim_rate=96360 (inst/sec) elapsed = 0:0:01:55 / Tue Mar 22 07:40:33 2016
GPGPU-Sim PTX: 11200000 instructions simulated : ctaid=(6,0,0) tid=(351,0,0)
GPGPU-Sim uArch: cycles simulated: 211500  inst.: 11160492 (ipc=52.8) sim_rate=96211 (inst/sec) elapsed = 0:0:01:56 / Tue Mar 22 07:40:34 2016
GPGPU-Sim PTX: 11300000 instructions simulated : ctaid=(7,0,0) tid=(47,0,0)
GPGPU-Sim uArch: cycles simulated: 213500  inst.: 11275356 (ipc=52.8) sim_rate=96370 (inst/sec) elapsed = 0:0:01:57 / Tue Mar 22 07:40:35 2016
GPGPU-Sim PTX: 11400000 instructions simulated : ctaid=(5,0,0) tid=(399,0,0)
GPGPU-Sim uArch: cycles simulated: 216000  inst.: 11353292 (ipc=52.6) sim_rate=96214 (inst/sec) elapsed = 0:0:01:58 / Tue Mar 22 07:40:36 2016
GPGPU-Sim uArch: cycles simulated: 218000  inst.: 11429740 (ipc=52.4) sim_rate=96048 (inst/sec) elapsed = 0:0:01:59 / Tue Mar 22 07:40:37 2016
GPGPU-Sim PTX: 11500000 instructions simulated : ctaid=(6,0,0) tid=(383,0,0)
GPGPU-Sim uArch: cycles simulated: 220000  inst.: 11544476 (ipc=52.5) sim_rate=96203 (inst/sec) elapsed = 0:0:02:00 / Tue Mar 22 07:40:38 2016
GPGPU-Sim PTX: 11600000 instructions simulated : ctaid=(13,0,0) tid=(207,0,0)
GPGPU-Sim PTX: 11700000 instructions simulated : ctaid=(9,0,0) tid=(143,0,0)
GPGPU-Sim uArch: cycles simulated: 222500  inst.: 11668188 (ipc=52.4) sim_rate=96431 (inst/sec) elapsed = 0:0:02:01 / Tue Mar 22 07:40:39 2016
GPGPU-Sim PTX: 11800000 instructions simulated : ctaid=(10,0,0) tid=(431,0,0)
GPGPU-Sim uArch: cycles simulated: 224500  inst.: 11754428 (ipc=52.4) sim_rate=96347 (inst/sec) elapsed = 0:0:02:02 / Tue Mar 22 07:40:40 2016
GPGPU-Sim uArch: cycles simulated: 226500  inst.: 11826908 (ipc=52.2) sim_rate=96153 (inst/sec) elapsed = 0:0:02:03 / Tue Mar 22 07:40:41 2016
GPGPU-Sim PTX: 11900000 instructions simulated : ctaid=(8,0,0) tid=(463,0,0)
GPGPU-Sim PTX: 12000000 instructions simulated : ctaid=(1,0,0) tid=(511,0,0)
GPGPU-Sim uArch: cycles simulated: 229000  inst.: 11950924 (ipc=52.2) sim_rate=96378 (inst/sec) elapsed = 0:0:02:04 / Tue Mar 22 07:40:42 2016
GPGPU-Sim uArch: cycles simulated: 231000  inst.: 12040780 (ipc=52.1) sim_rate=96326 (inst/sec) elapsed = 0:0:02:05 / Tue Mar 22 07:40:43 2016
GPGPU-Sim PTX: 12100000 instructions simulated : ctaid=(7,0,0) tid=(31,0,0)
GPGPU-Sim uArch: cycles simulated: 233000  inst.: 12125964 (ipc=52.0) sim_rate=96237 (inst/sec) elapsed = 0:0:02:06 / Tue Mar 22 07:40:44 2016
GPGPU-Sim PTX: 12200000 instructions simulated : ctaid=(9,0,0) tid=(31,0,0)
GPGPU-Sim uArch: cycles simulated: 235000  inst.: 12229836 (ipc=52.0) sim_rate=96297 (inst/sec) elapsed = 0:0:02:07 / Tue Mar 22 07:40:45 2016
GPGPU-Sim PTX: 12300000 instructions simulated : ctaid=(14,0,0) tid=(223,0,0)
GPGPU-Sim uArch: cycles simulated: 237500  inst.: 12329180 (ipc=51.9) sim_rate=96321 (inst/sec) elapsed = 0:0:02:08 / Tue Mar 22 07:40:46 2016
GPGPU-Sim PTX: 12400000 instructions simulated : ctaid=(14,0,0) tid=(239,0,0)
GPGPU-Sim uArch: cycles simulated: 239500  inst.: 12418668 (ipc=51.9) sim_rate=96268 (inst/sec) elapsed = 0:0:02:09 / Tue Mar 22 07:40:47 2016
GPGPU-Sim PTX: 12500000 instructions simulated : ctaid=(13,0,0) tid=(351,0,0)
GPGPU-Sim uArch: cycles simulated: 241500  inst.: 12508092 (ipc=51.8) sim_rate=96216 (inst/sec) elapsed = 0:0:02:10 / Tue Mar 22 07:40:48 2016
GPGPU-Sim PTX: 12600000 instructions simulated : ctaid=(10,0,0) tid=(463,0,0)
GPGPU-Sim uArch: cycles simulated: 243500  inst.: 12610588 (ipc=51.8) sim_rate=96264 (inst/sec) elapsed = 0:0:02:11 / Tue Mar 22 07:40:49 2016
GPGPU-Sim PTX: 12700000 instructions simulated : ctaid=(5,0,0) tid=(31,0,0)
GPGPU-Sim uArch: cycles simulated: 245500  inst.: 12731852 (ipc=51.9) sim_rate=96453 (inst/sec) elapsed = 0:0:02:12 / Tue Mar 22 07:40:50 2016
GPGPU-Sim PTX: 12800000 instructions simulated : ctaid=(14,0,0) tid=(287,0,0)
GPGPU-Sim uArch: cycles simulated: 247500  inst.: 12824140 (ipc=51.8) sim_rate=96422 (inst/sec) elapsed = 0:0:02:13 / Tue Mar 22 07:40:51 2016
GPGPU-Sim PTX: 12900000 instructions simulated : ctaid=(7,0,0) tid=(95,0,0)
GPGPU-Sim uArch: cycles simulated: 250000  inst.: 12928284 (ipc=51.7) sim_rate=96479 (inst/sec) elapsed = 0:0:02:14 / Tue Mar 22 07:40:52 2016
GPGPU-Sim PTX: 13000000 instructions simulated : ctaid=(13,0,0) tid=(271,0,0)
GPGPU-Sim uArch: cycles simulated: 252000  inst.: 13017692 (ipc=51.7) sim_rate=96427 (inst/sec) elapsed = 0:0:02:15 / Tue Mar 22 07:40:53 2016
GPGPU-Sim PTX: 13100000 instructions simulated : ctaid=(13,0,0) tid=(175,0,0)
GPGPU-Sim uArch: cycles simulated: 254000  inst.: 13124476 (ipc=51.7) sim_rate=96503 (inst/sec) elapsed = 0:0:02:16 / Tue Mar 22 07:40:54 2016
GPGPU-Sim PTX: 13200000 instructions simulated : ctaid=(6,0,0) tid=(15,0,0)
GPGPU-Sim uArch: cycles simulated: 256000  inst.: 13233772 (ipc=51.7) sim_rate=96596 (inst/sec) elapsed = 0:0:02:17 / Tue Mar 22 07:40:55 2016
GPGPU-Sim PTX: 13300000 instructions simulated : ctaid=(14,0,0) tid=(15,0,0)
GPGPU-Sim uArch: cycles simulated: 258000  inst.: 13320796 (ipc=51.6) sim_rate=96527 (inst/sec) elapsed = 0:0:02:18 / Tue Mar 22 07:40:56 2016
GPGPU-Sim PTX: 13400000 instructions simulated : ctaid=(1,0,0) tid=(111,0,0)
GPGPU-Sim uArch: cycles simulated: 260000  inst.: 13399612 (ipc=51.5) sim_rate=96400 (inst/sec) elapsed = 0:0:02:19 / Tue Mar 22 07:40:57 2016
GPGPU-Sim PTX: 13500000 instructions simulated : ctaid=(9,0,0) tid=(287,0,0)
GPGPU-Sim uArch: cycles simulated: 262500  inst.: 13481996 (ipc=51.4) sim_rate=96299 (inst/sec) elapsed = 0:0:02:20 / Tue Mar 22 07:40:58 2016
GPGPU-Sim PTX: 13600000 instructions simulated : ctaid=(10,0,0) tid=(95,0,0)
GPGPU-Sim uArch: cycles simulated: 264500  inst.: 13548748 (ipc=51.2) sim_rate=96090 (inst/sec) elapsed = 0:0:02:21 / Tue Mar 22 07:40:59 2016
GPGPU-Sim PTX: 13700000 instructions simulated : ctaid=(15,0,0) tid=(15,0,0)
GPGPU-Sim uArch: cycles simulated: 266500  inst.: 13660988 (ipc=51.3) sim_rate=96204 (inst/sec) elapsed = 0:0:02:22 / Tue Mar 22 07:41:00 2016
GPGPU-Sim PTX: 13800000 instructions simulated : ctaid=(15,0,0) tid=(271,0,0)
GPGPU-Sim uArch: cycles simulated: 269000  inst.: 13783628 (ipc=51.2) sim_rate=96389 (inst/sec) elapsed = 0:0:02:23 / Tue Mar 22 07:41:01 2016
GPGPU-Sim PTX: 13900000 instructions simulated : ctaid=(15,0,0) tid=(255,0,0)
GPGPU-Sim uArch: cycles simulated: 271000  inst.: 13873804 (ipc=51.2) sim_rate=96345 (inst/sec) elapsed = 0:0:02:24 / Tue Mar 22 07:41:02 2016
GPGPU-Sim uArch: cycles simulated: 273000  inst.: 13926892 (ipc=51.0) sim_rate=96047 (inst/sec) elapsed = 0:0:02:25 / Tue Mar 22 07:41:03 2016
GPGPU-Sim PTX: 14000000 instructions simulated : ctaid=(4,0,0) tid=(383,0,0)
GPGPU-Sim uArch: cycles simulated: 275500  inst.: 14012508 (ipc=50.9) sim_rate=95976 (inst/sec) elapsed = 0:0:02:26 / Tue Mar 22 07:41:04 2016
GPGPU-Sim PTX: 14100000 instructions simulated : ctaid=(10,0,0) tid=(271,0,0)
GPGPU-Sim uArch: cycles simulated: 277500  inst.: 14123948 (ipc=50.9) sim_rate=96081 (inst/sec) elapsed = 0:0:02:27 / Tue Mar 22 07:41:05 2016
GPGPU-Sim PTX: 14200000 instructions simulated : ctaid=(14,0,0) tid=(239,0,0)
GPGPU-Sim uArch: cycles simulated: 279500  inst.: 14230044 (ipc=50.9) sim_rate=96148 (inst/sec) elapsed = 0:0:02:28 / Tue Mar 22 07:41:06 2016
GPGPU-Sim PTX: 14300000 instructions simulated : ctaid=(5,0,0) tid=(239,0,0)
GPGPU-Sim uArch: cycles simulated: 281500  inst.: 14319500 (ipc=50.9) sim_rate=96104 (inst/sec) elapsed = 0:0:02:29 / Tue Mar 22 07:41:07 2016
GPGPU-Sim PTX: 14400000 instructions simulated : ctaid=(11,0,0) tid=(31,0,0)
GPGPU-Sim uArch: cycles simulated: 284000  inst.: 14406316 (ipc=50.7) sim_rate=96042 (inst/sec) elapsed = 0:0:02:30 / Tue Mar 22 07:41:08 2016
GPGPU-Sim PTX: 14500000 instructions simulated : ctaid=(17,0,0) tid=(255,0,0)
GPGPU-Sim uArch: cycles simulated: 286000  inst.: 14510796 (ipc=50.7) sim_rate=96097 (inst/sec) elapsed = 0:0:02:31 / Tue Mar 22 07:41:09 2016
GPGPU-Sim PTX: 14600000 instructions simulated : ctaid=(8,0,0) tid=(143,0,0)
GPGPU-Sim uArch: cycles simulated: 288000  inst.: 14587932 (ipc=50.7) sim_rate=95973 (inst/sec) elapsed = 0:0:02:32 / Tue Mar 22 07:41:10 2016
GPGPU-Sim PTX: 14700000 instructions simulated : ctaid=(12,0,0) tid=(511,0,0)
GPGPU-Sim uArch: cycles simulated: 290000  inst.: 14708380 (ipc=50.7) sim_rate=96133 (inst/sec) elapsed = 0:0:02:33 / Tue Mar 22 07:41:11 2016
GPGPU-Sim PTX: 14800000 instructions simulated : ctaid=(7,0,0) tid=(15,0,0)
GPGPU-Sim uArch: cycles simulated: 292000  inst.: 14798076 (ipc=50.7) sim_rate=96091 (inst/sec) elapsed = 0:0:02:34 / Tue Mar 22 07:41:12 2016
GPGPU-Sim PTX: 14900000 instructions simulated : ctaid=(18,0,0) tid=(47,0,0)
GPGPU-Sim uArch: cycles simulated: 294000  inst.: 14890748 (ipc=50.6) sim_rate=96069 (inst/sec) elapsed = 0:0:02:35 / Tue Mar 22 07:41:13 2016
GPGPU-Sim PTX: 15000000 instructions simulated : ctaid=(0,0,0) tid=(111,0,0)
GPGPU-Sim uArch: cycles simulated: 296500  inst.: 15008172 (ipc=50.6) sim_rate=96206 (inst/sec) elapsed = 0:0:02:36 / Tue Mar 22 07:41:14 2016
GPGPU-Sim PTX: 15100000 instructions simulated : ctaid=(15,0,0) tid=(367,0,0)
GPGPU-Sim uArch: cycles simulated: 298500  inst.: 15128284 (ipc=50.7) sim_rate=96358 (inst/sec) elapsed = 0:0:02:37 / Tue Mar 22 07:41:15 2016
GPGPU-Sim PTX: 15200000 instructions simulated : ctaid=(7,0,0) tid=(287,0,0)
GPGPU-Sim uArch: cycles simulated: 300500  inst.: 15222796 (ipc=50.7) sim_rate=96346 (inst/sec) elapsed = 0:0:02:38 / Tue Mar 22 07:41:16 2016
GPGPU-Sim PTX: 15300000 instructions simulated : ctaid=(1,0,0) tid=(287,0,0)
GPGPU-Sim uArch: cycles simulated: 302500  inst.: 15304476 (ipc=50.6) sim_rate=96254 (inst/sec) elapsed = 0:0:02:39 / Tue Mar 22 07:41:17 2016
GPGPU-Sim PTX: 15400000 instructions simulated : ctaid=(17,0,0) tid=(47,0,0)
GPGPU-Sim uArch: cycles simulated: 304500  inst.: 15378812 (ipc=50.5) sim_rate=96117 (inst/sec) elapsed = 0:0:02:40 / Tue Mar 22 07:41:18 2016
GPGPU-Sim PTX: 15500000 instructions simulated : ctaid=(6,0,0) tid=(31,0,0)
GPGPU-Sim uArch: cycles simulated: 306500  inst.: 15477756 (ipc=50.5) sim_rate=96135 (inst/sec) elapsed = 0:0:02:41 / Tue Mar 22 07:41:19 2016
GPGPU-Sim PTX: 15600000 instructions simulated : ctaid=(14,0,0) tid=(191,0,0)
GPGPU-Sim uArch: cycles simulated: 308500  inst.: 15590684 (ipc=50.5) sim_rate=96238 (inst/sec) elapsed = 0:0:02:42 / Tue Mar 22 07:41:20 2016
GPGPU-Sim PTX: 15700000 instructions simulated : ctaid=(3,0,0) tid=(207,0,0)
GPGPU-Sim uArch: cycles simulated: 311000  inst.: 15674652 (ipc=50.4) sim_rate=96163 (inst/sec) elapsed = 0:0:02:43 / Tue Mar 22 07:41:21 2016
GPGPU-Sim PTX: 15800000 instructions simulated : ctaid=(15,0,0) tid=(95,0,0)
GPGPU-Sim uArch: cycles simulated: 313000  inst.: 15778220 (ipc=50.4) sim_rate=96208 (inst/sec) elapsed = 0:0:02:44 / Tue Mar 22 07:41:22 2016
GPGPU-Sim PTX: 15900000 instructions simulated : ctaid=(6,0,0) tid=(223,0,0)
GPGPU-Sim uArch: cycles simulated: 315000  inst.: 15858444 (ipc=50.3) sim_rate=96111 (inst/sec) elapsed = 0:0:02:45 / Tue Mar 22 07:41:23 2016
GPGPU-Sim PTX: 16000000 instructions simulated : ctaid=(15,0,0) tid=(31,0,0)
GPGPU-Sim uArch: cycles simulated: 317000  inst.: 15957788 (ipc=50.3) sim_rate=96131 (inst/sec) elapsed = 0:0:02:46 / Tue Mar 22 07:41:24 2016
GPGPU-Sim uArch: cycles simulated: 319000  inst.: 16043164 (ipc=50.3) sim_rate=96066 (inst/sec) elapsed = 0:0:02:47 / Tue Mar 22 07:41:25 2016
GPGPU-Sim PTX: 16100000 instructions simulated : ctaid=(4,0,0) tid=(239,0,0)
GPGPU-Sim PTX: 16200000 instructions simulated : ctaid=(17,0,0) tid=(431,0,0)
GPGPU-Sim uArch: cycles simulated: 321000  inst.: 16168828 (ipc=50.4) sim_rate=96243 (inst/sec) elapsed = 0:0:02:48 / Tue Mar 22 07:41:26 2016
GPGPU-Sim uArch: cycles simulated: 323000  inst.: 16230748 (ipc=50.2) sim_rate=96039 (inst/sec) elapsed = 0:0:02:49 / Tue Mar 22 07:41:27 2016
GPGPU-Sim PTX: 16300000 instructions simulated : ctaid=(17,0,0) tid=(15,0,0)
GPGPU-Sim uArch: cycles simulated: 325000  inst.: 16322108 (ipc=50.2) sim_rate=96012 (inst/sec) elapsed = 0:0:02:50 / Tue Mar 22 07:41:28 2016
GPGPU-Sim PTX: 16400000 instructions simulated : ctaid=(12,0,0) tid=(415,0,0)
GPGPU-Sim uArch: cycles simulated: 327000  inst.: 16433196 (ipc=50.3) sim_rate=96100 (inst/sec) elapsed = 0:0:02:51 / Tue Mar 22 07:41:29 2016
GPGPU-Sim PTX: 16500000 instructions simulated : ctaid=(4,0,0) tid=(31,0,0)
GPGPU-Sim uArch: cycles simulated: 329000  inst.: 16501292 (ipc=50.2) sim_rate=95937 (inst/sec) elapsed = 0:0:02:52 / Tue Mar 22 07:41:30 2016
GPGPU-Sim PTX: 16600000 instructions simulated : ctaid=(11,0,0) tid=(207,0,0)
GPGPU-Sim uArch: cycles simulated: 331000  inst.: 16600348 (ipc=50.2) sim_rate=95955 (inst/sec) elapsed = 0:0:02:53 / Tue Mar 22 07:41:31 2016
GPGPU-Sim PTX: 16700000 instructions simulated : ctaid=(7,0,0) tid=(351,0,0)
GPGPU-Sim uArch: cycles simulated: 333000  inst.: 16702444 (ipc=50.2) sim_rate=95991 (inst/sec) elapsed = 0:0:02:54 / Tue Mar 22 07:41:32 2016
GPGPU-Sim PTX: 16800000 instructions simulated : ctaid=(9,0,0) tid=(447,0,0)
GPGPU-Sim uArch: cycles simulated: 335000  inst.: 16804492 (ipc=50.2) sim_rate=96025 (inst/sec) elapsed = 0:0:02:55 / Tue Mar 22 07:41:33 2016
GPGPU-Sim PTX: 16900000 instructions simulated : ctaid=(4,0,0) tid=(175,0,0)
GPGPU-Sim uArch: cycles simulated: 337000  inst.: 16920220 (ipc=50.2) sim_rate=96137 (inst/sec) elapsed = 0:0:02:56 / Tue Mar 22 07:41:34 2016
GPGPU-Sim PTX: 17000000 instructions simulated : ctaid=(11,0,0) tid=(495,0,0)
GPGPU-Sim uArch: cycles simulated: 339000  inst.: 16991996 (ipc=50.1) sim_rate=95999 (inst/sec) elapsed = 0:0:02:57 / Tue Mar 22 07:41:35 2016
GPGPU-Sim PTX: 17100000 instructions simulated : ctaid=(4,0,0) tid=(351,0,0)
GPGPU-Sim uArch: cycles simulated: 341000  inst.: 17066668 (ipc=50.0) sim_rate=95880 (inst/sec) elapsed = 0:0:02:58 / Tue Mar 22 07:41:36 2016
GPGPU-Sim PTX: 17200000 instructions simulated : ctaid=(5,0,0) tid=(415,0,0)
GPGPU-Sim uArch: cycles simulated: 343000  inst.: 17187116 (ipc=50.1) sim_rate=96017 (inst/sec) elapsed = 0:0:02:59 / Tue Mar 22 07:41:37 2016
GPGPU-Sim PTX: 17300000 instructions simulated : ctaid=(10,0,0) tid=(415,0,0)
GPGPU-Sim uArch: cycles simulated: 345500  inst.: 17275788 (ipc=50.0) sim_rate=95976 (inst/sec) elapsed = 0:0:03:00 / Tue Mar 22 07:41:38 2016
GPGPU-Sim PTX: 17400000 instructions simulated : ctaid=(10,0,0) tid=(495,0,0)
GPGPU-Sim uArch: cycles simulated: 347500  inst.: 17393004 (ipc=50.1) sim_rate=96093 (inst/sec) elapsed = 0:0:03:01 / Tue Mar 22 07:41:39 2016
GPGPU-Sim PTX: 17500000 instructions simulated : ctaid=(12,0,0) tid=(511,0,0)
GPGPU-Sim uArch: cycles simulated: 349500  inst.: 17498460 (ipc=50.1) sim_rate=96145 (inst/sec) elapsed = 0:0:03:02 / Tue Mar 22 07:41:40 2016
GPGPU-Sim PTX: 17600000 instructions simulated : ctaid=(8,0,0) tid=(79,0,0)
GPGPU-Sim uArch: cycles simulated: 351500  inst.: 17577916 (ipc=50.0) sim_rate=96054 (inst/sec) elapsed = 0:0:03:03 / Tue Mar 22 07:41:41 2016
GPGPU-Sim PTX: 17700000 instructions simulated : ctaid=(13,0,0) tid=(447,0,0)
GPGPU-Sim uArch: cycles simulated: 353500  inst.: 17669068 (ipc=50.0) sim_rate=96027 (inst/sec) elapsed = 0:0:03:04 / Tue Mar 22 07:41:42 2016
GPGPU-Sim PTX: 17800000 instructions simulated : ctaid=(12,0,0) tid=(431,0,0)
GPGPU-Sim uArch: cycles simulated: 355500  inst.: 17785196 (ipc=50.0) sim_rate=96136 (inst/sec) elapsed = 0:0:03:05 / Tue Mar 22 07:41:43 2016
GPGPU-Sim PTX: 17900000 instructions simulated : ctaid=(8,0,0) tid=(303,0,0)
GPGPU-Sim uArch: cycles simulated: 357500  inst.: 17861836 (ipc=50.0) sim_rate=96031 (inst/sec) elapsed = 0:0:03:06 / Tue Mar 22 07:41:44 2016
GPGPU-Sim PTX: 18000000 instructions simulated : ctaid=(17,0,0) tid=(431,0,0)
GPGPU-Sim uArch: cycles simulated: 359500  inst.: 17957868 (ipc=50.0) sim_rate=96031 (inst/sec) elapsed = 0:0:03:07 / Tue Mar 22 07:41:45 2016
GPGPU-Sim PTX: 18100000 instructions simulated : ctaid=(9,0,0) tid=(351,0,0)
GPGPU-Sim uArch: cycles simulated: 361500  inst.: 18059820 (ipc=50.0) sim_rate=96062 (inst/sec) elapsed = 0:0:03:08 / Tue Mar 22 07:41:46 2016
GPGPU-Sim uArch: cycles simulated: 363500  inst.: 18143180 (ipc=49.9) sim_rate=95995 (inst/sec) elapsed = 0:0:03:09 / Tue Mar 22 07:41:47 2016
GPGPU-Sim PTX: 18200000 instructions simulated : ctaid=(8,0,0) tid=(479,0,0)
GPGPU-Sim uArch: cycles simulated: 365500  inst.: 18239932 (ipc=49.9) sim_rate=95999 (inst/sec) elapsed = 0:0:03:10 / Tue Mar 22 07:41:48 2016
GPGPU-Sim PTX: 18300000 instructions simulated : ctaid=(6,0,0) tid=(31,0,0)
GPGPU-Sim uArch: cycles simulated: 367500  inst.: 18343916 (ipc=49.9) sim_rate=96041 (inst/sec) elapsed = 0:0:03:11 / Tue Mar 22 07:41:49 2016
GPGPU-Sim PTX: 18400000 instructions simulated : ctaid=(9,0,0) tid=(255,0,0)
GPGPU-Sim uArch: cycles simulated: 369000  inst.: 18445852 (ipc=50.0) sim_rate=96072 (inst/sec) elapsed = 0:0:03:12 / Tue Mar 22 07:41:50 2016
GPGPU-Sim PTX: 18500000 instructions simulated : ctaid=(6,0,0) tid=(303,0,0)
GPGPU-Sim uArch: cycles simulated: 371000  inst.: 18518940 (ipc=49.9) sim_rate=95953 (inst/sec) elapsed = 0:0:03:13 / Tue Mar 22 07:41:51 2016
GPGPU-Sim PTX: 18600000 instructions simulated : ctaid=(12,0,0) tid=(415,0,0)
GPGPU-Sim uArch: cycles simulated: 373000  inst.: 18595788 (ipc=49.9) sim_rate=95854 (inst/sec) elapsed = 0:0:03:14 / Tue Mar 22 07:41:52 2016
GPGPU-Sim PTX: 18700000 instructions simulated : ctaid=(18,0,0) tid=(207,0,0)
GPGPU-Sim uArch: cycles simulated: 375000  inst.: 18710620 (ipc=49.9) sim_rate=95951 (inst/sec) elapsed = 0:0:03:15 / Tue Mar 22 07:41:53 2016
GPGPU-Sim PTX: 18800000 instructions simulated : ctaid=(10,0,0) tid=(415,0,0)
GPGPU-Sim uArch: cycles simulated: 377000  inst.: 18805788 (ipc=49.9) sim_rate=95947 (inst/sec) elapsed = 0:0:03:16 / Tue Mar 22 07:41:54 2016
GPGPU-Sim PTX: 18900000 instructions simulated : ctaid=(8,0,0) tid=(367,0,0)
GPGPU-Sim uArch: cycles simulated: 379000  inst.: 18879836 (ipc=49.8) sim_rate=95836 (inst/sec) elapsed = 0:0:03:17 / Tue Mar 22 07:41:55 2016
GPGPU-Sim PTX: 19000000 instructions simulated : ctaid=(4,0,0) tid=(287,0,0)
GPGPU-Sim uArch: cycles simulated: 381000  inst.: 18971196 (ipc=49.8) sim_rate=95814 (inst/sec) elapsed = 0:0:03:18 / Tue Mar 22 07:41:56 2016
GPGPU-Sim PTX: 19100000 instructions simulated : ctaid=(10,0,0) tid=(63,0,0)
GPGPU-Sim uArch: cycles simulated: 383000  inst.: 19061804 (ipc=49.8) sim_rate=95787 (inst/sec) elapsed = 0:0:03:19 / Tue Mar 22 07:41:57 2016
GPGPU-Sim PTX: 19200000 instructions simulated : ctaid=(8,0,0) tid=(415,0,0)
GPGPU-Sim uArch: cycles simulated: 385000  inst.: 19152076 (ipc=49.7) sim_rate=95760 (inst/sec) elapsed = 0:0:03:20 / Tue Mar 22 07:41:58 2016
GPGPU-Sim PTX: 19300000 instructions simulated : ctaid=(18,0,0) tid=(319,0,0)
GPGPU-Sim uArch: cycles simulated: 387000  inst.: 19267452 (ipc=49.8) sim_rate=95857 (inst/sec) elapsed = 0:0:03:21 / Tue Mar 22 07:41:59 2016
GPGPU-Sim PTX: 19400000 instructions simulated : ctaid=(7,0,0) tid=(239,0,0)
GPGPU-Sim uArch: cycles simulated: 389000  inst.: 19372092 (ipc=49.8) sim_rate=95901 (inst/sec) elapsed = 0:0:03:22 / Tue Mar 22 07:42:00 2016
GPGPU-Sim PTX: 19500000 instructions simulated : ctaid=(12,0,0) tid=(31,0,0)
GPGPU-Sim uArch: cycles simulated: 391000  inst.: 19471468 (ipc=49.8) sim_rate=95918 (inst/sec) elapsed = 0:0:03:23 / Tue Mar 22 07:42:01 2016
GPGPU-Sim uArch: cycles simulated: 393000  inst.: 19543548 (ipc=49.7) sim_rate=95801 (inst/sec) elapsed = 0:0:03:24 / Tue Mar 22 07:42:02 2016
GPGPU-Sim PTX: 19600000 instructions simulated : ctaid=(15,0,0) tid=(271,0,0)
GPGPU-Sim uArch: cycles simulated: 395000  inst.: 19634348 (ipc=49.7) sim_rate=95777 (inst/sec) elapsed = 0:0:03:25 / Tue Mar 22 07:42:03 2016
GPGPU-Sim PTX: 19700000 instructions simulated : ctaid=(13,0,0) tid=(191,0,0)
GPGPU-Sim uArch: cycles simulated: 397000  inst.: 19741900 (ipc=49.7) sim_rate=95834 (inst/sec) elapsed = 0:0:03:26 / Tue Mar 22 07:42:04 2016
GPGPU-Sim PTX: 19800000 instructions simulated : ctaid=(11,0,0) tid=(415,0,0)
GPGPU-Sim uArch: cycles simulated: 399000  inst.: 19818620 (ipc=49.7) sim_rate=95742 (inst/sec) elapsed = 0:0:03:27 / Tue Mar 22 07:42:05 2016
GPGPU-Sim PTX: 19900000 instructions simulated : ctaid=(11,0,0) tid=(335,0,0)
GPGPU-Sim uArch: cycles simulated: 401000  inst.: 19920796 (ipc=49.7) sim_rate=95773 (inst/sec) elapsed = 0:0:03:28 / Tue Mar 22 07:42:06 2016
GPGPU-Sim PTX: 20000000 instructions simulated : ctaid=(5,0,0) tid=(31,0,0)
GPGPU-Sim uArch: cycles simulated: 403000  inst.: 20004524 (ipc=49.6) sim_rate=95715 (inst/sec) elapsed = 0:0:03:29 / Tue Mar 22 07:42:07 2016
GPGPU-Sim PTX: 20100000 instructions simulated : ctaid=(16,0,0) tid=(399,0,0)
GPGPU-Sim uArch: cycles simulated: 405000  inst.: 20090428 (ipc=49.6) sim_rate=95668 (inst/sec) elapsed = 0:0:03:30 / Tue Mar 22 07:42:08 2016
GPGPU-Sim PTX: 20200000 instructions simulated : ctaid=(11,0,0) tid=(127,0,0)
GPGPU-Sim uArch: cycles simulated: 407000  inst.: 20221308 (ipc=49.7) sim_rate=95835 (inst/sec) elapsed = 0:0:03:31 / Tue Mar 22 07:42:09 2016
GPGPU-Sim PTX: 20300000 instructions simulated : ctaid=(7,0,0) tid=(319,0,0)
GPGPU-Sim uArch: cycles simulated: 409000  inst.: 20307164 (ipc=49.7) sim_rate=95788 (inst/sec) elapsed = 0:0:03:32 / Tue Mar 22 07:42:10 2016
GPGPU-Sim PTX: 20400000 instructions simulated : ctaid=(17,0,0) tid=(271,0,0)
GPGPU-Sim uArch: cycles simulated: 411500  inst.: 20394908 (ipc=49.6) sim_rate=95750 (inst/sec) elapsed = 0:0:03:33 / Tue Mar 22 07:42:11 2016
GPGPU-Sim PTX: 20500000 instructions simulated : ctaid=(16,0,0) tid=(351,0,0)
GPGPU-Sim uArch: cycles simulated: 413500  inst.: 20514716 (ipc=49.6) sim_rate=95863 (inst/sec) elapsed = 0:0:03:34 / Tue Mar 22 07:42:12 2016
GPGPU-Sim PTX: 20600000 instructions simulated : ctaid=(18,0,0) tid=(479,0,0)
GPGPU-Sim uArch: cycles simulated: 415500  inst.: 20619404 (ipc=49.6) sim_rate=95904 (inst/sec) elapsed = 0:0:03:35 / Tue Mar 22 07:42:13 2016
GPGPU-Sim PTX: 20700000 instructions simulated : ctaid=(10,0,0) tid=(351,0,0)
GPGPU-Sim uArch: cycles simulated: 417500  inst.: 20708460 (ipc=49.6) sim_rate=95872 (inst/sec) elapsed = 0:0:03:36 / Tue Mar 22 07:42:14 2016
GPGPU-Sim PTX: 20800000 instructions simulated : ctaid=(11,0,0) tid=(271,0,0)
GPGPU-Sim uArch: cycles simulated: 419500  inst.: 20809036 (ipc=49.6) sim_rate=95894 (inst/sec) elapsed = 0:0:03:37 / Tue Mar 22 07:42:15 2016
GPGPU-Sim PTX: 20900000 instructions simulated : ctaid=(11,0,0) tid=(495,0,0)
GPGPU-Sim uArch: cycles simulated: 421500  inst.: 20887356 (ipc=49.6) sim_rate=95813 (inst/sec) elapsed = 0:0:03:38 / Tue Mar 22 07:42:16 2016
GPGPU-Sim PTX: 21000000 instructions simulated : ctaid=(10,0,0) tid=(463,0,0)
GPGPU-Sim uArch: cycles simulated: 423500  inst.: 20956348 (ipc=49.5) sim_rate=95691 (inst/sec) elapsed = 0:0:03:39 / Tue Mar 22 07:42:17 2016
GPGPU-Sim PTX: 21100000 instructions simulated : ctaid=(4,0,0) tid=(223,0,0)
GPGPU-Sim uArch: cycles simulated: 425500  inst.: 21076236 (ipc=49.5) sim_rate=95801 (inst/sec) elapsed = 0:0:03:40 / Tue Mar 22 07:42:18 2016
[...]
dram[4]:         0         0         0         0         0         0         0         0         0         0         0         0         0         0         0         0 
dram[5]:         0         0         0         0         0         0         0         0         0         0         0         0         0         0         0         0 
total accesses: 0
min_bank_accesses = 0!
min_chip_accesses = 0!
number of total read accesses:
dram[0]:      7031      6940      6829      7055      6984      6829      7163      7200      7416      7278      6840      6978      7012      6790      6811      6915 
dram[1]:      7282      7194      7117      7317      7203      7113      7431      7454      7632      7664      7136      7099      7157      7066      7196      7153 
dram[2]:      7180      7118      7123      7195      7076      7076      7469      7346      7587      7576      7074      6995      7034      7053      7149      7033 
dram[3]:      6919      7116      6902      6898      6828      6970      7235      7123      7275      7465      6941      6785      6824      6945      6982      6836 
dram[4]:      7247      7354      7226      7151      7091      7196      7520      7500      7504      7618      7233      7103      7085      7237      7210      7056 
dram[5]:      7072      7231      7133      7081      6989      7110      7427      7347      7450      7450      7100      7069      6986      7090      7045      7006 
total reads: 686330
bank skew: 7664/6785 = 1.13
chip skew: 116331/112044 = 1.04
number of total write accesses:
dram[0]:      6236      6219      6203      6264      6126      6074      6303      6263      6542      6452      6214      6241      6195      6178      6218      6238 
dram[1]:      6344      6304      6311      6379      6283      6196      6387      6333      6578      6636      6335      6268      6317      6239      6353      6326 
dram[2]:      6358      6338      6318      6411      6267      6220      6427      6342      6607      6586      6342      6295      6301      6324      6402      6359 
dram[3]:      6234      6283      6229      6163      6109      6134      6296      6248      6457      6478      6276      6171      6130      6180      6281      6191 
dram[4]:      6334      6356      6316      6276      6196      6232      6393      6367      6497      6523      6352      6318      6198      6305      6373      6196 
dram[5]:      6310      6374      6324      6289      6153      6262      6388      6402      6577      6559      6371      6350      6208      6291      6355      6257 
total reads: 606014
bank skew: 6636/6074 = 1.09
chip skew: 101897/99860 = 1.02
average mf latency per bank:
dram[0]:        496       499       498       497       671       620       530       596       497       502       508       505       503       511       506       505
dram[1]:        539       532       544       532       645       700       656       581       551       533       556       545       555       545       551       540
dram[2]:        523       536       525       534       687       652       581       663       529       539       534       549       535       543       527       542
dram[3]:        496       499       499       507       604       650       613       583       501       522       504       515       510       513       501       513
dram[4]:        520       530       531       536       653       733       601       555       530       547       529       547       537       542       530       548
dram[5]:        517       508       517       513       729       627       549       603       523       523       526       521       533       522       526       524
maximum mf latency per bank:
dram[0]:       1583      1402      1593      1546      1566      1551      1581      1673      1705      1665      1544      1684      1533      1545      1556      1559
dram[1]:       1663      1496      1743      1581      1608      1494      1691      1667      1767      1604      1762      1583      1885      1539      1661      1524
dram[2]:       1539      1659      1635      1564      1568      1729      1865      1912      1527      1613      1760      1697      1609      1871      1779      1715
dram[3]:       1456      1520      1486      1850      1481      1552      1581      1550      1654      1685      1676      1601      1493      1596      1573      1495
dram[4]:       1472      1525      1562      1565      1585      1769      1768      1698      1693      1599      1546      1686      1531      1611      1614      1687
dram[5]:       1589      1483      1603      1477      1683      1502      1872      1792      1819      1670      1810      1585      1609      1834      1592      1598

Number of Memory Banks Accessed per Memory Operation per Warp (from 0):
0	0	0	0	0	0	0	0	0	0	0	0	0	0	0	0	0	0	0	0	0	0	0	0	0	0	0	0	0	0	0	0	0	0	0	0	0	0	0	0	0	0	0	0	0	0	0	0	0	0	0	0	0	0	0	0	0	0	0	0	0	0	0	0	0	0	0	0	0	0	0	0	0	0	0	0	0	0	0	0	0	0	0	0	0	0	0	0	0	0	0	0	0	0	0	0	
Average # of Memory Banks Accessed per Memory Operation per Warp=-nan

position of mrq chosen
0	0	0	0	0	0	0	0	0	0	0	0	0	0	0	0	

average position of mrq chosen = -nan
Memory Partition 0: 
Cache L2_bank_000:
MSHR contents

Cache L2_bank_001:
MSHR contents

In Dram Latency Queue (total = 0): 
DRAM[0]: 16 bks, busW=4 BL=8 CL=12, tRRD=2 tCCD=6, tRCD=12 tRAS=28 tRP=12 tRC=40
n_cmd=1963250 n_nop=1445803 n_act=88327 n_pre=88311 n_req=212037 n_rd=224142 n_write=116667 bw_util=0.3472
n_activity=1332769 dram_eff=0.5114
bk0: 14062a 1469706i bk1: 13880a 1466365i bk2: 13658a 1461883i bk3: 14110a 1446812i bk4: 13968a 1447277i bk5: 13658a 1452208i bk6: 14326a 1416739i bk7: 14400a 1411104i bk8: 14832a 1436294i bk9: 14556a 1435007i bk10: 13680a 1452686i bk11: 13956a 1444119i bk12: 14024a 1437894i bk13: 13580a 1435248i bk14: 13622a 1437367i bk15: 13830a 1422803i 
dram_util_bins: 0 0 0 0 0 0 0 0 0 0
dram_eff_bins: 0 0 0 0 0 0 0 0 0 0
mrqq: max=16 avg=6.97787
Memory Partition 1: 
Cache L2_bank_002:
MSHR contents

Cache L2_bank_003:
MSHR contents

In Dram Latency Queue (total = 0): 
DRAM[1]: 16 bks, busW=4 BL=8 CL=12, tRRD=2 tCCD=6, tRCD=12 tRAS=28 tRP=12 tRC=40
n_cmd=1963250 n_nop=1428416 n_act=91944 n_pre=91928 n_req=217803 n_rd=232428 n_write=118534 bw_util=0.3575
n_activity=1330726 dram_eff=0.5275
bk0: 14564a 1448366i bk1: 14388a 1442491i bk2: 14234a 1433004i bk3: 14634a 1416124i bk4: 14406a 1416380i bk5: 14226a 1420222i bk6: 14862a 1389604i bk7: 14908a 1380612i bk8: 15264a 1417634i bk9: 15328a 1404401i bk10: 14272a 1425606i bk11: 14198a 1422422i bk12: 14314a 1412993i bk13: 14132a 1409347i bk14: 14392a 1402560i bk15: 14306a 1394037i 
dram_util_bins: 0 0 0 0 0 0 0 0 0 0
dram_eff_bins: 0 0 0 0 0 0 0 0 0 0
mrqq: max=16 avg=7.56224
Memory Partition 2: 
Cache L2_bank_004:
MSHR contents

Cache L2_bank_005:
MSHR contents

In Dram Latency Queue (total = 0): 
DRAM[2]: 16 bks, busW=4 BL=8 CL=12, tRRD=2 tCCD=6, tRCD=12 tRAS=28 tRP=12 tRC=40
n_cmd=1963250 n_nop=1432114 n_act=90986 n_pre=90970 n_req=216981 n_rd=230168 n_write=119012 bw_util=0.3557
n_activity=1332908 dram_eff=0.5239
bk0: 14360a 1450693i bk1: 14236a 1447898i bk2: 14246a 1433274i bk3: 14390a 1424606i bk4: 14152a 1427608i bk5: 14152a 1423263i bk6: 14938a 1392155i bk7: 14692a 1392005i bk8: 15174a 1418405i bk9: 15152a 1407313i bk10: 14148a 1432190i bk11: 13990a 1431149i bk12: 14068a 1424068i bk13: 14106a 1410812i bk14: 14298a 1404363i bk15: 14066a 1405825i 
dram_util_bins: 0 0 0 0 0 0 0 0 0 0
dram_eff_bins: 0 0 0 0 0 0 0 0 0 0
mrqq: max=16 avg=7.46908
Memory Partition 3: 
Cache L2_bank_006:
MSHR contents

Cache L2_bank_007:
MSHR contents

In Dram Latency Queue (total = 0): 
DRAM[3]: 16 bks, busW=4 BL=8 CL=12, tRRD=2 tCCD=6, tRCD=12 tRAS=28 tRP=12 tRC=40
n_cmd=1963250 n_nop=1447149 n_act=87777 n_pre=87761 n_req=211904 n_rd=224088 n_write=116475 bw_util=0.3469
n_activity=1333395 dram_eff=0.5108
bk0: 13838a 1476613i bk1: 14232a 1464739i bk2: 13804a 1460701i bk3: 13796a 1456872i bk4: 13656a 1454598i bk5: 13940a 1444988i bk6: 14470a 1417916i bk7: 14246a 1413195i bk8: 14550a 1442961i bk9: 14930a 1428168i bk10: 13882a 1452541i bk11: 13570a 1455841i bk12: 13648a 1445667i bk13: 13890a 1432904i bk14: 13964a 1424250i bk15: 13672a 1428497i 
dram_util_bins: 0 0 0 0 0 0 0 0 0 0
dram_eff_bins: 0 0 0 0 0 0 0 0 0 0
mrqq: max=16 avg=6.99058
Memory Partition 4: 
Cache L2_bank_008:
MSHR contents

Cache L2_bank_009:
MSHR contents

In Dram Latency Queue (total = 0): 
DRAM[4]: 16 bks, busW=4 BL=8 CL=12, tRRD=2 tCCD=6, tRCD=12 tRAS=28 tRP=12 tRC=40
n_cmd=1963250 n_nop=1428541 n_act=92051 n_pre=92035 n_req=217563 n_rd=232662 n_write=117961 bw_util=0.3572
n_activity=1335636 dram_eff=0.525
bk0: 14494a 1451998i bk1: 14708a 1437847i bk2: 14452a 1428112i bk3: 14302a 1428591i bk4: 14182a 1425975i bk5: 14392a 1416408i bk6: 15040a 1385718i bk7: 15000a 1377770i bk8: 15008a 1424408i bk9: 15236a 1403907i bk10: 14466a 1424547i bk11: 14206a 1421362i bk12: 14170a 1420859i bk13: 14474a 1402262i bk14: 14420a 1399268i bk15: 14112a 1407169i 
dram_util_bins: 0 0 0 0 0 0 0 0 0 0
dram_eff_bins: 0 0 0 0 0 0 0 0 0 0
mrqq: max=16 avg=7.55122
Memory Partition 5: 
Cache L2_bank_010:
MSHR contents

Cache L2_bank_011:
MSHR contents

In Dram Latency Queue (total = 0): 
DRAM[5]: 16 bks, busW=4 BL=8 CL=12, tRRD=2 tCCD=6, tRCD=12 tRAS=28 tRP=12 tRC=40
n_cmd=1963250 n_nop=1434523 n_act=90516 n_pre=90500 n_req=216056 n_rd=229172 n_write=118539 bw_util=0.3542
n_activity=1329537 dram_eff=0.5231
bk0: 14144a 1456824i bk1: 14462a 1445967i bk2: 14266a 1438515i bk3: 14162a 1434540i bk4: 13978a 1438142i bk5: 14220a 1422705i bk6: 14854a 1393420i bk7: 14694a 1386220i bk8: 14900a 1427708i bk9: 14900a 1411780i bk10: 14200a 1426376i bk11: 14138a 1426566i bk12: 13972a 1428357i bk13: 14180a 1416164i bk14: 14090a 1410327i bk15: 14012a 1410292i 
dram_util_bins: 0 0 0 0 0 0 0 0 0 0
dram_eff_bins: 0 0 0 0 0 0 0 0 0 0
mrqq: max=16 avg=7.41877

========= L2 cache stats =========
L2_cache_bank[0]: Access = 128895, Miss = 56086, Miss_rate = 0.435, Pending_hits = 40, Reservation_fails = 17245
L2_cache_bank[1]: Access = 128652, Miss = 55985, Miss_rate = 0.435, Pending_hits = 37, Reservation_fails = 18227
L2_cache_bank[2]: Access = 128989, Miss = 58154, Miss_rate = 0.451, Pending_hits = 36, Reservation_fails = 16384
L2_cache_bank[3]: Access = 128848, Miss = 58060, Miss_rate = 0.451, Pending_hits = 51, Reservation_fails = 17523
L2_cache_bank[4]: Access = 129184, Miss = 57692, Miss_rate = 0.447, Pending_hits = 49, Reservation_fails = 13732
L2_cache_bank[5]: Access = 129470, Miss = 57392, Miss_rate = 0.443, Pending_hits = 48, Reservation_fails = 16072
L2_cache_bank[6]: Access = 128913, Miss = 55906, Miss_rate = 0.434, Pending_hits = 25, Reservation_fails = 15672
L2_cache_bank[7]: Access = 129692, Miss = 56138, Miss_rate = 0.433, Pending_hits = 40, Reservation_fails = 17173
L2_cache_bank[8]: Access = 128781, Miss = 58116, Miss_rate = 0.451, Pending_hits = 41, Reservation_fails = 15345
L2_cache_bank[9]: Access = 129093, Miss = 58215, Miss_rate = 0.451, Pending_hits = 41, Reservation_fails = 19196
L2_cache_bank[10]: Access = 129525, Miss = 57202, Miss_rate = 0.442, Pending_hits = 39, Reservation_fails = 19254
L2_cache_bank[11]: Access = 128736, Miss = 57384, Miss_rate = 0.446, Pending_hits = 40, Reservation_fails = 19679
L2_total_cache_accesses = 1548778
L2_total_cache_misses = 686330
L2_total_cache_miss_rate = 0.4431
L2_total_cache_pending_hits = 487
L2_total_cache_reservation_fails = 205502
L2_total_cache_breakdown:
	L2_cache_stats_breakdown[GLOBAL_ACC_R][HIT] = 624306
	L2_cache_stats_breakdown[GLOBAL_ACC_R][HIT_RESERVED] = 51
	L2_cache_stats_breakdown[GLOBAL_ACC_R][MISS] = 181521
	L2_cache_stats_breakdown[GLOBAL_ACC_R][RESERVATION_FAIL] = 16283
	L2_cache_stats_breakdown[CONST_ACC_R][HIT] = 26
	L2_cache_stats_breakdown[CONST_ACC_R][HIT_RESERVED] = 3
	L2_cache_stats_breakdown[CONST_ACC_R][MISS] = 1
	L2_cache_stats_breakdown[CONST_ACC_R][RESERVATION_FAIL] = 88
	L2_cache_stats_breakdown[GLOBAL_ACC_W][HIT] = 237372
	L2_cache_stats_breakdown[GLOBAL_ACC_W][HIT_RESERVED] = 387
	L2_cache_stats_breakdown[GLOBAL_ACC_W][MISS] = 504765
	L2_cache_stats_breakdown[GLOBAL_ACC_W][RESERVATION_FAIL] = 187647
	L2_cache_stats_breakdown[INST_ACC_R][HIT] = 257
	L2_cache_stats_breakdown[INST_ACC_R][HIT_RESERVED] = 46
	L2_cache_stats_breakdown[INST_ACC_R][MISS] = 43
	L2_cache_stats_breakdown[INST_ACC_R][RESERVATION_FAIL] = 1484
L2_cache_data_port_util = 0.157
L2_cache_fill_port_util = 0.154

icnt_total_pkts_mem_to_simt=4773734
icnt_total_pkts_simt_to_mem=2298798
LD_mem_lat_dist  0 0 0 0 0 0 0 0 0 0 0 0 0 0 0 0 0 0 0 0 0 0 0 0 0 0 0
ST_mem_lat_dist  0 0 0 0 0 0 0 0 0 0 0 0 0 0 0 0 0 0 0 0 0 0 0 0 0 0 0
----------------------------Interconnect-DETAILS--------------------------------
Class 0:
Packet latency average = 46.0054
	minimum = 6
	maximum = 926
Network latency average = 29.2262
	minimum = 6
	maximum = 713
Slowest packet = 9038
Flit latency average = 26.1106
	minimum = 6
	maximum = 712
Slowest flit = 26173
Fragmentation average = 0.0424454
	minimum = 0
	maximum = 680
Injected packet rate average = 0.0771354
	minimum = 0.05319 (at node 9)
	maximum = 0.106886 (at node 3)
Accepted packet rate average = 0.0771354
	minimum = 0.05319 (at node 9)
	maximum = 0.106886 (at node 3)
Injected flit rate average = 0.17612
	minimum = 0.079009 (at node 9)
	maximum = 0.26963 (at node 22)
Accepted flit rate average= 0.17612
	minimum = 0.12851 (at node 16)
	maximum = 0.329938 (at node 3)
Injected packet length average = 2.28326
Accepted packet length average = 2.28326
Total in-flight flits = 0 (0 measured)
====== Overall Traffic Statistics ======
====== Traffic class 0 ======
Packet latency average = 46.0054 (1 samples)
	minimum = 6 (1 samples)
	maximum = 926 (1 samples)
Network latency average = 29.2262 (1 samples)
	minimum = 6 (1 samples)
	maximum = 713 (1 samples)
Flit latency average = 26.1106 (1 samples)
	minimum = 6 (1 samples)
	maximum = 712 (1 samples)
Fragmentation average = 0.0424454 (1 samples)
	minimum = 0 (1 samples)
	maximum = 680 (1 samples)
Injected packet rate average = 0.0771354 (1 samples)
	minimum = 0.05319 (1 samples)
	maximum = 0.106886 (1 samples)
Accepted packet rate average = 0.0771354 (1 samples)
	minimum = 0.05319 (1 samples)
	maximum = 0.106886 (1 samples)
Injected flit rate average = 0.17612 (1 samples)
	minimum = 0.079009 (1 samples)
	maximum = 0.26963 (1 samples)
Accepted flit rate average = 0.17612 (1 samples)
	minimum = 0.12851 (1 samples)
	maximum = 0.329938 (1 samples)
Injected packet size average = 2.28326 (1 samples)
Accepted packet size average = 2.28326 (1 samples)
Hops average = 1 (1 samples)
----------------------------END-of-Interconnect-DETAILS-------------------------

GPGPU-Sim PTX: cudaLaunch for 0x0x4026b0 (mode=performance simulation) on stream 0
GPGPU-Sim PTX: pushing kernel '_Z10sum_kernelPfi' to stream 0, gridDim= (20,1,1) blockDim = (512,1,1) 


gpgpu_simulation_time = 0 days, 0 hrs, 10 min, 56 sec (656 sec)
gpgpu_simulation_rate = 124182 (inst/sec)
gpgpu_simulation_rate = 2267 (cycle/sec)
kernel '_Z10sum_kernelPfi' transfer to GPU hardware scheduler
GPGPU-Sim uArch: Shader 6 bind to kernel 2 '_Z10sum_kernelPfi'
GPGPU-Sim uArch: CTA/core = 3, limited by: threads
GPGPU-Sim uArch: core:  6, cta: 0 initialized @(1,1487311)
GPGPU-Sim uArch: Shader 7 bind to kernel 2 '_Z10sum_kernelPfi'
GPGPU-Sim uArch: core:  7, cta: 0 initialized @(1,1487311)
GPGPU-Sim uArch: Shader 8 bind to kernel 2 '_Z10sum_kernelPfi'
GPGPU-Sim uArch: core:  8, cta: 0 initialized @(1,1487311)
GPGPU-Sim uArch: Shader 9 bind to kernel 2 '_Z10sum_kernelPfi'
GPGPU-Sim uArch: core:  9, cta: 0 initialized @(1,1487311)
GPGPU-Sim uArch: Shader 10 bind to kernel 2 '_Z10sum_kernelPfi'
GPGPU-Sim uArch: core: 10, cta: 0 initialized @(1,1487311)
GPGPU-Sim uArch: Shader 11 bind to kernel 2 '_Z10sum_kernelPfi'
GPGPU-Sim uArch: core: 11, cta: 0 initialized @(1,1487311)
GPGPU-Sim uArch: Shader 12 bind to kernel 2 '_Z10sum_kernelPfi'
GPGPU-Sim uArch: core: 12, cta: 0 initialized @(1,1487311)
GPGPU-Sim uArch: Shader 13 bind to kernel 2 '_Z10sum_kernelPfi'
GPGPU-Sim uArch: core: 13, cta: 0 initialized @(1,1487311)
GPGPU-Sim uArch: Shader 14 bind to kernel 2 '_Z10sum_kernelPfi'
GPGPU-Sim uArch: core: 14, cta: 0 initialized @(1,1487311)
GPGPU-Sim uArch: Shader 0 bind to kernel 2 '_Z10sum_kernelPfi'
GPGPU-Sim uArch: core:  0, cta: 0 initialized @(1,1487311)
GPGPU-Sim uArch: Shader 1 bind to kernel 2 '_Z10sum_kernelPfi'
GPGPU-Sim uArch: core:  1, cta: 0 initialized @(1,1487311)
GPGPU-Sim uArch: Shader 2 bind to kernel 2 '_Z10sum_kernelPfi'
GPGPU-Sim uArch: core:  2, cta: 0 initialized @(1,1487311)
GPGPU-Sim uArch: Shader 3 bind to kernel 2 '_Z10sum_kernelPfi'
GPGPU-Sim uArch: core:  3, cta: 0 initialized @(1,1487311)
GPGPU-Sim uArch: Shader 4 bind to kernel 2 '_Z10sum_kernelPfi'
GPGPU-Sim uArch: core:  4, cta: 0 initialized @(1,1487311)
GPGPU-Sim uArch: Shader 5 bind to kernel 2 '_Z10sum_kernelPfi'
GPGPU-Sim uArch: core:  5, cta: 0 initialized @(1,1487311)
GPGPU-Sim uArch: core:  6, cta: 1 initialized @(2,1487311)
GPGPU-Sim uArch: core:  7, cta: 1 initialized @(2,1487311)
GPGPU-Sim uArch: core:  8, cta: 1 initialized @(2,1487311)
GPGPU-Sim uArch: core:  9, cta: 1 initialized @(2,1487311)
GPGPU-Sim uArch: core: 10, cta: 1 initialized @(2,1487311)
GPGPU-Sim PTX: 84400000 instructions simulated : ctaid=(4,0,0) tid=(55,0,0)
GPGPU-Sim uArch: cycles simulated: 1487811  inst.: 81484516 (ipc=41.0) sim_rate=124025 (inst/sec) elapsed = 0:0:10:57 / Tue Mar 22 07:49:35 2016
GPGPU-Sim uArch: Shader 13 finished CTA #0 (927,1487311), 0 CTAs running
GPGPU-Sim uArch: Shader 13 empty (release kernel 2 '_Z10sum_kernelPfi').
GPGPU-Sim uArch: Shader 11 finished CTA #0 (933,1487311), 0 CTAs running
GPGPU-Sim uArch: Shader 11 empty (release kernel 2 '_Z10sum_kernelPfi').
GPGPU-Sim uArch: Shader 5 finished CTA #0 (939,1487311), 0 CTAs running
GPGPU-Sim uArch: Shader 5 empty (release kernel 2 '_Z10sum_kernelPfi').
GPGPU-Sim uArch: Shader 12 finished CTA #0 (945,1487311), 0 CTAs running
GPGPU-Sim uArch: Shader 12 empty (release kernel 2 '_Z10sum_kernelPfi').
GPGPU-Sim uArch: Shader 9 finished CTA #0 (960,1487311), 1 CTAs running
GPGPU-Sim uArch: Shader 14 finished CTA #0 (963,1487311), 0 CTAs running
GPGPU-Sim uArch: Shader 14 empty (release kernel 2 '_Z10sum_kernelPfi').
GPGPU-Sim uArch: Shader 9 finished CTA #1 (967,1487311), 0 CTAs running
GPGPU-Sim uArch: Shader 9 empty (release kernel 2 '_Z10sum_kernelPfi').
GPGPU-Sim uArch: Shader 6 finished CTA #1 (972,1487311), 1 CTAs running
GPGPU-Sim uArch: Shader 0 finished CTA #0 (975,1487311), 0 CTAs running
GPGPU-Sim uArch: Shader 0 empty (release kernel 2 '_Z10sum_kernelPfi').
GPGPU-Sim uArch: Shader 7 finished CTA #0 (978,1487311), 1 CTAs running
GPGPU-Sim uArch: Shader 7 finished CTA #1 (985,1487311), 0 CTAs running
GPGPU-Sim uArch: Shader 7 empty (release kernel 2 '_Z10sum_kernelPfi').
GPGPU-Sim uArch: Shader 1 finished CTA #0 (987,1487311), 0 CTAs running
GPGPU-Sim uArch: Shader 1 empty (release kernel 2 '_Z10sum_kernelPfi').
GPGPU-Sim uArch: Shader 8 finished CTA #0 (990,1487311), 1 CTAs running
GPGPU-Sim uArch: Shader 2 finished CTA #0 (993,1487311), 0 CTAs running
GPGPU-Sim uArch: Shader 2 empty (release kernel 2 '_Z10sum_kernelPfi').
GPGPU-Sim uArch: Shader 8 finished CTA #1 (997,1487311), 0 CTAs running
GPGPU-Sim uArch: Shader 8 empty (release kernel 2 '_Z10sum_kernelPfi').
GPGPU-Sim uArch: Shader 3 finished CTA #0 (1005,1487311), 0 CTAs running
GPGPU-Sim uArch: Shader 3 empty (release kernel 2 '_Z10sum_kernelPfi').
GPGPU-Sim uArch: Shader 10 finished CTA #0 (1008,1487311), 1 CTAs running
GPGPU-Sim uArch: Shader 4 finished CTA #0 (1011,1487311), 0 CTAs running
GPGPU-Sim uArch: Shader 4 empty (release kernel 2 '_Z10sum_kernelPfi').
GPGPU-Sim uArch: Shader 10 finished CTA #1 (1015,1487311), 0 CTAs running
GPGPU-Sim uArch: Shader 10 empty (release kernel 2 '_Z10sum_kernelPfi').
