

        *** GPGPU-Sim Simulator Version 3.2.2  [build 0] ***


GPGPU-Sim PTX: simulation mode 0 (can change with PTX_SIM_MODE_FUNC environment variable:
               1=functional simulation only, 0=detailed performance simulator)
GPGPU-Sim: Configuration options:

-network_mode                           1 # Interconnection network mode
-inter_config_file   config_fermi_islip.icnt # Interconnection network config file
-gpgpu_ptx_use_cuobjdump                    1 # Use cuobjdump to extract ptx and sass from binaries
-gpgpu_experimental_lib_support                    0 # Try to extract code from cuda libraries [Broken because of unknown cudaGetExportTable]
-gpgpu_ptx_convert_to_ptxplus                    0 # Convert SASS (native ISA) to ptxplus and run ptxplus
-gpgpu_ptx_force_max_capability                   20 # Force maximum compute capability
-gpgpu_ptx_inst_debug_to_file                    0 # Dump executed instructions' debug information to file
-gpgpu_ptx_inst_debug_file       inst_debug.txt # Executed instructions' debug output file
-gpgpu_ptx_inst_debug_thread_uid                    1 # Thread UID for executed instructions' debug output
-gpgpu_simd_model                       1 # 1 = post-dominator
-gpgpu_shader_core_pipeline              1536:32 # shader core pipeline config, i.e., {<nthread>:<warpsize>}
-gpgpu_tex_cache:l1  4:128:24,L:R:m:N:L,F:128:4,128:2 # per-shader L1 texture cache  (READ-ONLY) config  {<nsets>:<bsize>:<assoc>,<rep>:<wr>:<alloc>:<wr_alloc>,<mshr>:<N>:<merge>,<mq>:<rf>}
-gpgpu_const_cache:l1 64:64:2,L:R:f:N:L,A:2:32,4 # per-shader L1 constant memory cache  (READ-ONLY) config  {<nsets>:<bsize>:<assoc>,<rep>:<wr>:<alloc>:<wr_alloc>,<mshr>:<N>:<merge>,<mq>} 
-gpgpu_cache:il1     4:128:4,L:R:f:N:L,A:2:32,4 # shader L1 instruction cache config  {<nsets>:<bsize>:<assoc>,<rep>:<wr>:<alloc>:<wr_alloc>,<mshr>:<N>:<merge>,<mq>} 
-gpgpu_cache:dl1     32:128:4,L:L:m:N:H,A:32:8,8:2,0,1:0:1:1:0:1,1:4:8:16:32:64,/sciclone/data10/hwang07/GPU_RESEARCH/swl/swl_outputs/RESULTS/swl24/ # per-shader L1 data cache config  {<nsets>:<bsize>:<assoc>,<rep>:<wr>:<alloc>:<wr_alloc>,<mshr>:<N>:<merge>,<mq> | none}
-gpgpu_cache:dl1PrefL1                 none # per-shader L1 data cache config  {<nsets>:<bsize>:<assoc>,<rep>:<wr>:<alloc>:<wr_alloc>,<mshr>:<N>:<merge>,<mq> | none}
-gpgpu_cache:dl1PreShared                 none # per-shader L1 data cache config  {<nsets>:<bsize>:<assoc>,<rep>:<wr>:<alloc>:<wr_alloc>,<mshr>:<N>:<merge>,<mq> | none}
-gmem_skip_L1D                          0 # global memory access skip L1D cache (implements -Xptxas -dlcm=cg, default=no skip)
-gpgpu_perfect_mem                      0 # enable perfect memory mode (no cache miss)
-n_regfile_gating_group                    4 # group of lanes that should be read/written together)
-gpgpu_clock_gated_reg_file                    0 # enable clock gated reg file for power calculations
-gpgpu_clock_gated_lanes                    0 # enable clock gated lanes for power calculations
-gpgpu_shader_registers                32768 # Number of registers per shader core. Limits number of concurrent CTAs. (default 8192)
-gpgpu_shader_cta                       8 # Maximum number of concurrent CTAs in shader (default 8)
-gpgpu_num_cta_barriers                   16 # Maximum number of named barriers per CTA (default 16)
-gpgpu_n_clusters                      15 # number of processing clusters
-gpgpu_n_cores_per_cluster                    1 # number of simd cores per cluster
-gpgpu_n_cluster_ejection_buffer_size                    8 # number of packets in ejection buffer
-gpgpu_n_ldst_response_buffer_size                    2 # number of response packets in ld/st unit ejection buffer
-gpgpu_shmem_size                   16384 # Size of shared memory per shader core (default 16kB)
-gpgpu_shmem_size                   49152 # Size of shared memory per shader core (default 16kB)
-gpgpu_shmem_size_PrefL1                16384 # Size of shared memory per shader core (default 16kB)
-gpgpu_shmem_size_PrefShared                16384 # Size of shared memory per shader core (default 16kB)
-gpgpu_shmem_num_banks                   32 # Number of banks in the shared memory in each shader core (default 16)
-gpgpu_shmem_limited_broadcast                    0 # Limit shared memory to do one broadcast per cycle (default on)
-gpgpu_shmem_warp_parts                    1 # Number of portions a warp is divided into for shared memory bank conflict check 
-gpgpu_warpdistro_shader                   -1 # Specify which shader core to collect the warp size distribution from
-gpgpu_warp_issue_shader                    0 # Specify which shader core to collect the warp issue distribution from
-gpgpu_local_mem_map                    1 # Mapping from local memory space address to simulated GPU physical address space (default = enabled)
-gpgpu_num_reg_banks                   16 # Number of register banks (default = 8)
-gpgpu_reg_bank_use_warp_id                    0 # Use warp ID in mapping registers to banks (default = off)
-gpgpu_operand_collector_num_units_sp                    6 # number of collector units (default = 4)
-gpgpu_operand_collector_num_units_sfu                    8 # number of collector units (default = 4)
-gpgpu_operand_collector_num_units_mem                    2 # number of collector units (default = 2)
-gpgpu_operand_collector_num_units_gen                    0 # number of collector units (default = 0)
-gpgpu_operand_collector_num_in_ports_sp                    2 # number of collector unit in ports (default = 1)
-gpgpu_operand_collector_num_in_ports_sfu                    1 # number of collector unit in ports (default = 1)
-gpgpu_operand_collector_num_in_ports_mem                    1 # number of collector unit in ports (default = 1)
-gpgpu_operand_collector_num_in_ports_gen                    0 # number of collector unit in ports (default = 0)
-gpgpu_operand_collector_num_out_ports_sp                    2 # number of collector unit in ports (default = 1)
-gpgpu_operand_collector_num_out_ports_sfu                    1 # number of collector unit in ports (default = 1)
-gpgpu_operand_collector_num_out_ports_mem                    1 # number of collector unit in ports (default = 1)
-gpgpu_operand_collector_num_out_ports_gen                    0 # number of collector unit in ports (default = 0)
-gpgpu_coalesce_arch                   13 # Coalescing arch (default = 13, anything else is off for now)
-gpgpu_num_sched_per_core                    2 # Number of warp schedulers per core
-gpgpu_max_insn_issue_per_warp                    1 # Max number of instructions that can be issued per warp in one cycle by scheduler
-gpgpu_simt_core_sim_order                    1 # Select the simulation order of cores in a cluster (0=Fix, 1=Round-Robin)
-gpgpu_pipeline_widths        2,1,1,2,1,1,2 # Pipeline widths ID_OC_SP,ID_OC_SFU,ID_OC_MEM,OC_EX_SP,OC_EX_SFU,OC_EX_MEM,EX_WB
-gpgpu_num_sp_units                     2 # Number of SP units (default=1)
-gpgpu_num_sfu_units                    1 # Number of SF units (default=1)
-gpgpu_num_mem_units                    1 # Number if ldst units (default=1) WARNING: not hooked up to anything
-gpgpu_scheduler       warp_limiting:2:24 # Scheduler configuration: < lrr | gto | two_level_active > If two_level_active:<num_active_warps>:<inner_prioritization>:<outer_prioritization>For complete list of prioritization values see shader.h enum scheduler_prioritization_typeDefault: gto
-gpgpu_dram_scheduler                    1 # 0 = fifo, 1 = FR-FCFS (defaul)
-gpgpu_dram_partition_queues              8:8:8:8 # i2$:$2d:d2$:$2i
-l2_ideal                               0 # Use a ideal L2 cache that always hit
-gpgpu_cache:dl2     64:128:8,L:B:m:W:L,A:32:4,4:0,32 # unified banked L2 data cache config  {<nsets>:<bsize>:<assoc>,<rep>:<wr>:<alloc>:<wr_alloc>,<mshr>:<N>:<merge>,<mq>}
-gpgpu_cache:dl2_texture_only                    0 # L2 cache used for texture only
-gpgpu_n_mem                            6 # number of memory modules (e.g. memory controllers) in gpu
-gpgpu_n_sub_partition_per_mchannel                    2 # number of memory subpartition in each memory module
-gpgpu_n_mem_per_ctrlr                    2 # number of memory chips per memory controller
-gpgpu_memlatency_stat                   14 # track and display latency statistics 0x2 enables MC, 0x4 enables queue logs
-gpgpu_frfcfs_dram_sched_queue_size                   16 # 0 = unlimited (default); # entries per chip
-gpgpu_dram_return_queue_size                  116 # 0 = unlimited (default); # entries per chip
-gpgpu_dram_buswidth                    4 # default = 4 bytes (8 bytes per cycle at DDR)
-gpgpu_dram_burst_length                    8 # Burst length of each DRAM request (default = 4 data bus cycle)
-dram_data_command_freq_ratio                    4 # Frequency ratio between DRAM data bus and command bus (default = 2 times, i.e. DDR)
-gpgpu_dram_timing_opt nbk=16:CCD=2:RRD=6:RCD=12:RAS=28:RP=12:RC=40: CL=12:WL=4:CDLR=5:WR=12:nbkgrp=4:CCDL=3:RTPL=2 # DRAM timing parameters = {nbk:tCCD:tRRD:tRCD:tRAS:tRP:tRC:CL:WL:tCDLR:tWR:nbkgrp:tCCDL:tRTPL}
-rop_latency                          120 # ROP queue latency (default 85)
-dram_latency                         100 # DRAM latency (default 30)
-gpgpu_mem_addr_mapping dramid@8;00000000.00000000.00000000.00000000.0000RRRR.RRRRRRRR.BBBCCCCB.CCSSSSSS # mapping memory address to dram model {dramid@<start bit>;<memory address map>}
-gpgpu_mem_addr_test                    0 # run sweep test to check address mapping for aliased address
-gpgpu_mem_address_mask                    1 # 0 = old addressing mask, 1 = new addressing mask, 2 = new add. mask + flipped bank sel and chip sel bits
-gpuwattch_xml_file  gpuwattch_gtx480.xml # GPUWattch XML file
-power_simulation_enabled                    0 # Turn on power simulator (1=On, 0=Off)
-power_per_cycle_dump                    0 # Dump detailed power output each cycle
-power_trace_enabled                    0 # produce a file for the power trace (1=On, 0=Off)
-power_trace_zlevel                     6 # Compression level of the power trace output log (0=no comp, 9=highest)
-steady_power_levels_enabled                    0 # produce a file for the steady power levels (1=On, 0=Off)
-steady_state_definition                  8:4 # allowed deviation:number of samples
-gpgpu_max_cycle                        0 # terminates gpu simulation early (0 = no limit)
-gpgpu_max_insn                         0 # terminates gpu simulation early (0 = no limit)
-gpgpu_max_cta                          0 # terminates gpu simulation early (0 = no limit)
-gpgpu_runtime_stat                   500 # display runtime statistics such as dram utilization {<freq>:<flag>}
-liveness_message_freq                    1 # Minimum number of seconds between simulation liveness messages (0 = always print)
-gpgpu_flush_l1_cache                    0 # Flush L1 cache at the end of each kernel call
-gpgpu_flush_l2_cache                    0 # Flush L2 cache at the end of each kernel call
-gpgpu_deadlock_detect                    1 # Stop the simulation at deadlock (1=on (default), 0=off)
-gpgpu_ptx_instruction_classification                    0 # if enabled will classify ptx instruction types per kernel (Max 255 kernels now)
-gpgpu_ptx_sim_mode                     0 # Select between Performance (default) or Functional simulation (1)
-gpgpu_clock_domains 700.0:700.0:700.0:924.0 # Clock Domain Frequencies in MhZ {<Core Clock>:<ICNT Clock>:<L2 Clock>:<DRAM Clock>}
-gpgpu_max_concurrent_kernel                    8 # maximum kernels that can run concurrently on GPU
-gpgpu_cflog_interval                    0 # Interval between each snapshot in control flow logger
-visualizer_enabled                     0 # Turn on visualizer output (1=On, 0=Off)
-visualizer_outputfile                 NULL # Specifies the output log file for visualizer
-visualizer_zlevel                      6 # Compression level of the visualizer output log (0=no comp, 9=highest)
-trace_enabled                          0 # Turn on traces
-trace_components                    none # comma seperated list of traces to enable. Complete list found in trace_streams.tup. Default none
-trace_sampling_core                    0 # The core which is printed using CORE_DPRINTF. Default 0
-trace_sampling_memory_partition                   -1 # The memory partition which is printed using MEMPART_DPRINTF. Default -1 (i.e. all)
-enable_ptx_file_line_stats                    1 # Turn on PTX source line statistic profiling. (1 = On)
-ptx_line_stats_filename gpgpu_inst_stats.txt # Output file for PTX source line statistics.
-save_embedded_ptx                      0 # saves ptx files embedded in binary as <n>.ptx
-keep                                   0 # keep intermediate files created by GPGPU-Sim when interfacing with external programs
-gpgpu_ptx_save_converted_ptxplus                    0 # Saved converted ptxplus to a file
-ptx_opcode_latency_int         4,13,4,5,145 # Opcode latencies for integers <ADD,MAX,MUL,MAD,DIV>Default 1,1,19,25,145
-ptx_opcode_latency_fp          4,13,4,5,39 # Opcode latencies for single precision floating points <ADD,MAX,MUL,MAD,DIV>Default 1,1,1,1,30
-ptx_opcode_latency_dp         8,19,8,8,330 # Opcode latencies for double precision floating points <ADD,MAX,MUL,MAD,DIV>Default 8,8,8,8,335
-ptx_opcode_initiation_int            1,2,2,1,8 # Opcode initiation intervals for integers <ADD,MAX,MUL,MAD,DIV>Default 1,1,4,4,32
-ptx_opcode_initiation_fp            1,2,1,1,4 # Opcode initiation intervals for single precision floating points <ADD,MAX,MUL,MAD,DIV>Default 1,1,1,1,5
-ptx_opcode_initiation_dp         8,16,8,8,130 # Opcode initiation intervals for double precision floating points <ADD,MAX,MUL,MAD,DIV>Default 8,8,8,8,130
DRAM Timing Options:
nbk                                    16 # number of banks
CCD                                     2 # column to column delay
RRD                                     6 # minimal delay between activation of rows in different banks
RCD                                    12 # row to column delay
RAS                                    28 # time needed to activate row
RP                                     12 # time needed to precharge (deactivate) row
RC                                     40 # row cycle time
CDLR                                    5 # switching from write to read (changes tWTR)
WR                                     12 # last data-in to row precharge
CL                                     12 # CAS latency
WL                                      4 # Write latency
nbkgrp                                  4 # number of bank groups
CCDL                                    3 # column to column delay between accesses to different bank groups
RTPL                                    2 # read to precharge delay between accesses to different bank groups
Total number of memory sub partition = 12
addr_dec_mask[CHIP]  = 0000000000000000 	high:64 low:0
addr_dec_mask[BK]    = 000000000000e100 	high:16 low:8
addr_dec_mask[ROW]   = 000000000fff0000 	high:28 low:16
addr_dec_mask[COL]   = 0000000000001eff 	high:13 low:0
addr_dec_mask[BURST] = 000000000000003f 	high:6 low:0
sub_partition_id_mask = 0000000000000100
GPGPU-Sim uArch: clock freqs: 700000000.000000:700000000.000000:700000000.000000:924000000.000000
GPGPU-Sim uArch: clock periods: 0.00000000142857142857:0.00000000142857142857:0.00000000142857142857:0.00000000108225108225
*** Initializing Memory Statistics ***
GPGPU-Sim uArch: interconnect node map (shaderID+MemID to icntID)
GPGPU-Sim uArch: Memory nodes ID start from index: 15
GPGPU-Sim uArch:    0   1   2   3   4
GPGPU-Sim uArch:    5   6   7   8   9
GPGPU-Sim uArch:   10  11  12  13  14
GPGPU-Sim uArch:   15  16  17  18  19
GPGPU-Sim uArch:   20  21  22  23  24
GPGPU-Sim uArch:   25  26
GPGPU-Sim uArch: interconnect node reverse map (icntID to shaderID+MemID)
GPGPU-Sim uArch: Memory nodes start from ID: 15
GPGPU-Sim uArch:    0   1   2   3   4
GPGPU-Sim uArch:    5   6   7   8   9
GPGPU-Sim uArch:   10  11  12  13  14
GPGPU-Sim uArch:   15  16  17  18  19
GPGPU-Sim uArch:   20  21  22  23  24
GPGPU-Sim uArch:   25  26
54328626b7b3e20cd9d3237c822777b1  /sciclone/data10/hwang07/adwait/applications/benchmarks/rodinia/cuda/hotspot/gpgpu_ptx_sim__hotspot
GPGPU-Sim uArch: performance model initialization complete.
GPGPU-Sim PTX: __cudaRegisterFatBinary, fat_cubin_handle = 1, filename=hotspot.cu
self exe links to: /sciclone/data10/hwang07/adwait/applications/benchmarks/rodinia/cuda/hotspot/gpgpu_ptx_sim__hotspot
Running md5sum using "md5sum /sciclone/data10/hwang07/adwait/applications/benchmarks/rodinia/cuda/hotspot/gpgpu_ptx_sim__hotspot "
Parsing file _cuobjdump_complete_output_wrRIUn
######### cuobjdump parser ########
## Adding new section ELF
Adding arch: sm_20
Adding identifier: hotspot.cu
## Adding new section PTX
Adding ptx filename: _cuobjdump_1.ptx
Adding arch: sm_20
Adding identifier: hotspot.cu
Done parsing!!!
GPGPU-Sim PTX: __cudaRegisterFunction _Z14calculate_tempiPfS_S_iiiiffffff : hostFun 0x0x401b60, fat_cubin_handle = 1
GPGPU-Sim PTX: allocating shared region for "__cuda___cuda_local_var_32316_39_non_const_temp_on_cuda72" from 0x0 to 0x400 (shared memory space)
GPGPU-Sim PTX: allocating shared region for "__cuda___cuda_local_var_32317_39_non_const_power_on_cuda1096" from 0x400 to 0x800 (shared memory space)
GPGPU-Sim PTX: allocating shared region for "__cuda___cuda_local_var_32318_39_non_const_temp_t2120" from 0x800 to 0xc00 (shared memory space)
GPGPU-Sim PTX: instruction assembly for function '_Z14calculate_tempiPfS_S_iiiiffffff'...   done.
GPGPU-Sim PTX: finding reconvergence points for '_Z14calculate_tempiPfS_S_iiiiffffff'...
GPGPU-Sim PTX: Finding dominators for '_Z14calculate_tempiPfS_S_iiiiffffff'...
GPGPU-Sim PTX: Finding immediate dominators for '_Z14calculate_tempiPfS_S_iiiiffffff'...
GPGPU-Sim PTX: Finding postdominators for '_Z14calculate_tempiPfS_S_iiiiffffff'...
GPGPU-Sim PTX: Finding immediate postdominators for '_Z14calculate_tempiPfS_S_iiiiffffff'...
GPGPU-Sim PTX: pre-decoding instructions for '_Z14calculate_tempiPfS_S_iiiiffffff'...
GPGPU-Sim PTX: reconvergence points for _Z14calculate_tempiPfS_S_iiiiffffff...
GPGPU-Sim PTX:  1 (potential) branch divergence @  PC=0x060 (_1.ptx:91) @%p1 bra $Lt_0_15106;
GPGPU-Sim PTX:    immediate post dominator      @  PC=0x198 (_1.ptx:134) mov.u64 %rd1, __cuda___cuda_local_var_32316_39_non_const_temp_on_cuda72;
GPGPU-Sim PTX:  2 (potential) branch divergence @  PC=0x080 (_1.ptx:95) @%p2 bra $Lt_0_15106;
GPGPU-Sim PTX:    immediate post dominator      @  PC=0x198 (_1.ptx:134) mov.u64 %rd1, __cuda___cuda_local_var_32316_39_non_const_temp_on_cuda72;
GPGPU-Sim PTX:  3 (potential) branch divergence @  PC=0x0c8 (_1.ptx:104) @%p3 bra $Lt_0_15106;
GPGPU-Sim PTX:    immediate post dominator      @  PC=0x198 (_1.ptx:134) mov.u64 %rd1, __cuda___cuda_local_var_32316_39_non_const_temp_on_cuda72;
GPGPU-Sim PTX:  4 (potential) branch divergence @  PC=0x0e8 (_1.ptx:108) @%p4 bra $Lt_0_15106;
GPGPU-Sim PTX:    immediate post dominator      @  PC=0x198 (_1.ptx:134) mov.u64 %rd1, __cuda___cuda_local_var_32316_39_non_const_temp_on_cuda72;
GPGPU-Sim PTX:  5 (potential) branch divergence @  PC=0x1c0 (_1.ptx:140) @%p5 bra $Lt_0_15618;
GPGPU-Sim PTX:    immediate post dominator      @  PC=0x6b0 (_1.ptx:315) @!%p20 bra $Lt_0_14082;
GPGPU-Sim PTX:  6 (potential) branch divergence @  PC=0x388 (_1.ptx:200) @%p10 bra $Lt_0_17410;
GPGPU-Sim PTX:    immediate post dominator      @  PC=0x5c8 (_1.ptx:277) bar.sync 0;
GPGPU-Sim PTX:  7 (potential) branch divergence @  PC=0x3a8 (_1.ptx:204) @%p11 bra $Lt_0_17410;
GPGPU-Sim PTX:    immediate post dominator      @  PC=0x5c8 (_1.ptx:277) bar.sync 0;
GPGPU-Sim PTX:  8 (potential) branch divergence @  PC=0x3b8 (_1.ptx:206) @%p12 bra $Lt_0_17410;
GPGPU-Sim PTX:    immediate post dominator      @  PC=0x5c8 (_1.ptx:277) bar.sync 0;
GPGPU-Sim PTX:  9 (potential) branch divergence @  PC=0x3c8 (_1.ptx:208) @%p13 bra $Lt_0_17410;
GPGPU-Sim PTX:    immediate post dominator      @  PC=0x5c8 (_1.ptx:277) bar.sync 0;
GPGPU-Sim PTX: 10 (potential) branch divergence @  PC=0x3d8 (_1.ptx:210) @%p14 bra $Lt_0_17410;
GPGPU-Sim PTX:    immediate post dominator      @  PC=0x5c8 (_1.ptx:277) bar.sync 0;
GPGPU-Sim PTX: 11 (potential) branch divergence @  PC=0x3e8 (_1.ptx:212) @%p15 bra $Lt_0_17410;
GPGPU-Sim PTX:    immediate post dominator      @  PC=0x5c8 (_1.ptx:277) bar.sync 0;
GPGPU-Sim PTX: 12 (potential) branch divergence @  PC=0x3f8 (_1.ptx:214) @%p16 bra $Lt_0_17410;
GPGPU-Sim PTX:    immediate post dominator      @  PC=0x5c8 (_1.ptx:277) bar.sync 0;
GPGPU-Sim PTX: 13 (potential) branch divergence @  PC=0x408 (_1.ptx:216) @%p17 bra $Lt_0_17410;
GPGPU-Sim PTX:    immediate post dominator      @  PC=0x5c8 (_1.ptx:277) bar.sync 0;
GPGPU-Sim PTX: 14 (potential) branch divergence @  PC=0x5d8 (_1.ptx:280) @%p18 bra $Lt_0_17922;
GPGPU-Sim PTX:    immediate post dominator      @  PC=0x6b0 (_1.ptx:315) @!%p20 bra $Lt_0_14082;
GPGPU-Sim PTX: 15 (potential) branch divergence @  PC=0x600 (_1.ptx:285) @!%p19 bra $Lt_0_13314;
GPGPU-Sim PTX:    immediate post dominator      @  PC=0x650 (_1.ptx:298) bar.sync 0;
GPGPU-Sim PTX: 16 (potential) branch divergence @  PC=0x668 (_1.ptx:302) @%p23 bra $Lt_0_13058;
GPGPU-Sim PTX:    immediate post dominator      @  PC=0x6b0 (_1.ptx:315) @!%p20 bra $Lt_0_14082;
GPGPU-Sim PTX: 17 (potential) branch divergence @  PC=0x670 (_1.ptx:303) bra.uni $Lt_0_258;
GPGPU-Sim PTX:    immediate post dominator      @  PC=0x6b0 (_1.ptx:315) @!%p20 bra $Lt_0_14082;
GPGPU-Sim PTX: 18 (potential) branch divergence @  PC=0x698 (_1.ptx:309) bra.uni $Lt_0_258;
GPGPU-Sim PTX:    immediate post dominator      @  PC=0x6b0 (_1.ptx:315) @!%p20 bra $Lt_0_14082;
GPGPU-Sim PTX: 19 (potential) branch divergence @  PC=0x6b0 (_1.ptx:315) @!%p20 bra $Lt_0_14082;
GPGPU-Sim PTX:    immediate post dominator      @  PC=0x760 (_1.ptx:340) exit;
GPGPU-Sim PTX: ... end of reconvergence points for _Z14calculate_tempiPfS_S_iiiiffffff
GPGPU-Sim PTX: ... done pre-decoding instructions for '_Z14calculate_tempiPfS_S_iiiiffffff'.
GPGPU-Sim PTX: finished parsing EMBEDDED .ptx file _1.ptx
Adding _cuobjdump_1.ptx with cubin handle 1
GPGPU-Sim PTX: extracting embedded .ptx to temporary file "_ptx_AFGXBc"
Running: cat _ptx_AFGXBc | sed 's/.version 1.5/.version 1.4/' | sed 's/, texmode_independent//' | sed 's/\(\.extern \.const\[1\] .b8 \w\+\)\[\]/\1\[1\]/' | sed 's/const\[.\]/const\[0\]/g' > _ptx2_KEtZy1
GPGPU-Sim PTX: generating ptxinfo using "$CUDA_INSTALL_PATH/bin/ptxas --gpu-name=sm_20 -v _ptx2_KEtZy1 --output-file  /dev/null 2> _ptx_AFGXBcinfo"
GPGPU-Sim PTX: Kernel '_Z14calculate_tempiPfS_S_iiiiffffff' : regs=35, lmem=0, smem=3072, cmem=120
GPGPU-Sim PTX: removing ptxinfo using "rm -f _ptx_AFGXBc _ptx2_KEtZy1 _ptx_AFGXBcinfo"
GPGPU-Sim PTX: loading globals with explicit initializers... 
GPGPU-Sim PTX: finished loading globals (0 bytes total).
GPGPU-Sim PTX: loading constants with explicit initializers...  done.
pyramidHeight: 2
gridSize: [512, 512]
border:[2, 2]
blockGrid:[43, 43]
targetBlock:[12, 12]
Start computing the transient temperature

GPGPU-Sim PTX: cudaLaunch for 0x0x401b60 (mode=performance simulation) on stream 0
GPGPU-Sim PTX: pushing kernel '_Z14calculate_tempiPfS_S_iiiiffffff' to stream 0, gridDim= (43,43,1) blockDim = (16,16,1) 
kernel '_Z14calculate_tempiPfS_S_iiiiffffff' transfer to GPU hardware scheduler
GPGPU-Sim uArch: Shader 1 bind to kernel 1 '_Z14calculate_tempiPfS_S_iiiiffffff'
GPGPU-Sim uArch: CTA/core = 3, limited by: regs
GPGPU-Sim uArch: core:  1, cta: 0 initialized @(1,0)
GPGPU-Sim uArch: Shader 2 bind to kernel 1 '_Z14calculate_tempiPfS_S_iiiiffffff'
GPGPU-Sim uArch: core:  2, cta: 0 initialized @(1,0)
GPGPU-Sim uArch: Shader 3 bind to kernel 1 '_Z14calculate_tempiPfS_S_iiiiffffff'
GPGPU-Sim uArch: core:  3, cta: 0 initialized @(1,0)
GPGPU-Sim uArch: Shader 4 bind to kernel 1 '_Z14calculate_tempiPfS_S_iiiiffffff'
GPGPU-Sim uArch: core:  4, cta: 0 initialized @(1,0)
GPGPU-Sim uArch: Shader 5 bind to kernel 1 '_Z14calculate_tempiPfS_S_iiiiffffff'
GPGPU-Sim uArch: core:  5, cta: 0 initialized @(1,0)
GPGPU-Sim uArch: Shader 6 bind to kernel 1 '_Z14calculate_tempiPfS_S_iiiiffffff'
GPGPU-Sim uArch: core:  6, cta: 0 initialized @(1,0)
GPGPU-Sim uArch: Shader 7 bind to kernel 1 '_Z14calculate_tempiPfS_S_iiiiffffff'
GPGPU-Sim uArch: core:  7, cta: 0 initialized @(1,0)
GPGPU-Sim uArch: Shader 8 bind to kernel 1 '_Z14calculate_tempiPfS_S_iiiiffffff'
GPGPU-Sim uArch: core:  8, cta: 0 initialized @(1,0)
GPGPU-Sim uArch: Shader 9 bind to kernel 1 '_Z14calculate_tempiPfS_S_iiiiffffff'
GPGPU-Sim uArch: core:  9, cta: 0 initialized @(1,0)
GPGPU-Sim uArch: Shader 10 bind to kernel 1 '_Z14calculate_tempiPfS_S_iiiiffffff'
GPGPU-Sim uArch: core: 10, cta: 0 initialized @(1,0)
GPGPU-Sim uArch: Shader 11 bind to kernel 1 '_Z14calculate_tempiPfS_S_iiiiffffff'
GPGPU-Sim uArch: core: 11, cta: 0 initialized @(1,0)
GPGPU-Sim uArch: Shader 12 bind to kernel 1 '_Z14calculate_tempiPfS_S_iiiiffffff'
GPGPU-Sim uArch: core: 12, cta: 0 initialized @(1,0)
GPGPU-Sim uArch: Shader 13 bind to kernel 1 '_Z14calculate_tempiPfS_S_iiiiffffff'
GPGPU-Sim uArch: core: 13, cta: 0 initialized @(1,0)
GPGPU-Sim uArch: Shader 14 bind to kernel 1 '_Z14calculate_tempiPfS_S_iiiiffffff'
GPGPU-Sim uArch: core: 14, cta: 0 initialized @(1,0)
GPGPU-Sim uArch: Shader 0 bind to kernel 1 '_Z14calculate_tempiPfS_S_iiiiffffff'
GPGPU-Sim uArch: core:  0, cta: 0 initialized @(1,0)
GPGPU-Sim uArch: core:  1, cta: 1 initialized @(2,0)
GPGPU-Sim uArch: core:  2, cta: 1 initialized @(2,0)
GPGPU-Sim uArch: core:  3, cta: 1 initialized @(2,0)
GPGPU-Sim uArch: core:  4, cta: 1 initialized @(2,0)
GPGPU-Sim uArch: core:  5, cta: 1 initialized @(2,0)
GPGPU-Sim uArch: core:  6, cta: 1 initialized @(2,0)
GPGPU-Sim uArch: core:  7, cta: 1 initialized @(2,0)
GPGPU-Sim uArch: core:  8, cta: 1 initialized @(2,0)
GPGPU-Sim uArch: core:  9, cta: 1 initialized @(2,0)
GPGPU-Sim uArch: core: 10, cta: 1 initialized @(2,0)
GPGPU-Sim uArch: core: 11, cta: 1 initialized @(2,0)
GPGPU-Sim uArch: core: 12, cta: 1 initialized @(2,0)
GPGPU-Sim uArch: core: 13, cta: 1 initialized @(2,0)
GPGPU-Sim uArch: core: 14, cta: 1 initialized @(2,0)
GPGPU-Sim uArch: core:  0, cta: 1 initialized @(2,0)
GPGPU-Sim uArch: core:  1, cta: 2 initialized @(3,0)
GPGPU-Sim uArch: core:  2, cta: 2 initialized @(3,0)
GPGPU-Sim uArch: core:  3, cta: 2 initialized @(3,0)
GPGPU-Sim uArch: core:  4, cta: 2 initialized @(3,0)
GPGPU-Sim uArch: core:  5, cta: 2 initialized @(3,0)
GPGPU-Sim uArch: core:  6, cta: 2 initialized @(3,0)
GPGPU-Sim uArch: core:  7, cta: 2 initialized @(3,0)
GPGPU-Sim uArch: core:  8, cta: 2 initialized @(3,0)
GPGPU-Sim uArch: core:  9, cta: 2 initialized @(3,0)
GPGPU-Sim uArch: core: 10, cta: 2 initialized @(3,0)
GPGPU-Sim uArch: core: 11, cta: 2 initialized @(3,0)
GPGPU-Sim uArch: core: 12, cta: 2 initialized @(3,0)
GPGPU-Sim uArch: core: 13, cta: 2 initialized @(3,0)
GPGPU-Sim uArch: core: 14, cta: 2 initialized @(3,0)
GPGPU-Sim uArch: core:  0, cta: 2 initialized @(3,0)
GPGPU-Sim uArch: cycles simulated: 500  inst.: 0 (ipc= 0.0) sim_rate=0 (inst/sec) elapsed = 0:0:00:02 / Tue Mar 22 13:29:41 2016
GPGPU-Sim PTX: 100000 instructions simulated : ctaid=(8,0,0) tid=(15,1,0)
GPGPU-Sim PTX: 200000 instructions simulated : ctaid=(2,0,0) tid=(15,11,0)
GPGPU-Sim PTX: 300000 instructions simulated : ctaid=(34,0,0) tid=(7,12,0)
GPGPU-Sim PTX: 400000 instructions simulated : ctaid=(10,0,0) tid=(7,9,0)
GPGPU-Sim uArch: cycles simulated: 1500  inst.: 401476 (ipc=267.7) sim_rate=100369 (inst/sec) elapsed = 0:0:00:04 / Tue Mar 22 13:29:43 2016
GPGPU-Sim PTX: 500000 instructions simulated : ctaid=(40,0,0) tid=(11,15,0)
GPGPU-Sim uArch: cycles simulated: 2500  inst.: 529892 (ipc=212.0) sim_rate=105978 (inst/sec) elapsed = 0:0:00:05 / Tue Mar 22 13:29:44 2016
GPGPU-Sim PTX: 600000 instructions simulated : ctaid=(41,0,0) tid=(7,15,0)
GPGPU-Sim PTX: 700000 instructions simulated : ctaid=(13,0,0) tid=(7,9,0)
GPGPU-Sim PTX: 800000 instructions simulated : ctaid=(2,0,0) tid=(9,14,0)
GPGPU-Sim PTX: 900000 instructions simulated : ctaid=(12,0,0) tid=(11,4,0)
GPGPU-Sim PTX: 1000000 instructions simulated : ctaid=(36,0,0) tid=(9,10,0)
GPGPU-Sim PTX: 1100000 instructions simulated : ctaid=(33,0,0) tid=(13,14,0)
GPGPU-Sim uArch: cycles simulated: 3500  inst.: 1082752 (ipc=309.4) sim_rate=180458 (inst/sec) elapsed = 0:0:00:06 / Tue Mar 22 13:29:45 2016
GPGPU-Sim PTX: 1200000 instructions simulated : ctaid=(5,0,0) tid=(9,7,0)
GPGPU-Sim PTX: 1300000 instructions simulated : ctaid=(0,0,0) tid=(2,10,0)
GPGPU-Sim PTX: 1400000 instructions simulated : ctaid=(35,0,0) tid=(15,8,0)
GPGPU-Sim uArch: cycles simulated: 4000  inst.: 1324833 (ipc=331.2) sim_rate=189261 (inst/sec) elapsed = 0:0:00:07 / Tue Mar 22 13:29:46 2016
GPGPU-Sim PTX: 1500000 instructions simulated : ctaid=(22,0,0) tid=(8,13,0)
GPGPU-Sim uArch: Shader 8 finished CTA #2 (4199,0), 2 CTAs running
GPGPU-Sim uArch: core:  8, cta: 2 initialized @(4200,0)
GPGPU-Sim uArch: Shader 13 finished CTA #2 (4202,0), 2 CTAs running
GPGPU-Sim uArch: core: 13, cta: 2 initialized @(4203,0)
GPGPU-Sim uArch: Shader 10 finished CTA #2 (4223,0), 2 CTAs running
GPGPU-Sim uArch: core: 10, cta: 2 initialized @(4224,0)
GPGPU-Sim uArch: Shader 9 finished CTA #2 (4229,0), 2 CTAs running
GPGPU-Sim uArch: core:  9, cta: 2 initialized @(4230,0)
GPGPU-Sim uArch: Shader 12 finished CTA #2 (4240,0), 2 CTAs running
GPGPU-Sim uArch: core: 12, cta: 2 initialized @(4241,0)
GPGPU-Sim uArch: Shader 11 finished CTA #2 (4245,0), 2 CTAs running
GPGPU-Sim uArch: core: 11, cta: 2 initialized @(4246,0)
GPGPU-Sim PTX: 1600000 instructions simulated : ctaid=(23,0,0) tid=(3,12,0)
GPGPU-Sim uArch: cycles simulated: 4500  inst.: 1541392 (ipc=342.5) sim_rate=192674 (inst/sec) elapsed = 0:0:00:08 / Tue Mar 22 13:29:47 2016
GPGPU-Sim PTX: 1700000 instructions simulated : ctaid=(2,0,0) tid=(14,9,0)
GPGPU-Sim PTX: 1800000 instructions simulated : ctaid=(28,0,0) tid=(1,3,0)
GPGPU-Sim PTX: 1900000 instructions simulated : ctaid=(18,0,0) tid=(13,14,0)
GPGPU-Sim uArch: Shader 9 finished CTA #0 (5117,0), 2 CTAs running
GPGPU-Sim uArch: core:  9, cta: 0 initialized @(5118,0)
GPGPU-Sim uArch: Shader 8 finished CTA #0 (5139,0), 2 CTAs running
GPGPU-Sim uArch: core:  8, cta: 0 initialized @(5140,0)
GPGPU-Sim uArch: Shader 13 finished CTA #0 (5215,0), 2 CTAs running
GPGPU-Sim uArch: core: 13, cta: 0 initialized @(5216,0)
GPGPU-Sim uArch: Shader 11 finished CTA #0 (5242,0), 2 CTAs running
GPGPU-Sim uArch: core: 11, cta: 0 initialized @(5243,0)
GPGPU-Sim uArch: Shader 12 finished CTA #0 (5297,0), 2 CTAs running
GPGPU-Sim uArch: core: 12, cta: 0 initialized @(5298,0)
GPGPU-Sim uArch: Shader 10 finished CTA #0 (5299,0), 2 CTAs running
GPGPU-Sim uArch: core: 10, cta: 0 initialized @(5300,0)
GPGPU-Sim PTX: 2000000 instructions simulated : ctaid=(9,1,0) tid=(0,5,0)
GPGPU-Sim uArch: Shader 9 finished CTA #1 (5367,0), 2 CTAs running
GPGPU-Sim uArch: core:  9, cta: 1 initialized @(5368,0)
GPGPU-Sim uArch: Shader 12 finished CTA #1 (5476,0), 2 CTAs running
GPGPU-Sim uArch: core: 12, cta: 1 initialized @(5477,0)
GPGPU-Sim uArch: Shader 8 finished CTA #1 (5487,0), 2 CTAs running
GPGPU-Sim uArch: core:  8, cta: 1 initialized @(5488,0)
GPGPU-Sim uArch: cycles simulated: 5500  inst.: 1938663 (ipc=352.5) sim_rate=215407 (inst/sec) elapsed = 0:0:00:09 / Tue Mar 22 13:29:48 2016
GPGPU-Sim uArch: Shader 13 finished CTA #1 (5529,0), 2 CTAs running
GPGPU-Sim uArch: core: 13, cta: 1 initialized @(5530,0)
GPGPU-Sim uArch: Shader 10 finished CTA #1 (5536,0), 2 CTAs running
GPGPU-Sim uArch: core: 10, cta: 1 initialized @(5537,0)
GPGPU-Sim uArch: Shader 11 finished CTA #1 (5538,0), 2 CTAs running
GPGPU-Sim uArch: core: 11, cta: 1 initialized @(5539,0)
GPGPU-Sim PTX: 2100000 instructions simulated : ctaid=(12,1,0) tid=(6,2,0)
GPGPU-Sim uArch: Shader 0 finished CTA #0 (5689,0), 2 CTAs running
GPGPU-Sim uArch: core:  0, cta: 0 initialized @(5690,0)
GPGPU-Sim uArch: Shader 1 finished CTA #1 (5773,0), 2 CTAs running
GPGPU-Sim uArch: core:  1, cta: 1 initialized @(5774,0)
GPGPU-Sim PTX: 2200000 instructions simulated : ctaid=(0,1,0) tid=(12,9,0)
GPGPU-Sim uArch: Shader 14 finished CTA #0 (5882,0), 2 CTAs running
GPGPU-Sim uArch: core: 14, cta: 0 initialized @(5883,0)
GPGPU-Sim uArch: Shader 0 finished CTA #1 (5888,0), 2 CTAs running
GPGPU-Sim uArch: core:  0, cta: 1 initialized @(5889,0)
GPGPU-Sim uArch: Shader 7 finished CTA #1 (5894,0), 2 CTAs running
GPGPU-Sim uArch: core:  7, cta: 1 initialized @(5895,0)
GPGPU-Sim uArch: Shader 2 finished CTA #0 (5900,0), 2 CTAs running
GPGPU-Sim uArch: core:  2, cta: 0 initialized @(5901,0)
GPGPU-Sim uArch: Shader 6 finished CTA #0 (5917,0), 2 CTAs running
GPGPU-Sim uArch: core:  6, cta: 0 initialized @(5918,0)
GPGPU-Sim uArch: Shader 1 finished CTA #0 (5948,0), 2 CTAs running
GPGPU-Sim uArch: core:  1, cta: 0 initialized @(5949,0)
GPGPU-Sim uArch: Shader 7 finished CTA #0 (5961,0), 2 CTAs running
GPGPU-Sim uArch: core:  7, cta: 0 initialized @(5962,0)
GPGPU-Sim uArch: Shader 3 finished CTA #0 (5977,0), 2 CTAs running
GPGPU-Sim uArch: core:  3, cta: 0 initialized @(5978,0)
GPGPU-Sim uArch: Shader 4 finished CTA #0 (5981,0), 2 CTAs running
GPGPU-Sim uArch: core:  4, cta: 0 initialized @(5982,0)
GPGPU-Sim uArch: Shader 3 finished CTA #1 (5986,0), 2 CTAs running
GPGPU-Sim uArch: core:  3, cta: 1 initialized @(5987,0)
GPGPU-Sim PTX: 2300000 instructions simulated : ctaid=(2,1,0) tid=(15,8,0)
GPGPU-Sim uArch: cycles simulated: 6000  inst.: 2144688 (ipc=357.4) sim_rate=214468 (inst/sec) elapsed = 0:0:00:10 / Tue Mar 22 13:29:49 2016
GPGPU-Sim uArch: Shader 2 finished CTA #1 (6051,0), 2 CTAs running
GPGPU-Sim uArch: core:  2, cta: 1 initialized @(6052,0)
GPGPU-Sim uArch: Shader 5 finished CTA #0 (6058,0), 2 CTAs running
GPGPU-Sim uArch: core:  5, cta: 0 initialized @(6059,0)
GPGPU-Sim uArch: Shader 2 finished CTA #2 (6063,0), 2 CTAs running
GPGPU-Sim uArch: Shader 4 finished CTA #1 (6063,0), 2 CTAs running
GPGPU-Sim uArch: core:  2, cta: 2 initialized @(6064,0)
GPGPU-Sim uArch: core:  4, cta: 1 initialized @(6064,0)
GPGPU-Sim uArch: Shader 14 finished CTA #1 (6087,0), 2 CTAs running
GPGPU-Sim uArch: core: 14, cta: 1 initialized @(6088,0)
GPGPU-Sim uArch: Shader 1 finished CTA #2 (6089,0), 2 CTAs running
GPGPU-Sim uArch: core:  1, cta: 2 initialized @(6090,0)
GPGPU-Sim uArch: Shader 6 finished CTA #1 (6094,0), 2 CTAs running
GPGPU-Sim uArch: core:  6, cta: 1 initialized @(6095,0)
GPGPU-Sim uArch: Shader 5 finished CTA #1 (6098,0), 2 CTAs running
GPGPU-Sim uArch: core:  5, cta: 1 initialized @(6099,0)
GPGPU-Sim PTX: 2400000 instructions simulated : ctaid=(23,1,0) tid=(15,9,0)
GPGPU-Sim uArch: Shader 14 finished CTA #2 (6174,0), 2 CTAs running
GPGPU-Sim uArch: core: 14, cta: 2 initialized @(6175,0)
GPGPU-Sim uArch: Shader 4 finished CTA #2 (6197,0), 2 CTAs running
GPGPU-Sim uArch: core:  4, cta: 2 initialized @(6198,0)
GPGPU-Sim uArch: Shader 3 finished CTA #2 (6245,0), 2 CTAs running
GPGPU-Sim uArch: core:  3, cta: 2 initialized @(6246,0)
GPGPU-Sim PTX: 2500000 instructions simulated : ctaid=(32,1,0) tid=(1,4,0)
GPGPU-Sim uArch: Shader 5 finished CTA #2 (6305,0), 2 CTAs running
GPGPU-Sim uArch: core:  5, cta: 2 initialized @(6306,0)
GPGPU-Sim uArch: Shader 6 finished CTA #2 (6311,0), 2 CTAs running
GPGPU-Sim uArch: core:  6, cta: 2 initialized @(6312,0)
GPGPU-Sim uArch: Shader 7 finished CTA #2 (6312,0), 2 CTAs running
GPGPU-Sim uArch: core:  7, cta: 2 initialized @(6313,0)
GPGPU-Sim uArch: Shader 0 finished CTA #2 (6375,0), 2 CTAs running
GPGPU-Sim uArch: core:  0, cta: 2 initialized @(6376,0)
GPGPU-Sim PTX: 2600000 instructions simulated : ctaid=(35,1,0) tid=(7,0,0)
GPGPU-Sim uArch: cycles simulated: 6500  inst.: 2457990 (ipc=378.2) sim_rate=223453 (inst/sec) elapsed = 0:0:00:11 / Tue Mar 22 13:29:50 2016
GPGPU-Sim PTX: 2700000 instructions simulated : ctaid=(2,1,0) tid=(4,12,0)
GPGPU-Sim PTX: 2800000 instructions simulated : ctaid=(40,1,0) tid=(13,5,0)
GPGPU-Sim uArch: Shader 6 finished CTA #1 (6932,0), 2 CTAs running
GPGPU-Sim uArch: core:  6, cta: 1 initialized @(6933,0)
GPGPU-Sim PTX: 2900000 instructions simulated : ctaid=(40,1,0) tid=(7,5,0)
GPGPU-Sim uArch: cycles simulated: 7000  inst.: 2723488 (ipc=389.1) sim_rate=226957 (inst/sec) elapsed = 0:0:00:12 / Tue Mar 22 13:29:51 2016
GPGPU-Sim uArch: Shader 5 finished CTA #1 (7044,0), 2 CTAs running
GPGPU-Sim uArch: core:  5, cta: 1 initialized @(7045,0)
GPGPU-Sim uArch: Shader 3 finished CTA #2 (7084,0), 2 CTAs running
GPGPU-Sim uArch: core:  3, cta: 2 initialized @(7085,0)
GPGPU-Sim uArch: Shader 4 finished CTA #2 (7123,0), 2 CTAs running
GPGPU-Sim uArch: core:  4, cta: 2 initialized @(7124,0)
GPGPU-Sim PTX: 3000000 instructions simulated : ctaid=(20,1,0) tid=(9,4,0)
GPGPU-Sim PTX: 3100000 instructions simulated : ctaid=(20,1,0) tid=(5,9,0)
GPGPU-Sim PTX: 3200000 instructions simulated : ctaid=(11,1,0) tid=(14,7,0)
GPGPU-Sim uArch: Shader 13 finished CTA #2 (7438,0), 2 CTAs running
GPGPU-Sim uArch: core: 13, cta: 2 initialized @(7439,0)
GPGPU-Sim uArch: Shader 14 finished CTA #2 (7456,0), 2 CTAs running
GPGPU-Sim uArch: core: 14, cta: 2 initialized @(7457,0)
GPGPU-Sim uArch: cycles simulated: 7500  inst.: 3049554 (ipc=406.6) sim_rate=234581 (inst/sec) elapsed = 0:0:00:13 / Tue Mar 22 13:29:52 2016
GPGPU-Sim PTX: 3300000 instructions simulated : ctaid=(31,1,0) tid=(3,7,0)
GPGPU-Sim uArch: Shader 8 finished CTA #2 (7640,0), 2 CTAs running
GPGPU-Sim uArch: core:  8, cta: 2 initialized @(7641,0)
GPGPU-Sim PTX: 3400000 instructions simulated : ctaid=(24,1,0) tid=(10,8,0)
GPGPU-Sim uArch: Shader 12 finished CTA #2 (7712,0), 2 CTAs running
GPGPU-Sim uArch: core: 12, cta: 2 initialized @(7713,0)
GPGPU-Sim uArch: Shader 11 finished CTA #2 (7743,0), 2 CTAs running
GPGPU-Sim uArch: core: 11, cta: 2 initialized @(7744,0)
GPGPU-Sim uArch: Shader 9 finished CTA #2 (7759,0), 2 CTAs running
GPGPU-Sim uArch: core:  9, cta: 2 initialized @(7760,0)
GPGPU-Sim uArch: Shader 10 finished CTA #2 (7790,0), 2 CTAs running
GPGPU-Sim uArch: core: 10, cta: 2 initialized @(7791,0)
GPGPU-Sim PTX: 3500000 instructions simulated : ctaid=(25,1,0) tid=(6,5,0)
GPGPU-Sim PTX: 3600000 instructions simulated : ctaid=(27,1,0) tid=(8,4,0)
GPGPU-Sim uArch: cycles simulated: 8000  inst.: 3359495 (ipc=419.9) sim_rate=239963 (inst/sec) elapsed = 0:0:00:14 / Tue Mar 22 13:29:53 2016
GPGPU-Sim PTX: 3700000 instructions simulated : ctaid=(10,1,0) tid=(7,13,0)
GPGPU-Sim PTX: 3800000 instructions simulated : ctaid=(1,2,0) tid=(6,15,0)
GPGPU-Sim uArch: cycles simulated: 8500  inst.: 3627416 (ipc=426.8) sim_rate=241827 (inst/sec) elapsed = 0:0:00:15 / Tue Mar 22 13:29:54 2016
GPGPU-Sim PTX: 3900000 instructions simulated : ctaid=(14,2,0) tid=(4,12,0)
GPGPU-Sim uArch: Shader 13 finished CTA #0 (8574,0), 2 CTAs running
GPGPU-Sim uArch: core: 13, cta: 0 initialized @(8575,0)
GPGPU-Sim uArch: Shader 9 finished CTA #0 (8575,0), 2 CTAs running
GPGPU-Sim uArch: core:  9, cta: 0 initialized @(8576,0)
GPGPU-Sim PTX: 4000000 instructions simulated : ctaid=(14,1,0) tid=(12,11,0)
GPGPU-Sim uArch: Shader 1 finished CTA #2 (8781,0), 2 CTAs running
GPGPU-Sim uArch: core:  1, cta: 2 initialized @(8782,0)
GPGPU-Sim uArch: Shader 8 finished CTA #0 (8782,0), 2 CTAs running
GPGPU-Sim uArch: core:  8, cta: 0 initialized @(8783,0)
GPGPU-Sim uArch: Shader 11 finished CTA #0 (8802,0), 2 CTAs running
GPGPU-Sim uArch: core: 11, cta: 0 initialized @(8803,0)
GPGPU-Sim uArch: Shader 12 finished CTA #0 (8870,0), 2 CTAs running
GPGPU-Sim uArch: core: 12, cta: 0 initialized @(8871,0)
GPGPU-Sim PTX: 4100000 instructions simulated : ctaid=(16,1,0) tid=(1,5,0)
GPGPU-Sim uArch: Shader 1 finished CTA #1 (8933,0), 2 CTAs running
GPGPU-Sim uArch: core:  1, cta: 1 initialized @(8934,0)
GPGPU-Sim uArch: Shader 6 finished CTA #0 (8974,0), 2 CTAs running
GPGPU-Sim uArch: core:  6, cta: 0 initialized @(8975,0)
GPGPU-Sim uArch: Shader 0 finished CTA #0 (8982,0), 2 CTAs running
GPGPU-Sim uArch: core:  0, cta: 0 initialized @(8983,0)
GPGPU-Sim uArch: Shader 10 finished CTA #0 (8985,0), 2 CTAs running
GPGPU-Sim uArch: core: 10, cta: 0 initialized @(8986,0)
GPGPU-Sim uArch: cycles simulated: 9000  inst.: 3851754 (ipc=428.0) sim_rate=240734 (inst/sec) elapsed = 0:0:00:16 / Tue Mar 22 13:29:55 2016
GPGPU-Sim uArch: Shader 5 finished CTA #0 (9056,0), 2 CTAs running
GPGPU-Sim uArch: core:  5, cta: 0 initialized @(9057,0)
GPGPU-Sim PTX: 4200000 instructions simulated : ctaid=(23,1,0) tid=(14,14,0)
GPGPU-Sim uArch: Shader 2 finished CTA #0 (9160,0), 2 CTAs running
GPGPU-Sim uArch: Shader 4 finished CTA #0 (9160,0), 2 CTAs running
GPGPU-Sim uArch: core:  2, cta: 0 initialized @(9161,0)
GPGPU-Sim uArch: core:  4, cta: 0 initialized @(9161,0)
GPGPU-Sim uArch: Shader 14 finished CTA #0 (9169,0), 2 CTAs running
GPGPU-Sim uArch: core: 14, cta: 0 initialized @(9170,0)
GPGPU-Sim uArch: Shader 7 finished CTA #1 (9173,0), 2 CTAs running
GPGPU-Sim uArch: core:  7, cta: 1 initialized @(9174,0)
GPGPU-Sim uArch: Shader 9 finished CTA #1 (9188,0), 2 CTAs running
GPGPU-Sim uArch: core:  9, cta: 1 initialized @(9189,0)
GPGPU-Sim uArch: Shader 3 finished CTA #0 (9222,0), 2 CTAs running
GPGPU-Sim uArch: core:  3, cta: 0 initialized @(9223,0)
GPGPU-Sim PTX: 4300000 instructions simulated : ctaid=(32,1,0) tid=(11,9,0)
GPGPU-Sim uArch: Shader 11 finished CTA #1 (9363,0), 2 CTAs running
GPGPU-Sim uArch: core: 11, cta: 1 initialized @(9364,0)
GPGPU-Sim uArch: Shader 12 finished CTA #1 (9379,0), 2 CTAs running
GPGPU-Sim uArch: core: 12, cta: 1 initialized @(9380,0)
GPGPU-Sim uArch: Shader 13 finished CTA #1 (9412,0), 2 CTAs running
GPGPU-Sim uArch: core: 13, cta: 1 initialized @(9413,0)
GPGPU-Sim PTX: 4400000 instructions simulated : ctaid=(36,1,0) tid=(8,2,0)
GPGPU-Sim uArch: Shader 1 finished CTA #0 (9495,0), 2 CTAs running
GPGPU-Sim uArch: core:  1, cta: 0 initialized @(9496,0)
GPGPU-Sim uArch: cycles simulated: 9500  inst.: 4145589 (ipc=436.4) sim_rate=243858 (inst/sec) elapsed = 0:0:00:17 / Tue Mar 22 13:29:56 2016
GPGPU-Sim uArch: Shader 8 finished CTA #1 (9557,0), 2 CTAs running
GPGPU-Sim uArch: core:  8, cta: 1 initialized @(9558,0)
GPGPU-Sim PTX: 4500000 instructions simulated : ctaid=(14,2,0) tid=(5,0,0)
GPGPU-Sim uArch: Shader 3 finished CTA #1 (9629,0), 2 CTAs running
GPGPU-Sim uArch: core:  3, cta: 1 initialized @(9630,0)
GPGPU-Sim uArch: Shader 0 finished CTA #1 (9655,0), 2 CTAs running
GPGPU-Sim uArch: core:  0, cta: 1 initialized @(9656,0)
GPGPU-Sim PTX: 4600000 instructions simulated : ctaid=(8,2,0) tid=(10,15,0)
GPGPU-Sim uArch: Shader 10 finished CTA #1 (9725,0), 2 CTAs running
GPGPU-Sim uArch: core: 10, cta: 1 initialized @(9726,0)
GPGPU-Sim uArch: Shader 7 finished CTA #0 (9779,0), 2 CTAs running
GPGPU-Sim uArch: core:  7, cta: 0 initialized @(9780,0)
GPGPU-Sim uArch: Shader 4 finished CTA #1 (9825,0), 2 CTAs running
GPGPU-Sim uArch: core:  4, cta: 1 initialized @(9826,0)
GPGPU-Sim uArch: Shader 2 finished CTA #1 (9841,0), 2 CTAs running
GPGPU-Sim uArch: core:  2, cta: 1 initialized @(9842,0)
GPGPU-Sim PTX: 4700000 instructions simulated : ctaid=(31,2,0) tid=(7,11,0)
GPGPU-Sim uArch: Shader 14 finished CTA #1 (9864,0), 2 CTAs running
GPGPU-Sim uArch: core: 14, cta: 1 initialized @(9865,0)
GPGPU-Sim uArch: Shader 6 finished CTA #2 (9966,0), 2 CTAs running
GPGPU-Sim uArch: core:  6, cta: 2 initialized @(9967,0)
GPGPU-Sim uArch: cycles simulated: 10000  inst.: 4466142 (ipc=446.6) sim_rate=235060 (inst/sec) elapsed = 0:0:00:19 / Tue Mar 22 13:29:58 2016
GPGPU-Sim PTX: 4800000 instructions simulated : ctaid=(8,2,0) tid=(2,11,0)
GPGPU-Sim uArch: Shader 5 finished CTA #2 (10046,0), 2 CTAs running
GPGPU-Sim uArch: core:  5, cta: 2 initialized @(10047,0)
GPGPU-Sim PTX: 4900000 instructions simulated : ctaid=(42,2,0) tid=(3,9,0)
GPGPU-Sim PTX: 5000000 instructions simulated : ctaid=(2,3,0) tid=(15,6,0)
GPGPU-Sim uArch: Shader 0 finished CTA #2 (10460,0), 2 CTAs running
GPGPU-Sim uArch: core:  0, cta: 2 initialized @(10461,0)
GPGPU-Sim PTX: 5100000 instructions simulated : ctaid=(42,2,0) tid=(5,9,0)
GPGPU-Sim uArch: cycles simulated: 10500  inst.: 4761912 (ipc=453.5) sim_rate=238095 (inst/sec) elapsed = 0:0:00:20 / Tue Mar 22 13:29:59 2016
GPGPU-Sim uArch: Shader 7 finished CTA #2 (10615,0), 2 CTAs running
GPGPU-Sim uArch: core:  7, cta: 2 initialized @(10616,0)
GPGPU-Sim PTX: 5200000 instructions simulated : ctaid=(24,2,0) tid=(3,4,0)
GPGPU-Sim uArch: Shader 0 finished CTA #1 (10656,0), 2 CTAs running
GPGPU-Sim uArch: core:  0, cta: 1 initialized @(10657,0)
GPGPU-Sim PTX: 5300000 instructions simulated : ctaid=(7,2,0) tid=(2,6,0)
GPGPU-Sim uArch: Shader 6 finished CTA #1 (10832,0), 2 CTAs running
GPGPU-Sim uArch: core:  6, cta: 1 initialized @(10833,0)
GPGPU-Sim uArch: Shader 2 finished CTA #2 (10860,0), 2 CTAs running
GPGPU-Sim uArch: core:  2, cta: 2 initialized @(10861,0)
GPGPU-Sim PTX: 5400000 instructions simulated : ctaid=(42,2,0) tid=(9,5,0)
GPGPU-Sim uArch: Shader 5 finished CTA #1 (10936,0), 2 CTAs running
GPGPU-Sim uArch: core:  5, cta: 1 initialized @(10937,0)
GPGPU-Sim uArch: Shader 7 finished CTA #0 (10986,0), 2 CTAs running
GPGPU-Sim uArch: core:  7, cta: 0 initialized @(10987,0)
GPGPU-Sim uArch: cycles simulated: 11000  inst.: 5084648 (ipc=462.2) sim_rate=242126 (inst/sec) elapsed = 0:0:00:21 / Tue Mar 22 13:30:00 2016
GPGPU-Sim uArch: Shader 10 finished CTA #2 (11034,0), 2 CTAs running
GPGPU-Sim uArch: core: 10, cta: 2 initialized @(11035,0)
GPGPU-Sim PTX: 5500000 instructions simulated : ctaid=(3,3,0) tid=(7,7,0)
GPGPU-Sim uArch: Shader 13 finished CTA #2 (11118,0), 2 CTAs running
GPGPU-Sim uArch: core: 13, cta: 2 initialized @(11119,0)
GPGPU-Sim uArch: Shader 4 finished CTA #2 (11147,0), 2 CTAs running
GPGPU-Sim uArch: core:  4, cta: 2 initialized @(11148,0)
GPGPU-Sim uArch: Shader 3 finished CTA #2 (11202,0), 2 CTAs running
GPGPU-Sim uArch: core:  3, cta: 2 initialized @(11203,0)
GPGPU-Sim uArch: Shader 11 finished CTA #2 (11211,0), 2 CTAs running
GPGPU-Sim uArch: core: 11, cta: 2 initialized @(11212,0)
GPGPU-Sim uArch: Shader 9 finished CTA #2 (11229,0), 2 CTAs running
GPGPU-Sim uArch: core:  9, cta: 2 initialized @(11230,0)
GPGPU-Sim uArch: Shader 8 finished CTA #2 (11236,0), 2 CTAs running
GPGPU-Sim uArch: core:  8, cta: 2 initialized @(11237,0)
GPGPU-Sim uArch: Shader 12 finished CTA #2 (11260,0), 2 CTAs running
GPGPU-Sim uArch: core: 12, cta: 2 initialized @(11261,0)
GPGPU-Sim PTX: 5600000 instructions simulated : ctaid=(14,3,0) tid=(13,3,0)
GPGPU-Sim uArch: Shader 14 finished CTA #2 (11293,0), 2 CTAs running
GPGPU-Sim uArch: core: 14, cta: 2 initialized @(11294,0)
GPGPU-Sim PTX: 5700000 instructions simulated : ctaid=(9,3,0) tid=(1,4,0)
GPGPU-Sim uArch: cycles simulated: 11500  inst.: 5375102 (ipc=467.4) sim_rate=244322 (inst/sec) elapsed = 0:0:00:22 / Tue Mar 22 13:30:01 2016
GPGPU-Sim PTX: 5800000 instructions simulated : ctaid=(17,3,0) tid=(5,5,0)
GPGPU-Sim uArch: Shader 10 finished CTA #1 (11652,0), 2 CTAs running
GPGPU-Sim uArch: core: 10, cta: 1 initialized @(11653,0)
GPGPU-Sim uArch: Shader 2 finished CTA #1 (11657,0), 2 CTAs running
GPGPU-Sim uArch: core:  2, cta: 1 initialized @(11658,0)
GPGPU-Sim uArch: Shader 1 finished CTA #2 (11705,0), 2 CTAs running
GPGPU-Sim uArch: Shader 4 finished CTA #1 (11705,0), 2 CTAs running
GPGPU-Sim uArch: core:  4, cta: 1 initialized @(11706,0)
GPGPU-Sim uArch: core:  1, cta: 2 initialized @(11706,0)
GPGPU-Sim PTX: 5900000 instructions simulated : ctaid=(13,3,0) tid=(7,7,0)
GPGPU-Sim uArch: Shader 13 finished CTA #0 (11770,0), 2 CTAs running
GPGPU-Sim uArch: core: 13, cta: 0 initialized @(11771,0)
GPGPU-Sim uArch: Shader 9 finished CTA #0 (11780,0), 2 CTAs running
GPGPU-Sim uArch: core:  9, cta: 0 initialized @(11781,0)
GPGPU-Sim uArch: Shader 3 finished CTA #1 (11824,0), 2 CTAs running
GPGPU-Sim uArch: core:  3, cta: 1 initialized @(11825,0)
GPGPU-Sim PTX: 6000000 instructions simulated : ctaid=(14,3,0) tid=(2,3,0)
GPGPU-Sim uArch: cycles simulated: 12000  inst.: 5687566 (ipc=474.0) sim_rate=247285 (inst/sec) elapsed = 0:0:00:23 / Tue Mar 22 13:30:02 2016
GPGPU-Sim PTX: 6100000 instructions simulated : ctaid=(27,2,0) tid=(8,10,0)
GPGPU-Sim uArch: Shader 11 finished CTA #0 (12084,0), 2 CTAs running
GPGPU-Sim uArch: core: 11, cta: 0 initialized @(12085,0)
GPGPU-Sim PTX: 6200000 instructions simulated : ctaid=(34,2,0) tid=(2,8,0)
GPGPU-Sim uArch: Shader 12 finished CTA #0 (12192,0), 2 CTAs running
GPGPU-Sim uArch: core: 12, cta: 0 initialized @(12193,0)
GPGPU-Sim uArch: Shader 8 finished CTA #0 (12240,0), 2 CTAs running
GPGPU-Sim uArch: core:  8, cta: 0 initialized @(12241,0)
GPGPU-Sim uArch: Shader 0 finished CTA #0 (12295,0), 2 CTAs running
GPGPU-Sim uArch: core:  0, cta: 0 initialized @(12296,0)
GPGPU-Sim uArch: Shader 6 finished CTA #0 (12341,0), 2 CTAs running
GPGPU-Sim uArch: core:  6, cta: 0 initialized @(12342,0)
GPGPU-Sim uArch: Shader 10 finished CTA #0 (12371,0), 2 CTAs running
GPGPU-Sim uArch: core: 10, cta: 0 initialized @(12372,0)
GPGPU-Sim uArch: Shader 14 finished CTA #0 (12423,0), 2 CTAs running
GPGPU-Sim uArch: core: 14, cta: 0 initialized @(12424,0)
GPGPU-Sim PTX: 6300000 instructions simulated : ctaid=(19,3,0) tid=(12,6,0)
GPGPU-Sim uArch: cycles simulated: 12500  inst.: 5915199 (ipc=473.2) sim_rate=246466 (inst/sec) elapsed = 0:0:00:24 / Tue Mar 22 13:30:03 2016
GPGPU-Sim uArch: Shader 1 finished CTA #1 (12542,0), 2 CTAs running
GPGPU-Sim uArch: core:  1, cta: 1 initialized @(12543,0)
GPGPU-Sim uArch: Shader 7 finished CTA #1 (12573,0), 2 CTAs running
GPGPU-Sim uArch: core:  7, cta: 1 initialized @(12574,0)
GPGPU-Sim uArch: Shader 3 finished CTA #0 (12599,0), 2 CTAs running
GPGPU-Sim uArch: core:  3, cta: 0 initialized @(12600,0)
GPGPU-Sim uArch: Shader 5 finished CTA #0 (12610,0), 2 CTAs running
GPGPU-Sim uArch: core:  5, cta: 0 initialized @(12611,0)
GPGPU-Sim uArch: Shader 2 finished CTA #0 (12617,0), 2 CTAs running
GPGPU-Sim uArch: core:  2, cta: 0 initialized @(12618,0)
GPGPU-Sim PTX: 6400000 instructions simulated : ctaid=(29,3,0) tid=(9,4,0)
GPGPU-Sim uArch: Shader 4 finished CTA #0 (12624,0), 2 CTAs running
GPGPU-Sim uArch: core:  4, cta: 0 initialized @(12625,0)
GPGPU-Sim PTX: 6500000 instructions simulated : ctaid=(30,2,0) tid=(4,10,0)
GPGPU-Sim PTX: 6600000 instructions simulated : ctaid=(16,3,0) tid=(14,15,0)
GPGPU-Sim uArch: cycles simulated: 13000  inst.: 6223710 (ipc=478.7) sim_rate=248948 (inst/sec) elapsed = 0:0:00:25 / Tue Mar 22 13:30:04 2016
GPGPU-Sim uArch: Shader 9 finished CTA #1 (13042,0), 2 CTAs running
GPGPU-Sim uArch: core:  9, cta: 1 initialized @(13043,0)
GPGPU-Sim PTX: 6700000 instructions simulated : ctaid=(5,3,0) tid=(4,13,0)
GPGPU-Sim uArch: Shader 6 finished CTA #2 (13205,0), 2 CTAs running
GPGPU-Sim uArch: core:  6, cta: 2 initialized @(13206,0)
GPGPU-Sim PTX: 6800000 instructions simulated : ctaid=(16,3,0) tid=(8,1,0)
GPGPU-Sim uArch: Shader 11 finished CTA #1 (13271,0), 2 CTAs running
GPGPU-Sim uArch: core: 11, cta: 1 initialized @(13272,0)
GPGPU-Sim uArch: Shader 8 finished CTA #1 (13294,0), 2 CTAs running
GPGPU-Sim uArch: core:  8, cta: 1 initialized @(13295,0)
GPGPU-Sim uArch: Shader 14 finished CTA #1 (13296,0), 2 CTAs running
GPGPU-Sim uArch: core: 14, cta: 1 initialized @(13297,0)
GPGPU-Sim uArch: Shader 12 finished CTA #1 (13316,0), 2 CTAs running
GPGPU-Sim uArch: core: 12, cta: 1 initialized @(13317,0)
GPGPU-Sim uArch: Shader 5 finished CTA #2 (13347,0), 2 CTAs running
GPGPU-Sim uArch: core:  5, cta: 2 initialized @(13348,0)
GPGPU-Sim uArch: Shader 13 finished CTA #1 (13350,0), 2 CTAs running
GPGPU-Sim uArch: core: 13, cta: 1 initialized @(13351,0)
GPGPU-Sim uArch: Shader 1 finished CTA #0 (13352,0), 2 CTAs running
GPGPU-Sim uArch: core:  1, cta: 0 initialized @(13353,0)
GPGPU-Sim PTX: 6900000 instructions simulated : ctaid=(0,4,0) tid=(5,13,0)
GPGPU-Sim uArch: Shader 0 finished CTA #2 (13463,0), 2 CTAs running
GPGPU-Sim uArch: core:  0, cta: 2 initialized @(13464,0)
GPGPU-Sim uArch: cycles simulated: 13500  inst.: 6524374 (ipc=483.3) sim_rate=250937 (inst/sec) elapsed = 0:0:00:26 / Tue Mar 22 13:30:05 2016
GPGPU-Sim PTX: 7000000 instructions simulated : ctaid=(24,3,0) tid=(3,13,0)
GPGPU-Sim PTX: 7100000 instructions simulated : ctaid=(40,3,0) tid=(7,13,0)
GPGPU-Sim PTX: 7200000 instructions simulated : ctaid=(21,3,0) tid=(2,9,0)
GPGPU-Sim uArch: cycles simulated: 14000  inst.: 6816276 (ipc=486.9) sim_rate=252454 (inst/sec) elapsed = 0:0:00:27 / Tue Mar 22 13:30:06 2016
GPGPU-Sim PTX: 7300000 instructions simulated : ctaid=(21,3,0) tid=(8,13,0)
GPGPU-Sim PTX: 7400000 instructions simulated : ctaid=(15,3,0) tid=(6,8,0)
GPGPU-Sim uArch: Shader 10 finished CTA #2 (14232,0), 2 CTAs running
GPGPU-Sim uArch: core: 10, cta: 2 initialized @(14233,0)
GPGPU-Sim uArch: Shader 7 finished CTA #2 (14319,0), 2 CTAs running
GPGPU-Sim uArch: core:  7, cta: 2 initialized @(14320,0)
GPGPU-Sim uArch: Shader 4 finished CTA #2 (14325,0), 2 CTAs running
GPGPU-Sim uArch: core:  4, cta: 2 initialized @(14326,0)
GPGPU-Sim PTX: 7500000 instructions simulated : ctaid=(6,4,0) tid=(1,13,0)
GPGPU-Sim uArch: Shader 13 finished CTA #2 (14362,0), 2 CTAs running
GPGPU-Sim uArch: core: 13, cta: 2 initialized @(14363,0)
GPGPU-Sim uArch: cycles simulated: 14500  inst.: 7095090 (ipc=489.3) sim_rate=253396 (inst/sec) elapsed = 0:0:00:28 / Tue Mar 22 13:30:07 2016
GPGPU-Sim PTX: 7600000 instructions simulated : ctaid=(41,3,0) tid=(5,9,0)
GPGPU-Sim uArch: Shader 11 finished CTA #2 (14583,0), 2 CTAs running
GPGPU-Sim uArch: core: 11, cta: 2 initialized @(14584,0)
GPGPU-Sim uArch: Shader 0 finished CTA #1 (14596,0), 2 CTAs running
GPGPU-Sim uArch: core:  0, cta: 1 initialized @(14597,0)
GPGPU-Sim uArch: Shader 6 finished CTA #1 (14614,0), 2 CTAs running
GPGPU-Sim uArch: core:  6, cta: 1 initialized @(14615,0)
GPGPU-Sim uArch: Shader 2 finished CTA #2 (14647,0), 2 CTAs running
GPGPU-Sim uArch: core:  2, cta: 2 initialized @(14648,0)
GPGPU-Sim uArch: Shader 3 finished CTA #2 (14658,0), 2 CTAs running
GPGPU-Sim uArch: core:  3, cta: 2 initialized @(14659,0)
GPGPU-Sim uArch: Shader 9 finished CTA #2 (14660,0), 2 CTAs running
GPGPU-Sim uArch: core:  9, cta: 2 initialized @(14661,0)
GPGPU-Sim uArch: Shader 5 finished CTA #1 (14665,0), 2 CTAs running
GPGPU-Sim PTX: 7700000 instructions simulated : ctaid=(41,3,0) tid=(3,8,0)
GPGPU-Sim uArch: core:  5, cta: 1 initialized @(14666,0)
GPGPU-Sim uArch: Shader 14 finished CTA #2 (14752,0), 2 CTAs running
GPGPU-Sim uArch: core: 14, cta: 2 initialized @(14753,0)
GPGPU-Sim uArch: Shader 8 finished CTA #2 (14757,0), 2 CTAs running
GPGPU-Sim uArch: core:  8, cta: 2 initialized @(14758,0)
GPGPU-Sim uArch: Shader 12 finished CTA #2 (14758,0), 2 CTAs running
GPGPU-Sim uArch: core: 12, cta: 2 initialized @(14759,0)
GPGPU-Sim PTX: 7800000 instructions simulated : ctaid=(39,3,0) tid=(4,4,0)
GPGPU-Sim uArch: Shader 4 finished CTA #0 (14859,0), 2 CTAs running
GPGPU-Sim uArch: core:  4, cta: 0 initialized @(14860,0)
GPGPU-Sim uArch: Shader 10 finished CTA #1 (14871,0), 2 CTAs running
GPGPU-Sim uArch: core: 10, cta: 1 initialized @(14872,0)
GPGPU-Sim PTX: 7900000 instructions simulated : ctaid=(34,3,0) tid=(10,4,0)
GPGPU-Sim uArch: Shader 7 finished CTA #0 (14989,0), 2 CTAs running
GPGPU-Sim uArch: core:  7, cta: 0 initialized @(14990,0)
GPGPU-Sim uArch: Shader 2 finished CTA #0 (14992,0), 2 CTAs running
GPGPU-Sim uArch: core:  2, cta: 0 initialized @(14993,0)
GPGPU-Sim uArch: cycles simulated: 15000  inst.: 7400130 (ipc=493.3) sim_rate=246671 (inst/sec) elapsed = 0:0:00:30 / Tue Mar 22 13:30:09 2016
GPGPU-Sim PTX: 8000000 instructions simulated : ctaid=(20,4,0) tid=(14,7,0)
GPGPU-Sim uArch: Shader 9 finished CTA #1 (15128,0), 2 CTAs running
GPGPU-Sim uArch: core:  9, cta: 1 initialized @(15129,0)
GPGPU-Sim uArch: Shader 1 finished CTA #2 (15193,0), 2 CTAs running
GPGPU-Sim uArch: core:  1, cta: 2 initialized @(15194,0)
GPGPU-Sim uArch: Shader 4 finished CTA #1 (15201,0), 2 CTAs running
GPGPU-Sim uArch: core:  4, cta: 1 initialized @(15202,0)
GPGPU-Sim uArch: Shader 11 finished CTA #1 (15222,0), 2 CTAs running
GPGPU-Sim uArch: core: 11, cta: 1 initialized @(15223,0)
GPGPU-Sim uArch: Shader 13 finished CTA #0 (15247,0), 2 CTAs running
GPGPU-Sim uArch: core: 13, cta: 0 initialized @(15248,0)
GPGPU-Sim uArch: Shader 6 finished CTA #2 (15269,0), 2 CTAs running
GPGPU-Sim uArch: core:  6, cta: 2 initialized @(15270,0)
GPGPU-Sim PTX: 8100000 instructions simulated : ctaid=(28,4,0) tid=(15,15,0)
GPGPU-Sim uArch: Shader 8 finished CTA #1 (15345,0), 2 CTAs running
GPGPU-Sim uArch: core:  8, cta: 1 initialized @(15346,0)
GPGPU-Sim PTX: 8200000 instructions simulated : ctaid=(26,4,0) tid=(2,12,0)
GPGPU-Sim uArch: Shader 2 finished CTA #1 (15465,0), 2 CTAs running
GPGPU-Sim uArch: core:  2, cta: 1 initialized @(15466,0)
GPGPU-Sim uArch: cycles simulated: 15500  inst.: 7698789 (ipc=496.7) sim_rate=248348 (inst/sec) elapsed = 0:0:00:31 / Tue Mar 22 13:30:10 2016
GPGPU-Sim uArch: Shader 3 finished CTA #1 (15511,0), 2 CTAs running
GPGPU-Sim uArch: core:  3, cta: 1 initialized @(15512,0)
GPGPU-Sim uArch: Shader 11 finished CTA #0 (15555,0), 2 CTAs running
GPGPU-Sim uArch: core: 11, cta: 0 initialized @(15556,0)
GPGPU-Sim uArch: Shader 9 finished CTA #0 (15567,0), 2 CTAs running
GPGPU-Sim uArch: core:  9, cta: 0 initialized @(15568,0)
GPGPU-Sim uArch: Shader 8 finished CTA #0 (15598,0), 2 CTAs running
GPGPU-Sim uArch: core:  8, cta: 0 initialized @(15599,0)
GPGPU-Sim PTX: 8300000 instructions simulated : ctaid=(2,4,0) tid=(6,10,0)
GPGPU-Sim uArch: Shader 12 finished CTA #0 (15661,0), 2 CTAs running
GPGPU-Sim uArch: core: 12, cta: 0 initialized @(15662,0)
GPGPU-Sim uArch: Shader 6 finished CTA #0 (15666,0), 2 CTAs running
GPGPU-Sim uArch: core:  6, cta: 0 initialized @(15667,0)
GPGPU-Sim uArch: Shader 14 finished CTA #0 (15698,0), 2 CTAs running
GPGPU-Sim uArch: core: 14, cta: 0 initialized @(15699,0)
GPGPU-Sim uArch: Shader 0 finished CTA #0 (15750,0), 2 CTAs running
GPGPU-Sim uArch: core:  0, cta: 0 initialized @(15751,0)
GPGPU-Sim PTX: 8400000 instructions simulated : ctaid=(31,4,0) tid=(6,11,0)
GPGPU-Sim uArch: Shader 5 finished CTA #0 (15902,0), 2 CTAs running
GPGPU-Sim uArch: core:  5, cta: 0 initialized @(15903,0)
GPGPU-Sim PTX: 8500000 instructions simulated : ctaid=(6,4,0) tid=(5,7,0)
GPGPU-Sim uArch: Shader 1 finished CTA #1 (15942,0), 2 CTAs running
GPGPU-Sim uArch: core:  1, cta: 1 initialized @(15943,0)
GPGPU-Sim uArch: cycles simulated: 16000  inst.: 7971154 (ipc=498.2) sim_rate=249098 (inst/sec) elapsed = 0:0:00:32 / Tue Mar 22 13:30:11 2016
GPGPU-Sim PTX: 8600000 instructions simulated : ctaid=(37,4,0) tid=(12,2,0)
GPGPU-Sim uArch: Shader 10 finished CTA #0 (16233,0), 2 CTAs running
GPGPU-Sim uArch: core: 10, cta: 0 initialized @(16234,0)
GPGPU-Sim PTX: 8700000 instructions simulated : ctaid=(13,4,0) tid=(7,12,0)
GPGPU-Sim uArch: Shader 3 finished CTA #0 (16298,0), 2 CTAs running
GPGPU-Sim uArch: core:  3, cta: 0 initialized @(16299,0)
GPGPU-Sim PTX: 8800000 instructions simulated : ctaid=(8,4,0) tid=(1,13,0)
GPGPU-Sim PTX: 8900000 instructions simulated : ctaid=(0,4,0) tid=(6,13,0)
GPGPU-Sim uArch: Shader 7 finished CTA #1 (16544,0), 2 CTAs running
GPGPU-Sim uArch: core:  7, cta: 1 initialized @(16545,0)
GPGPU-Sim PTX: 9000000 instructions simulated : ctaid=(24,4,0) tid=(7,9,0)
GPGPU-Sim PTX: 9100000 instructions simulated : ctaid=(29,4,0) tid=(11,8,0)
GPGPU-Sim uArch: Shader 0 finished CTA #2 (16859,0), 2 CTAs running
GPGPU-Sim uArch: core:  0, cta: 2 initialized @(16860,0)
GPGPU-Sim uArch: Shader 0 finished CTA #0 (16974,0), 2 CTAs running
GPGPU-Sim uArch: core:  0, cta: 0 initialized @(16975,0)
GPGPU-Sim uArch: cycles simulated: 17000  inst.: 8579602 (ipc=504.7) sim_rate=259987 (inst/sec) elapsed = 0:0:00:33 / Tue Mar 22 13:30:12 2016
GPGPU-Sim uArch: Shader 14 finished CTA #1 (17027,0), 2 CTAs running
GPGPU-Sim uArch: core: 14, cta: 1 initialized @(17028,0)
GPGPU-Sim PTX: 9200000 instructions simulated : ctaid=(32,4,0) tid=(11,13,0)
GPGPU-Sim uArch: Shader 13 finished CTA #1 (17123,0), 2 CTAs running
GPGPU-Sim uArch: core: 13, cta: 1 initialized @(17124,0)
GPGPU-Sim uArch: Shader 12 finished CTA #1 (17162,0), 2 CTAs running
GPGPU-Sim uArch: core: 12, cta: 1 initialized @(17163,0)
GPGPU-Sim uArch: Shader 5 finished CTA #2 (17176,0), 2 CTAs running
GPGPU-Sim uArch: core:  5, cta: 2 initialized @(17177,0)
GPGPU-Sim PTX: 9300000 instructions simulated : ctaid=(11,4,0) tid=(12,8,0)
GPGPU-Sim PTX: 9400000 instructions simulated : ctaid=(38,4,0) tid=(8,9,0)
GPGPU-Sim uArch: Shader 1 finished CTA #0 (17451,0), 2 CTAs running
GPGPU-Sim uArch: core:  1, cta: 0 initialized @(17452,0)
GPGPU-Sim uArch: Shader 7 finished CTA #2 (17495,0), 2 CTAs running
GPGPU-Sim uArch: core:  7, cta: 2 initialized @(17496,0)
GPGPU-Sim PTX: 9500000 instructions simulated : ctaid=(27,4,0) tid=(4,6,0)
GPGPU-Sim uArch: cycles simulated: 17500  inst.: 8874950 (ipc=507.1) sim_rate=261027 (inst/sec) elapsed = 0:0:00:34 / Tue Mar 22 13:30:13 2016
GPGPU-Sim uArch: Shader 4 finished CTA #2 (17539,0), 2 CTAs running
GPGPU-Sim uArch: core:  4, cta: 2 initialized @(17540,0)
GPGPU-Sim uArch: Shader 10 finished CTA #2 (17578,0), 2 CTAs running
GPGPU-Sim uArch: core: 10, cta: 2 initialized @(17579,0)
GPGPU-Sim PTX: 9600000 instructions simulated : ctaid=(31,4,0) tid=(13,12,0)
GPGPU-Sim uArch: Shader 3 finished CTA #2 (17726,0), 2 CTAs running
GPGPU-Sim uArch: core:  3, cta: 2 initialized @(17727,0)
GPGPU-Sim uArch: Shader 14 finished CTA #0 (17730,0), 2 CTAs running
GPGPU-Sim uArch: core: 14, cta: 0 initialized @(17731,0)
GPGPU-Sim uArch: Shader 5 finished CTA #0 (17796,0), 2 CTAs running
GPGPU-Sim uArch: core:  5, cta: 0 initialized @(17797,0)
GPGPU-Sim uArch: Shader 8 finished CTA #2 (17798,0), 2 CTAs running
GPGPU-Sim uArch: core:  8, cta: 2 initialized @(17799,0)
GPGPU-Sim PTX: 9700000 instructions simulated : ctaid=(10,5,0) tid=(5,9,0)
GPGPU-Sim uArch: Shader 9 finished CTA #2 (17818,0), 2 CTAs running
GPGPU-Sim uArch: core:  9, cta: 2 initialized @(17819,0)
GPGPU-Sim uArch: Shader 12 finished CTA #2 (17854,0), 2 CTAs running
GPGPU-Sim uArch: core: 12, cta: 2 initialized @(17855,0)
GPGPU-Sim uArch: Shader 14 finished CTA #2 (17902,0), 2 CTAs running
GPGPU-Sim uArch: core: 14, cta: 2 initialized @(17903,0)
GPGPU-Sim uArch: Shader 2 finished CTA #2 (17941,0), 2 CTAs running
GPGPU-Sim uArch: core:  2, cta: 2 initialized @(17942,0)
GPGPU-Sim PTX: 9800000 instructions simulated : ctaid=(14,5,0) tid=(12,10,0)
GPGPU-Sim uArch: Shader 13 finished CTA #2 (17969,0), 2 CTAs running
GPGPU-Sim uArch: core: 13, cta: 2 initialized @(17970,0)
GPGPU-Sim uArch: cycles simulated: 18000  inst.: 9179539 (ipc=510.0) sim_rate=262272 (inst/sec) elapsed = 0:0:00:35 / Tue Mar 22 13:30:14 2016
GPGPU-Sim uArch: Shader 11 finished CTA #2 (18002,0), 2 CTAs running
GPGPU-Sim uArch: core: 11, cta: 2 initialized @(18003,0)
GPGPU-Sim uArch: Shader 6 finished CTA #1 (18015,0), 2 CTAs running
GPGPU-Sim uArch: core:  6, cta: 1 initialized @(18016,0)
GPGPU-Sim uArch: Shader 6 finished CTA #0 (18060,0), 2 CTAs running
GPGPU-Sim uArch: core:  6, cta: 0 initialized @(18061,0)
GPGPU-Sim uArch: Shader 5 finished CTA #1 (18110,0), 2 CTAs running
GPGPU-Sim uArch: core:  5, cta: 1 initialized @(18111,0)
GPGPU-Sim PTX: 9900000 instructions simulated : ctaid=(20,5,0) tid=(13,12,0)
GPGPU-Sim uArch: Shader 10 finished CTA #0 (18138,0), 2 CTAs running
GPGPU-Sim uArch: core: 10, cta: 0 initialized @(18139,0)
GPGPU-Sim uArch: Shader 1 finished CTA #1 (18180,0), 2 CTAs running
GPGPU-Sim uArch: core:  1, cta: 1 initialized @(18181,0)
GPGPU-Sim uArch: Shader 0 finished CTA #1 (18228,0), 2 CTAs running
GPGPU-Sim uArch: core:  0, cta: 1 initialized @(18229,0)
GPGPU-Sim PTX: 10000000 instructions simulated : ctaid=(2,5,0) tid=(10,3,0)
GPGPU-Sim PTX: 10100000 instructions simulated : ctaid=(20,5,0) tid=(8,12,0)
GPGPU-Sim uArch: cycles simulated: 18500  inst.: 9476323 (ipc=512.2) sim_rate=263231 (inst/sec) elapsed = 0:0:00:36 / Tue Mar 22 13:30:15 2016
GPGPU-Sim uArch: Shader 4 finished CTA #0 (18564,0), 2 CTAs running
GPGPU-Sim uArch: core:  4, cta: 0 initialized @(18565,0)
GPGPU-Sim PTX: 10200000 instructions simulated : ctaid=(7,5,0) tid=(15,13,0)
GPGPU-Sim uArch: Shader 10 finished CTA #1 (18629,0), 2 CTAs running
GPGPU-Sim uArch: core: 10, cta: 1 initialized @(18630,0)
GPGPU-Sim uArch: Shader 1 finished CTA #2 (18660,0), 2 CTAs running
GPGPU-Sim uArch: core:  1, cta: 2 initialized @(18661,0)
GPGPU-Sim uArch: Shader 7 finished CTA #0 (18750,0), 2 CTAs running
GPGPU-Sim uArch: core:  7, cta: 0 initialized @(18751,0)
GPGPU-Sim uArch: Shader 2 finished CTA #0 (18801,0), 2 CTAs running
GPGPU-Sim uArch: core:  2, cta: 0 initialized @(18802,0)
GPGPU-Sim PTX: 10300000 instructions simulated : ctaid=(5,5,0) tid=(13,4,0)
GPGPU-Sim uArch: Shader 9 finished CTA #1 (18812,0), 2 CTAs running
GPGPU-Sim uArch: core:  9, cta: 1 initialized @(18813,0)
GPGPU-Sim uArch: Shader 8 finished CTA #1 (18843,0), 2 CTAs running
GPGPU-Sim uArch: core:  8, cta: 1 initialized @(18844,0)
GPGPU-Sim PTX: 10400000 instructions simulated : ctaid=(32,5,0) tid=(13,14,0)
GPGPU-Sim uArch: cycles simulated: 19000  inst.: 9719013 (ipc=511.5) sim_rate=262676 (inst/sec) elapsed = 0:0:00:37 / Tue Mar 22 13:30:16 2016
GPGPU-Sim uArch: Shader 3 finished CTA #1 (19000,0), 2 CTAs running
GPGPU-Sim uArch: core:  3, cta: 1 initialized @(19001,0)
GPGPU-Sim uArch: Shader 6 finished CTA #2 (19127,0), 2 CTAs running
GPGPU-Sim uArch: core:  6, cta: 2 initialized @(19128,0)
GPGPU-Sim uArch: Shader 11 finished CTA #1 (19137,0), 2 CTAs running
GPGPU-Sim uArch: core: 11, cta: 1 initialized @(19138,0)
GPGPU-Sim PTX: 10500000 instructions simulated : ctaid=(2,5,0) tid=(10,3,0)
GPGPU-Sim uArch: Shader 13 finished CTA #0 (19213,0), 2 CTAs running
GPGPU-Sim uArch: core: 13, cta: 0 initialized @(19214,0)
GPGPU-Sim uArch: Shader 4 finished CTA #1 (19227,0), 2 CTAs running
GPGPU-Sim uArch: core:  4, cta: 1 initialized @(19228,0)
GPGPU-Sim uArch: Shader 12 finished CTA #0 (19294,0), 2 CTAs running
GPGPU-Sim uArch: core: 12, cta: 0 initialized @(19295,0)
GPGPU-Sim PTX: 10600000 instructions simulated : ctaid=(11,5,0) tid=(14,2,0)
GPGPU-Sim uArch: Shader 8 finished CTA #0 (19464,0), 2 CTAs running
GPGPU-Sim uArch: core:  8, cta: 0 initialized @(19465,0)
GPGPU-Sim PTX: 10700000 instructions simulated : ctaid=(12,5,0) tid=(15,14,0)
GPGPU-Sim uArch: Shader 11 finished CTA #0 (19483,0), 2 CTAs running
GPGPU-Sim uArch: core: 11, cta: 0 initialized @(19484,0)
GPGPU-Sim uArch: Shader 9 finished CTA #0 (19488,0), 2 CTAs running
GPGPU-Sim uArch: core:  9, cta: 0 initialized @(19489,0)
GPGPU-Sim uArch: cycles simulated: 19500  inst.: 10009102 (ipc=513.3) sim_rate=263397 (inst/sec) elapsed = 0:0:00:38 / Tue Mar 22 13:30:17 2016
GPGPU-Sim uArch: Shader 2 finished CTA #1 (19566,0), 2 CTAs running
GPGPU-Sim uArch: core:  2, cta: 1 initialized @(19567,0)
GPGPU-Sim PTX: 10800000 instructions simulated : ctaid=(15,5,0) tid=(8,8,0)
GPGPU-Sim uArch: Shader 3 finished CTA #0 (19737,0), 2 CTAs running
GPGPU-Sim uArch: core:  3, cta: 0 initialized @(19738,0)
GPGPU-Sim uArch: Shader 7 finished CTA #1 (19738,0), 2 CTAs running
GPGPU-Sim uArch: core:  7, cta: 1 initialized @(19739,0)
GPGPU-Sim PTX: 10900000 instructions simulated : ctaid=(10,5,0) tid=(12,8,0)
GPGPU-Sim PTX: 11000000 instructions simulated : ctaid=(41,5,0) tid=(3,14,0)
GPGPU-Sim uArch: cycles simulated: 20000  inst.: 10325142 (ipc=516.3) sim_rate=264747 (inst/sec) elapsed = 0:0:00:39 / Tue Mar 22 13:30:18 2016
GPGPU-Sim PTX: 11100000 instructions simulated : ctaid=(11,5,0) tid=(6,2,0)
GPGPU-Sim uArch: Shader 0 finished CTA #2 (20170,0), 2 CTAs running
GPGPU-Sim uArch: core:  0, cta: 2 initialized @(20171,0)
GPGPU-Sim uArch: Shader 5 finished CTA #2 (20207,0), 2 CTAs running
GPGPU-Sim uArch: core:  5, cta: 2 initialized @(20208,0)
GPGPU-Sim PTX: 11200000 instructions simulated : ctaid=(25,5,0) tid=(12,2,0)
GPGPU-Sim uArch: Shader 13 finished CTA #1 (20323,0), 2 CTAs running
GPGPU-Sim uArch: core: 13, cta: 1 initialized @(20324,0)
GPGPU-Sim uArch: Shader 12 finished CTA #1 (20355,0), 2 CTAs running
GPGPU-Sim uArch: core: 12, cta: 1 initialized @(20356,0)
GPGPU-Sim uArch: Shader 14 finished CTA #1 (20385,0), 2 CTAs running
GPGPU-Sim uArch: core: 14, cta: 1 initialized @(20386,0)
GPGPU-Sim PTX: 11300000 instructions simulated : ctaid=(18,5,0) tid=(7,7,0)
GPGPU-Sim uArch: cycles simulated: 20500  inst.: 10609448 (ipc=517.5) sim_rate=265236 (inst/sec) elapsed = 0:0:00:40 / Tue Mar 22 13:30:19 2016
GPGPU-Sim PTX: 11400000 instructions simulated : ctaid=(17,5,0) tid=(8,7,0)
GPGPU-Sim uArch: Shader 1 finished CTA #0 (20580,0), 2 CTAs running
GPGPU-Sim uArch: core:  1, cta: 0 initialized @(20581,0)
GPGPU-Sim PTX: 11500000 instructions simulated : ctaid=(27,5,0) tid=(1,9,0)
GPGPU-Sim uArch: Shader 11 finished CTA #1 (20792,0), 2 CTAs running
GPGPU-Sim uArch: core: 11, cta: 1 initialized @(20793,0)
GPGPU-Sim uArch: Shader 0 finished CTA #0 (20810,0), 2 CTAs running
GPGPU-Sim uArch: core:  0, cta: 0 initialized @(20811,0)
GPGPU-Sim PTX: 11600000 instructions simulated : ctaid=(23,5,0) tid=(4,14,0)
GPGPU-Sim uArch: Shader 4 finished CTA #2 (20886,0), 2 CTAs running
GPGPU-Sim uArch: core:  4, cta: 2 initialized @(20887,0)
GPGPU-Sim uArch: cycles simulated: 21000  inst.: 10917864 (ipc=519.9) sim_rate=266289 (inst/sec) elapsed = 0:0:00:41 / Tue Mar 22 13:30:20 2016
GPGPU-Sim PTX: 11700000 instructions simulated : ctaid=(35,5,0) tid=(4,3,0)
GPGPU-Sim uArch: Shader 3 finished CTA #2 (21076,0), 2 CTAs running
GPGPU-Sim uArch: core:  3, cta: 2 initialized @(21077,0)
GPGPU-Sim uArch: Shader 8 finished CTA #2 (21087,0), 2 CTAs running
GPGPU-Sim uArch: core:  8, cta: 2 initialized @(21088,0)
GPGPU-Sim uArch: Shader 7 finished CTA #2 (21092,0), 2 CTAs running
GPGPU-Sim uArch: core:  7, cta: 2 initialized @(21093,0)
GPGPU-Sim uArch: Shader 10 finished CTA #2 (21118,0), 2 CTAs running
GPGPU-Sim uArch: core: 10, cta: 2 initialized @(21119,0)
GPGPU-Sim uArch: Shader 13 finished CTA #0 (21133,0), 2 CTAs running
GPGPU-Sim uArch: core: 13, cta: 0 initialized @(21134,0)
GPGPU-Sim uArch: Shader 12 finished CTA #0 (21141,0), 2 CTAs running
GPGPU-Sim uArch: core: 12, cta: 0 initialized @(21142,0)
GPGPU-Sim uArch: Shader 11 finished CTA #2 (21167,0), 2 CTAs running
GPGPU-Sim uArch: core: 11, cta: 2 initialized @(21168,0)
GPGPU-Sim PTX: 11800000 instructions simulated : ctaid=(29,5,0) tid=(1,1,0)
GPGPU-Sim uArch: Shader 6 finished CTA #1 (21227,0), 2 CTAs running
GPGPU-Sim uArch: core:  6, cta: 1 initialized @(21228,0)
GPGPU-Sim uArch: Shader 9 finished CTA #2 (21244,0), 2 CTAs running
GPGPU-Sim uArch: core:  9, cta: 2 initialized @(21245,0)
GPGPU-Sim uArch: Shader 5 finished CTA #0 (21262,0), 2 CTAs running
GPGPU-Sim uArch: core:  5, cta: 0 initialized @(21263,0)
GPGPU-Sim uArch: Shader 2 finished CTA #2 (21300,0), 2 CTAs running
GPGPU-Sim uArch: core:  2, cta: 2 initialized @(21301,0)
GPGPU-Sim uArch: Shader 12 finished CTA #2 (21303,0), 2 CTAs running
GPGPU-Sim uArch: core: 12, cta: 2 initialized @(21304,0)
GPGPU-Sim PTX: 11900000 instructions simulated : ctaid=(23,5,0) tid=(15,8,0)
GPGPU-Sim uArch: Shader 14 finished CTA #0 (21373,0), 2 CTAs running
GPGPU-Sim uArch: core: 14, cta: 0 initialized @(21374,0)
GPGPU-Sim uArch: Shader 13 finished CTA #2 (21420,0), 2 CTAs running
GPGPU-Sim uArch: core: 13, cta: 2 initialized @(21421,0)
GPGPU-Sim uArch: Shader 11 finished CTA #0 (21427,0), 2 CTAs running
GPGPU-Sim uArch: core: 11, cta: 0 initialized @(21428,0)
GPGPU-Sim uArch: cycles simulated: 21500  inst.: 11200154 (ipc=520.9) sim_rate=266670 (inst/sec) elapsed = 0:0:00:42 / Tue Mar 22 13:30:21 2016
GPGPU-Sim uArch: Shader 4 finished CTA #1 (21509,0), 2 CTAs running
GPGPU-Sim uArch: core:  4, cta: 1 initialized @(21510,0)
GPGPU-Sim PTX: 12000000 instructions simulated : ctaid=(26,6,0) tid=(7,9,0)
GPGPU-Sim uArch: Shader 8 finished CTA #0 (21577,0), 2 CTAs running
GPGPU-Sim uArch: core:  8, cta: 0 initialized @(21578,0)
GPGPU-Sim PTX: 12100000 instructions simulated : ctaid=(35,5,0) tid=(4,12,0)
GPGPU-Sim uArch: Shader 1 finished CTA #1 (21802,0), 2 CTAs running
GPGPU-Sim uArch: core:  1, cta: 1 initialized @(21803,0)
GPGPU-Sim PTX: 12200000 instructions simulated : ctaid=(20,6,0) tid=(2,7,0)
GPGPU-Sim uArch: Shader 10 finished CTA #0 (21885,0), 2 CTAs running
GPGPU-Sim uArch: core: 10, cta: 0 initialized @(21886,0)
GPGPU-Sim uArch: Shader 5 finished CTA #1 (21914,0), 2 CTAs running
GPGPU-Sim uArch: Shader 6 finished CTA #0 (21914,0), 2 CTAs running
GPGPU-Sim uArch: core:  5, cta: 1 initialized @(21915,0)
GPGPU-Sim uArch: core:  6, cta: 0 initialized @(21915,0)
GPGPU-Sim uArch: cycles simulated: 22000  inst.: 11485932 (ipc=522.1) sim_rate=267114 (inst/sec) elapsed = 0:0:00:43 / Tue Mar 22 13:30:22 2016
GPGPU-Sim uArch: Shader 4 finished CTA #0 (22009,0), 2 CTAs running
GPGPU-Sim uArch: core:  4, cta: 0 initialized @(22010,0)
GPGPU-Sim PTX: 12300000 instructions simulated : ctaid=(6,6,0) tid=(2,15,0)
GPGPU-Sim uArch: Shader 9 finished CTA #1 (22117,0), 2 CTAs running
GPGPU-Sim uArch: core:  9, cta: 1 initialized @(22118,0)
GPGPU-Sim PTX: 12400000 instructions simulated : ctaid=(33,6,0) tid=(8,4,0)
GPGPU-Sim uArch: Shader 7 finished CTA #0 (22227,0), 2 CTAs running
GPGPU-Sim uArch: core:  7, cta: 0 initialized @(22228,0)
GPGPU-Sim uArch: Shader 3 finished CTA #1 (22257,0), 2 CTAs running
GPGPU-Sim uArch: core:  3, cta: 1 initialized @(22258,0)
GPGPU-Sim uArch: Shader 0 finished CTA #1 (22311,0), 2 CTAs running
GPGPU-Sim uArch: core:  0, cta: 1 initialized @(22312,0)
GPGPU-Sim uArch: Shader 2 finished CTA #0 (22314,0), 2 CTAs running
GPGPU-Sim uArch: core:  2, cta: 0 initialized @(22315,0)
GPGPU-Sim PTX: 12500000 instructions simulated : ctaid=(9,6,0) tid=(4,12,0)
GPGPU-Sim uArch: Shader 1 finished CTA #2 (22366,0), 2 CTAs running
GPGPU-Sim uArch: core:  1, cta: 2 initialized @(22367,0)
GPGPU-Sim uArch: Shader 8 finished CTA #1 (22378,0), 2 CTAs running
GPGPU-Sim uArch: core:  8, cta: 1 initialized @(22379,0)
GPGPU-Sim uArch: Shader 14 finished CTA #2 (22431,0), 2 CTAs running
GPGPU-Sim uArch: core: 14, cta: 2 initialized @(22432,0)
GPGPU-Sim uArch: cycles simulated: 22500  inst.: 11763659 (ipc=522.8) sim_rate=267355 (inst/sec) elapsed = 0:0:00:44 / Tue Mar 22 13:30:23 2016
GPGPU-Sim PTX: 12600000 instructions simulated : ctaid=(39,6,0) tid=(15,11,0)
GPGPU-Sim PTX: 12700000 instructions simulated : ctaid=(33,6,0) tid=(15,2,0)
GPGPU-Sim PTX: 12800000 instructions simulated : ctaid=(4,6,0) tid=(14,11,0)
GPGPU-Sim uArch: Shader 10 finished CTA #1 (22825,0), 2 CTAs running
GPGPU-Sim uArch: core: 10, cta: 1 initialized @(22826,0)
GPGPU-Sim uArch: Shader 6 finished CTA #2 (22854,0), 2 CTAs running
GPGPU-Sim uArch: core:  6, cta: 2 initialized @(22855,0)
GPGPU-Sim PTX: 12900000 instructions simulated : ctaid=(30,6,0) tid=(11,12,0)
GPGPU-Sim uArch: cycles simulated: 23000  inst.: 12079087 (ipc=525.2) sim_rate=268424 (inst/sec) elapsed = 0:0:00:45 / Tue Mar 22 13:30:24 2016
GPGPU-Sim PTX: 13000000 instructions simulated : ctaid=(36,6,0) tid=(9,15,0)
GPGPU-Sim uArch: Shader 5 finished CTA #2 (23239,0), 2 CTAs running
GPGPU-Sim uArch: core:  5, cta: 2 initialized @(23240,0)
GPGPU-Sim PTX: 13100000 instructions simulated : ctaid=(8,6,0) tid=(6,2,0)
GPGPU-Sim uArch: Shader 9 finished CTA #0 (23324,0), 2 CTAs running
GPGPU-Sim uArch: core:  9, cta: 0 initialized @(23325,0)
GPGPU-Sim uArch: Shader 7 finished CTA #1 (23431,0), 2 CTAs running
GPGPU-Sim uArch: core:  7, cta: 1 initialized @(23432,0)
GPGPU-Sim uArch: Shader 0 finished CTA #2 (23436,0), 2 CTAs running
GPGPU-Sim uArch: core:  0, cta: 2 initialized @(23437,0)
GPGPU-Sim PTX: 13200000 instructions simulated : ctaid=(25,6,0) tid=(10,8,0)
GPGPU-Sim uArch: Shader 3 finished CTA #0 (23443,0), 2 CTAs running
GPGPU-Sim uArch: core:  3, cta: 0 initialized @(23444,0)
GPGPU-Sim uArch: Shader 2 finished CTA #1 (23449,0), 2 CTAs running
GPGPU-Sim uArch: core:  2, cta: 1 initialized @(23450,0)
GPGPU-Sim uArch: cycles simulated: 23500  inst.: 12371844 (ipc=526.5) sim_rate=268953 (inst/sec) elapsed = 0:0:00:46 / Tue Mar 22 13:30:25 2016
GPGPU-Sim PTX: 13300000 instructions simulated : ctaid=(25,6,0) tid=(12,8,0)
GPGPU-Sim uArch: Shader 14 finished CTA #1 (23696,0), 2 CTAs running
GPGPU-Sim uArch: core: 14, cta: 1 initialized @(23697,0)
GPGPU-Sim PTX: 13400000 instructions simulated : ctaid=(39,6,0) tid=(7,10,0)
GPGPU-Sim uArch: Shader 12 finished CTA #1 (23785,0), 2 CTAs running
GPGPU-Sim uArch: core: 12, cta: 1 initialized @(23786,0)
GPGPU-Sim uArch: Shader 13 finished CTA #1 (23811,0), 2 CTAs running
GPGPU-Sim uArch: core: 13, cta: 1 initialized @(23812,0)
GPGPU-Sim PTX: 13500000 instructions simulated : ctaid=(28,6,0) tid=(8,10,0)
GPGPU-Sim uArch: cycles simulated: 24000  inst.: 12669276 (ipc=527.9) sim_rate=269559 (inst/sec) elapsed = 0:0:00:47 / Tue Mar 22 13:30:26 2016
GPGPU-Sim uArch: Shader 0 finished CTA #1 (24055,0), 2 CTAs running
GPGPU-Sim uArch: core:  0, cta: 1 initialized @(24056,0)
GPGPU-Sim PTX: 13600000 instructions simulated : ctaid=(36,6,0) tid=(13,13,0)
GPGPU-Sim uArch: Shader 4 finished CTA #2 (24080,0), 2 CTAs running
GPGPU-Sim uArch: core:  4, cta: 2 initialized @(24081,0)
GPGPU-Sim uArch: Shader 1 finished CTA #0 (24103,0), 2 CTAs running
GPGPU-Sim uArch: core:  1, cta: 0 initialized @(24104,0)
GPGPU-Sim uArch: Shader 11 finished CTA #1 (24140,0), 2 CTAs running
GPGPU-Sim uArch: core: 11, cta: 1 initialized @(24141,0)
GPGPU-Sim uArch: Shader 3 finished CTA #1 (24187,0), 2 CTAs running
GPGPU-Sim uArch: core:  3, cta: 1 initialized @(24188,0)
GPGPU-Sim PTX: 13700000 instructions simulated : ctaid=(31,6,0) tid=(2,13,0)
GPGPU-Sim uArch: Shader 2 finished CTA #0 (24229,0), 2 CTAs running
GPGPU-Sim uArch: core:  2, cta: 0 initialized @(24230,0)
GPGPU-Sim uArch: Shader 8 finished CTA #2 (24291,0), 2 CTAs running
GPGPU-Sim uArch: core:  8, cta: 2 initialized @(24292,0)
GPGPU-Sim uArch: Shader 0 finished CTA #0 (24349,0), 2 CTAs running
GPGPU-Sim uArch: core:  0, cta: 0 initialized @(24350,0)
GPGPU-Sim PTX: 13800000 instructions simulated : ctaid=(16,7,0) tid=(7,12,0)
GPGPU-Sim uArch: Shader 14 finished CTA #2 (24424,0), 2 CTAs running
GPGPU-Sim uArch: core: 14, cta: 2 initialized @(24425,0)
GPGPU-Sim uArch: Shader 7 finished CTA #2 (24430,0), 2 CTAs running
GPGPU-Sim uArch: core:  7, cta: 2 initialized @(24431,0)
GPGPU-Sim uArch: cycles simulated: 24500  inst.: 12964988 (ipc=529.2) sim_rate=270103 (inst/sec) elapsed = 0:0:00:48 / Tue Mar 22 13:30:27 2016
GPGPU-Sim uArch: Shader 3 finished CTA #2 (24526,0), 2 CTAs running
GPGPU-Sim uArch: core:  3, cta: 2 initialized @(24527,0)
GPGPU-Sim PTX: 13900000 instructions simulated : ctaid=(15,7,0) tid=(3,14,0)
GPGPU-Sim uArch: Shader 10 finished CTA #2 (24608,0), 2 CTAs running
GPGPU-Sim uArch: core: 10, cta: 2 initialized @(24609,0)
GPGPU-Sim uArch: Shader 2 finished CTA #2 (24623,0), 2 CTAs running
GPGPU-Sim uArch: core:  2, cta: 2 initialized @(24624,0)
GPGPU-Sim uArch: Shader 1 finished CTA #2 (24638,0), 2 CTAs running
GPGPU-Sim uArch: core:  1, cta: 2 initialized @(24639,0)
GPGPU-Sim uArch: Shader 9 finished CTA #2 (24654,0), 2 CTAs running
GPGPU-Sim uArch: core:  9, cta: 2 initialized @(24655,0)
GPGPU-Sim uArch: Shader 8 finished CTA #1 (24683,0), 2 CTAs running
GPGPU-Sim uArch: core:  8, cta: 1 initialized @(24684,0)
GPGPU-Sim uArch: Shader 6 finished CTA #1 (24716,0), 2 CTAs running
GPGPU-Sim uArch: core:  6, cta: 1 initialized @(24717,0)
GPGPU-Sim uArch: Shader 13 finished CTA #0 (24742,0), 2 CTAs running
GPGPU-Sim uArch: core: 13, cta: 0 initialized @(24743,0)
GPGPU-Sim PTX: 14000000 instructions simulated : ctaid=(23,7,0) tid=(11,2,0)
GPGPU-Sim uArch: Shader 5 finished CTA #0 (24757,0), 2 CTAs running
GPGPU-Sim uArch: core:  5, cta: 0 initialized @(24758,0)
GPGPU-Sim uArch: Shader 12 finished CTA #0 (24885,0), 2 CTAs running
GPGPU-Sim uArch: core: 12, cta: 0 initialized @(24886,0)
GPGPU-Sim uArch: Shader 14 finished CTA #0 (24931,0), 2 CTAs running
GPGPU-Sim uArch: core: 14, cta: 0 initialized @(24932,0)
[...]
Warp Occupancy Distribution:
Stall:477454	W0_Idle:43110	W0_Scoreboard:598460	W1:0	W2:0	W3:0	W4:0	W5:0	W6:0	W7:0	W8:0	W9:5814	W10:0	W11:0	W12:0	W13:5986	W14:221808	W15:0	W16:0	W17:0	W18:17752	W19:0	W20:6132	W21:0	W22:0	W23:0	W24:0	W25:0	W26:18268	W27:0	W28:727950	W29:0	W30:59168	W31:0	W32:1663412
traffic_breakdown_coretomem[CONST_ACC_R] = 120 {8:15,}
traffic_breakdown_coretomem[GLOBAL_ACC_R] = 474096 {8:59262,}
traffic_breakdown_coretomem[GLOBAL_ACC_W] = 2162688 {40:8704,72:9728,136:8192,}
traffic_breakdown_coretomem[INST_ACC_R] = 1680 {8:210,}
traffic_breakdown_memtocore[CONST_ACC_R] = 1080 {72:15,}
traffic_breakdown_memtocore[GLOBAL_ACC_R] = 8059632 {136:59262,}
traffic_breakdown_memtocore[GLOBAL_ACC_W] = 212992 {8:26624,}
traffic_breakdown_memtocore[INST_ACC_R] = 28560 {136:210,}
maxmrqlatency = 243 
maxdqlatency = 0 
maxmflatency = 667 
averagemflatency = 247 
max_icnt2mem_latency = 284 
max_icnt2sh_latency = 121060 
mrq_lat_table:18692 	2282 	2064 	3791 	7340 	6283 	3387 	461 	0 	0 	0 	0 	0 	0 	0 	0 	0 	0 	0 	0 	0 	0 	0 	0 	0 	0 	0 	0 	0 	0 	0 	0 	
dq_lat_table:0 	0 	0 	0 	0 	0 	0 	0 	0 	0 	0 	0 	0 	0 	0 	0 	0 	0 	0 	0 	0 	0 	0 	0 	0 	0 	0 	0 	0 	0 	0 	0 	
mf_lat_table:0 	0 	0 	0 	0 	0 	0 	44158 	41421 	322 	0 	0 	0 	0 	0 	0 	0 	0 	0 	0 	0 	0 	0 	0 	0 	0 	0 	0 	0 	0 	0 	0 	
icnt2mem_lat_table:0 	0 	0 	50411 	13915 	18120 	3486 	176 	3 	0 	0 	0 	0 	0 	0 	0 	0 	0 	0 	0 	0 	0 	0 	0 	
icnt2sh_lat_table:0 	0 	0 	10739 	32842 	14950 	745 	1 	0 	0 	0 	0 	830 	2002 	3668 	7398 	12726 	0 	0 	0 	0 	0 	0 	0 	
mf_lat_pw_table:0 	0 	0 	0 	0 	0 	0 	184 	55 	0 	0 	0 	0 	0 	0 	0 	0 	0 	0 	0 	0 	0 	0 	0 	0 	0 	0 	0 	0 	0 	0 	0 	
maximum concurrent accesses to same row:
dram[0]:        96        91        92        99       101        94        90        81        93        93        93        82        93        78        89        99 
dram[1]:       118        98        95       103        93        91        85        86       101        85        91       105       105        96       100        92 
dram[2]:        90        91       106        91        95       102        78        93        99        93        84        93        80        94       100        88 
dram[3]:        94       115        93        97        94        95        85        86        88       102       103        89        93       102        95       102 
dram[4]:        93        89        95       105       100        95        96        77        94        96        92        81        94        81        91        99 
dram[5]:       117        99        95        91        89        93        82        82       103        88        94       103       108        91       101        92 
maximum service time to same row:
dram[0]:     15555     15775     14649     13837     15300     15481     17883     19065     16378     16563     15667     15461     18836     18318     18263     18687 
dram[1]:     16272     15537     13683     14069     16151     15540     18428     19267     15596     16894     16050     15469     18648     18760     19027     18786 
dram[2]:     15764     15304     13544     14730     15624     15315     19049     17831     15729     19796     15460     15433     18453     18850     18698     18281 
dram[3]:     15521     16263     14082     13774     15636     16187     19262     18368     15847     18875     15459     16074     18841     18668     18777     19044 
dram[4]:     15577     15684     14654     13547     14790     15643     17891     19027     17522     18579     15669     15463     18739     18481     18150     18693 
dram[5]:     16281     15469     13904     14112     15583     15667     18411     19203     16711     18730     16051     15449     18485     18852     18881     18777 
average row accesses per activate:
dram[0]:  7.603175  6.913043  7.338461  7.409091  8.438597  7.264706  7.107692  6.223684  6.714286  6.253165  5.948052  5.746666  6.630769  5.800000  5.368421  8.352942 
dram[1]:  7.873016  8.870370  6.708333  7.227273  6.194805  6.647887  6.625000  6.521127  6.552631  6.800000  6.250000  6.250000  6.984375  6.363636  5.461538  6.469697 
dram[2]:  7.119403  7.883333  8.448276  7.933333  6.613333  8.672728  6.391892  7.349206  7.128572  6.811594  5.370370  6.246575  5.985294  6.492537  7.709091  6.104477 
dram[3]:  8.263158  8.465517  6.424657  7.822581  6.168831  5.448276  6.200000  7.058824  6.541667  6.539474  5.797468  6.641791  7.189655  6.357143  6.130435  5.849315 
dram[4]:  7.292308  6.661972  7.546875  8.631579  8.981133  6.640000  7.881356  5.790123  6.647887  6.861111  6.191781  5.525641  6.560606  6.119403  5.885714  7.473684 
dram[5]:  7.057143  8.672728  7.761905  6.739130  5.949367  6.714286  6.250000  6.577465  7.397059  6.638889  6.366197  6.191781  7.046875  6.363636  5.392405  6.523077 
average row locality = 44300/6575 = 6.737643
number of total memory accesses made:
dram[0]:         0         0         0         0         0         0         0         0         0         0         0         0         0         0         0         0 
dram[1]:         0         0         0         0         0         0         0         0         0         0         0         0         0         0         0         0 
dram[2]:         0         0         0         0         0         0         0         0         0         0         0         0         0         0         0         0 
dram[3]:         0         0         0         0         0         0         0         0         0         0         0         0         0         0         0         0 
dram[4]:         0         0         0         0         0         0         0         0         0         0         0         0         0         0         0         0 
dram[5]:         0         0         0         0         0         0         0         0         0         0         0         0         0         0         0         0 
total accesses: 0
min_bank_accesses = 0!
min_chip_accesses = 0!
number of total read accesses:
dram[0]:       259       257       256       256       256       256       256       256       256       256       256       256       256       256       256       256 
dram[1]:       258       257       256       256       256       256       256       256       256       256       256       256       256       256       256       256 
dram[2]:       258       256       256       256       256       256       256       256       256       256       256       256       256       256       256       256 
dram[3]:       258       256       256       256       256       256       256       256       256       256       256       256       256       256       256       256 
dram[4]:       258       256       256       256       256       256       256       256       256       256       256       256       256       256       256       256 
dram[5]:       258       256       256       256       256       256       256       256       256       256       256       256       256       256       256       256 
total reads: 24591
bank skew: 259/256 = 1.01
chip skew: 4100/4098 = 1.00
number of total write accesses:
dram[0]:       220       220       221       233       225       238       206       217       214       238       202       175       175       150       152       170 
dram[1]:       238       222       227       221       221       216       221       207       242       220       194       194       191       164       170       171 
dram[2]:       219       217       234       220       240       221       217       207       243       214       179       200       151       179       168       153 
dram[3]:       213       235       213       229       219       218       209       224       215       241       202       189       161       189       167       171 
dram[4]:       216       217       227       236       220       242       209       213       216       238       196       175       177       154       156       170 
dram[5]:       236       221       233       209       214       214       219       211       247       222       196       196       195       164       170       168 
total reads: 19709
bank skew: 247/150 = 1.65
chip skew: 3319/3256 = 1.02
average mf latency per bank:
dram[0]:        420       455       410       457       416       460       418       482       413       446       431       527       449       529       469       529
dram[1]:        479       464       499       456       509       447       516       472       481       441       534       498       538       512       585       512
dram[2]:        480       413       466       418       465       438       485       436       452       428       538       448       545       453       531       475
dram[3]:        461       505       455       504       452       526       473       521       443       482       484       558       520       559       510       574
dram[4]:        413       477       409       464       426       473       432       482       420       453       451       509       449       531       480       531
dram[5]:        487       455       496       457       511       456       519       471       475       439       551       487       544       513       574       510
maximum mf latency per bank:
dram[0]:        520       521       425       498       474       604       486       568       471       570       441       559       529       519       422       543
dram[1]:        603       475       486       450       537       448       565       520       550       483       501       602       478       459       570       474
dram[2]:        554       497       469       432       563       485       527       548       534       463       574       533       556       566       522       488
dram[3]:        518       583       482       481       458       461       526       543       460       558       554       513       547       508       480       524
dram[4]:        503       481       428       473       493       656       579       536       491       667       495       514       529       564       513       541
dram[5]:        601       525       451       424       584       448       586       473       546       480       506       545       565       484       633       540

Number of Memory Banks Accessed per Memory Operation per Warp (from 0):
0	0	0	0	0	0	0	0	0	0	0	0	0	0	0	0	0	0	0	0	0	0	0	0	0	0	0	0	0	0	0	0	0	0	0	0	0	0	0	0	0	0	0	0	0	0	0	0	0	0	0	0	0	0	0	0	0	0	0	0	0	0	0	0	0	0	0	0	0	0	0	0	0	0	0	0	0	0	0	0	0	0	0	0	0	0	0	0	0	0	0	0	0	0	0	0	
Average # of Memory Banks Accessed per Memory Operation per Warp=-nan

position of mrq chosen
0	0	0	0	0	0	0	0	0	0	0	0	0	0	0	0	

average position of mrq chosen = -nan
Memory Partition 0: 
Cache L2_bank_000:
MSHR contents

Cache L2_bank_001:
MSHR contents

In Dram Latency Queue (total = 0): 
DRAM[0]: 16 bks, busW=4 BL=8 CL=12, tRRD=2 tCCD=6, tRCD=12 tRAS=28 tRP=12 tRC=40
n_cmd=169562 n_nop=154157 n_act=1092 n_pre=1076 n_req=7356 n_rd=8200 n_write=5037 bw_util=0.1561
n_activity=88164 dram_eff=0.3003
bk0: 518a 163132i bk1: 514a 162774i bk2: 512a 163151i bk3: 512a 162657i bk4: 512a 163400i bk5: 512a 162125i bk6: 512a 163423i bk7: 512a 162107i bk8: 512a 163183i bk9: 512a 161974i bk10: 512a 163122i bk11: 512a 162959i bk12: 512a 163809i bk13: 512a 163544i bk14: 512a 163377i bk15: 512a 163636i 
dram_util_bins: 0 0 0 0 0 0 0 0 0 0
dram_eff_bins: 0 0 0 0 0 0 0 0 0 0
mrqq: max=16 avg=1.19599
Memory Partition 1: 
Cache L2_bank_002:
MSHR contents

Cache L2_bank_003:
MSHR contents

In Dram Latency Queue (total = 0): 
DRAM[1]: 16 bks, busW=4 BL=8 CL=12, tRRD=2 tCCD=6, tRCD=12 tRAS=28 tRP=12 tRC=40
n_cmd=169562 n_nop=154148 n_act=1110 n_pre=1094 n_req=7418 n_rd=8198 n_write=5012 bw_util=0.1558
n_activity=87626 dram_eff=0.3015
bk0: 516a 162937i bk1: 514a 163105i bk2: 512a 162807i bk3: 512a 162597i bk4: 512a 162679i bk5: 512a 162470i bk6: 512a 162618i bk7: 512a 162594i bk8: 512a 162354i bk9: 512a 163111i bk10: 512a 163127i bk11: 512a 162914i bk12: 512a 163722i bk13: 512a 163759i bk14: 512a 163473i bk15: 512a 163764i 
dram_util_bins: 0 0 0 0 0 0 0 0 0 0
dram_eff_bins: 0 0 0 0 0 0 0 0 0 0
mrqq: max=16 avg=0.991342
Memory Partition 2: 
Cache L2_bank_004:
MSHR contents

Cache L2_bank_005:
MSHR contents

In Dram Latency Queue (total = 0): 
DRAM[2]: 16 bks, busW=4 BL=8 CL=12, tRRD=2 tCCD=6, tRCD=12 tRAS=28 tRP=12 tRC=40
n_cmd=169562 n_nop=154236 n_act=1062 n_pre=1046 n_req=7360 n_rd=8196 n_write=5022 bw_util=0.1559
n_activity=87630 dram_eff=0.3017
bk0: 516a 162761i bk1: 512a 163150i bk2: 512a 163251i bk3: 512a 163300i bk4: 512a 162187i bk5: 512a 163540i bk6: 512a 162301i bk7: 512a 163357i bk8: 512a 162093i bk9: 512a 163227i bk10: 512a 162648i bk11: 512a 163245i bk12: 512a 163727i bk13: 512a 163678i bk14: 512a 163658i bk15: 512a 163489i 
dram_util_bins: 0 0 0 0 0 0 0 0 0 0
dram_eff_bins: 0 0 0 0 0 0 0 0 0 0
mrqq: max=16 avg=1.25641
Memory Partition 3: 
Cache L2_bank_006:
MSHR contents

Cache L2_bank_007:
MSHR contents

In Dram Latency Queue (total = 0): 
DRAM[3]: 16 bks, busW=4 BL=8 CL=12, tRRD=2 tCCD=6, tRCD=12 tRAS=28 tRP=12 tRC=40
n_cmd=169562 n_nop=154147 n_act=1121 n_pre=1105 n_req=7393 n_rd=8196 n_write=4993 bw_util=0.1556
n_activity=88081 dram_eff=0.2995
bk0: 516a 163158i bk1: 512a 163236i bk2: 512a 162677i bk3: 512a 163205i bk4: 512a 162412i bk5: 512a 162234i bk6: 512a 162436i bk7: 512a 162712i bk8: 512a 163171i bk9: 512a 162640i bk10: 512a 162840i bk11: 512a 163339i bk12: 512a 163969i bk13: 512a 163447i bk14: 512a 163485i bk15: 512a 163584i 
dram_util_bins: 0 0 0 0 0 0 0 0 0 0
dram_eff_bins: 0 0 0 0 0 0 0 0 0 0
mrqq: max=16 avg=0.964821
Memory Partition 4: 
Cache L2_bank_008:
MSHR contents

Cache L2_bank_009:
MSHR contents

In Dram Latency Queue (total = 0): 
DRAM[4]: 16 bks, busW=4 BL=8 CL=12, tRRD=2 tCCD=6, tRCD=12 tRAS=28 tRP=12 tRC=40
n_cmd=169562 n_nop=154191 n_act=1079 n_pre=1063 n_req=7360 n_rd=8196 n_write=5033 bw_util=0.156
n_activity=87878 dram_eff=0.3011
bk0: 516a 162929i bk1: 512a 162639i bk2: 512a 163122i bk3: 512a 162879i bk4: 512a 163545i bk5: 512a 161964i bk6: 512a 163171i bk7: 512a 161988i bk8: 512a 163089i bk9: 512a 162260i bk10: 512a 163293i bk11: 512a 163002i bk12: 512a 163876i bk13: 512a 163482i bk14: 512a 163328i bk15: 512a 163545i 
dram_util_bins: 0 0 0 0 0 0 0 0 0 0
dram_eff_bins: 0 0 0 0 0 0 0 0 0 0
mrqq: max=16 avg=1.25912
Memory Partition 5: 
Cache L2_bank_010:
MSHR contents

Cache L2_bank_011:
MSHR contents

In Dram Latency Queue (total = 0): 
DRAM[5]: 16 bks, busW=4 BL=8 CL=12, tRRD=2 tCCD=6, tRCD=12 tRAS=28 tRP=12 tRC=40
n_cmd=169562 n_nop=154148 n_act=1111 n_pre=1095 n_req=7413 n_rd=8196 n_write=5012 bw_util=0.1558
n_activity=88089 dram_eff=0.2999
bk0: 516a 162964i bk1: 512a 163248i bk2: 512a 163059i bk3: 512a 162719i bk4: 512a 162671i bk5: 512a 162796i bk6: 512a 162482i bk7: 512a 162635i bk8: 512a 162796i bk9: 512a 163135i bk10: 512a 163204i bk11: 512a 162864i bk12: 512a 163614i bk13: 512a 163584i bk14: 512a 163523i bk15: 512a 163450i 
dram_util_bins: 0 0 0 0 0 0 0 0 0 0
dram_eff_bins: 0 0 0 0 0 0 0 0 0 0
mrqq: max=16 avg=1.0179

========= L2 cache stats =========
L2_cache_bank[0]: Access = 6642, Miss = 2051, Miss_rate = 0.309, Pending_hits = 1511, Reservation_fails = 342
L2_cache_bank[1]: Access = 7188, Miss = 2049, Miss_rate = 0.285, Pending_hits = 1695, Reservation_fails = 3
L2_cache_bank[2]: Access = 7709, Miss = 2050, Miss_rate = 0.266, Pending_hits = 2021, Reservation_fails = 202
L2_cache_bank[3]: Access = 7199, Miss = 2049, Miss_rate = 0.285, Pending_hits = 1708, Reservation_fails = 1
L2_cache_bank[4]: Access = 7201, Miss = 2050, Miss_rate = 0.285, Pending_hits = 1732, Reservation_fails = 102
L2_cache_bank[5]: Access = 6603, Miss = 2048, Miss_rate = 0.310, Pending_hits = 1519, Reservation_fails = 0
L2_cache_bank[6]: Access = 7201, Miss = 2050, Miss_rate = 0.285, Pending_hits = 1648, Reservation_fails = 51
L2_cache_bank[7]: Access = 7681, Miss = 2048, Miss_rate = 0.267, Pending_hits = 2027, Reservation_fails = 1
L2_cache_bank[8]: Access = 6640, Miss = 2050, Miss_rate = 0.309, Pending_hits = 1532, Reservation_fails = 8
L2_cache_bank[9]: Access = 7172, Miss = 2048, Miss_rate = 0.286, Pending_hits = 1682, Reservation_fails = 2
L2_cache_bank[10]: Access = 7694, Miss = 2050, Miss_rate = 0.266, Pending_hits = 2054, Reservation_fails = 85
L2_cache_bank[11]: Access = 7181, Miss = 2048, Miss_rate = 0.285, Pending_hits = 1661, Reservation_fails = 1
L2_total_cache_accesses = 86111
L2_total_cache_misses = 24591
L2_total_cache_miss_rate = 0.2856
L2_total_cache_pending_hits = 20790
L2_total_cache_reservation_fails = 798
L2_total_cache_breakdown:
	L2_cache_stats_breakdown[GLOBAL_ACC_R][HIT] = 28367
	L2_cache_stats_breakdown[GLOBAL_ACC_R][HIT_RESERVED] = 14511
	L2_cache_stats_breakdown[GLOBAL_ACC_R][MISS] = 16384
	L2_cache_stats_breakdown[CONST_ACC_R][HIT] = 11
	L2_cache_stats_breakdown[CONST_ACC_R][HIT_RESERVED] = 3
	L2_cache_stats_breakdown[CONST_ACC_R][MISS] = 1
	L2_cache_stats_breakdown[CONST_ACC_R][RESERVATION_FAIL] = 109
	L2_cache_stats_breakdown[GLOBAL_ACC_W][HIT] = 12194
	L2_cache_stats_breakdown[GLOBAL_ACC_W][HIT_RESERVED] = 6238
	L2_cache_stats_breakdown[GLOBAL_ACC_W][MISS] = 8192
	L2_cache_stats_breakdown[GLOBAL_ACC_W][RESERVATION_FAIL] = 10
	L2_cache_stats_breakdown[INST_ACC_R][HIT] = 158
	L2_cache_stats_breakdown[INST_ACC_R][HIT_RESERVED] = 38
	L2_cache_stats_breakdown[INST_ACC_R][MISS] = 14
	L2_cache_stats_breakdown[INST_ACC_R][RESERVATION_FAIL] = 679
L2_cache_data_port_util = 0.104
L2_cache_fill_port_util = 0.064

icnt_total_pkts_mem_to_simt=324029
icnt_total_pkts_simt_to_mem=147039
LD_mem_lat_dist  0 0 0 0 0 0 0 0 0 0 0 0 0 0 0 0 0 0 0 0 0 0 0 0 0 0 0
ST_mem_lat_dist  0 0 0 0 0 0 0 0 0 0 0 0 0 0 0 0 0 0 0 0 0 0 0 0 0 0 0
----------------------------Interconnect-DETAILS--------------------------------
Class 0:
Packet latency average = 18.2609
	minimum = 6
	maximum = 172
Network latency average = 14.2344
	minimum = 6
	maximum = 168
Slowest packet = 76747
Flit latency average = 12.9211
	minimum = 6
	maximum = 168
Slowest flit = 236514
Fragmentation average = 0.00163742
	minimum = 0
	maximum = 153
Injected packet rate average = 0.0496555
	minimum = 0.0407996 (at node 13)
	maximum = 0.0600123 (at node 17)
Accepted packet rate average = 0.0496555
	minimum = 0.0407996 (at node 13)
	maximum = 0.0600123 (at node 17)
Injected flit rate average = 0.135819
	minimum = 0.0718684 (at node 13)
	maximum = 0.225515 (at node 17)
Accepted flit rate average= 0.135819
	minimum = 0.0912212 (at node 20)
	maximum = 0.176939 (at node 0)
Injected packet length average = 2.73524
Accepted packet length average = 2.73524
Total in-flight flits = 0 (0 measured)
====== Overall Traffic Statistics ======
====== Traffic class 0 ======
Packet latency average = 18.2609 (1 samples)
	minimum = 6 (1 samples)
	maximum = 172 (1 samples)
Network latency average = 14.2344 (1 samples)
	minimum = 6 (1 samples)
	maximum = 168 (1 samples)
Flit latency average = 12.9211 (1 samples)
	minimum = 6 (1 samples)
	maximum = 168 (1 samples)
Fragmentation average = 0.00163742 (1 samples)
	minimum = 0 (1 samples)
	maximum = 153 (1 samples)
Injected packet rate average = 0.0496555 (1 samples)
	minimum = 0.0407996 (1 samples)
	maximum = 0.0600123 (1 samples)
Accepted packet rate average = 0.0496555 (1 samples)
	minimum = 0.0407996 (1 samples)
	maximum = 0.0600123 (1 samples)
Injected flit rate average = 0.135819 (1 samples)
	minimum = 0.0718684 (1 samples)
	maximum = 0.225515 (1 samples)
Accepted flit rate average = 0.135819 (1 samples)
	minimum = 0.0912212 (1 samples)
	maximum = 0.176939 (1 samples)
Injected packet size average = 2.73524 (1 samples)
Accepted packet size average = 2.73524 (1 samples)
Hops average = 1 (1 samples)
----------------------------END-of-Interconnect-DETAILS-------------------------


gpgpu_simulation_time = 0 days, 0 hrs, 4 min, 10 sec (250 sec)
gpgpu_simulation_rate = 297359 (inst/sec)
gpgpu_simulation_rate = 513 (cycle/sec)
