

        *** GPGPU-Sim Simulator Version 3.2.2  [build 0] ***


GPGPU-Sim PTX: simulation mode 0 (can change with PTX_SIM_MODE_FUNC environment variable:
               1=functional simulation only, 0=detailed performance simulator)
GPGPU-Sim: Configuration options:

-network_mode                           1 # Interconnection network mode
-inter_config_file   config_fermi_islip.icnt # Interconnection network config file
-gpgpu_ptx_use_cuobjdump                    1 # Use cuobjdump to extract ptx and sass from binaries
-gpgpu_experimental_lib_support                    0 # Try to extract code from cuda libraries [Broken because of unknown cudaGetExportTable]
-gpgpu_ptx_convert_to_ptxplus                    0 # Convert SASS (native ISA) to ptxplus and run ptxplus
-gpgpu_ptx_force_max_capability                   20 # Force maximum compute capability
-gpgpu_ptx_inst_debug_to_file                    0 # Dump executed instructions' debug information to file
-gpgpu_ptx_inst_debug_file       inst_debug.txt # Executed instructions' debug output file
-gpgpu_ptx_inst_debug_thread_uid                    1 # Thread UID for executed instructions' debug output
-gpgpu_simd_model                       1 # 1 = post-dominator
-gpgpu_shader_core_pipeline              1536:32 # shader core pipeline config, i.e., {<nthread>:<warpsize>}
-gpgpu_tex_cache:l1  4:128:24,L:R:m:N:L,F:128:4,128:2 # per-shader L1 texture cache  (READ-ONLY) config  {<nsets>:<bsize>:<assoc>,<rep>:<wr>:<alloc>:<wr_alloc>,<mshr>:<N>:<merge>,<mq>:<rf>}
-gpgpu_const_cache:l1 64:64:2,L:R:f:N:L,A:2:32,4 # per-shader L1 constant memory cache  (READ-ONLY) config  {<nsets>:<bsize>:<assoc>,<rep>:<wr>:<alloc>:<wr_alloc>,<mshr>:<N>:<merge>,<mq>} 
-gpgpu_cache:il1     4:128:4,L:R:f:N:L,A:2:32,4 # shader L1 instruction cache config  {<nsets>:<bsize>:<assoc>,<rep>:<wr>:<alloc>:<wr_alloc>,<mshr>:<N>:<merge>,<mq>} 
-gpgpu_cache:dl1     32:128:4,L:L:m:N:H,A:32:8,8:2,0,1:0:1:1:0:1,1:4:8:16:32:64,/sciclone/data10/hwang07/GPU_RESEARCH/swl/swl_outputs/RESULTS/swl4/ # per-shader L1 data cache config  {<nsets>:<bsize>:<assoc>,<rep>:<wr>:<alloc>:<wr_alloc>,<mshr>:<N>:<merge>,<mq> | none}
-gpgpu_cache:dl1PrefL1                 none # per-shader L1 data cache config  {<nsets>:<bsize>:<assoc>,<rep>:<wr>:<alloc>:<wr_alloc>,<mshr>:<N>:<merge>,<mq> | none}
-gpgpu_cache:dl1PreShared                 none # per-shader L1 data cache config  {<nsets>:<bsize>:<assoc>,<rep>:<wr>:<alloc>:<wr_alloc>,<mshr>:<N>:<merge>,<mq> | none}
-gmem_skip_L1D                          0 # global memory access skip L1D cache (implements -Xptxas -dlcm=cg, default=no skip)
-gpgpu_perfect_mem                      0 # enable perfect memory mode (no cache miss)
-n_regfile_gating_group                    4 # group of lanes that should be read/written together)
-gpgpu_clock_gated_reg_file                    0 # enable clock gated reg file for power calculations
-gpgpu_clock_gated_lanes                    0 # enable clock gated lanes for power calculations
-gpgpu_shader_registers                32768 # Number of registers per shader core. Limits number of concurrent CTAs. (default 8192)
-gpgpu_shader_cta                       8 # Maximum number of concurrent CTAs in shader (default 8)
-gpgpu_num_cta_barriers                   16 # Maximum number of named barriers per CTA (default 16)
-gpgpu_n_clusters                      15 # number of processing clusters
-gpgpu_n_cores_per_cluster                    1 # number of simd cores per cluster
-gpgpu_n_cluster_ejection_buffer_size                    8 # number of packets in ejection buffer
-gpgpu_n_ldst_response_buffer_size                    2 # number of response packets in ld/st unit ejection buffer
-gpgpu_shmem_size                   16384 # Size of shared memory per shader core (default 16kB)
-gpgpu_shmem_size                   49152 # Size of shared memory per shader core (default 16kB)
-gpgpu_shmem_size_PrefL1                16384 # Size of shared memory per shader core (default 16kB)
-gpgpu_shmem_size_PrefShared                16384 # Size of shared memory per shader core (default 16kB)
-gpgpu_shmem_num_banks                   32 # Number of banks in the shared memory in each shader core (default 16)
-gpgpu_shmem_limited_broadcast                    0 # Limit shared memory to do one broadcast per cycle (default on)
-gpgpu_shmem_warp_parts                    1 # Number of portions a warp is divided into for shared memory bank conflict check 
-gpgpu_warpdistro_shader                   -1 # Specify which shader core to collect the warp size distribution from
-gpgpu_warp_issue_shader                    0 # Specify which shader core to collect the warp issue distribution from
-gpgpu_local_mem_map                    1 # Mapping from local memory space address to simulated GPU physical address space (default = enabled)
-gpgpu_num_reg_banks                   16 # Number of register banks (default = 8)
-gpgpu_reg_bank_use_warp_id                    0 # Use warp ID in mapping registers to banks (default = off)
-gpgpu_operand_collector_num_units_sp                    6 # number of collector units (default = 4)
-gpgpu_operand_collector_num_units_sfu                    8 # number of collector units (default = 4)
-gpgpu_operand_collector_num_units_mem                    2 # number of collector units (default = 2)
-gpgpu_operand_collector_num_units_gen                    0 # number of collector units (default = 0)
-gpgpu_operand_collector_num_in_ports_sp                    2 # number of collector unit in ports (default = 1)
-gpgpu_operand_collector_num_in_ports_sfu                    1 # number of collector unit in ports (default = 1)
-gpgpu_operand_collector_num_in_ports_mem                    1 # number of collector unit in ports (default = 1)
-gpgpu_operand_collector_num_in_ports_gen                    0 # number of collector unit in ports (default = 0)
-gpgpu_operand_collector_num_out_ports_sp                    2 # number of collector unit in ports (default = 1)
-gpgpu_operand_collector_num_out_ports_sfu                    1 # number of collector unit in ports (default = 1)
-gpgpu_operand_collector_num_out_ports_mem                    1 # number of collector unit in ports (default = 1)
-gpgpu_operand_collector_num_out_ports_gen                    0 # number of collector unit in ports (default = 0)
-gpgpu_coalesce_arch                   13 # Coalescing arch (default = 13, anything else is off for now)
-gpgpu_num_sched_per_core                    2 # Number of warp schedulers per core
-gpgpu_max_insn_issue_per_warp                    1 # Max number of instructions that can be issued per warp in one cycle by scheduler
-gpgpu_simt_core_sim_order                    1 # Select the simulation order of cores in a cluster (0=Fix, 1=Round-Robin)
-gpgpu_pipeline_widths        2,1,1,2,1,1,2 # Pipeline widths ID_OC_SP,ID_OC_SFU,ID_OC_MEM,OC_EX_SP,OC_EX_SFU,OC_EX_MEM,EX_WB
-gpgpu_num_sp_units                     2 # Number of SP units (default=1)
-gpgpu_num_sfu_units                    1 # Number of SF units (default=1)
-gpgpu_num_mem_units                    1 # Number if ldst units (default=1) WARNING: not hooked up to anything
-gpgpu_scheduler        warp_limiting:2:4 # Scheduler configuration: < lrr | gto | two_level_active > If two_level_active:<num_active_warps>:<inner_prioritization>:<outer_prioritization>For complete list of prioritization values see shader.h enum scheduler_prioritization_typeDefault: gto
-gpgpu_dram_scheduler                    1 # 0 = fifo, 1 = FR-FCFS (defaul)
-gpgpu_dram_partition_queues              8:8:8:8 # i2$:$2d:d2$:$2i
-l2_ideal                               0 # Use a ideal L2 cache that always hit
-gpgpu_cache:dl2     64:128:8,L:B:m:W:L,A:32:4,4:0,32 # unified banked L2 data cache config  {<nsets>:<bsize>:<assoc>,<rep>:<wr>:<alloc>:<wr_alloc>,<mshr>:<N>:<merge>,<mq>}
-gpgpu_cache:dl2_texture_only                    0 # L2 cache used for texture only
-gpgpu_n_mem                            6 # number of memory modules (e.g. memory controllers) in gpu
-gpgpu_n_sub_partition_per_mchannel                    2 # number of memory subpartition in each memory module
-gpgpu_n_mem_per_ctrlr                    2 # number of memory chips per memory controller
-gpgpu_memlatency_stat                   14 # track and display latency statistics 0x2 enables MC, 0x4 enables queue logs
-gpgpu_frfcfs_dram_sched_queue_size                   16 # 0 = unlimited (default); # entries per chip
-gpgpu_dram_return_queue_size                  116 # 0 = unlimited (default); # entries per chip
-gpgpu_dram_buswidth                    4 # default = 4 bytes (8 bytes per cycle at DDR)
-gpgpu_dram_burst_length                    8 # Burst length of each DRAM request (default = 4 data bus cycle)
-dram_data_command_freq_ratio                    4 # Frequency ratio between DRAM data bus and command bus (default = 2 times, i.e. DDR)
-gpgpu_dram_timing_opt nbk=16:CCD=2:RRD=6:RCD=12:RAS=28:RP=12:RC=40: CL=12:WL=4:CDLR=5:WR=12:nbkgrp=4:CCDL=3:RTPL=2 # DRAM timing parameters = {nbk:tCCD:tRRD:tRCD:tRAS:tRP:tRC:CL:WL:tCDLR:tWR:nbkgrp:tCCDL:tRTPL}
-rop_latency                          120 # ROP queue latency (default 85)
-dram_latency                         100 # DRAM latency (default 30)
-gpgpu_mem_addr_mapping dramid@8;00000000.00000000.00000000.00000000.0000RRRR.RRRRRRRR.BBBCCCCB.CCSSSSSS # mapping memory address to dram model {dramid@<start bit>;<memory address map>}
-gpgpu_mem_addr_test                    0 # run sweep test to check address mapping for aliased address
-gpgpu_mem_address_mask                    1 # 0 = old addressing mask, 1 = new addressing mask, 2 = new add. mask + flipped bank sel and chip sel bits
-gpuwattch_xml_file  gpuwattch_gtx480.xml # GPUWattch XML file
-power_simulation_enabled                    0 # Turn on power simulator (1=On, 0=Off)
-power_per_cycle_dump                    0 # Dump detailed power output each cycle
-power_trace_enabled                    0 # produce a file for the power trace (1=On, 0=Off)
-power_trace_zlevel                     6 # Compression level of the power trace output log (0=no comp, 9=highest)
-steady_power_levels_enabled                    0 # produce a file for the steady power levels (1=On, 0=Off)
-steady_state_definition                  8:4 # allowed deviation:number of samples
-gpgpu_max_cycle                        0 # terminates gpu simulation early (0 = no limit)
-gpgpu_max_insn                         0 # terminates gpu simulation early (0 = no limit)
-gpgpu_max_cta                          0 # terminates gpu simulation early (0 = no limit)
-gpgpu_runtime_stat                   500 # display runtime statistics such as dram utilization {<freq>:<flag>}
-liveness_message_freq                    1 # Minimum number of seconds between simulation liveness messages (0 = always print)
-gpgpu_flush_l1_cache                    0 # Flush L1 cache at the end of each kernel call
-gpgpu_flush_l2_cache                    0 # Flush L2 cache at the end of each kernel call
-gpgpu_deadlock_detect                    1 # Stop the simulation at deadlock (1=on (default), 0=off)
-gpgpu_ptx_instruction_classification                    0 # if enabled will classify ptx instruction types per kernel (Max 255 kernels now)
-gpgpu_ptx_sim_mode                     0 # Select between Performance (default) or Functional simulation (1)
-gpgpu_clock_domains 700.0:700.0:700.0:924.0 # Clock Domain Frequencies in MhZ {<Core Clock>:<ICNT Clock>:<L2 Clock>:<DRAM Clock>}
-gpgpu_max_concurrent_kernel                    8 # maximum kernels that can run concurrently on GPU
-gpgpu_cflog_interval                    0 # Interval between each snapshot in control flow logger
-visualizer_enabled                     0 # Turn on visualizer output (1=On, 0=Off)
-visualizer_outputfile                 NULL # Specifies the output log file for visualizer
-visualizer_zlevel                      6 # Compression level of the visualizer output log (0=no comp, 9=highest)
-trace_enabled                          0 # Turn on traces
-trace_components                    none # comma seperated list of traces to enable. Complete list found in trace_streams.tup. Default none
-trace_sampling_core                    0 # The core which is printed using CORE_DPRINTF. Default 0
-trace_sampling_memory_partition                   -1 # The memory partition which is printed using MEMPART_DPRINTF. Default -1 (i.e. all)
-enable_ptx_file_line_stats                    1 # Turn on PTX source line statistic profiling. (1 = On)
-ptx_line_stats_filename gpgpu_inst_stats.txt # Output file for PTX source line statistics.
-save_embedded_ptx                      0 # saves ptx files embedded in binary as <n>.ptx
-keep                                   0 # keep intermediate files created by GPGPU-Sim when interfacing with external programs
-gpgpu_ptx_save_converted_ptxplus                    0 # Saved converted ptxplus to a file
-ptx_opcode_latency_int         4,13,4,5,145 # Opcode latencies for integers <ADD,MAX,MUL,MAD,DIV>Default 1,1,19,25,145
-ptx_opcode_latency_fp          4,13,4,5,39 # Opcode latencies for single precision floating points <ADD,MAX,MUL,MAD,DIV>Default 1,1,1,1,30
-ptx_opcode_latency_dp         8,19,8,8,330 # Opcode latencies for double precision floating points <ADD,MAX,MUL,MAD,DIV>Default 8,8,8,8,335
-ptx_opcode_initiation_int            1,2,2,1,8 # Opcode initiation intervals for integers <ADD,MAX,MUL,MAD,DIV>Default 1,1,4,4,32
-ptx_opcode_initiation_fp            1,2,1,1,4 # Opcode initiation intervals for single precision floating points <ADD,MAX,MUL,MAD,DIV>Default 1,1,1,1,5
-ptx_opcode_initiation_dp         8,16,8,8,130 # Opcode initiation intervals for double precision floating points <ADD,MAX,MUL,MAD,DIV>Default 8,8,8,8,130
DRAM Timing Options:
nbk                                    16 # number of banks
CCD                                     2 # column to column delay
RRD                                     6 # minimal delay between activation of rows in different banks
RCD                                    12 # row to column delay
RAS                                    28 # time needed to activate row
RP                                     12 # time needed to precharge (deactivate) row
RC                                     40 # row cycle time
CDLR                                    5 # switching from write to read (changes tWTR)
WR                                     12 # last data-in to row precharge
CL                                     12 # CAS latency
WL                                      4 # Write latency
nbkgrp                                  4 # number of bank groups
CCDL                                    3 # column to column delay between accesses to different bank groups
RTPL                                    2 # read to precharge delay between accesses to different bank groups
Total number of memory sub partition = 12
addr_dec_mask[CHIP]  = 0000000000000000 	high:64 low:0
addr_dec_mask[BK]    = 000000000000e100 	high:16 low:8
addr_dec_mask[ROW]   = 000000000fff0000 	high:28 low:16
addr_dec_mask[COL]   = 0000000000001eff 	high:13 low:0
addr_dec_mask[BURST] = 000000000000003f 	high:6 low:0
sub_partition_id_mask = 0000000000000100
GPGPU-Sim uArch: clock freqs: 700000000.000000:700000000.000000:700000000.000000:924000000.000000
GPGPU-Sim uArch: clock periods: 0.00000000142857142857:0.00000000142857142857:0.00000000142857142857:0.00000000108225108225
*** Initializing Memory Statistics ***
GPGPU-Sim uArch: interconnect node map (shaderID+MemID to icntID)
GPGPU-Sim uArch: Memory nodes ID start from index: 15
GPGPU-Sim uArch:    0   1   2   3   4
GPGPU-Sim uArch:    5   6   7   8   9
GPGPU-Sim uArch:   10  11  12  13  14
GPGPU-Sim uArch:   15  16  17  18  19
GPGPU-Sim uArch:   20  21  22  23  24
GPGPU-Sim uArch:   25  26
GPGPU-Sim uArch: interconnect node reverse map (icntID to shaderID+MemID)
GPGPU-Sim uArch: Memory nodes start from ID: 15
GPGPU-Sim uArch:    0   1   2   3   4
GPGPU-Sim uArch:    5   6   7   8   9
GPGPU-Sim uArch:   10  11  12  13  14
GPGPU-Sim uArch:   15  16  17  18  19
GPGPU-Sim uArch:   20  21  22  23  24
GPGPU-Sim uArch:   25  26
54328626b7b3e20cd9d3237c822777b1  /sciclone/data10/hwang07/adwait/applications/benchmarks/rodinia/cuda/hotspot/gpgpu_ptx_sim__hotspot
GPGPU-Sim uArch: performance model initialization complete.
GPGPU-Sim PTX: __cudaRegisterFatBinary, fat_cubin_handle = 1, filename=hotspot.cu
self exe links to: /sciclone/data10/hwang07/adwait/applications/benchmarks/rodinia/cuda/hotspot/gpgpu_ptx_sim__hotspot
Running md5sum using "md5sum /sciclone/data10/hwang07/adwait/applications/benchmarks/rodinia/cuda/hotspot/gpgpu_ptx_sim__hotspot "
Parsing file _cuobjdump_complete_output_ZXczPY
######### cuobjdump parser ########
## Adding new section ELF
Adding arch: sm_20
Adding identifier: hotspot.cu
## Adding new section PTX
Adding ptx filename: _cuobjdump_1.ptx
Adding arch: sm_20
Adding identifier: hotspot.cu
Done parsing!!!
GPGPU-Sim PTX: __cudaRegisterFunction _Z14calculate_tempiPfS_S_iiiiffffff : hostFun 0x0x401b60, fat_cubin_handle = 1
GPGPU-Sim PTX: allocating shared region for "__cuda___cuda_local_var_32316_39_non_const_temp_on_cuda72" from 0x0 to 0x400 (shared memory space)
GPGPU-Sim PTX: allocating shared region for "__cuda___cuda_local_var_32317_39_non_const_power_on_cuda1096" from 0x400 to 0x800 (shared memory space)
GPGPU-Sim PTX: allocating shared region for "__cuda___cuda_local_var_32318_39_non_const_temp_t2120" from 0x800 to 0xc00 (shared memory space)
GPGPU-Sim PTX: instruction assembly for function '_Z14calculate_tempiPfS_S_iiiiffffff'...   done.
GPGPU-Sim PTX: finding reconvergence points for '_Z14calculate_tempiPfS_S_iiiiffffff'...
GPGPU-Sim PTX: Finding dominators for '_Z14calculate_tempiPfS_S_iiiiffffff'...
GPGPU-Sim PTX: Finding immediate dominators for '_Z14calculate_tempiPfS_S_iiiiffffff'...
GPGPU-Sim PTX: Finding postdominators for '_Z14calculate_tempiPfS_S_iiiiffffff'...
GPGPU-Sim PTX: Finding immediate postdominators for '_Z14calculate_tempiPfS_S_iiiiffffff'...
GPGPU-Sim PTX: pre-decoding instructions for '_Z14calculate_tempiPfS_S_iiiiffffff'...
GPGPU-Sim PTX: reconvergence points for _Z14calculate_tempiPfS_S_iiiiffffff...
GPGPU-Sim PTX:  1 (potential) branch divergence @  PC=0x060 (_1.ptx:91) @%p1 bra $Lt_0_15106;
GPGPU-Sim PTX:    immediate post dominator      @  PC=0x198 (_1.ptx:134) mov.u64 %rd1, __cuda___cuda_local_var_32316_39_non_const_temp_on_cuda72;
GPGPU-Sim PTX:  2 (potential) branch divergence @  PC=0x080 (_1.ptx:95) @%p2 bra $Lt_0_15106;
GPGPU-Sim PTX:    immediate post dominator      @  PC=0x198 (_1.ptx:134) mov.u64 %rd1, __cuda___cuda_local_var_32316_39_non_const_temp_on_cuda72;
GPGPU-Sim PTX:  3 (potential) branch divergence @  PC=0x0c8 (_1.ptx:104) @%p3 bra $Lt_0_15106;
GPGPU-Sim PTX:    immediate post dominator      @  PC=0x198 (_1.ptx:134) mov.u64 %rd1, __cuda___cuda_local_var_32316_39_non_const_temp_on_cuda72;
GPGPU-Sim PTX:  4 (potential) branch divergence @  PC=0x0e8 (_1.ptx:108) @%p4 bra $Lt_0_15106;
GPGPU-Sim PTX:    immediate post dominator      @  PC=0x198 (_1.ptx:134) mov.u64 %rd1, __cuda___cuda_local_var_32316_39_non_const_temp_on_cuda72;
GPGPU-Sim PTX:  5 (potential) branch divergence @  PC=0x1c0 (_1.ptx:140) @%p5 bra $Lt_0_15618;
GPGPU-Sim PTX:    immediate post dominator      @  PC=0x6b0 (_1.ptx:315) @!%p20 bra $Lt_0_14082;
GPGPU-Sim PTX:  6 (potential) branch divergence @  PC=0x388 (_1.ptx:200) @%p10 bra $Lt_0_17410;
GPGPU-Sim PTX:    immediate post dominator      @  PC=0x5c8 (_1.ptx:277) bar.sync 0;
GPGPU-Sim PTX:  7 (potential) branch divergence @  PC=0x3a8 (_1.ptx:204) @%p11 bra $Lt_0_17410;
GPGPU-Sim PTX:    immediate post dominator      @  PC=0x5c8 (_1.ptx:277) bar.sync 0;
GPGPU-Sim PTX:  8 (potential) branch divergence @  PC=0x3b8 (_1.ptx:206) @%p12 bra $Lt_0_17410;
GPGPU-Sim PTX:    immediate post dominator      @  PC=0x5c8 (_1.ptx:277) bar.sync 0;
GPGPU-Sim PTX:  9 (potential) branch divergence @  PC=0x3c8 (_1.ptx:208) @%p13 bra $Lt_0_17410;
GPGPU-Sim PTX:    immediate post dominator      @  PC=0x5c8 (_1.ptx:277) bar.sync 0;
GPGPU-Sim PTX: 10 (potential) branch divergence @  PC=0x3d8 (_1.ptx:210) @%p14 bra $Lt_0_17410;
GPGPU-Sim PTX:    immediate post dominator      @  PC=0x5c8 (_1.ptx:277) bar.sync 0;
GPGPU-Sim PTX: 11 (potential) branch divergence @  PC=0x3e8 (_1.ptx:212) @%p15 bra $Lt_0_17410;
GPGPU-Sim PTX:    immediate post dominator      @  PC=0x5c8 (_1.ptx:277) bar.sync 0;
GPGPU-Sim PTX: 12 (potential) branch divergence @  PC=0x3f8 (_1.ptx:214) @%p16 bra $Lt_0_17410;
GPGPU-Sim PTX:    immediate post dominator      @  PC=0x5c8 (_1.ptx:277) bar.sync 0;
GPGPU-Sim PTX: 13 (potential) branch divergence @  PC=0x408 (_1.ptx:216) @%p17 bra $Lt_0_17410;
GPGPU-Sim PTX:    immediate post dominator      @  PC=0x5c8 (_1.ptx:277) bar.sync 0;
GPGPU-Sim PTX: 14 (potential) branch divergence @  PC=0x5d8 (_1.ptx:280) @%p18 bra $Lt_0_17922;
GPGPU-Sim PTX:    immediate post dominator      @  PC=0x6b0 (_1.ptx:315) @!%p20 bra $Lt_0_14082;
GPGPU-Sim PTX: 15 (potential) branch divergence @  PC=0x600 (_1.ptx:285) @!%p19 bra $Lt_0_13314;
GPGPU-Sim PTX:    immediate post dominator      @  PC=0x650 (_1.ptx:298) bar.sync 0;
GPGPU-Sim PTX: 16 (potential) branch divergence @  PC=0x668 (_1.ptx:302) @%p23 bra $Lt_0_13058;
GPGPU-Sim PTX:    immediate post dominator      @  PC=0x6b0 (_1.ptx:315) @!%p20 bra $Lt_0_14082;
GPGPU-Sim PTX: 17 (potential) branch divergence @  PC=0x670 (_1.ptx:303) bra.uni $Lt_0_258;
GPGPU-Sim PTX:    immediate post dominator      @  PC=0x6b0 (_1.ptx:315) @!%p20 bra $Lt_0_14082;
GPGPU-Sim PTX: 18 (potential) branch divergence @  PC=0x698 (_1.ptx:309) bra.uni $Lt_0_258;
GPGPU-Sim PTX:    immediate post dominator      @  PC=0x6b0 (_1.ptx:315) @!%p20 bra $Lt_0_14082;
GPGPU-Sim PTX: 19 (potential) branch divergence @  PC=0x6b0 (_1.ptx:315) @!%p20 bra $Lt_0_14082;
GPGPU-Sim PTX:    immediate post dominator      @  PC=0x760 (_1.ptx:340) exit;
GPGPU-Sim PTX: ... end of reconvergence points for _Z14calculate_tempiPfS_S_iiiiffffff
GPGPU-Sim PTX: ... done pre-decoding instructions for '_Z14calculate_tempiPfS_S_iiiiffffff'.
GPGPU-Sim PTX: finished parsing EMBEDDED .ptx file _1.ptx
Adding _cuobjdump_1.ptx with cubin handle 1
GPGPU-Sim PTX: extracting embedded .ptx to temporary file "_ptx_W6OzXG"
Running: cat _ptx_W6OzXG | sed 's/.version 1.5/.version 1.4/' | sed 's/, texmode_independent//' | sed 's/\(\.extern \.const\[1\] .b8 \w\+\)\[\]/\1\[1\]/' | sed 's/const\[.\]/const\[0\]/g' > _ptx2_FMSLLs
GPGPU-Sim PTX: generating ptxinfo using "$CUDA_INSTALL_PATH/bin/ptxas --gpu-name=sm_20 -v _ptx2_FMSLLs --output-file  /dev/null 2> _ptx_W6OzXGinfo"
GPGPU-Sim PTX: Kernel '_Z14calculate_tempiPfS_S_iiiiffffff' : regs=35, lmem=0, smem=3072, cmem=120
GPGPU-Sim PTX: removing ptxinfo using "rm -f _ptx_W6OzXG _ptx2_FMSLLs _ptx_W6OzXGinfo"
GPGPU-Sim PTX: loading globals with explicit initializers... 
GPGPU-Sim PTX: finished loading globals (0 bytes total).
GPGPU-Sim PTX: loading constants with explicit initializers...  done.
pyramidHeight: 2
gridSize: [512, 512]
border:[2, 2]
blockGrid:[43, 43]
targetBlock:[12, 12]
Start computing the transient temperature

GPGPU-Sim PTX: cudaLaunch for 0x0x401b60 (mode=performance simulation) on stream 0
GPGPU-Sim PTX: pushing kernel '_Z14calculate_tempiPfS_S_iiiiffffff' to stream 0, gridDim= (43,43,1) blockDim = (16,16,1) 
kernel '_Z14calculate_tempiPfS_S_iiiiffffff' transfer to GPU hardware scheduler
GPGPU-Sim uArch: Shader 1 bind to kernel 1 '_Z14calculate_tempiPfS_S_iiiiffffff'
GPGPU-Sim uArch: CTA/core = 3, limited by: regs
GPGPU-Sim uArch: core:  1, cta: 0 initialized @(1,0)
GPGPU-Sim uArch: Shader 2 bind to kernel 1 '_Z14calculate_tempiPfS_S_iiiiffffff'
GPGPU-Sim uArch: core:  2, cta: 0 initialized @(1,0)
GPGPU-Sim uArch: Shader 3 bind to kernel 1 '_Z14calculate_tempiPfS_S_iiiiffffff'
GPGPU-Sim uArch: core:  3, cta: 0 initialized @(1,0)
GPGPU-Sim uArch: Shader 4 bind to kernel 1 '_Z14calculate_tempiPfS_S_iiiiffffff'
GPGPU-Sim uArch: core:  4, cta: 0 initialized @(1,0)
GPGPU-Sim uArch: Shader 5 bind to kernel 1 '_Z14calculate_tempiPfS_S_iiiiffffff'
GPGPU-Sim uArch: core:  5, cta: 0 initialized @(1,0)
GPGPU-Sim uArch: Shader 6 bind to kernel 1 '_Z14calculate_tempiPfS_S_iiiiffffff'
GPGPU-Sim uArch: core:  6, cta: 0 initialized @(1,0)
GPGPU-Sim uArch: Shader 7 bind to kernel 1 '_Z14calculate_tempiPfS_S_iiiiffffff'
GPGPU-Sim uArch: core:  7, cta: 0 initialized @(1,0)
GPGPU-Sim uArch: Shader 8 bind to kernel 1 '_Z14calculate_tempiPfS_S_iiiiffffff'
GPGPU-Sim uArch: core:  8, cta: 0 initialized @(1,0)
GPGPU-Sim uArch: Shader 9 bind to kernel 1 '_Z14calculate_tempiPfS_S_iiiiffffff'
GPGPU-Sim uArch: core:  9, cta: 0 initialized @(1,0)
GPGPU-Sim uArch: Shader 10 bind to kernel 1 '_Z14calculate_tempiPfS_S_iiiiffffff'
GPGPU-Sim uArch: core: 10, cta: 0 initialized @(1,0)
GPGPU-Sim uArch: Shader 11 bind to kernel 1 '_Z14calculate_tempiPfS_S_iiiiffffff'
GPGPU-Sim uArch: core: 11, cta: 0 initialized @(1,0)
GPGPU-Sim uArch: Shader 12 bind to kernel 1 '_Z14calculate_tempiPfS_S_iiiiffffff'
GPGPU-Sim uArch: core: 12, cta: 0 initialized @(1,0)
GPGPU-Sim uArch: Shader 13 bind to kernel 1 '_Z14calculate_tempiPfS_S_iiiiffffff'
GPGPU-Sim uArch: core: 13, cta: 0 initialized @(1,0)
GPGPU-Sim uArch: Shader 14 bind to kernel 1 '_Z14calculate_tempiPfS_S_iiiiffffff'
GPGPU-Sim uArch: core: 14, cta: 0 initialized @(1,0)
GPGPU-Sim uArch: Shader 0 bind to kernel 1 '_Z14calculate_tempiPfS_S_iiiiffffff'
GPGPU-Sim uArch: core:  0, cta: 0 initialized @(1,0)
GPGPU-Sim uArch: core:  1, cta: 1 initialized @(2,0)
GPGPU-Sim uArch: core:  2, cta: 1 initialized @(2,0)
GPGPU-Sim uArch: core:  3, cta: 1 initialized @(2,0)
GPGPU-Sim uArch: core:  4, cta: 1 initialized @(2,0)
GPGPU-Sim uArch: core:  5, cta: 1 initialized @(2,0)
GPGPU-Sim uArch: core:  6, cta: 1 initialized @(2,0)
GPGPU-Sim uArch: core:  7, cta: 1 initialized @(2,0)
GPGPU-Sim uArch: core:  8, cta: 1 initialized @(2,0)
GPGPU-Sim uArch: core:  9, cta: 1 initialized @(2,0)
GPGPU-Sim uArch: core: 10, cta: 1 initialized @(2,0)
GPGPU-Sim uArch: core: 11, cta: 1 initialized @(2,0)
GPGPU-Sim uArch: core: 12, cta: 1 initialized @(2,0)
GPGPU-Sim uArch: core: 13, cta: 1 initialized @(2,0)
GPGPU-Sim uArch: core: 14, cta: 1 initialized @(2,0)
GPGPU-Sim uArch: core:  0, cta: 1 initialized @(2,0)
GPGPU-Sim uArch: core:  1, cta: 2 initialized @(3,0)
GPGPU-Sim uArch: core:  2, cta: 2 initialized @(3,0)
GPGPU-Sim uArch: core:  3, cta: 2 initialized @(3,0)
GPGPU-Sim uArch: core:  4, cta: 2 initialized @(3,0)
GPGPU-Sim uArch: core:  5, cta: 2 initialized @(3,0)
GPGPU-Sim uArch: core:  6, cta: 2 initialized @(3,0)
GPGPU-Sim uArch: core:  7, cta: 2 initialized @(3,0)
GPGPU-Sim uArch: core:  8, cta: 2 initialized @(3,0)
GPGPU-Sim uArch: core:  9, cta: 2 initialized @(3,0)
GPGPU-Sim uArch: core: 10, cta: 2 initialized @(3,0)
GPGPU-Sim uArch: core: 11, cta: 2 initialized @(3,0)
GPGPU-Sim uArch: core: 12, cta: 2 initialized @(3,0)
GPGPU-Sim uArch: core: 13, cta: 2 initialized @(3,0)
GPGPU-Sim uArch: core: 14, cta: 2 initialized @(3,0)
GPGPU-Sim uArch: core:  0, cta: 2 initialized @(3,0)
GPGPU-Sim uArch: cycles simulated: 500  inst.: 0 (ipc= 0.0) sim_rate=0 (inst/sec) elapsed = 0:0:00:06 / Tue Mar 22 12:46:19 2016
GPGPU-Sim uArch: cycles simulated: 1000  inst.: 85952 (ipc=86.0) sim_rate=12278 (inst/sec) elapsed = 0:0:00:07 / Tue Mar 22 12:46:20 2016
GPGPU-Sim PTX: 100000 instructions simulated : ctaid=(8,0,0) tid=(7,14,0)
GPGPU-Sim uArch: cycles simulated: 1500  inst.: 168512 (ipc=112.3) sim_rate=7659 (inst/sec) elapsed = 0:0:00:22 / Tue Mar 22 12:46:35 2016
GPGPU-Sim PTX: 200000 instructions simulated : ctaid=(12,0,0) tid=(15,11,0)
GPGPU-Sim uArch: cycles simulated: 2000  inst.: 192256 (ipc=96.1) sim_rate=8358 (inst/sec) elapsed = 0:0:00:23 / Tue Mar 22 12:46:36 2016
GPGPU-Sim PTX: 300000 instructions simulated : ctaid=(27,0,0) tid=(11,15,0)
GPGPU-Sim PTX: 400000 instructions simulated : ctaid=(10,0,0) tid=(11,13,0)
GPGPU-Sim uArch: cycles simulated: 3000  inst.: 415260 (ipc=138.4) sim_rate=17302 (inst/sec) elapsed = 0:0:00:24 / Tue Mar 22 12:46:37 2016
GPGPU-Sim PTX: 500000 instructions simulated : ctaid=(13,0,0) tid=(11,15,0)
GPGPU-Sim PTX: 600000 instructions simulated : ctaid=(9,0,0) tid=(12,3,0)
GPGPU-Sim PTX: 700000 instructions simulated : ctaid=(12,0,0) tid=(13,12,0)
GPGPU-Sim uArch: cycles simulated: 5000  inst.: 708165 (ipc=141.6) sim_rate=28326 (inst/sec) elapsed = 0:0:00:25 / Tue Mar 22 12:46:38 2016
GPGPU-Sim PTX: 800000 instructions simulated : ctaid=(14,0,0) tid=(9,2,0)
GPGPU-Sim PTX: 900000 instructions simulated : ctaid=(17,0,0) tid=(5,12,0)
GPGPU-Sim uArch: Shader 0 finished CTA #0 (5864,0), 2 CTAs running
GPGPU-Sim uArch: core:  0, cta: 0 initialized @(5865,0)
GPGPU-Sim uArch: Shader 4 finished CTA #0 (5965,0), 2 CTAs running
GPGPU-Sim uArch: core:  4, cta: 0 initialized @(5966,0)
GPGPU-Sim uArch: cycles simulated: 6000  inst.: 882433 (ipc=147.1) sim_rate=33939 (inst/sec) elapsed = 0:0:00:26 / Tue Mar 22 12:46:39 2016
GPGPU-Sim uArch: Shader 2 finished CTA #0 (6019,0), 2 CTAs running
GPGPU-Sim uArch: core:  2, cta: 0 initialized @(6020,0)
GPGPU-Sim uArch: Shader 11 finished CTA #0 (6089,0), 2 CTAs running
GPGPU-Sim uArch: core: 11, cta: 0 initialized @(6090,0)
GPGPU-Sim uArch: Shader 1 finished CTA #0 (6095,0), 2 CTAs running
GPGPU-Sim uArch: core:  1, cta: 0 initialized @(6096,0)
GPGPU-Sim uArch: Shader 3 finished CTA #0 (6113,0), 2 CTAs running
GPGPU-Sim uArch: core:  3, cta: 0 initialized @(6114,0)
GPGPU-Sim uArch: Shader 6 finished CTA #0 (6115,0), 2 CTAs running
GPGPU-Sim uArch: core:  6, cta: 0 initialized @(6116,0)
GPGPU-Sim uArch: Shader 8 finished CTA #0 (6122,0), 2 CTAs running
GPGPU-Sim uArch: core:  8, cta: 0 initialized @(6123,0)
GPGPU-Sim uArch: Shader 9 finished CTA #0 (6123,0), 2 CTAs running
GPGPU-Sim uArch: core:  9, cta: 0 initialized @(6124,0)
GPGPU-Sim uArch: Shader 13 finished CTA #0 (6131,0), 2 CTAs running
GPGPU-Sim uArch: core: 13, cta: 0 initialized @(6132,0)
GPGPU-Sim uArch: Shader 5 finished CTA #0 (6134,0), 2 CTAs running
GPGPU-Sim uArch: core:  5, cta: 0 initialized @(6135,0)
GPGPU-Sim uArch: Shader 7 finished CTA #0 (6143,0), 2 CTAs running
GPGPU-Sim uArch: core:  7, cta: 0 initialized @(6144,0)
GPGPU-Sim uArch: Shader 10 finished CTA #0 (6160,0), 2 CTAs running
GPGPU-Sim uArch: core: 10, cta: 0 initialized @(6161,0)
GPGPU-Sim uArch: Shader 14 finished CTA #0 (6169,0), 2 CTAs running
GPGPU-Sim uArch: core: 14, cta: 0 initialized @(6170,0)
GPGPU-Sim uArch: Shader 12 finished CTA #0 (6176,0), 2 CTAs running
GPGPU-Sim uArch: core: 12, cta: 0 initialized @(6177,0)
GPGPU-Sim PTX: 1000000 instructions simulated : ctaid=(26,0,0) tid=(13,2,0)
GPGPU-Sim PTX: 1100000 instructions simulated : ctaid=(25,0,0) tid=(1,12,0)
GPGPU-Sim PTX: 1200000 instructions simulated : ctaid=(24,0,0) tid=(11,14,0)
GPGPU-Sim PTX: 1300000 instructions simulated : ctaid=(24,0,0) tid=(9,13,0)
GPGPU-Sim PTX: 1400000 instructions simulated : ctaid=(24,0,0) tid=(12,4,0)
GPGPU-Sim uArch: cycles simulated: 7000  inst.: 1301201 (ipc=185.9) sim_rate=48192 (inst/sec) elapsed = 0:0:00:27 / Tue Mar 22 12:46:40 2016
GPGPU-Sim PTX: 1500000 instructions simulated : ctaid=(17,0,0) tid=(14,12,0)
GPGPU-Sim uArch: Shader 1 finished CTA #1 (7525,0), 2 CTAs running
GPGPU-Sim uArch: core:  1, cta: 1 initialized @(7526,0)
GPGPU-Sim PTX: 1600000 instructions simulated : ctaid=(22,0,0) tid=(2,6,0)
GPGPU-Sim PTX: 1700000 instructions simulated : ctaid=(35,0,0) tid=(1,10,0)
GPGPU-Sim uArch: Shader 12 finished CTA #1 (7975,0), 2 CTAs running
GPGPU-Sim uArch: core: 12, cta: 1 initialized @(7976,0)
GPGPU-Sim uArch: Shader 3 finished CTA #1 (7990,0), 2 CTAs running
GPGPU-Sim uArch: core:  3, cta: 1 initialized @(7991,0)
GPGPU-Sim uArch: cycles simulated: 8000  inst.: 1651997 (ipc=206.5) sim_rate=58999 (inst/sec) elapsed = 0:0:00:28 / Tue Mar 22 12:46:41 2016
GPGPU-Sim uArch: Shader 2 finished CTA #1 (8020,0), 2 CTAs running
GPGPU-Sim uArch: core:  2, cta: 1 initialized @(8021,0)
GPGPU-Sim uArch: Shader 10 finished CTA #1 (8054,0), 2 CTAs running
GPGPU-Sim uArch: core: 10, cta: 1 initialized @(8055,0)
GPGPU-Sim PTX: 1800000 instructions simulated : ctaid=(42,0,0) tid=(7,15,0)
GPGPU-Sim uArch: Shader 9 finished CTA #1 (8096,0), 2 CTAs running
GPGPU-Sim uArch: core:  9, cta: 1 initialized @(8097,0)
GPGPU-Sim uArch: Shader 11 finished CTA #1 (8112,0), 2 CTAs running
GPGPU-Sim uArch: core: 11, cta: 1 initialized @(8113,0)
GPGPU-Sim uArch: Shader 14 finished CTA #1 (8135,0), 2 CTAs running
GPGPU-Sim uArch: core: 14, cta: 1 initialized @(8136,0)
GPGPU-Sim uArch: Shader 13 finished CTA #1 (8164,0), 2 CTAs running
GPGPU-Sim uArch: core: 13, cta: 1 initialized @(8165,0)
GPGPU-Sim uArch: Shader 7 finished CTA #1 (8174,0), 2 CTAs running
GPGPU-Sim uArch: core:  7, cta: 1 initialized @(8175,0)
GPGPU-Sim uArch: Shader 12 finished CTA #2 (8183,0), 2 CTAs running
GPGPU-Sim uArch: core: 12, cta: 2 initialized @(8184,0)
GPGPU-Sim uArch: Shader 9 finished CTA #2 (8205,0), 2 CTAs running
GPGPU-Sim uArch: core:  9, cta: 2 initialized @(8206,0)
GPGPU-Sim uArch: Shader 0 finished CTA #1 (8210,0), 2 CTAs running
GPGPU-Sim uArch: core:  0, cta: 1 initialized @(8211,0)
GPGPU-Sim uArch: Shader 10 finished CTA #2 (8217,0), 2 CTAs running
GPGPU-Sim uArch: core: 10, cta: 2 initialized @(8218,0)
GPGPU-Sim uArch: Shader 11 finished CTA #2 (8224,0), 2 CTAs running
GPGPU-Sim uArch: core: 11, cta: 2 initialized @(8225,0)
GPGPU-Sim uArch: Shader 5 finished CTA #1 (8242,0), 2 CTAs running
GPGPU-Sim uArch: core:  5, cta: 1 initialized @(8243,0)
GPGPU-Sim uArch: Shader 8 finished CTA #1 (8253,0), 2 CTAs running
GPGPU-Sim uArch: core:  8, cta: 1 initialized @(8254,0)
GPGPU-Sim uArch: Shader 13 finished CTA #2 (8258,0), 2 CTAs running
GPGPU-Sim uArch: core: 13, cta: 2 initialized @(8259,0)
GPGPU-Sim uArch: Shader 4 finished CTA #1 (8259,0), 2 CTAs running
GPGPU-Sim uArch: core:  4, cta: 1 initialized @(8260,0)
GPGPU-Sim uArch: Shader 6 finished CTA #1 (8268,0), 2 CTAs running
GPGPU-Sim uArch: core:  6, cta: 1 initialized @(8269,0)
GPGPU-Sim uArch: Shader 8 finished CTA #2 (8289,0), 2 CTAs running
GPGPU-Sim uArch: core:  8, cta: 2 initialized @(8290,0)
GPGPU-Sim PTX: 1900000 instructions simulated : ctaid=(24,1,0) tid=(1,5,0)
GPGPU-Sim uArch: cycles simulated: 8500  inst.: 1839997 (ipc=216.5) sim_rate=63448 (inst/sec) elapsed = 0:0:00:29 / Tue Mar 22 12:46:42 2016
GPGPU-Sim PTX: 2000000 instructions simulated : ctaid=(33,0,0) tid=(1,13,0)
GPGPU-Sim PTX: 2100000 instructions simulated : ctaid=(33,0,0) tid=(7,14,0)
GPGPU-Sim uArch: cycles simulated: 9000  inst.: 2031101 (ipc=225.7) sim_rate=67703 (inst/sec) elapsed = 0:0:00:30 / Tue Mar 22 12:46:43 2016
GPGPU-Sim PTX: 2200000 instructions simulated : ctaid=(22,1,0) tid=(1,10,0)
GPGPU-Sim PTX: 2300000 instructions simulated : ctaid=(14,1,0) tid=(11,4,0)
GPGPU-Sim uArch: Shader 1 finished CTA #2 (9321,0), 2 CTAs running
GPGPU-Sim uArch: core:  1, cta: 2 initialized @(9322,0)
GPGPU-Sim PTX: 2400000 instructions simulated : ctaid=(8,1,0) tid=(2,11,0)
GPGPU-Sim uArch: Shader 2 finished CTA #2 (9541,0), 2 CTAs running
GPGPU-Sim uArch: core:  2, cta: 2 initialized @(9542,0)
GPGPU-Sim PTX: 2500000 instructions simulated : ctaid=(11,1,0) tid=(10,1,0)
GPGPU-Sim uArch: Shader 4 finished CTA #2 (9962,0), 2 CTAs running
GPGPU-Sim uArch: core:  4, cta: 2 initialized @(9963,0)
GPGPU-Sim uArch: cycles simulated: 10000  inst.: 2390806 (ipc=239.1) sim_rate=77122 (inst/sec) elapsed = 0:0:00:31 / Tue Mar 22 12:46:44 2016
GPGPU-Sim uArch: Shader 0 finished CTA #2 (10064,0), 2 CTAs running
GPGPU-Sim uArch: core:  0, cta: 2 initialized @(10065,0)
GPGPU-Sim uArch: Shader 14 finished CTA #2 (10086,0), 2 CTAs running
GPGPU-Sim uArch: core: 14, cta: 2 initialized @(10087,0)
GPGPU-Sim uArch: Shader 3 finished CTA #2 (10087,0), 2 CTAs running
GPGPU-Sim uArch: core:  3, cta: 2 initialized @(10088,0)
GPGPU-Sim uArch: Shader 7 finished CTA #2 (10119,0), 2 CTAs running
GPGPU-Sim uArch: core:  7, cta: 2 initialized @(10120,0)
GPGPU-Sim uArch: Shader 6 finished CTA #2 (10123,0), 2 CTAs running
GPGPU-Sim uArch: core:  6, cta: 2 initialized @(10124,0)
GPGPU-Sim PTX: 2600000 instructions simulated : ctaid=(40,1,0) tid=(11,5,0)
GPGPU-Sim uArch: Shader 5 finished CTA #2 (10142,0), 2 CTAs running
GPGPU-Sim uArch: core:  5, cta: 2 initialized @(10143,0)
GPGPU-Sim PTX: 2700000 instructions simulated : ctaid=(7,1,0) tid=(9,1,0)
GPGPU-Sim uArch: cycles simulated: 10500  inst.: 2600498 (ipc=247.7) sim_rate=81265 (inst/sec) elapsed = 0:0:00:32 / Tue Mar 22 12:46:45 2016
GPGPU-Sim PTX: 2800000 instructions simulated : ctaid=(4,1,0) tid=(11,11,0)
GPGPU-Sim uArch: Shader 9 finished CTA #0 (10643,0), 2 CTAs running
GPGPU-Sim uArch: core:  9, cta: 0 initialized @(10644,0)
GPGPU-Sim uArch: Shader 12 finished CTA #0 (10717,0), 2 CTAs running
GPGPU-Sim uArch: core: 12, cta: 0 initialized @(10718,0)
GPGPU-Sim uArch: Shader 10 finished CTA #0 (10719,0), 2 CTAs running
GPGPU-Sim uArch: core: 10, cta: 0 initialized @(10720,0)
GPGPU-Sim uArch: Shader 11 finished CTA #0 (10739,0), 2 CTAs running
GPGPU-Sim uArch: core: 11, cta: 0 initialized @(10740,0)
GPGPU-Sim uArch: Shader 8 finished CTA #0 (10778,0), 2 CTAs running
GPGPU-Sim uArch: core:  8, cta: 0 initialized @(10779,0)
GPGPU-Sim uArch: Shader 13 finished CTA #0 (10785,0), 2 CTAs running
GPGPU-Sim uArch: core: 13, cta: 0 initialized @(10786,0)
GPGPU-Sim PTX: 2900000 instructions simulated : ctaid=(12,1,0) tid=(12,4,0)
GPGPU-Sim PTX: 3000000 instructions simulated : ctaid=(13,1,0) tid=(10,5,0)
GPGPU-Sim uArch: Shader 1 finished CTA #0 (11219,0), 2 CTAs running
GPGPU-Sim uArch: core:  1, cta: 0 initialized @(11220,0)
GPGPU-Sim PTX: 3100000 instructions simulated : ctaid=(4,1,0) tid=(14,9,0)
GPGPU-Sim PTX: 3200000 instructions simulated : ctaid=(0,2,0) tid=(3,7,0)
GPGPU-Sim uArch: cycles simulated: 11500  inst.: 2997134 (ipc=260.6) sim_rate=90822 (inst/sec) elapsed = 0:0:00:33 / Tue Mar 22 12:46:46 2016
GPGPU-Sim uArch: Shader 3 finished CTA #0 (11503,0), 2 CTAs running
GPGPU-Sim uArch: core:  3, cta: 0 initialized @(11504,0)
GPGPU-Sim uArch: Shader 5 finished CTA #0 (11631,0), 2 CTAs running
GPGPU-Sim uArch: core:  5, cta: 0 initialized @(11632,0)
GPGPU-Sim uArch: Shader 7 finished CTA #0 (11654,0), 2 CTAs running
GPGPU-Sim uArch: core:  7, cta: 0 initialized @(11655,0)
GPGPU-Sim uArch: Shader 6 finished CTA #0 (11657,0), 2 CTAs running
GPGPU-Sim uArch: core:  6, cta: 0 initialized @(11658,0)
GPGPU-Sim uArch: Shader 14 finished CTA #0 (11702,0), 2 CTAs running
GPGPU-Sim uArch: core: 14, cta: 0 initialized @(11703,0)
GPGPU-Sim PTX: 3300000 instructions simulated : ctaid=(20,1,0) tid=(1,14,0)
GPGPU-Sim uArch: Shader 4 finished CTA #0 (11809,0), 2 CTAs running
GPGPU-Sim uArch: core:  4, cta: 0 initialized @(11810,0)
GPGPU-Sim uArch: Shader 2 finished CTA #0 (11841,0), 2 CTAs running
GPGPU-Sim uArch: core:  2, cta: 0 initialized @(11842,0)
GPGPU-Sim uArch: Shader 0 finished CTA #0 (11861,0), 2 CTAs running
GPGPU-Sim uArch: core:  0, cta: 0 initialized @(11862,0)
GPGPU-Sim uArch: cycles simulated: 12000  inst.: 3160338 (ipc=263.4) sim_rate=92951 (inst/sec) elapsed = 0:0:00:34 / Tue Mar 22 12:46:47 2016
GPGPU-Sim PTX: 3400000 instructions simulated : ctaid=(19,1,0) tid=(13,5,0)
GPGPU-Sim PTX: 3500000 instructions simulated : ctaid=(36,1,0) tid=(5,7,0)
GPGPU-Sim PTX: 3600000 instructions simulated : ctaid=(35,1,0) tid=(7,12,0)
GPGPU-Sim uArch: Shader 8 finished CTA #2 (12488,0), 2 CTAs running
GPGPU-Sim uArch: core:  8, cta: 2 initialized @(12489,0)
GPGPU-Sim uArch: Shader 10 finished CTA #1 (12594,0), 2 CTAs running
GPGPU-Sim uArch: core: 10, cta: 1 initialized @(12595,0)
GPGPU-Sim uArch: Shader 11 finished CTA #1 (12652,0), 2 CTAs running
GPGPU-Sim uArch: core: 11, cta: 1 initialized @(12653,0)
GPGPU-Sim PTX: 3700000 instructions simulated : ctaid=(20,1,0) tid=(12,5,0)
GPGPU-Sim uArch: Shader 12 finished CTA #1 (12672,0), 2 CTAs running
GPGPU-Sim uArch: core: 12, cta: 1 initialized @(12673,0)
GPGPU-Sim uArch: Shader 8 finished CTA #1 (12715,0), 2 CTAs running
GPGPU-Sim uArch: core:  8, cta: 1 initialized @(12716,0)
GPGPU-Sim uArch: Shader 9 finished CTA #1 (12729,0), 2 CTAs running
GPGPU-Sim uArch: core:  9, cta: 1 initialized @(12730,0)
GPGPU-Sim uArch: Shader 13 finished CTA #1 (12811,0), 2 CTAs running
GPGPU-Sim uArch: core: 13, cta: 1 initialized @(12812,0)
GPGPU-Sim uArch: Shader 1 finished CTA #1 (12869,0), 2 CTAs running
GPGPU-Sim uArch: core:  1, cta: 1 initialized @(12870,0)
GPGPU-Sim PTX: 3800000 instructions simulated : ctaid=(34,1,0) tid=(4,1,0)
GPGPU-Sim uArch: cycles simulated: 13000  inst.: 3594312 (ipc=276.5) sim_rate=102694 (inst/sec) elapsed = 0:0:00:35 / Tue Mar 22 12:46:48 2016
GPGPU-Sim uArch: Shader 1 finished CTA #2 (13032,0), 2 CTAs running
GPGPU-Sim uArch: core:  1, cta: 2 initialized @(13033,0)
GPGPU-Sim PTX: 3900000 instructions simulated : ctaid=(27,1,0) tid=(10,3,0)
GPGPU-Sim uArch: Shader 3 finished CTA #1 (13292,0), 2 CTAs running
GPGPU-Sim uArch: core:  3, cta: 1 initialized @(13293,0)
GPGPU-Sim PTX: 4000000 instructions simulated : ctaid=(14,2,0) tid=(9,6,0)
GPGPU-Sim uArch: Shader 7 finished CTA #1 (13369,0), 2 CTAs running
GPGPU-Sim uArch: core:  7, cta: 1 initialized @(13370,0)
GPGPU-Sim uArch: Shader 14 finished CTA #1 (13417,0), 2 CTAs running
GPGPU-Sim uArch: core: 14, cta: 1 initialized @(13418,0)
GPGPU-Sim uArch: Shader 2 finished CTA #1 (13438,0), 2 CTAs running
GPGPU-Sim uArch: core:  2, cta: 1 initialized @(13439,0)
GPGPU-Sim uArch: cycles simulated: 13500  inst.: 3788860 (ipc=280.7) sim_rate=105246 (inst/sec) elapsed = 0:0:00:36 / Tue Mar 22 12:46:49 2016
GPGPU-Sim uArch: Shader 2 finished CTA #2 (13579,0), 2 CTAs running
GPGPU-Sim uArch: core:  2, cta: 2 initialized @(13580,0)
GPGPU-Sim uArch: Shader 4 finished CTA #2 (13583,0), 2 CTAs running
GPGPU-Sim uArch: core:  4, cta: 2 initialized @(13584,0)
GPGPU-Sim uArch: Shader 14 finished CTA #2 (13587,0), 2 CTAs running
GPGPU-Sim uArch: core: 14, cta: 2 initialized @(13588,0)
GPGPU-Sim PTX: 4100000 instructions simulated : ctaid=(27,1,0) tid=(6,4,0)
GPGPU-Sim uArch: Shader 6 finished CTA #1 (13663,0), 2 CTAs running
GPGPU-Sim uArch: core:  6, cta: 1 initialized @(13664,0)
GPGPU-Sim uArch: Shader 4 finished CTA #1 (13750,0), 2 CTAs running
GPGPU-Sim uArch: core:  4, cta: 1 initialized @(13751,0)
GPGPU-Sim uArch: Shader 5 finished CTA #1 (13787,0), 2 CTAs running
GPGPU-Sim uArch: core:  5, cta: 1 initialized @(13788,0)
GPGPU-Sim uArch: Shader 0 finished CTA #2 (13879,0), 2 CTAs running
GPGPU-Sim uArch: core:  0, cta: 2 initialized @(13880,0)
GPGPU-Sim PTX: 4200000 instructions simulated : ctaid=(1,2,0) tid=(9,9,0)
GPGPU-Sim uArch: Shader 0 finished CTA #1 (13961,0), 2 CTAs running
GPGPU-Sim uArch: core:  0, cta: 1 initialized @(13962,0)
GPGPU-Sim uArch: cycles simulated: 14000  inst.: 3958432 (ipc=282.7) sim_rate=106984 (inst/sec) elapsed = 0:0:00:37 / Tue Mar 22 12:46:50 2016
GPGPU-Sim uArch: Shader 10 finished CTA #2 (14002,0), 2 CTAs running
GPGPU-Sim uArch: core: 10, cta: 2 initialized @(14003,0)
GPGPU-Sim uArch: Shader 11 finished CTA #2 (14018,0), 2 CTAs running
GPGPU-Sim uArch: core: 11, cta: 2 initialized @(14019,0)
GPGPU-Sim uArch: Shader 9 finished CTA #2 (14034,0), 2 CTAs running
GPGPU-Sim uArch: core:  9, cta: 2 initialized @(14035,0)
GPGPU-Sim PTX: 4300000 instructions simulated : ctaid=(3,2,0) tid=(5,9,0)
GPGPU-Sim uArch: Shader 13 finished CTA #2 (14156,0), 2 CTAs running
GPGPU-Sim uArch: core: 13, cta: 2 initialized @(14157,0)
GPGPU-Sim uArch: Shader 12 finished CTA #2 (14300,0), 2 CTAs running
GPGPU-Sim uArch: core: 12, cta: 2 initialized @(14301,0)
GPGPU-Sim PTX: 4400000 instructions simulated : ctaid=(42,2,0) tid=(3,12,0)
GPGPU-Sim PTX: 4500000 instructions simulated : ctaid=(4,2,0) tid=(15,11,0)
GPGPU-Sim PTX: 4600000 instructions simulated : ctaid=(5,2,0) tid=(6,3,0)
GPGPU-Sim uArch: Shader 8 finished CTA #0 (14838,0), 2 CTAs running
GPGPU-Sim uArch: core:  8, cta: 0 initialized @(14839,0)
GPGPU-Sim uArch: cycles simulated: 15000  inst.: 4369416 (ipc=291.3) sim_rate=114984 (inst/sec) elapsed = 0:0:00:38 / Tue Mar 22 12:46:51 2016
GPGPU-Sim PTX: 4700000 instructions simulated : ctaid=(29,2,0) tid=(5,0,0)
GPGPU-Sim PTX: 4800000 instructions simulated : ctaid=(29,2,0) tid=(13,4,0)
GPGPU-Sim uArch: Shader 3 finished CTA #2 (15391,0), 2 CTAs running
GPGPU-Sim uArch: core:  3, cta: 2 initialized @(15392,0)
GPGPU-Sim uArch: Shader 7 finished CTA #2 (15436,0), 2 CTAs running
GPGPU-Sim uArch: core:  7, cta: 2 initialized @(15437,0)
GPGPU-Sim uArch: Shader 1 finished CTA #0 (15449,0), 2 CTAs running
GPGPU-Sim uArch: core:  1, cta: 0 initialized @(15450,0)
GPGPU-Sim uArch: cycles simulated: 15500  inst.: 4536500 (ipc=292.7) sim_rate=116320 (inst/sec) elapsed = 0:0:00:39 / Tue Mar 22 12:46:52 2016
GPGPU-Sim uArch: Shader 5 finished CTA #2 (15579,0), 2 CTAs running
GPGPU-Sim uArch: core:  5, cta: 2 initialized @(15580,0)
GPGPU-Sim uArch: Shader 6 finished CTA #2 (15611,0), 2 CTAs running
GPGPU-Sim uArch: core:  6, cta: 2 initialized @(15612,0)
GPGPU-Sim PTX: 4900000 instructions simulated : ctaid=(15,2,0) tid=(14,12,0)
GPGPU-Sim uArch: Shader 11 finished CTA #0 (15725,0), 2 CTAs running
GPGPU-Sim uArch: core: 11, cta: 0 initialized @(15726,0)
GPGPU-Sim PTX: 5000000 instructions simulated : ctaid=(11,2,0) tid=(15,5,0)
GPGPU-Sim uArch: Shader 13 finished CTA #0 (15963,0), 2 CTAs running
GPGPU-Sim uArch: core: 13, cta: 0 initialized @(15964,0)
GPGPU-Sim uArch: cycles simulated: 16000  inst.: 4737958 (ipc=296.1) sim_rate=118448 (inst/sec) elapsed = 0:0:00:40 / Tue Mar 22 12:46:53 2016
GPGPU-Sim PTX: 5100000 instructions simulated : ctaid=(33,2,0) tid=(11,10,0)
GPGPU-Sim uArch: Shader 2 finished CTA #0 (16127,0), 2 CTAs running
GPGPU-Sim uArch: core:  2, cta: 0 initialized @(16128,0)
GPGPU-Sim uArch: Shader 12 finished CTA #0 (16208,0), 2 CTAs running
GPGPU-Sim uArch: core: 12, cta: 0 initialized @(16209,0)
GPGPU-Sim uArch: Shader 9 finished CTA #0 (16210,0), 2 CTAs running
GPGPU-Sim uArch: core:  9, cta: 0 initialized @(16211,0)
GPGPU-Sim uArch: Shader 14 finished CTA #0 (16213,0), 2 CTAs running
GPGPU-Sim uArch: core: 14, cta: 0 initialized @(16214,0)
GPGPU-Sim uArch: Shader 10 finished CTA #0 (16214,0), 2 CTAs running
GPGPU-Sim uArch: core: 10, cta: 0 initialized @(16215,0)
GPGPU-Sim uArch: Shader 4 finished CTA #0 (16237,0), 2 CTAs running
GPGPU-Sim uArch: core:  4, cta: 0 initialized @(16238,0)
GPGPU-Sim uArch: Shader 0 finished CTA #0 (16275,0), 2 CTAs running
GPGPU-Sim uArch: core:  0, cta: 0 initialized @(16276,0)
GPGPU-Sim PTX: 5200000 instructions simulated : ctaid=(41,2,0) tid=(1,15,0)
GPGPU-Sim uArch: Shader 0 finished CTA #2 (16391,0), 2 CTAs running
GPGPU-Sim uArch: core:  0, cta: 2 initialized @(16392,0)
GPGPU-Sim uArch: Shader 8 finished CTA #2 (16497,0), 2 CTAs running
GPGPU-Sim uArch: core:  8, cta: 2 initialized @(16498,0)
GPGPU-Sim PTX: 5300000 instructions simulated : ctaid=(21,2,0) tid=(7,2,0)
GPGPU-Sim PTX: 5400000 instructions simulated : ctaid=(2,3,0) tid=(7,10,0)
GPGPU-Sim PTX: 5500000 instructions simulated : ctaid=(7,3,0) tid=(15,13,0)
GPGPU-Sim uArch: Shader 0 finished CTA #1 (16977,0), 2 CTAs running
GPGPU-Sim uArch: core:  0, cta: 1 initialized @(16978,0)
GPGPU-Sim uArch: cycles simulated: 17000  inst.: 5172570 (ipc=304.3) sim_rate=126160 (inst/sec) elapsed = 0:0:00:41 / Tue Mar 22 12:46:54 2016
GPGPU-Sim uArch: Shader 6 finished CTA #0 (17089,0), 2 CTAs running
GPGPU-Sim uArch: core:  6, cta: 0 initialized @(17090,0)
GPGPU-Sim PTX: 5600000 instructions simulated : ctaid=(3,3,0) tid=(3,12,0)
GPGPU-Sim uArch: Shader 7 finished CTA #0 (17342,0), 2 CTAs running
GPGPU-Sim uArch: core:  7, cta: 0 initialized @(17343,0)
GPGPU-Sim uArch: Shader 3 finished CTA #0 (17350,0), 2 CTAs running
GPGPU-Sim uArch: core:  3, cta: 0 initialized @(17351,0)
GPGPU-Sim uArch: Shader 5 finished CTA #0 (17416,0), 2 CTAs running
GPGPU-Sim uArch: Shader 5 finished CTA #1 (17416,0), 1 CTAs running
GPGPU-Sim uArch: core:  5, cta: 0 initialized @(17417,0)
GPGPU-Sim uArch: core:  5, cta: 1 initialized @(17418,0)
GPGPU-Sim PTX: 5700000 instructions simulated : ctaid=(20,2,0) tid=(14,11,0)
GPGPU-Sim uArch: cycles simulated: 17500  inst.: 5331482 (ipc=304.7) sim_rate=126940 (inst/sec) elapsed = 0:0:00:42 / Tue Mar 22 12:46:55 2016
GPGPU-Sim uArch: Shader 1 finished CTA #1 (17563,0), 2 CTAs running
GPGPU-Sim uArch: core:  1, cta: 1 initialized @(17564,0)
GPGPU-Sim uArch: Shader 11 finished CTA #2 (17667,0), 2 CTAs running
GPGPU-Sim uArch: core: 11, cta: 2 initialized @(17668,0)
GPGPU-Sim PTX: 5800000 instructions simulated : ctaid=(35,2,0) tid=(3,9,0)
GPGPU-Sim uArch: Shader 11 finished CTA #1 (17886,0), 2 CTAs running
GPGPU-Sim uArch: core: 11, cta: 1 initialized @(17887,0)
GPGPU-Sim uArch: Shader 9 finished CTA #2 (17890,0), 2 CTAs running
GPGPU-Sim uArch: core:  9, cta: 2 initialized @(17891,0)
GPGPU-Sim PTX: 5900000 instructions simulated : ctaid=(32,2,0) tid=(15,5,0)
GPGPU-Sim uArch: Shader 10 finished CTA #1 (17965,0), 2 CTAs running
GPGPU-Sim uArch: core: 10, cta: 1 initialized @(17966,0)
GPGPU-Sim uArch: Shader 10 finished CTA #2 (17983,0), 2 CTAs running
GPGPU-Sim uArch: core: 10, cta: 2 initialized @(17984,0)
GPGPU-Sim uArch: cycles simulated: 18000  inst.: 5532996 (ipc=307.4) sim_rate=128674 (inst/sec) elapsed = 0:0:00:43 / Tue Mar 22 12:46:56 2016
GPGPU-Sim uArch: Shader 14 finished CTA #1 (18023,0), 2 CTAs running
GPGPU-Sim uArch: core: 14, cta: 1 initialized @(18024,0)
GPGPU-Sim uArch: Shader 2 finished CTA #1 (18064,0), 2 CTAs running
GPGPU-Sim uArch: core:  2, cta: 1 initialized @(18065,0)
GPGPU-Sim uArch: Shader 12 finished CTA #1 (18113,0), 2 CTAs running
GPGPU-Sim uArch: core: 12, cta: 1 initialized @(18114,0)
GPGPU-Sim uArch: Shader 4 finished CTA #2 (18156,0), 2 CTAs running
GPGPU-Sim uArch: core:  4, cta: 2 initialized @(18157,0)
GPGPU-Sim uArch: Shader 9 finished CTA #1 (18157,0), 2 CTAs running
GPGPU-Sim uArch: core:  9, cta: 1 initialized @(18158,0)
GPGPU-Sim uArch: Shader 13 finished CTA #1 (18168,0), 2 CTAs running
GPGPU-Sim uArch: core: 13, cta: 1 initialized @(18169,0)
GPGPU-Sim uArch: Shader 8 finished CTA #1 (18191,0), 2 CTAs running
GPGPU-Sim uArch: core:  8, cta: 1 initialized @(18192,0)
GPGPU-Sim PTX: 6000000 instructions simulated : ctaid=(26,3,0) tid=(11,11,0)
GPGPU-Sim PTX: 6100000 instructions simulated : ctaid=(29,3,0) tid=(5,12,0)
GPGPU-Sim uArch: cycles simulated: 18500  inst.: 5720366 (ipc=309.2) sim_rate=130008 (inst/sec) elapsed = 0:0:00:44 / Tue Mar 22 12:46:57 2016
GPGPU-Sim PTX: 6200000 instructions simulated : ctaid=(37,3,0) tid=(6,8,0)
GPGPU-Sim PTX: 6300000 instructions simulated : ctaid=(6,3,0) tid=(2,11,0)
GPGPU-Sim PTX: 6400000 instructions simulated : ctaid=(25,3,0) tid=(5,13,0)
GPGPU-Sim uArch: Shader 3 finished CTA #1 (19241,0), 2 CTAs running
GPGPU-Sim uArch: core:  3, cta: 1 initialized @(19242,0)
GPGPU-Sim uArch: Shader 1 finished CTA #2 (19286,0), 2 CTAs running
GPGPU-Sim uArch: core:  1, cta: 2 initialized @(19287,0)
GPGPU-Sim uArch: Shader 7 finished CTA #1 (19288,0), 2 CTAs running
GPGPU-Sim uArch: core:  7, cta: 1 initialized @(19289,0)
GPGPU-Sim uArch: Shader 6 finished CTA #1 (19297,0), 2 CTAs running
GPGPU-Sim uArch: core:  6, cta: 1 initialized @(19298,0)
GPGPU-Sim uArch: Shader 2 finished CTA #2 (19351,0), 2 CTAs running
GPGPU-Sim uArch: core:  2, cta: 2 initialized @(19352,0)
GPGPU-Sim PTX: 6500000 instructions simulated : ctaid=(13,3,0) tid=(13,11,0)
GPGPU-Sim uArch: Shader 0 finished CTA #0 (19456,0), 2 CTAs running
GPGPU-Sim uArch: core:  0, cta: 0 initialized @(19457,0)
GPGPU-Sim uArch: cycles simulated: 19500  inst.: 6108046 (ipc=313.2) sim_rate=135734 (inst/sec) elapsed = 0:0:00:45 / Tue Mar 22 12:46:58 2016
GPGPU-Sim uArch: Shader 4 finished CTA #1 (19543,0), 2 CTAs running
GPGPU-Sim uArch: core:  4, cta: 1 initialized @(19544,0)
GPGPU-Sim PTX: 6600000 instructions simulated : ctaid=(14,3,0) tid=(9,3,0)
GPGPU-Sim uArch: Shader 14 finished CTA #2 (19670,0), 2 CTAs running
GPGPU-Sim uArch: core: 14, cta: 2 initialized @(19671,0)
GPGPU-Sim uArch: Shader 11 finished CTA #0 (19847,0), 2 CTAs running
GPGPU-Sim uArch: core: 11, cta: 0 initialized @(19848,0)
GPGPU-Sim PTX: 6700000 instructions simulated : ctaid=(17,3,0) tid=(5,14,0)
GPGPU-Sim uArch: Shader 5 finished CTA #2 (19878,0), 2 CTAs running
GPGPU-Sim uArch: core:  5, cta: 2 initialized @(19879,0)
GPGPU-Sim uArch: cycles simulated: 20000  inst.: 6300140 (ipc=315.0) sim_rate=136959 (inst/sec) elapsed = 0:0:00:46 / Tue Mar 22 12:46:59 2016
GPGPU-Sim uArch: Shader 10 finished CTA #0 (20018,0), 2 CTAs running
GPGPU-Sim uArch: core: 10, cta: 0 initialized @(20019,0)
GPGPU-Sim uArch: Shader 13 finished CTA #2 (20043,0), 2 CTAs running
GPGPU-Sim uArch: core: 13, cta: 2 initialized @(20044,0)
GPGPU-Sim uArch: Shader 12 finished CTA #2 (20067,0), 2 CTAs running
GPGPU-Sim uArch: core: 12, cta: 2 initialized @(20068,0)
GPGPU-Sim PTX: 6800000 instructions simulated : ctaid=(13,3,0) tid=(13,9,0)
GPGPU-Sim uArch: Shader 9 finished CTA #0 (20232,0), 2 CTAs running
GPGPU-Sim uArch: core:  9, cta: 0 initialized @(20233,0)
GPGPU-Sim uArch: Shader 8 finished CTA #0 (20364,0), 2 CTAs running
GPGPU-Sim uArch: core:  8, cta: 0 initialized @(20365,0)
GPGPU-Sim PTX: 6900000 instructions simulated : ctaid=(15,3,0) tid=(8,12,0)
GPGPU-Sim uArch: cycles simulated: 20500  inst.: 6507286 (ipc=317.4) sim_rate=138452 (inst/sec) elapsed = 0:0:00:47 / Tue Mar 22 12:47:00 2016
GPGPU-Sim PTX: 7000000 instructions simulated : ctaid=(4,3,0) tid=(12,3,0)
GPGPU-Sim uArch: Shader 3 finished CTA #2 (20671,0), 2 CTAs running
GPGPU-Sim uArch: core:  3, cta: 2 initialized @(20672,0)
GPGPU-Sim uArch: Shader 6 finished CTA #2 (20780,0), 2 CTAs running
GPGPU-Sim PTX: 7100000 instructions simulated : ctaid=(26,3,0) tid=(14,10,0)
GPGPU-Sim uArch: core:  6, cta: 2 initialized @(20781,0)
GPGPU-Sim uArch: Shader 1 finished CTA #0 (20789,0), 2 CTAs running
GPGPU-Sim uArch: core:  1, cta: 0 initialized @(20790,0)
GPGPU-Sim uArch: Shader 7 finished CTA #2 (20857,0), 2 CTAs running
GPGPU-Sim uArch: core:  7, cta: 2 initialized @(20858,0)
GPGPU-Sim uArch: Shader 0 finished CTA #2 (20950,0), 2 CTAs running
GPGPU-Sim uArch: core:  0, cta: 2 initialized @(20951,0)
GPGPU-Sim PTX: 7200000 instructions simulated : ctaid=(11,3,0) tid=(2,14,0)
GPGPU-Sim uArch: cycles simulated: 21000  inst.: 6729802 (ipc=320.5) sim_rate=140204 (inst/sec) elapsed = 0:0:00:48 / Tue Mar 22 12:47:01 2016
GPGPU-Sim PTX: 7300000 instructions simulated : ctaid=(28,3,0) tid=(4,5,0)
GPGPU-Sim uArch: Shader 4 finished CTA #0 (21292,0), 2 CTAs running
GPGPU-Sim uArch: core:  4, cta: 0 initialized @(21293,0)
GPGPU-Sim uArch: Shader 14 finished CTA #0 (21417,0), 2 CTAs running
GPGPU-Sim uArch: core: 14, cta: 0 initialized @(21418,0)
GPGPU-Sim PTX: 7400000 instructions simulated : ctaid=(25,3,0) tid=(13,15,0)
GPGPU-Sim uArch: Shader 2 finished CTA #0 (21582,0), 2 CTAs running
GPGPU-Sim uArch: core:  2, cta: 0 initialized @(21583,0)
GPGPU-Sim PTX: 7500000 instructions simulated : ctaid=(25,3,0) tid=(12,7,0)
GPGPU-Sim uArch: Shader 12 finished CTA #0 (21655,0), 2 CTAs running
GPGPU-Sim uArch: core: 12, cta: 0 initialized @(21656,0)
GPGPU-Sim uArch: Shader 13 finished CTA #0 (21669,0), 2 CTAs running
GPGPU-Sim uArch: core: 13, cta: 0 initialized @(21670,0)
GPGPU-Sim uArch: Shader 11 finished CTA #2 (21859,0), 2 CTAs running
GPGPU-Sim uArch: core: 11, cta: 2 initialized @(21860,0)
GPGPU-Sim PTX: 7600000 instructions simulated : ctaid=(30,3,0) tid=(11,3,0)
GPGPU-Sim uArch: Shader 5 finished CTA #0 (21901,0), 2 CTAs running
GPGPU-Sim uArch: core:  5, cta: 0 initialized @(21902,0)
GPGPU-Sim uArch: cycles simulated: 22000  inst.: 7153552 (ipc=325.2) sim_rate=145990 (inst/sec) elapsed = 0:0:00:49 / Tue Mar 22 12:47:02 2016
GPGPU-Sim uArch: Shader 8 finished CTA #1 (22058,0), 2 CTAs running
GPGPU-Sim uArch: core:  8, cta: 1 initialized @(22059,0)
GPGPU-Sim PTX: 7700000 instructions simulated : ctaid=(36,3,0) tid=(5,0,0)
GPGPU-Sim uArch: Shader 9 finished CTA #2 (22173,0), 2 CTAs running
GPGPU-Sim uArch: core:  9, cta: 2 initialized @(22174,0)
GPGPU-Sim uArch: Shader 10 finished CTA #1 (22245,0), 2 CTAs running
GPGPU-Sim uArch: core: 10, cta: 1 initialized @(22246,0)
GPGPU-Sim PTX: 7800000 instructions simulated : ctaid=(34,3,0) tid=(9,12,0)
GPGPU-Sim uArch: Shader 8 finished CTA #2 (22323,0), 2 CTAs running
GPGPU-Sim uArch: core:  8, cta: 2 initialized @(22324,0)
GPGPU-Sim uArch: cycles simulated: 22500  inst.: 7367336 (ipc=327.4) sim_rate=147346 (inst/sec) elapsed = 0:0:00:50 / Tue Mar 22 12:47:03 2016
GPGPU-Sim PTX: 7900000 instructions simulated : ctaid=(40,3,0) tid=(14,14,0)
GPGPU-Sim uArch: Shader 1 finished CTA #1 (22571,0), 2 CTAs running
GPGPU-Sim uArch: core:  1, cta: 1 initialized @(22572,0)
GPGPU-Sim uArch: Shader 3 finished CTA #1 (22630,0), 2 CTAs running
GPGPU-Sim uArch: core:  3, cta: 1 initialized @(22631,0)
GPGPU-Sim uArch: Shader 1 finished CTA #2 (22730,0), 2 CTAs running
GPGPU-Sim uArch: core:  1, cta: 2 initialized @(22731,0)
GPGPU-Sim uArch: Shader 7 finished CTA #1 (22741,0), 2 CTAs running
GPGPU-Sim uArch: core:  7, cta: 1 initialized @(22742,0)
GPGPU-Sim uArch: Shader 6 finished CTA #1 (22808,0), 2 CTAs running
GPGPU-Sim uArch: core:  6, cta: 1 initialized @(22809,0)
GPGPU-Sim PTX: 8000000 instructions simulated : ctaid=(5,4,0) tid=(3,7,0)
GPGPU-Sim uArch: Shader 0 finished CTA #1 (22820,0), 2 CTAs running
GPGPU-Sim uArch: core:  0, cta: 1 initialized @(22821,0)
GPGPU-Sim uArch: Shader 5 finished CTA #1 (22858,0), 2 CTAs running
GPGPU-Sim uArch: core:  5, cta: 1 initialized @(22859,0)
GPGPU-Sim uArch: Shader 7 finished CTA #0 (22923,0), 2 CTAs running
GPGPU-Sim uArch: core:  7, cta: 0 initialized @(22924,0)
GPGPU-Sim uArch: Shader 3 finished CTA #0 (22927,0), 2 CTAs running
GPGPU-Sim uArch: core:  3, cta: 0 initialized @(22928,0)
GPGPU-Sim uArch: Shader 6 finished CTA #0 (22936,0), 2 CTAs running
GPGPU-Sim uArch: core:  6, cta: 0 initialized @(22937,0)
GPGPU-Sim uArch: cycles simulated: 23000  inst.: 7535443 (ipc=327.6) sim_rate=147753 (inst/sec) elapsed = 0:0:00:51 / Tue Mar 22 12:47:04 2016
GPGPU-Sim uArch: Shader 14 finished CTA #1 (23035,0), 2 CTAs running
GPGPU-Sim uArch: core: 14, cta: 1 initialized @(23036,0)
GPGPU-Sim PTX: 8100000 instructions simulated : ctaid=(14,4,0) tid=(6,11,0)
GPGPU-Sim uArch: Shader 2 finished CTA #2 (23256,0), 2 CTAs running
GPGPU-Sim uArch: core:  2, cta: 2 initialized @(23257,0)
GPGPU-Sim PTX: 8200000 instructions simulated : ctaid=(10,4,0) tid=(1,4,0)
GPGPU-Sim uArch: Shader 10 finished CTA #2 (23406,0), 2 CTAs running
GPGPU-Sim uArch: core: 10, cta: 2 initialized @(23407,0)
GPGPU-Sim uArch: Shader 11 finished CTA #1 (23423,0), 2 CTAs running
GPGPU-Sim uArch: core: 11, cta: 1 initialized @(23424,0)
GPGPU-Sim uArch: Shader 13 finished CTA #1 (23452,0), 2 CTAs running
GPGPU-Sim uArch: core: 13, cta: 1 initialized @(23453,0)
GPGPU-Sim uArch: Shader 2 finished CTA #1 (23582,0), 2 CTAs running
GPGPU-Sim uArch: core:  2, cta: 1 initialized @(23583,0)
GPGPU-Sim uArch: Shader 12 finished CTA #1 (23594,0), 2 CTAs running
GPGPU-Sim uArch: core: 12, cta: 1 initialized @(23595,0)
GPGPU-Sim uArch: Shader 4 finished CTA #2 (23616,0), 2 CTAs running
GPGPU-Sim uArch: core:  4, cta: 2 initialized @(23617,0)
GPGPU-Sim PTX: 8300000 instructions simulated : ctaid=(11,4,0) tid=(9,15,0)
GPGPU-Sim uArch: Shader 9 finished CTA #1 (23701,0), 2 CTAs running
GPGPU-Sim uArch: core:  9, cta: 1 initialized @(23702,0)
GPGPU-Sim PTX: 8400000 instructions simulated : ctaid=(13,4,0) tid=(11,1,0)
GPGPU-Sim uArch: cycles simulated: 24000  inst.: 7935323 (ipc=330.6) sim_rate=152602 (inst/sec) elapsed = 0:0:00:52 / Tue Mar 22 12:47:05 2016
GPGPU-Sim PTX: 8500000 instructions simulated : ctaid=(1,4,0) tid=(6,4,0)
GPGPU-Sim PTX: 8600000 instructions simulated : ctaid=(2,4,0) tid=(8,8,0)
GPGPU-Sim uArch: cycles simulated: 24500  inst.: 8125287 (ipc=331.6) sim_rate=153307 (inst/sec) elapsed = 0:0:00:53 / Tue Mar 22 12:47:06 2016
GPGPU-Sim uArch: Shader 8 finished CTA #0 (24511,0), 2 CTAs running
GPGPU-Sim uArch: core:  8, cta: 0 initialized @(24512,0)
GPGPU-Sim PTX: 8700000 instructions simulated : ctaid=(20,4,0) tid=(2,10,0)
GPGPU-Sim uArch: Shader 3 finished CTA #2 (24646,0), 2 CTAs running
GPGPU-Sim uArch: core:  3, cta: 2 initialized @(24647,0)
GPGPU-Sim PTX: 8800000 instructions simulated : ctaid=(1,4,0) tid=(8,14,0)
GPGPU-Sim uArch: Shader 0 finished CTA #0 (24918,0), 2 CTAs running
GPGPU-Sim uArch: core:  0, cta: 0 initialized @(24919,0)
GPGPU-Sim uArch: cycles simulated: 25000  inst.: 8310312 (ipc=332.4) sim_rate=153894 (inst/sec) elapsed = 0:0:00:54 / Tue Mar 22 12:47:07 2016
GPGPU-Sim PTX: 8900000 instructions simulated : ctaid=(8,4,0) tid=(6,1,0)
GPGPU-Sim uArch: Shader 14 finished CTA #2 (25085,0), 2 CTAs running
GPGPU-Sim uArch: core: 14, cta: 2 initialized @(25086,0)
GPGPU-Sim uArch: Shader 4 finished CTA #1 (25097,0), 2 CTAs running
GPGPU-Sim uArch: core:  4, cta: 1 initialized @(25098,0)
GPGPU-Sim uArch: Shader 12 finished CTA #2 (25119,0), 2 CTAs running
GPGPU-Sim uArch: core: 12, cta: 2 initialized @(25120,0)
GPGPU-Sim uArch: Shader 5 finished CTA #2 (25139,0), 2 CTAs running
GPGPU-Sim uArch: core:  5, cta: 2 initialized @(25140,0)
GPGPU-Sim uArch: Shader 10 finished CTA #0 (25141,0), 2 CTAs running
GPGPU-Sim uArch: core: 10, cta: 0 initialized @(25142,0)
GPGPU-Sim uArch: Shader 11 finished CTA #0 (25145,0), 2 CTAs running
GPGPU-Sim uArch: core: 11, cta: 0 initialized @(25146,0)
GPGPU-Sim uArch: Shader 1 finished CTA #0 (25152,0), 2 CTAs running
GPGPU-Sim uArch: core:  1, cta: 0 initialized @(25153,0)
GPGPU-Sim uArch: Shader 13 finished CTA #2 (25161,0), 2 CTAs running
GPGPU-Sim uArch: core: 13, cta: 2 initialized @(25162,0)
GPGPU-Sim uArch: Shader 6 finished CTA #2 (25186,0), 2 CTAs running
GPGPU-Sim uArch: core:  6, cta: 2 initialized @(25187,0)
GPGPU-Sim uArch: Shader 7 finished CTA #2 (25230,0), 2 CTAs running
GPGPU-Sim uArch: core:  7, cta: 2 initialized @(25231,0)
GPGPU-Sim PTX: 9000000 instructions simulated : ctaid=(17,4,0) tid=(15,12,0)
GPGPU-Sim uArch: Shader 9 finished CTA #0 (25336,0), 2 CTAs running
GPGPU-Sim uArch: core:  9, cta: 0 initialized @(25337,0)
GPGPU-Sim PTX: 9100000 instructions simulated : ctaid=(22,4,0) tid=(12,6,0)
GPGPU-Sim uArch: cycles simulated: 25500  inst.: 8524096 (ipc=334.3) sim_rate=154983 (inst/sec) elapsed = 0:0:00:55 / Tue Mar 22 12:47:08 2016
GPGPU-Sim uArch: Shader 2 finished CTA #0 (25616,0), 2 CTAs running
GPGPU-Sim uArch: core:  2, cta: 0 initialized @(25617,0)
GPGPU-Sim PTX: 9200000 instructions simulated : ctaid=(29,4,0) tid=(1,5,0)
GPGPU-Sim uArch: Shader 2 finished CTA #2 (25724,0), 2 CTAs running
GPGPU-Sim uArch: core:  2, cta: 2 initialized @(25725,0)
GPGPU-Sim PTX: 9300000 instructions simulated : ctaid=(16,4,0) tid=(14,9,0)
GPGPU-Sim PTX: 9400000 instructions simulated : ctaid=(30,4,0) tid=(2,14,0)
GPGPU-Sim uArch: Shader 0 finished CTA #2 (26201,0), 2 CTAs running
GPGPU-Sim uArch: core:  0, cta: 2 initialized @(26202,0)
GPGPU-Sim PTX: 9500000 instructions simulated : ctaid=(28,4,0) tid=(9,11,0)
GPGPU-Sim uArch: Shader 2 finished CTA #1 (26319,0), 2 CTAs running
GPGPU-Sim uArch: core:  2, cta: 1 initialized @(26320,0)
GPGPU-Sim uArch: cycles simulated: 26500  inst.: 8950290 (ipc=337.7) sim_rate=159826 (inst/sec) elapsed = 0:0:00:56 / Tue Mar 22 12:47:09 2016
GPGPU-Sim PTX: 9600000 instructions simulated : ctaid=(15,5,0) tid=(15,9,0)
GPGPU-Sim uArch: Shader 8 finished CTA #1 (26624,0), 2 CTAs running
GPGPU-Sim uArch: core:  8, cta: 1 initialized @(26625,0)
GPGPU-Sim uArch: Shader 5 finished CTA #0 (26690,0), 2 CTAs running
GPGPU-Sim uArch: core:  5, cta: 0 initialized @(26691,0)
GPGPU-Sim uArch: Shader 14 finished CTA #0 (26734,0), 2 CTAs running
GPGPU-Sim uArch: core: 14, cta: 0 initialized @(26735,0)
GPGPU-Sim uArch: Shader 4 finished CTA #0 (26767,0), 2 CTAs running
GPGPU-Sim uArch: core:  4, cta: 0 initialized @(26768,0)
GPGPU-Sim PTX: 9700000 instructions simulated : ctaid=(31,4,0) tid=(13,4,0)
GPGPU-Sim uArch: Shader 3 finished CTA #1 (26798,0), 2 CTAs running
GPGPU-Sim uArch: core:  3, cta: 1 initialized @(26799,0)
GPGPU-Sim uArch: Shader 1 finished CTA #1 (26838,0), 2 CTAs running
GPGPU-Sim uArch: core:  1, cta: 1 initialized @(26839,0)
GPGPU-Sim uArch: Shader 10 finished CTA #1 (26846,0), 2 CTAs running
GPGPU-Sim uArch: core: 10, cta: 1 initialized @(26847,0)
GPGPU-Sim uArch: Shader 11 finished CTA #1 (26934,0), 2 CTAs running
GPGPU-Sim uArch: core: 11, cta: 1 initialized @(26935,0)
GPGPU-Sim uArch: Shader 13 finished CTA #1 (26979,0), 2 CTAs running
GPGPU-Sim uArch: core: 13, cta: 1 initialized @(26980,0)
GPGPU-Sim uArch: cycles simulated: 27000  inst.: 9136260 (ipc=338.4) sim_rate=160285 (inst/sec) elapsed = 0:0:00:57 / Tue Mar 22 12:47:10 2016
GPGPU-Sim uArch: Shader 10 finished CTA #2 (27032,0), 2 CTAs running
GPGPU-Sim uArch: core: 10, cta: 2 initialized @(27033,0)
GPGPU-Sim uArch: Shader 9 finished CTA #2 (27037,0), 2 CTAs running
GPGPU-Sim uArch: core:  9, cta: 2 initialized @(27038,0)
GPGPU-Sim uArch: Shader 12 finished CTA #1 (27052,0), 2 CTAs running
GPGPU-Sim uArch: core: 12, cta: 1 initialized @(27053,0)
GPGPU-Sim PTX: 9800000 instructions simulated : ctaid=(31,5,0) tid=(5,0,0)
GPGPU-Sim uArch: Shader 13 finished CTA #0 (27202,0), 2 CTAs running
GPGPU-Sim uArch: core: 13, cta: 0 initialized @(27203,0)
GPGPU-Sim uArch: Shader 12 finished CTA #0 (27252,0), 2 CTAs running
GPGPU-Sim uArch: core: 12, cta: 0 initialized @(27253,0)
GPGPU-Sim uArch: Shader 6 finished CTA #1 (27254,0), 2 CTAs running
GPGPU-Sim uArch: core:  6, cta: 1 initialized @(27255,0)
GPGPU-Sim uArch: Shader 11 finished CTA #2 (27259,0), 2 CTAs running
GPGPU-Sim uArch: core: 11, cta: 2 initialized @(27260,0)
GPGPU-Sim uArch: Shader 7 finished CTA #1 (27318,0), 2 CTAs running
GPGPU-Sim uArch: core:  7, cta: 1 initialized @(27319,0)
GPGPU-Sim PTX: 9900000 instructions simulated : ctaid=(31,4,0) tid=(14,5,0)
GPGPU-Sim uArch: cycles simulated: 27500  inst.: 9335294 (ipc=339.5) sim_rate=160953 (inst/sec) elapsed = 0:0:00:58 / Tue Mar 22 12:47:11 2016
GPGPU-Sim PTX: 10000000 instructions simulated : ctaid=(0,5,0) tid=(13,11,0)
GPGPU-Sim PTX: 10100000 instructions simulated : ctaid=(34,4,0) tid=(1,11,0)
GPGPU-Sim uArch: Shader 8 finished CTA #2 (27992,0), 2 CTAs running
GPGPU-Sim uArch: core:  8, cta: 2 initialized @(27993,0)
GPGPU-Sim PTX: 10200000 instructions simulated : ctaid=(9,5,0) tid=(7,1,0)
GPGPU-Sim uArch: Shader 0 finished CTA #1 (28013,0), 2 CTAs running
GPGPU-Sim uArch: core:  0, cta: 1 initialized @(28014,0)
GPGPU-Sim PTX: 10300000 instructions simulated : ctaid=(1,5,0) tid=(10,12,0)
GPGPU-Sim uArch: Shader 1 finished CTA #2 (28467,0), 2 CTAs running
GPGPU-Sim uArch: core:  1, cta: 2 initialized @(28468,0)
GPGPU-Sim uArch: cycles simulated: 28500  inst.: 9720666 (ipc=341.1) sim_rate=164757 (inst/sec) elapsed = 0:0:00:59 / Tue Mar 22 12:47:12 2016
GPGPU-Sim PTX: 10400000 instructions simulated : ctaid=(25,5,0) tid=(11,13,0)
GPGPU-Sim PTX: 10500000 instructions simulated : ctaid=(32,5,0) tid=(15,5,0)
GPGPU-Sim uArch: Shader 14 finished CTA #1 (28808,0), 2 CTAs running
GPGPU-Sim uArch: core: 14, cta: 1 initialized @(28809,0)
GPGPU-Sim uArch: Shader 5 finished CTA #1 (28833,0), 2 CTAs running
GPGPU-Sim uArch: core:  5, cta: 1 initialized @(28834,0)
GPGPU-Sim uArch: Shader 9 finished CTA #1 (28920,0), 2 CTAs running
GPGPU-Sim uArch: core:  9, cta: 1 initialized @(28921,0)
GPGPU-Sim uArch: Shader 4 finished CTA #2 (28929,0), 2 CTAs running
GPGPU-Sim uArch: core:  4, cta: 2 initialized @(28930,0)
GPGPU-Sim uArch: cycles simulated: 29000  inst.: 9902508 (ipc=341.5) sim_rate=165041 (inst/sec) elapsed = 0:0:01:00 / Tue Mar 22 12:47:13 2016
GPGPU-Sim PTX: 10600000 instructions simulated : ctaid=(2,5,0) tid=(14,14,0)
GPGPU-Sim uArch: Shader 6 finished CTA #0 (29041,0), 2 CTAs running
GPGPU-Sim uArch: core:  6, cta: 0 initialized @(29042,0)
GPGPU-Sim uArch: Shader 3 finished CTA #0 (29048,0), 2 CTAs running
GPGPU-Sim uArch: core:  3, cta: 0 initialized @(29049,0)
GPGPU-Sim uArch: Shader 7 finished CTA #0 (29050,0), 2 CTAs running
GPGPU-Sim uArch: core:  7, cta: 0 initialized @(29051,0)
GPGPU-Sim uArch: Shader 2 finished CTA #0 (29053,0), 2 CTAs running
GPGPU-Sim uArch: core:  2, cta: 0 initialized @(29054,0)
GPGPU-Sim PTX: 10700000 instructions simulated : ctaid=(14,5,0) tid=(11,7,0)
GPGPU-Sim uArch: Shader 11 finished CTA #0 (29330,0), 2 CTAs running
GPGPU-Sim uArch: core: 11, cta: 0 initialized @(29331,0)
GPGPU-Sim uArch: Shader 12 finished CTA #2 (29378,0), 2 CTAs running
GPGPU-Sim uArch: core: 12, cta: 2 initialized @(29379,0)
GPGPU-Sim uArch: Shader 13 finished CTA #2 (29420,0), 2 CTAs running
GPGPU-Sim uArch: core: 13, cta: 2 initialized @(29421,0)
GPGPU-Sim PTX: 10800000 instructions simulated : ctaid=(27,5,0) tid=(3,11,0)
GPGPU-Sim uArch: Shader 10 finished CTA #0 (29462,0), 2 CTAs running
GPGPU-Sim uArch: core: 10, cta: 0 initialized @(29463,0)
GPGPU-Sim uArch: cycles simulated: 29500  inst.: 10111792 (ipc=342.8) sim_rate=165767 (inst/sec) elapsed = 0:0:01:01 / Tue Mar 22 12:47:14 2016
GPGPU-Sim PTX: 10900000 instructions simulated : ctaid=(4,5,0) tid=(4,12,0)
GPGPU-Sim PTX: 11000000 instructions simulated : ctaid=(14,5,0) tid=(6,11,0)
GPGPU-Sim uArch: Shader 8 finished CTA #0 (30140,0), 2 CTAs running
GPGPU-Sim uArch: core:  8, cta: 0 initialized @(30141,0)
GPGPU-Sim uArch: Shader 2 finished CTA #2 (30150,0), 2 CTAs running
GPGPU-Sim uArch: core:  2, cta: 2 initialized @(30151,0)
GPGPU-Sim PTX: 11100000 instructions simulated : ctaid=(38,5,0) tid=(7,12,0)
GPGPU-Sim uArch: Shader 0 finished CTA #0 (30176,0), 2 CTAs running
GPGPU-Sim uArch: core:  0, cta: 0 initialized @(30177,0)
GPGPU-Sim uArch: Shader 14 finished CTA #2 (30179,0), 2 CTAs running
GPGPU-Sim uArch: core: 14, cta: 2 initialized @(30180,0)
GPGPU-Sim uArch: Shader 5 finished CTA #2 (30196,0), 2 CTAs running
GPGPU-Sim uArch: core:  5, cta: 2 initialized @(30197,0)
GPGPU-Sim uArch: Shader 3 finished CTA #2 (30228,0), 2 CTAs running
GPGPU-Sim uArch: core:  3, cta: 2 initialized @(30229,0)
GPGPU-Sim uArch: Shader 1 finished CTA #0 (30240,0), 2 CTAs running
GPGPU-Sim uArch: core:  1, cta: 0 initialized @(30241,0)
GPGPU-Sim uArch: Shader 6 finished CTA #2 (30369,0), 2 CTAs running
GPGPU-Sim uArch: core:  6, cta: 2 initialized @(30370,0)
GPGPU-Sim PTX: 11200000 instructions simulated : ctaid=(38,5,0) tid=(8,7,0)
GPGPU-Sim uArch: Shader 4 finished CTA #1 (30436,0), 2 CTAs running
GPGPU-Sim uArch: core:  4, cta: 1 initialized @(30437,0)
GPGPU-Sim uArch: Shader 9 finished CTA #0 (30454,0), 2 CTAs running
GPGPU-Sim uArch: core:  9, cta: 0 initialized @(30455,0)
GPGPU-Sim uArch: cycles simulated: 30500  inst.: 10519056 (ipc=344.9) sim_rate=169662 (inst/sec) elapsed = 0:0:01:02 / Tue Mar 22 12:47:15 2016
GPGPU-Sim uArch: Shader 7 finished CTA #2 (30504,0), 2 CTAs running
GPGPU-Sim uArch: core:  7, cta: 2 initialized @(30505,0)
GPGPU-Sim PTX: 11300000 instructions simulated : ctaid=(12,6,0) tid=(1,7,0)
GPGPU-Sim PTX: 11400000 instructions simulated : ctaid=(24,5,0) tid=(7,4,0)
GPGPU-Sim PTX: 11500000 instructions simulated : ctaid=(34,5,0) tid=(1,2,0)
GPGPU-Sim uArch: cycles simulated: 31000  inst.: 10757164 (ipc=347.0) sim_rate=170748 (inst/sec) elapsed = 0:0:01:03 / Tue Mar 22 12:47:16 2016
GPGPU-Sim PTX: 11600000 instructions simulated : ctaid=(36,5,0) tid=(7,10,0)
GPGPU-Sim uArch: Shader 10 finished CTA #1 (31325,0), 2 CTAs running
GPGPU-Sim uArch: core: 10, cta: 1 initialized @(31326,0)
GPGPU-Sim uArch: Shader 13 finished CTA #1 (31410,0), 2 CTAs running
GPGPU-Sim uArch: core: 13, cta: 1 initialized @(31411,0)
GPGPU-Sim PTX: 11700000 instructions simulated : ctaid=(41,5,0) tid=(8,1,0)
GPGPU-Sim uArch: Shader 11 finished CTA #1 (31459,0), 2 CTAs running
GPGPU-Sim uArch: core: 11, cta: 1 initialized @(31460,0)
GPGPU-Sim uArch: cycles simulated: 31500  inst.: 10955310 (ipc=347.8) sim_rate=171176 (inst/sec) elapsed = 0:0:01:04 / Tue Mar 22 12:47:17 2016
GPGPU-Sim uArch: Shader 12 finished CTA #1 (31502,0), 2 CTAs running
GPGPU-Sim uArch: core: 12, cta: 1 initialized @(31503,0)
GPGPU-Sim PTX: 11800000 instructions simulated : ctaid=(42,5,0) tid=(6,3,0)
GPGPU-Sim uArch: Shader 0 finished CTA #1 (31810,0), 2 CTAs running
GPGPU-Sim uArch: core:  0, cta: 1 initialized @(31811,0)
GPGPU-Sim uArch: Shader 8 finished CTA #2 (31889,0), 2 CTAs running
GPGPU-Sim uArch: core:  8, cta: 2 initialized @(31890,0)
GPGPU-Sim PTX: 11900000 instructions simulated : ctaid=(4,6,0) tid=(5,11,0)
GPGPU-Sim uArch: Shader 14 finished CTA #1 (31931,0), 2 CTAs running
GPGPU-Sim uArch: core: 14, cta: 1 initialized @(31932,0)
GPGPU-Sim uArch: cycles simulated: 32000  inst.: 11160588 (ipc=348.8) sim_rate=171701 (inst/sec) elapsed = 0:0:01:05 / Tue Mar 22 12:47:18 2016
GPGPU-Sim uArch: Shader 5 finished CTA #1 (32160,0), 2 CTAs running
GPGPU-Sim uArch: core:  5, cta: 1 initialized @(32161,0)
GPGPU-Sim PTX: 12000000 instructions simulated : ctaid=(33,5,0) tid=(5,15,0)
GPGPU-Sim uArch: Shader 0 finished CTA #2 (32236,0), 2 CTAs running
GPGPU-Sim uArch: core:  0, cta: 2 initialized @(32237,0)
GPGPU-Sim uArch: Shader 4 finished CTA #0 (32246,0), 2 CTAs running
GPGPU-Sim uArch: core:  4, cta: 0 initialized @(32247,0)
GPGPU-Sim uArch: Shader 9 finished CTA #2 (32256,0), 2 CTAs running
GPGPU-Sim uArch: core:  9, cta: 2 initialized @(32257,0)
GPGPU-Sim uArch: Shader 3 finished CTA #1 (32272,0), 2 CTAs running
GPGPU-Sim uArch: core:  3, cta: 1 initialized @(32273,0)
GPGPU-Sim uArch: Shader 5 finished CTA #0 (32293,0), 2 CTAs running
GPGPU-Sim uArch: core:  5, cta: 0 initialized @(32294,0)
GPGPU-Sim uArch: Shader 1 finished CTA #2 (32312,0), 2 CTAs running
GPGPU-Sim uArch: core:  1, cta: 2 initialized @(32313,0)
GPGPU-Sim uArch: Shader 1 finished CTA #1 (32334,0), 2 CTAs running
GPGPU-Sim uArch: Shader 8 finished CTA #1 (32334,0), 2 CTAs running
GPGPU-Sim uArch: core:  8, cta: 1 initialized @(32335,0)
GPGPU-Sim uArch: core:  1, cta: 1 initialized @(32335,0)
GPGPU-Sim uArch: Shader 9 finished CTA #1 (32341,0), 2 CTAs running
GPGPU-Sim uArch: core:  9, cta: 1 initialized @(32342,0)
GPGPU-Sim uArch: Shader 2 finished CTA #1 (32346,0), 2 CTAs running
GPGPU-Sim uArch: core:  2, cta: 1 initialized @(32347,0)
GPGPU-Sim uArch: Shader 14 finished CTA #0 (32348,0), 2 CTAs running
GPGPU-Sim uArch: core: 14, cta: 0 initialized @(32349,0)
GPGPU-Sim uArch: Shader 7 finished CTA #1 (32466,0), 2 CTAs running
GPGPU-Sim uArch: core:  7, cta: 1 initialized @(32467,0)
GPGPU-Sim uArch: Shader 6 finished CTA #1 (32602,0), 2 CTAs running
GPGPU-Sim PTX: 12100000 instructions simulated : ctaid=(29,5,0) tid=(8,9,0)
GPGPU-Sim uArch: core:  6, cta: 1 initialized @(32603,0)
GPGPU-Sim uArch: Shader 11 finished CTA #2 (32605,0), 2 CTAs running
GPGPU-Sim uArch: core: 11, cta: 2 initialized @(32606,0)
GPGPU-Sim uArch: Shader 12 finished CTA #0 (32662,0), 2 CTAs running
GPGPU-Sim uArch: core: 12, cta: 0 initialized @(32663,0)
GPGPU-Sim PTX: 12200000 instructions simulated : ctaid=(2,6,0) tid=(15,15,0)
GPGPU-Sim uArch: Shader 13 finished CTA #0 (32826,0), 2 CTAs running
GPGPU-Sim uArch: core: 13, cta: 0 initialized @(32827,0)
GPGPU-Sim uArch: Shader 10 finished CTA #2 (32962,0), 2 CTAs running
GPGPU-Sim uArch: core: 10, cta: 2 initialized @(32963,0)
GPGPU-Sim uArch: cycles simulated: 33000  inst.: 11493786 (ipc=348.3) sim_rate=174148 (inst/sec) elapsed = 0:0:01:06 / Tue Mar 22 12:47:19 2016
GPGPU-Sim PTX: 12300000 instructions simulated : ctaid=(3,6,0) tid=(8,15,0)
GPGPU-Sim PTX: 12400000 instructions simulated : ctaid=(4,6,0) tid=(5,14,0)
GPGPU-Sim PTX: 12500000 instructions simulated : ctaid=(9,6,0) tid=(9,7,0)
GPGPU-Sim uArch: cycles simulated: 33500  inst.: 11714664 (ipc=349.7) sim_rate=174845 (inst/sec) elapsed = 0:0:01:07 / Tue Mar 22 12:47:20 2016
GPGPU-Sim PTX: 12600000 instructions simulated : ctaid=(8,6,0) tid=(5,4,0)
GPGPU-Sim PTX: 12700000 instructions simulated : ctaid=(40,6,0) tid=(1,3,0)
GPGPU-Sim PTX: 12800000 instructions simulated : ctaid=(7,6,0) tid=(10,9,0)
GPGPU-Sim uArch: Shader 14 finished CTA #2 (34423,0), 2 CTAs running
GPGPU-Sim uArch: core: 14, cta: 2 initialized @(34424,0)
GPGPU-Sim uArch: Shader 4 finished CTA #2 (34444,0), 2 CTAs running
GPGPU-Sim uArch: core:  4, cta: 2 initialized @(34445,0)
GPGPU-Sim PTX: 12900000 instructions simulated : ctaid=(17,6,0) tid=(15,0,0)
GPGPU-Sim uArch: Shader 7 finished CTA #0 (34470,0), 2 CTAs running
GPGPU-Sim uArch: core:  7, cta: 0 initialized @(34471,0)
GPGPU-Sim uArch: Shader 6 finished CTA #0 (34479,0), 2 CTAs running
GPGPU-Sim uArch: core:  6, cta: 0 initialized @(34480,0)
GPGPU-Sim uArch: Shader 2 finished CTA #0 (34489,0), 2 CTAs running
GPGPU-Sim uArch: Shader 11 finished CTA #0 (34489,0), 2 CTAs running
GPGPU-Sim uArch: core: 11, cta: 0 initialized @(34490,0)
GPGPU-Sim uArch: core:  2, cta: 0 initialized @(34490,0)
GPGPU-Sim uArch: Shader 3 finished CTA #0 (34498,0), 2 CTAs running
GPGPU-Sim uArch: core:  3, cta: 0 initialized @(34499,0)
GPGPU-Sim uArch: cycles simulated: 34500  inst.: 12077092 (ipc=350.1) sim_rate=177604 (inst/sec) elapsed = 0:0:01:08 / Tue Mar 22 12:47:21 2016
GPGPU-Sim uArch: Shader 12 finished CTA #2 (34521,0), 2 CTAs running
GPGPU-Sim uArch: core: 12, cta: 2 initialized @(34522,0)
GPGPU-Sim uArch: Shader 13 finished CTA #2 (34552,0), 2 CTAs running
GPGPU-Sim uArch: core: 13, cta: 2 initialized @(34553,0)
GPGPU-Sim uArch: Shader 0 finished CTA #0 (34575,0), 2 CTAs running
GPGPU-Sim uArch: core:  0, cta: 0 initialized @(34576,0)
GPGPU-Sim uArch: Shader 8 finished CTA #0 (34591,0), 2 CTAs running
GPGPU-Sim uArch: core:  8, cta: 0 initialized @(34592,0)
GPGPU-Sim uArch: Shader 1 finished CTA #0 (34606,0), 2 CTAs running
GPGPU-Sim uArch: core:  1, cta: 0 initialized @(34607,0)
GPGPU-Sim uArch: Shader 5 finished CTA #2 (34612,0), 2 CTAs running
GPGPU-Sim uArch: core:  5, cta: 2 initialized @(34613,0)
GPGPU-Sim uArch: Shader 10 finished CTA #0 (34658,0), 2 CTAs running
GPGPU-Sim uArch: core: 10, cta: 0 initialized @(34659,0)
GPGPU-Sim PTX: 13000000 instructions simulated : ctaid=(19,6,0) tid=(7,7,0)
GPGPU-Sim uArch: Shader 9 finished CTA #0 (34768,0), 2 CTAs running
GPGPU-Sim uArch: core:  9, cta: 0 initialized @(34769,0)
GPGPU-Sim PTX: 13100000 instructions simulated : ctaid=(23,6,0) tid=(13,7,0)
GPGPU-Sim uArch: cycles simulated: 35000  inst.: 12288214 (ipc=351.1) sim_rate=178090 (inst/sec) elapsed = 0:0:01:09 / Tue Mar 22 12:47:22 2016
GPGPU-Sim PTX: 13200000 instructions simulated : ctaid=(26,6,0) tid=(12,6,0)
GPGPU-Sim PTX: 13300000 instructions simulated : ctaid=(30,6,0) tid=(7,7,0)
GPGPU-Sim uArch: cycles simulated: 35500  inst.: 12516970 (ipc=352.6) sim_rate=178813 (inst/sec) elapsed = 0:0:01:10 / Tue Mar 22 12:47:23 2016
GPGPU-Sim PTX: 13400000 instructions simulated : ctaid=(30,6,0) tid=(1,7,0)
GPGPU-Sim uArch: Shader 2 finished CTA #2 (35615,0), 2 CTAs running
GPGPU-Sim uArch: core:  2, cta: 2 initialized @(35616,0)
GPGPU-Sim uArch: Shader 4 finished CTA #1 (35761,0), 2 CTAs running
GPGPU-Sim uArch: core:  4, cta: 1 initialized @(35762,0)
GPGPU-Sim PTX: 13500000 instructions simulated : ctaid=(8,7,0) tid=(11,7,0)
GPGPU-Sim uArch: Shader 7 finished CTA #2 (35778,0), 2 CTAs running
GPGPU-Sim uArch: core:  7, cta: 2 initialized @(35779,0)
GPGPU-Sim uArch: Shader 3 finished CTA #2 (35859,0), 2 CTAs running
GPGPU-Sim uArch: core:  3, cta: 2 initialized @(35860,0)
GPGPU-Sim uArch: Shader 6 finished CTA #2 (35907,0), 2 CTAs running
GPGPU-Sim uArch: core:  6, cta: 2 initialized @(35908,0)
GPGPU-Sim uArch: Shader 2 finished CTA #1 (35918,0), 2 CTAs running
GPGPU-Sim uArch: core:  2, cta: 1 initialized @(35919,0)
GPGPU-Sim uArch: Shader 7 finished CTA #1 (35951,0), 2 CTAs running
GPGPU-Sim uArch: core:  7, cta: 1 initialized @(35952,0)
GPGPU-Sim uArch: cycles simulated: 36000  inst.: 12713766 (ipc=353.2) sim_rate=179067 (inst/sec) elapsed = 0:0:01:11 / Tue Mar 22 12:47:24 2016
GPGPU-Sim PTX: 13600000 instructions simulated : ctaid=(40,6,0) tid=(5,1,0)
GPGPU-Sim uArch: Shader 6 finished CTA #1 (36043,0), 2 CTAs running
GPGPU-Sim uArch: core:  6, cta: 1 initialized @(36044,0)
[...]
gpgpu_stall_shd_mem[l_mem_ld][wb_rsrv_fail] = 0
gpu_reg_bank_conflict_stalls = 0
Warp Occupancy Distribution:
Stall:183802	W0_Idle:155494	W0_Scoreboard:2498680	W1:0	W2:0	W3:0	W4:0	W5:0	W6:0	W7:0	W8:0	W9:5814	W10:0	W11:0	W12:0	W13:5986	W14:221808	W15:0	W16:0	W17:0	W18:17752	W19:0	W20:6132	W21:0	W22:0	W23:0	W24:0	W25:0	W26:18268	W27:0	W28:727950	W29:0	W30:59168	W31:0	W32:1663412
traffic_breakdown_coretomem[CONST_ACC_R] = 120 {8:15,}
traffic_breakdown_coretomem[GLOBAL_ACC_R] = 469008 {8:58626,}
traffic_breakdown_coretomem[GLOBAL_ACC_W] = 2162688 {40:8704,72:9728,136:8192,}
traffic_breakdown_coretomem[INST_ACC_R] = 1680 {8:210,}
traffic_breakdown_memtocore[CONST_ACC_R] = 1080 {72:15,}
traffic_breakdown_memtocore[GLOBAL_ACC_R] = 7973136 {136:58626,}
traffic_breakdown_memtocore[GLOBAL_ACC_W] = 212992 {8:26624,}
traffic_breakdown_memtocore[INST_ACC_R] = 28560 {136:210,}
maxmrqlatency = 239 
maxdqlatency = 0 
maxmflatency = 648 
averagemflatency = 222 
max_icnt2mem_latency = 140 
max_icnt2sh_latency = 176874 
mrq_lat_table:19673 	2325 	1875 	3647 	8066 	4874 	2610 	463 	0 	0 	0 	0 	0 	0 	0 	0 	0 	0 	0 	0 	0 	0 	0 	0 	0 	0 	0 	0 	0 	0 	0 	0 	
dq_lat_table:0 	0 	0 	0 	0 	0 	0 	0 	0 	0 	0 	0 	0 	0 	0 	0 	0 	0 	0 	0 	0 	0 	0 	0 	0 	0 	0 	0 	0 	0 	0 	0 	
mf_lat_table:0 	0 	0 	0 	0 	0 	0 	51621 	33414 	230 	0 	0 	0 	0 	0 	0 	0 	0 	0 	0 	0 	0 	0 	0 	0 	0 	0 	0 	0 	0 	0 	0 	
icnt2mem_lat_table:0 	0 	0 	53250 	10564 	18011 	3642 	8 	0 	0 	0 	0 	0 	0 	0 	0 	0 	0 	0 	0 	0 	0 	0 	0 	
icnt2sh_lat_table:0 	0 	0 	19313 	30931 	8204 	193 	0 	0 	0 	0 	0 	527 	1171 	2578 	5024 	10281 	7043 	0 	0 	0 	0 	0 	0 	
mf_lat_pw_table:0 	0 	0 	0 	0 	0 	0 	329 	21 	0 	0 	0 	0 	0 	0 	0 	0 	0 	0 	0 	0 	0 	0 	0 	0 	0 	0 	0 	0 	0 	0 	0 	
maximum concurrent accesses to same row:
dram[0]:       113       100        94        93       104        83       114        83        91        86        89        86        87        78        97        93 
dram[1]:       115        99        88        93        86        92       102        90        97        99        97        73       100        82        87        83 
dram[2]:       102       112        92        95        81       106        84       113        89        89        85        94        79        90        96        97 
dram[3]:        97       109        94        85        91        89        86        98        93        96        73        95        85       100        84        90 
dram[4]:       115       100        92        91       105        85       116        83        91        87        88        85        88        79        97        95 
dram[5]:       110        96        87        94        85        91       101        87        99       100        91        73       100        83        92        84 
maximum service time to same row:
dram[0]:     22307     22641     20719     21837     22371     22610     27200     27543     22965     25269     23535     22033     27600     25204     27449     25758 
dram[1]:     22393     21907     20930     22138     21847     22559     27694     27119     23009     23068     23437     22088     26135     26594     26164     25738 
dram[2]:     22612     21894     21863     20784     22718     22507     27550     27196     22873     26928     22511     23351     25513     27595     25790     27457 
dram[3]:     21903     21639     22044     20978     22791     21927     27077     27695     22774     27000     22877     23452     26725     26153     25985     26160 
dram[4]:     22462     22489     22190     21959     21273     22831     27207     27565     23437     27260     23565     22515     25956     25542     27405     25806 
dram[5]:     23489     21937     22281     22112     20544     22825     27698     27039     25071     26545     23434     22875     25112     26723     26106     25998 
average row accesses per activate:
dram[0]:  9.037037  6.253334  5.974684  5.517647  6.164557  4.636364  6.718310  5.973684  6.430555  5.535714  4.919540  4.371134  4.588889  3.867924  5.387500  4.677778 
dram[1]:  7.892308  6.166667  4.520000  5.716049  4.840425  6.050633  5.375000  5.780488  5.454545  5.829268  4.649485  4.288660  5.132530  5.139241  4.322917  4.521739 
dram[2]:  6.236842  8.344828  5.707317  6.465754  5.000000  6.447369  5.404762  8.084745  5.222222  5.800000  4.237624  5.180723  3.923077  4.322917  4.850574  5.487179 
dram[3]:  6.126582  6.671052  5.911392  4.747368  5.888889  4.882979  5.436781  4.816327  5.386364  5.865854  4.696629  4.474748  5.272727  4.965117  4.521739  4.316327 
dram[4]:  8.909091  5.862500  6.103896  5.595238  6.594594  4.534654  8.101695  5.279070  5.897436  5.318182  5.144578  4.402062  4.916667  3.587719  5.142857  4.795455 
dram[5]:  7.391304  6.328948  4.808511  5.453488  5.055555  6.302631  5.042553  5.686747  5.239130  6.089744  4.652632  4.268041  5.283951  4.632184  4.395833  4.571429 
average row locality = 43533/8140 = 5.348034
number of total memory accesses made:
dram[0]:         0         0         0         0         0         0         0         0         0         0         0         0         0         0         0         0 
dram[1]:         0         0         0         0         0         0         0         0         0         0         0         0         0         0         0         0 
dram[2]:         0         0         0         0         0         0         0         0         0         0         0         0         0         0         0         0 
dram[3]:         0         0         0         0         0         0         0         0         0         0         0         0         0         0         0         0 
dram[4]:         0         0         0         0         0         0         0         0         0         0         0         0         0         0         0         0 
dram[5]:         0         0         0         0         0         0         0         0         0         0         0         0         0         0         0         0 
total accesses: 0
min_bank_accesses = 0!
min_chip_accesses = 0!
number of total read accesses:
dram[0]:       259       257       256       256       256       256       256       256       256       256       256       256       256       256       256       256 
dram[1]:       258       257       256       256       256       256       256       256       256       256       256       256       256       256       256       256 
dram[2]:       258       256       256       256       256       256       256       256       256       256       256       256       256       256       256       256 
dram[3]:       258       256       256       256       256       256       256       256       256       256       256       256       256       256       256       256 
dram[4]:       258       256       256       256       256       256       256       256       256       256       256       256       256       256       256       256 
dram[5]:       258       256       256       256       256       256       256       256       256       256       256       256       256       256       256       256 
total reads: 24591
bank skew: 259/256 = 1.01
chip skew: 4100/4098 = 1.00
number of total write accesses:
dram[0]:       229       212       216       213       231       203       221       198       207       209       172       168       157       154       175       165 
dram[1]:       255       224       196       207       199       222       217       218       224       222       195       160       170       150       159       160 
dram[2]:       216       228       212       216       199       234       198       221       214       208       172       174       152       159       166       172 
dram[3]:       226       251       211       195       221       203       217       216       218       225       162       187       150       171       160       167 
dram[4]:       232       213       214       214       232       202       222       198       204       212       171       171       157       153       176       166 
dram[5]:       252       225       196       213       199       223       218       216       226       219       186       158       172       147       166       160 
total reads: 18942
bank skew: 255/147 = 1.73
chip skew: 3180/3130 = 1.02
average mf latency per bank:
dram[0]:        407       431       393       419       391       431       404       438       398       418       426       462       436       465       430       472
dram[1]:        429       414       453       424       452       415       454       425       424       410       465       462       482       475       484       460
dram[2]:        433       399       419       388       431       393       430       403       411       402       458       427       471       439       465       437
dram[3]:        403       429       421       454       421       456       410       457       408       431       453       466       471       480       459       481
dram[4]:        398       430       391       420       392       427       407       423       403       416       431       459       438       471       439       460
dram[5]:        430       413       454       425       456       418       456       421       434       412       478       456       481       480       483       459
maximum mf latency per bank:
dram[0]:        620       635       394       469       484       505       555       630       500       441       474       505       484       421       498       539
dram[1]:        643       533       413       509       443       506       506       536       497       421       440       372       403       426       437       507
dram[2]:        616       528       582       373       499       476       548       557       456       440       516       515       491       496       473       474
dram[3]:        497       544       552       426       556       441       579       619       454       492       424       412       401       389       467       471
dram[4]:        571       611       396       515       535       470       603       493       499       438       515       490       452       490       539       455
dram[5]:        553       497       424       516       488       648       560       565       483       458       393       417       390       394       529       474

Number of Memory Banks Accessed per Memory Operation per Warp (from 0):
0	0	0	0	0	0	0	0	0	0	0	0	0	0	0	0	0	0	0	0	0	0	0	0	0	0	0	0	0	0	0	0	0	0	0	0	0	0	0	0	0	0	0	0	0	0	0	0	0	0	0	0	0	0	0	0	0	0	0	0	0	0	0	0	0	0	0	0	0	0	0	0	0	0	0	0	0	0	0	0	0	0	0	0	0	0	0	0	0	0	0	0	0	0	0	0	
Average # of Memory Banks Accessed per Memory Operation per Warp=-nan

position of mrq chosen
0	0	0	0	0	0	0	0	0	0	0	0	0	0	0	0	

average position of mrq chosen = -nan
Memory Partition 0: 
Cache L2_bank_000:
MSHR contents

Cache L2_bank_001:
MSHR contents

In Dram Latency Queue (total = 0): 
DRAM[0]: 16 bks, busW=4 BL=8 CL=12, tRRD=2 tCCD=6, tRCD=12 tRAS=28 tRP=12 tRC=40
n_cmd=245093 n_nop=229432 n_act=1324 n_pre=1308 n_req=7230 n_rd=8200 n_write=4829 bw_util=0.1063
n_activity=102471 dram_eff=0.2543
bk0: 518a 239113i bk1: 514a 238052i bk2: 512a 238761i bk3: 512a 238281i bk4: 512a 238595i bk5: 512a 237883i bk6: 512a 238741i bk7: 512a 238400i bk8: 512a 238868i bk9: 512a 238391i bk10: 512a 239014i bk11: 512a 238524i bk12: 512a 239022i bk13: 512a 238360i bk14: 512a 239070i bk15: 512a 238768i 
dram_util_bins: 0 0 0 0 0 0 0 0 0 0
dram_eff_bins: 0 0 0 0 0 0 0 0 0 0
mrqq: max=16 avg=0.675935
Memory Partition 1: 
Cache L2_bank_002:
MSHR contents

Cache L2_bank_003:
MSHR contents

In Dram Latency Queue (total = 0): 
DRAM[1]: 16 bks, busW=4 BL=8 CL=12, tRRD=2 tCCD=6, tRCD=12 tRAS=28 tRP=12 tRC=40
n_cmd=245093 n_nop=229343 n_act=1381 n_pre=1365 n_req=7277 n_rd=8198 n_write=4806 bw_util=0.1061
n_activity=100444 dram_eff=0.2589
bk0: 516a 238360i bk1: 514a 237887i bk2: 512a 237660i bk3: 512a 238056i bk4: 512a 238250i bk5: 512a 238208i bk6: 512a 238171i bk7: 512a 238113i bk8: 512a 238208i bk9: 512a 238555i bk10: 512a 238430i bk11: 512a 238608i bk12: 512a 239311i bk13: 512a 239263i bk14: 512a 238890i bk15: 512a 238763i 
dram_util_bins: 0 0 0 0 0 0 0 0 0 0
dram_eff_bins: 0 0 0 0 0 0 0 0 0 0
mrqq: max=16 avg=0.634886
Memory Partition 2: 
Cache L2_bank_004:
MSHR contents

Cache L2_bank_005:
MSHR contents

In Dram Latency Queue (total = 0): 
DRAM[2]: 16 bks, busW=4 BL=8 CL=12, tRRD=2 tCCD=6, tRCD=12 tRAS=28 tRP=12 tRC=40
n_cmd=245093 n_nop=229430 n_act=1318 n_pre=1302 n_req=7239 n_rd=8196 n_write=4847 bw_util=0.1064
n_activity=102361 dram_eff=0.2548
bk0: 516a 238261i bk1: 512a 238902i bk2: 512a 238467i bk3: 512a 239021i bk4: 512a 238020i bk5: 512a 238631i bk6: 512a 238512i bk7: 512a 238901i bk8: 512a 238265i bk9: 512a 238477i bk10: 512a 238540i bk11: 512a 238925i bk12: 512a 238690i bk13: 512a 238721i bk14: 512a 238752i bk15: 512a 239082i 
dram_util_bins: 0 0 0 0 0 0 0 0 0 0
dram_eff_bins: 0 0 0 0 0 0 0 0 0 0
mrqq: max=16 avg=0.696405
Memory Partition 3: 
Cache L2_bank_006:
MSHR contents

Cache L2_bank_007:
MSHR contents

In Dram Latency Queue (total = 0): 
DRAM[3]: 16 bks, busW=4 BL=8 CL=12, tRRD=2 tCCD=6, tRCD=12 tRAS=28 tRP=12 tRC=40
n_cmd=245093 n_nop=229301 n_act=1400 n_pre=1384 n_req=7278 n_rd=8196 n_write=4812 bw_util=0.1061
n_activity=101208 dram_eff=0.2571
bk0: 516a 238019i bk1: 512a 238009i bk2: 512a 238079i bk3: 512a 237976i bk4: 512a 238263i bk5: 512a 238072i bk6: 512a 238074i bk7: 512a 237805i bk8: 512a 238254i bk9: 512a 238452i bk10: 512a 238855i bk11: 512a 238615i bk12: 512a 239184i bk13: 512a 239282i bk14: 512a 238747i bk15: 512a 238597i 
dram_util_bins: 0 0 0 0 0 0 0 0 0 0
dram_eff_bins: 0 0 0 0 0 0 0 0 0 0
mrqq: max=16 avg=0.630899
Memory Partition 4: 
Cache L2_bank_008:
MSHR contents

Cache L2_bank_009:
MSHR contents

In Dram Latency Queue (total = 0): 
DRAM[4]: 16 bks, busW=4 BL=8 CL=12, tRRD=2 tCCD=6, tRCD=12 tRAS=28 tRP=12 tRC=40
n_cmd=245093 n_nop=229418 n_act=1332 n_pre=1316 n_req=7235 n_rd=8196 n_write=4831 bw_util=0.1063
n_activity=102597 dram_eff=0.2539
bk0: 516a 239115i bk1: 512a 238006i bk2: 512a 238765i bk3: 512a 238411i bk4: 512a 238699i bk5: 512a 237763i bk6: 512a 239052i bk7: 512a 238235i bk8: 512a 238636i bk9: 512a 238172i bk10: 512a 239197i bk11: 512a 238451i bk12: 512a 239255i bk13: 512a 238191i bk14: 512a 238789i bk15: 512a 238772i 
dram_util_bins: 0 0 0 0 0 0 0 0 0 0
dram_eff_bins: 0 0 0 0 0 0 0 0 0 0
mrqq: max=16 avg=0.691799
Memory Partition 5: 
Cache L2_bank_010:
MSHR contents

Cache L2_bank_011:
MSHR contents

In Dram Latency Queue (total = 0): 
DRAM[5]: 16 bks, busW=4 BL=8 CL=12, tRRD=2 tCCD=6, tRCD=12 tRAS=28 tRP=12 tRC=40
n_cmd=245093 n_nop=229328 n_act=1385 n_pre=1369 n_req=7274 n_rd=8196 n_write=4815 bw_util=0.1062
n_activity=99850 dram_eff=0.2606
bk0: 516a 238087i bk1: 512a 238191i bk2: 512a 237797i bk3: 512a 237937i bk4: 512a 238268i bk5: 512a 238377i bk6: 512a 237801i bk7: 512a 238140i bk8: 512a 238050i bk9: 512a 238637i bk10: 512a 238637i bk11: 512a 238540i bk12: 512a 239259i bk13: 512a 238822i bk14: 512a 238681i bk15: 512a 238642i 
dram_util_bins: 0 0 0 0 0 0 0 0 0 0
dram_eff_bins: 0 0 0 0 0 0 0 0 0 0
mrqq: max=16 avg=0.650594

========= L2 cache stats =========
L2_cache_bank[0]: Access = 6647, Miss = 2051, Miss_rate = 0.309, Pending_hits = 1238, Reservation_fails = 342
L2_cache_bank[1]: Access = 7114, Miss = 2049, Miss_rate = 0.288, Pending_hits = 1040, Reservation_fails = 112
L2_cache_bank[2]: Access = 7692, Miss = 2050, Miss_rate = 0.267, Pending_hits = 1184, Reservation_fails = 199
L2_cache_bank[3]: Access = 7062, Miss = 2049, Miss_rate = 0.290, Pending_hits = 1123, Reservation_fails = 99
L2_cache_bank[4]: Access = 7134, Miss = 2050, Miss_rate = 0.287, Pending_hits = 1049, Reservation_fails = 125
L2_cache_bank[5]: Access = 6606, Miss = 2048, Miss_rate = 0.310, Pending_hits = 1227, Reservation_fails = 0
L2_cache_bank[6]: Access = 7071, Miss = 2050, Miss_rate = 0.290, Pending_hits = 1114, Reservation_fails = 195
L2_cache_bank[7]: Access = 7665, Miss = 2048, Miss_rate = 0.267, Pending_hits = 1204, Reservation_fails = 0
L2_cache_bank[8]: Access = 6626, Miss = 2050, Miss_rate = 0.309, Pending_hits = 1215, Reservation_fails = 184
L2_cache_bank[9]: Access = 7095, Miss = 2048, Miss_rate = 0.289, Pending_hits = 1046, Reservation_fails = 0
L2_cache_bank[10]: Access = 7703, Miss = 2050, Miss_rate = 0.266, Pending_hits = 1193, Reservation_fails = 189
L2_cache_bank[11]: Access = 7060, Miss = 2048, Miss_rate = 0.290, Pending_hits = 1112, Reservation_fails = 0
L2_total_cache_accesses = 85475
L2_total_cache_misses = 24591
L2_total_cache_miss_rate = 0.2877
L2_total_cache_pending_hits = 13745
L2_total_cache_reservation_fails = 1445
L2_total_cache_breakdown:
	L2_cache_stats_breakdown[GLOBAL_ACC_R][HIT] = 34165
	L2_cache_stats_breakdown[GLOBAL_ACC_R][HIT_RESERVED] = 8077
	L2_cache_stats_breakdown[GLOBAL_ACC_R][MISS] = 16384
	L2_cache_stats_breakdown[CONST_ACC_R][HIT] = 11
	L2_cache_stats_breakdown[CONST_ACC_R][HIT_RESERVED] = 3
	L2_cache_stats_breakdown[CONST_ACC_R][MISS] = 1
	L2_cache_stats_breakdown[CONST_ACC_R][RESERVATION_FAIL] = 109
	L2_cache_stats_breakdown[GLOBAL_ACC_W][HIT] = 12809
	L2_cache_stats_breakdown[GLOBAL_ACC_W][HIT_RESERVED] = 5623
	L2_cache_stats_breakdown[GLOBAL_ACC_W][MISS] = 8192
	L2_cache_stats_breakdown[INST_ACC_R][HIT] = 154
	L2_cache_stats_breakdown[INST_ACC_R][HIT_RESERVED] = 42
	L2_cache_stats_breakdown[INST_ACC_R][MISS] = 14
	L2_cache_stats_breakdown[INST_ACC_R][RESERVATION_FAIL] = 1336
L2_cache_data_port_util = 0.083
L2_cache_fill_port_util = 0.044

icnt_total_pkts_mem_to_simt=320849
icnt_total_pkts_simt_to_mem=146403
LD_mem_lat_dist  0 0 0 0 0 0 0 0 0 0 0 0 0 0 0 0 0 0 0 0 0 0 0 0 0 0 0
ST_mem_lat_dist  0 0 0 0 0 0 0 0 0 0 0 0 0 0 0 0 0 0 0 0 0 0 0 0 0 0 0
----------------------------Interconnect-DETAILS--------------------------------
Class 0:
Packet latency average = 15.5365
	minimum = 6
	maximum = 104
Network latency average = 12.8388
	minimum = 6
	maximum = 95
Slowest packet = 7366
Flit latency average = 11.6588
	minimum = 6
	maximum = 95
Slowest flit = 332669
Fragmentation average = 0
	minimum = 0
	maximum = 0
Injected packet rate average = 0.0340994
	minimum = 0.0291205 (at node 2)
	maximum = 0.041486 (at node 25)
Accepted packet rate average = 0.0340994
	minimum = 0.0291205 (at node 2)
	maximum = 0.041486 (at node 25)
Injected flit rate average = 0.0932029
	minimum = 0.0508894 (at node 11)
	maximum = 0.156007 (at node 25)
Accepted flit rate average= 0.0932029
	minimum = 0.0631258 (at node 20)
	maximum = 0.126623 (at node 8)
Injected packet length average = 2.73327
Accepted packet length average = 2.73327
Total in-flight flits = 0 (0 measured)
====== Overall Traffic Statistics ======
====== Traffic class 0 ======
Packet latency average = 15.5365 (1 samples)
	minimum = 6 (1 samples)
	maximum = 104 (1 samples)
Network latency average = 12.8388 (1 samples)
	minimum = 6 (1 samples)
	maximum = 95 (1 samples)
Flit latency average = 11.6588 (1 samples)
	minimum = 6 (1 samples)
	maximum = 95 (1 samples)
Fragmentation average = 0 (1 samples)
	minimum = 0 (1 samples)
	maximum = 0 (1 samples)
Injected packet rate average = 0.0340994 (1 samples)
	minimum = 0.0291205 (1 samples)
	maximum = 0.041486 (1 samples)
Accepted packet rate average = 0.0340994 (1 samples)
	minimum = 0.0291205 (1 samples)
	maximum = 0.041486 (1 samples)
Injected flit rate average = 0.0932029 (1 samples)
	minimum = 0.0508894 (1 samples)
	maximum = 0.156007 (1 samples)
Accepted flit rate average = 0.0932029 (1 samples)
	minimum = 0.0631258 (1 samples)
	maximum = 0.126623 (1 samples)
Injected packet size average = 2.73327 (1 samples)
Accepted packet size average = 2.73327 (1 samples)
Hops average = 1 (1 samples)
----------------------------END-of-Interconnect-DETAILS-------------------------


gpgpu_simulation_time = 0 days, 0 hrs, 4 min, 57 sec (297 sec)
gpgpu_simulation_rate = 250302 (inst/sec)
gpgpu_simulation_rate = 625 (cycle/sec)
