

        *** GPGPU-Sim Simulator Version 3.2.2  [build 0] ***


GPGPU-Sim PTX: simulation mode 0 (can change with PTX_SIM_MODE_FUNC environment variable:
               1=functional simulation only, 0=detailed performance simulator)
GPGPU-Sim: Configuration options:

-network_mode                           1 # Interconnection network mode
-inter_config_file   config_fermi_islip.icnt # Interconnection network config file
-gpgpu_ptx_use_cuobjdump                    1 # Use cuobjdump to extract ptx and sass from binaries
-gpgpu_experimental_lib_support                    0 # Try to extract code from cuda libraries [Broken because of unknown cudaGetExportTable]
-gpgpu_ptx_convert_to_ptxplus                    0 # Convert SASS (native ISA) to ptxplus and run ptxplus
-gpgpu_ptx_force_max_capability                   20 # Force maximum compute capability
-gpgpu_ptx_inst_debug_to_file                    0 # Dump executed instructions' debug information to file
-gpgpu_ptx_inst_debug_file       inst_debug.txt # Executed instructions' debug output file
-gpgpu_ptx_inst_debug_thread_uid                    1 # Thread UID for executed instructions' debug output
-gpgpu_simd_model                       1 # 1 = post-dominator
-gpgpu_shader_core_pipeline              1536:32 # shader core pipeline config, i.e., {<nthread>:<warpsize>}
-gpgpu_tex_cache:l1  4:128:24,L:R:m:N:L,F:128:4,128:2 # per-shader L1 texture cache  (READ-ONLY) config  {<nsets>:<bsize>:<assoc>,<rep>:<wr>:<alloc>:<wr_alloc>,<mshr>:<N>:<merge>,<mq>:<rf>}
-gpgpu_const_cache:l1 64:64:2,L:R:f:N:L,A:2:32,4 # per-shader L1 constant memory cache  (READ-ONLY) config  {<nsets>:<bsize>:<assoc>,<rep>:<wr>:<alloc>:<wr_alloc>,<mshr>:<N>:<merge>,<mq>} 
-gpgpu_cache:il1     4:128:4,L:R:f:N:L,A:2:32,4 # shader L1 instruction cache config  {<nsets>:<bsize>:<assoc>,<rep>:<wr>:<alloc>:<wr_alloc>,<mshr>:<N>:<merge>,<mq>} 
-gpgpu_cache:dl1     32:128:4,L:L:m:N:H,A:32:8,8:2,0,1:0:1:1:0:1,1:4:8:16:32:64,/sciclone/data10/hwang07/GPU_RESEARCH/swl/swl_outputs/RESULTS/swl1/ # per-shader L1 data cache config  {<nsets>:<bsize>:<assoc>,<rep>:<wr>:<alloc>:<wr_alloc>,<mshr>:<N>:<merge>,<mq> | none}
-gpgpu_cache:dl1PrefL1                 none # per-shader L1 data cache config  {<nsets>:<bsize>:<assoc>,<rep>:<wr>:<alloc>:<wr_alloc>,<mshr>:<N>:<merge>,<mq> | none}
-gpgpu_cache:dl1PreShared                 none # per-shader L1 data cache config  {<nsets>:<bsize>:<assoc>,<rep>:<wr>:<alloc>:<wr_alloc>,<mshr>:<N>:<merge>,<mq> | none}
-gmem_skip_L1D                          0 # global memory access skip L1D cache (implements -Xptxas -dlcm=cg, default=no skip)
-gpgpu_perfect_mem                      0 # enable perfect memory mode (no cache miss)
-n_regfile_gating_group                    4 # group of lanes that should be read/written together)
-gpgpu_clock_gated_reg_file                    0 # enable clock gated reg file for power calculations
-gpgpu_clock_gated_lanes                    0 # enable clock gated lanes for power calculations
-gpgpu_shader_registers                32768 # Number of registers per shader core. Limits number of concurrent CTAs. (default 8192)
-gpgpu_shader_cta                       8 # Maximum number of concurrent CTAs in shader (default 8)
-gpgpu_num_cta_barriers                   16 # Maximum number of named barriers per CTA (default 16)
-gpgpu_n_clusters                      15 # number of processing clusters
-gpgpu_n_cores_per_cluster                    1 # number of simd cores per cluster
-gpgpu_n_cluster_ejection_buffer_size                    8 # number of packets in ejection buffer
-gpgpu_n_ldst_response_buffer_size                    2 # number of response packets in ld/st unit ejection buffer
-gpgpu_shmem_size                   16384 # Size of shared memory per shader core (default 16kB)
-gpgpu_shmem_size                   49152 # Size of shared memory per shader core (default 16kB)
-gpgpu_shmem_size_PrefL1                16384 # Size of shared memory per shader core (default 16kB)
-gpgpu_shmem_size_PrefShared                16384 # Size of shared memory per shader core (default 16kB)
-gpgpu_shmem_num_banks                   32 # Number of banks in the shared memory in each shader core (default 16)
-gpgpu_shmem_limited_broadcast                    0 # Limit shared memory to do one broadcast per cycle (default on)
-gpgpu_shmem_warp_parts                    1 # Number of portions a warp is divided into for shared memory bank conflict check 
-gpgpu_warpdistro_shader                   -1 # Specify which shader core to collect the warp size distribution from
-gpgpu_warp_issue_shader                    0 # Specify which shader core to collect the warp issue distribution from
-gpgpu_local_mem_map                    1 # Mapping from local memory space address to simulated GPU physical address space (default = enabled)
-gpgpu_num_reg_banks                   16 # Number of register banks (default = 8)
-gpgpu_reg_bank_use_warp_id                    0 # Use warp ID in mapping registers to banks (default = off)
-gpgpu_operand_collector_num_units_sp                    6 # number of collector units (default = 4)
-gpgpu_operand_collector_num_units_sfu                    8 # number of collector units (default = 4)
-gpgpu_operand_collector_num_units_mem                    2 # number of collector units (default = 2)
-gpgpu_operand_collector_num_units_gen                    0 # number of collector units (default = 0)
-gpgpu_operand_collector_num_in_ports_sp                    2 # number of collector unit in ports (default = 1)
-gpgpu_operand_collector_num_in_ports_sfu                    1 # number of collector unit in ports (default = 1)
-gpgpu_operand_collector_num_in_ports_mem                    1 # number of collector unit in ports (default = 1)
-gpgpu_operand_collector_num_in_ports_gen                    0 # number of collector unit in ports (default = 0)
-gpgpu_operand_collector_num_out_ports_sp                    2 # number of collector unit in ports (default = 1)
-gpgpu_operand_collector_num_out_ports_sfu                    1 # number of collector unit in ports (default = 1)
-gpgpu_operand_collector_num_out_ports_mem                    1 # number of collector unit in ports (default = 1)
-gpgpu_operand_collector_num_out_ports_gen                    0 # number of collector unit in ports (default = 0)
-gpgpu_coalesce_arch                   13 # Coalescing arch (default = 13, anything else is off for now)
-gpgpu_num_sched_per_core                    2 # Number of warp schedulers per core
-gpgpu_max_insn_issue_per_warp                    1 # Max number of instructions that can be issued per warp in one cycle by scheduler
-gpgpu_simt_core_sim_order                    1 # Select the simulation order of cores in a cluster (0=Fix, 1=Round-Robin)
-gpgpu_pipeline_widths        2,1,1,2,1,1,2 # Pipeline widths ID_OC_SP,ID_OC_SFU,ID_OC_MEM,OC_EX_SP,OC_EX_SFU,OC_EX_MEM,EX_WB
-gpgpu_num_sp_units                     2 # Number of SP units (default=1)
-gpgpu_num_sfu_units                    1 # Number of SF units (default=1)
-gpgpu_num_mem_units                    1 # Number if ldst units (default=1) WARNING: not hooked up to anything
-gpgpu_scheduler        warp_limiting:2:1 # Scheduler configuration: < lrr | gto | two_level_active > If two_level_active:<num_active_warps>:<inner_prioritization>:<outer_prioritization>For complete list of prioritization values see shader.h enum scheduler_prioritization_typeDefault: gto
-gpgpu_dram_scheduler                    1 # 0 = fifo, 1 = FR-FCFS (defaul)
-gpgpu_dram_partition_queues              8:8:8:8 # i2$:$2d:d2$:$2i
-l2_ideal                               0 # Use a ideal L2 cache that always hit
-gpgpu_cache:dl2     64:128:8,L:B:m:W:L,A:32:4,4:0,32 # unified banked L2 data cache config  {<nsets>:<bsize>:<assoc>,<rep>:<wr>:<alloc>:<wr_alloc>,<mshr>:<N>:<merge>,<mq>}
-gpgpu_cache:dl2_texture_only                    0 # L2 cache used for texture only
-gpgpu_n_mem                            6 # number of memory modules (e.g. memory controllers) in gpu
-gpgpu_n_sub_partition_per_mchannel                    2 # number of memory subpartition in each memory module
-gpgpu_n_mem_per_ctrlr                    2 # number of memory chips per memory controller
-gpgpu_memlatency_stat                   14 # track and display latency statistics 0x2 enables MC, 0x4 enables queue logs
-gpgpu_frfcfs_dram_sched_queue_size                   16 # 0 = unlimited (default); # entries per chip
-gpgpu_dram_return_queue_size                  116 # 0 = unlimited (default); # entries per chip
-gpgpu_dram_buswidth                    4 # default = 4 bytes (8 bytes per cycle at DDR)
-gpgpu_dram_burst_length                    8 # Burst length of each DRAM request (default = 4 data bus cycle)
-dram_data_command_freq_ratio                    4 # Frequency ratio between DRAM data bus and command bus (default = 2 times, i.e. DDR)
-gpgpu_dram_timing_opt nbk=16:CCD=2:RRD=6:RCD=12:RAS=28:RP=12:RC=40: CL=12:WL=4:CDLR=5:WR=12:nbkgrp=4:CCDL=3:RTPL=2 # DRAM timing parameters = {nbk:tCCD:tRRD:tRCD:tRAS:tRP:tRC:CL:WL:tCDLR:tWR:nbkgrp:tCCDL:tRTPL}
-rop_latency                          120 # ROP queue latency (default 85)
-dram_latency                         100 # DRAM latency (default 30)
-gpgpu_mem_addr_mapping dramid@8;00000000.00000000.00000000.00000000.0000RRRR.RRRRRRRR.BBBCCCCB.CCSSSSSS # mapping memory address to dram model {dramid@<start bit>;<memory address map>}
-gpgpu_mem_addr_test                    0 # run sweep test to check address mapping for aliased address
-gpgpu_mem_address_mask                    1 # 0 = old addressing mask, 1 = new addressing mask, 2 = new add. mask + flipped bank sel and chip sel bits
-gpuwattch_xml_file  gpuwattch_gtx480.xml # GPUWattch XML file
-power_simulation_enabled                    0 # Turn on power simulator (1=On, 0=Off)
-power_per_cycle_dump                    0 # Dump detailed power output each cycle
-power_trace_enabled                    0 # produce a file for the power trace (1=On, 0=Off)
-power_trace_zlevel                     6 # Compression level of the power trace output log (0=no comp, 9=highest)
-steady_power_levels_enabled                    0 # produce a file for the steady power levels (1=On, 0=Off)
-steady_state_definition                  8:4 # allowed deviation:number of samples
-gpgpu_max_cycle                        0 # terminates gpu simulation early (0 = no limit)
-gpgpu_max_insn                         0 # terminates gpu simulation early (0 = no limit)
-gpgpu_max_cta                          0 # terminates gpu simulation early (0 = no limit)
-gpgpu_runtime_stat                   500 # display runtime statistics such as dram utilization {<freq>:<flag>}
-liveness_message_freq                    1 # Minimum number of seconds between simulation liveness messages (0 = always print)
-gpgpu_flush_l1_cache                    0 # Flush L1 cache at the end of each kernel call
-gpgpu_flush_l2_cache                    0 # Flush L2 cache at the end of each kernel call
-gpgpu_deadlock_detect                    1 # Stop the simulation at deadlock (1=on (default), 0=off)
-gpgpu_ptx_instruction_classification                    0 # if enabled will classify ptx instruction types per kernel (Max 255 kernels now)
-gpgpu_ptx_sim_mode                     0 # Select between Performance (default) or Functional simulation (1)
-gpgpu_clock_domains 700.0:700.0:700.0:924.0 # Clock Domain Frequencies in MhZ {<Core Clock>:<ICNT Clock>:<L2 Clock>:<DRAM Clock>}
-gpgpu_max_concurrent_kernel                    8 # maximum kernels that can run concurrently on GPU
-gpgpu_cflog_interval                    0 # Interval between each snapshot in control flow logger
-visualizer_enabled                     0 # Turn on visualizer output (1=On, 0=Off)
-visualizer_outputfile                 NULL # Specifies the output log file for visualizer
-visualizer_zlevel                      6 # Compression level of the visualizer output log (0=no comp, 9=highest)
-trace_enabled                          0 # Turn on traces
-trace_components                    none # comma seperated list of traces to enable. Complete list found in trace_streams.tup. Default none
-trace_sampling_core                    0 # The core which is printed using CORE_DPRINTF. Default 0
-trace_sampling_memory_partition                   -1 # The memory partition which is printed using MEMPART_DPRINTF. Default -1 (i.e. all)
-enable_ptx_file_line_stats                    1 # Turn on PTX source line statistic profiling. (1 = On)
-ptx_line_stats_filename gpgpu_inst_stats.txt # Output file for PTX source line statistics.
-save_embedded_ptx                      0 # saves ptx files embedded in binary as <n>.ptx
-keep                                   0 # keep intermediate files created by GPGPU-Sim when interfacing with external programs
-gpgpu_ptx_save_converted_ptxplus                    0 # Saved converted ptxplus to a file
-ptx_opcode_latency_int         4,13,4,5,145 # Opcode latencies for integers <ADD,MAX,MUL,MAD,DIV>Default 1,1,19,25,145
-ptx_opcode_latency_fp          4,13,4,5,39 # Opcode latencies for single precision floating points <ADD,MAX,MUL,MAD,DIV>Default 1,1,1,1,30
-ptx_opcode_latency_dp         8,19,8,8,330 # Opcode latencies for double precision floating points <ADD,MAX,MUL,MAD,DIV>Default 8,8,8,8,335
-ptx_opcode_initiation_int            1,2,2,1,8 # Opcode initiation intervals for integers <ADD,MAX,MUL,MAD,DIV>Default 1,1,4,4,32
-ptx_opcode_initiation_fp            1,2,1,1,4 # Opcode initiation intervals for single precision floating points <ADD,MAX,MUL,MAD,DIV>Default 1,1,1,1,5
-ptx_opcode_initiation_dp         8,16,8,8,130 # Opcode initiation intervals for double precision floating points <ADD,MAX,MUL,MAD,DIV>Default 8,8,8,8,130
DRAM Timing Options:
nbk                                    16 # number of banks
CCD                                     2 # column to column delay
RRD                                     6 # minimal delay between activation of rows in different banks
RCD                                    12 # row to column delay
RAS                                    28 # time needed to activate row
RP                                     12 # time needed to precharge (deactivate) row
RC                                     40 # row cycle time
CDLR                                    5 # switching from write to read (changes tWTR)
WR                                     12 # last data-in to row precharge
CL                                     12 # CAS latency
WL                                      4 # Write latency
nbkgrp                                  4 # number of bank groups
CCDL                                    3 # column to column delay between accesses to different bank groups
RTPL                                    2 # read to precharge delay between accesses to different bank groups
Total number of memory sub partition = 12
addr_dec_mask[CHIP]  = 0000000000000000 	high:64 low:0
addr_dec_mask[BK]    = 000000000000e100 	high:16 low:8
addr_dec_mask[ROW]   = 000000000fff0000 	high:28 low:16
addr_dec_mask[COL]   = 0000000000001eff 	high:13 low:0
addr_dec_mask[BURST] = 000000000000003f 	high:6 low:0
sub_partition_id_mask = 0000000000000100
GPGPU-Sim uArch: clock freqs: 700000000.000000:700000000.000000:700000000.000000:924000000.000000
GPGPU-Sim uArch: clock periods: 0.00000000142857142857:0.00000000142857142857:0.00000000142857142857:0.00000000108225108225
*** Initializing Memory Statistics ***
GPGPU-Sim uArch: interconnect node map (shaderID+MemID to icntID)
GPGPU-Sim uArch: Memory nodes ID start from index: 15
GPGPU-Sim uArch:    0   1   2   3   4
GPGPU-Sim uArch:    5   6   7   8   9
GPGPU-Sim uArch:   10  11  12  13  14
GPGPU-Sim uArch:   15  16  17  18  19
GPGPU-Sim uArch:   20  21  22  23  24
GPGPU-Sim uArch:   25  26
GPGPU-Sim uArch: interconnect node reverse map (icntID to shaderID+MemID)
GPGPU-Sim uArch: Memory nodes start from ID: 15
GPGPU-Sim uArch:    0   1   2   3   4
GPGPU-Sim uArch:    5   6   7   8   9
GPGPU-Sim uArch:   10  11  12  13  14
GPGPU-Sim uArch:   15  16  17  18  19
GPGPU-Sim uArch:   20  21  22  23  24
GPGPU-Sim uArch:   25  26
8ef9342edb8cdfc3e3546abba4d98120  /sciclone/data10/hwang07/adwait/applications/benchmarks/CUDA/NN/gpgpu_ptx_sim__NN
GPGPU-Sim uArch: performance model initialization complete.
GPGPU-Sim PTX: __cudaRegisterFatBinary, fat_cubin_handle = 1, filename=NN.cu
self exe links to: /sciclone/data10/hwang07/adwait/applications/benchmarks/CUDA/NN/gpgpu_ptx_sim__NN
Running md5sum using "md5sum /sciclone/data10/hwang07/adwait/applications/benchmarks/CUDA/NN/gpgpu_ptx_sim__NN "
Parsing file _cuobjdump_complete_output_2v1KIr
######### cuobjdump parser ########
## Adding new section ELF
Adding arch: sm_20
Adding identifier: NN.cu
## Adding new section PTX
Adding ptx filename: _cuobjdump_1.ptx
Adding arch: sm_20
Adding identifier: NN.cu
Done parsing!!!
GPGPU-Sim PTX: __cudaRegisterFunction _Z18executeFourthLayerPfS_S_ : hostFun 0x0x4028e3, fat_cubin_handle = 1
GPGPU-Sim PTX: allocating constant region for "kernelTemplate" from 0x100 to 0x164 (global memory space) 1
GPGPU-Sim PTX: instruction assembly for function '_Z17executeFirstLayerPfS_S_'...   done.
GPGPU-Sim PTX: finding reconvergence points for '_Z17executeFirstLayerPfS_S_'...
GPGPU-Sim PTX: Finding dominators for '_Z17executeFirstLayerPfS_S_'...
GPGPU-Sim PTX: Finding immediate dominators for '_Z17executeFirstLayerPfS_S_'...
GPGPU-Sim PTX: Finding postdominators for '_Z17executeFirstLayerPfS_S_'...
GPGPU-Sim PTX: Finding immediate postdominators for '_Z17executeFirstLayerPfS_S_'...
GPGPU-Sim PTX: pre-decoding instructions for '_Z17executeFirstLayerPfS_S_'...
GPGPU-Sim PTX: reconvergence points for _Z17executeFirstLayerPfS_S_...
GPGPU-Sim PTX:  1 (potential) branch divergence @  PC=0x100 (_1.ptx:100) @%p1 bra $Lt_0_4098;
GPGPU-Sim PTX:    immediate post dominator      @  PC=0x108 (_1.ptx:102) cvt.f64.f32 %fd1, %f1;
GPGPU-Sim PTX:  2 (potential) branch divergence @  PC=0x148 (_1.ptx:110) @!%p2 bra $Lt_0_4866;
GPGPU-Sim PTX:    immediate post dominator      @  PC=0x2a8 (_1.ptx:162) cvt.f64.f32 %fd5, %f29;
GPGPU-Sim PTX:  3 (potential) branch divergence @  PC=0x230 (_1.ptx:142) bra.uni $Lt_0_4610;
GPGPU-Sim PTX:    immediate post dominator      @  PC=0x2a8 (_1.ptx:162) cvt.f64.f32 %fd5, %f29;
GPGPU-Sim PTX: ... end of reconvergence points for _Z17executeFirstLayerPfS_S_
GPGPU-Sim PTX: ... done pre-decoding instructions for '_Z17executeFirstLayerPfS_S_'.
GPGPU-Sim PTX: allocating constant region for "kernelTemplate2" from 0x180 to 0x1e4 (global memory space) 2
GPGPU-Sim PTX: instruction assembly for function '_Z18executeSecondLayerPfS_S_'...   done.
GPGPU-Sim PTX: finding reconvergence points for '_Z18executeSecondLayerPfS_S_'...
GPGPU-Sim PTX: Finding dominators for '_Z18executeSecondLayerPfS_S_'...
GPGPU-Sim PTX: Finding immediate dominators for '_Z18executeSecondLayerPfS_S_'...
GPGPU-Sim PTX: Finding postdominators for '_Z18executeSecondLayerPfS_S_'...
GPGPU-Sim PTX: Finding immediate postdominators for '_Z18executeSecondLayerPfS_S_'...
GPGPU-Sim PTX: pre-decoding instructions for '_Z18executeSecondLayerPfS_S_'...
GPGPU-Sim PTX: reconvergence points for _Z18executeSecondLayerPfS_S_...
GPGPU-Sim PTX:  1 (potential) branch divergence @  PC=0x4a0 (_1.ptx:251) @%p1 bra $Lt_1_5634;
GPGPU-Sim PTX:    immediate post dominator      @  PC=0x4a8 (_1.ptx:253) cvt.f64.f32 %fd1, %f1;
GPGPU-Sim PTX:  2 (potential) branch divergence @  PC=0x4e8 (_1.ptx:261) @!%p2 bra $Lt_1_6402;
GPGPU-Sim PTX:    immediate post dominator      @  PC=0x648 (_1.ptx:313) cvt.f64.f32 %fd5, %f44;
GPGPU-Sim PTX:  3 (potential) branch divergence @  PC=0x5d0 (_1.ptx:293) bra.uni $Lt_1_6146;
GPGPU-Sim PTX:    immediate post dominator      @  PC=0x648 (_1.ptx:313) cvt.f64.f32 %fd5, %f44;
GPGPU-Sim PTX: ... end of reconvergence points for _Z18executeSecondLayerPfS_S_
GPGPU-Sim PTX: ... done pre-decoding instructions for '_Z18executeSecondLayerPfS_S_'.
GPGPU-Sim PTX: instruction assembly for function '_Z17executeThirdLayerPfS_S_'...   done.
GPGPU-Sim PTX: finding reconvergence points for '_Z17executeThirdLayerPfS_S_'...
GPGPU-Sim PTX: Finding dominators for '_Z17executeThirdLayerPfS_S_'...
GPGPU-Sim PTX: Finding immediate dominators for '_Z17executeThirdLayerPfS_S_'...
GPGPU-Sim PTX: Finding postdominators for '_Z17executeThirdLayerPfS_S_'...
GPGPU-Sim PTX: Finding immediate postdominators for '_Z17executeThirdLayerPfS_S_'...
GPGPU-Sim PTX: pre-decoding instructions for '_Z17executeThirdLayerPfS_S_'...
GPGPU-Sim PTX: reconvergence points for _Z17executeThirdLayerPfS_S_...
GPGPU-Sim PTX:  1 (potential) branch divergence @  PC=0x788 (_1.ptx:373) @%p1 bra $Lt_2_4098;
GPGPU-Sim PTX:    immediate post dominator      @  PC=0x790 (_1.ptx:375) cvt.f64.f32 %fd1, %f1;
GPGPU-Sim PTX:  2 (potential) branch divergence @  PC=0x7d0 (_1.ptx:383) @!%p2 bra $Lt_2_4866;
GPGPU-Sim PTX:    immediate post dominator      @  PC=0x930 (_1.ptx:435) cvt.f64.f32 %fd5, %f29;
GPGPU-Sim PTX:  3 (potential) branch divergence @  PC=0x8b8 (_1.ptx:415) bra.uni $Lt_2_4610;
GPGPU-Sim PTX:    immediate post dominator      @  PC=0x930 (_1.ptx:435) cvt.f64.f32 %fd5, %f29;
GPGPU-Sim PTX: ... end of reconvergence points for _Z17executeThirdLayerPfS_S_
GPGPU-Sim PTX: ... done pre-decoding instructions for '_Z17executeThirdLayerPfS_S_'.
GPGPU-Sim PTX: instruction assembly for function '_Z18executeFourthLayerPfS_S_'...   done.
GPGPU-Sim PTX: finding reconvergence points for '_Z18executeFourthLayerPfS_S_'...
GPGPU-Sim PTX: Finding dominators for '_Z18executeFourthLayerPfS_S_'...
GPGPU-Sim PTX: Finding immediate dominators for '_Z18executeFourthLayerPfS_S_'...
GPGPU-Sim PTX: Finding postdominators for '_Z18executeFourthLayerPfS_S_'...
GPGPU-Sim PTX: Finding immediate postdominators for '_Z18executeFourthLayerPfS_S_'...
GPGPU-Sim PTX: pre-decoding instructions for '_Z18executeFourthLayerPfS_S_'...
GPGPU-Sim PTX: reconvergence points for _Z18executeFourthLayerPfS_S_...
GPGPU-Sim PTX:  1 (potential) branch divergence @  PC=0xa50 (_1.ptx:491) @%p1 bra $Lt_3_4098;
GPGPU-Sim PTX:    immediate post dominator      @  PC=0xa58 (_1.ptx:493) cvt.f64.f32 %fd1, %f1;
GPGPU-Sim PTX:  2 (potential) branch divergence @  PC=0xa98 (_1.ptx:501) @!%p2 bra $Lt_3_4866;
GPGPU-Sim PTX:    immediate post dominator      @  PC=0xbf8 (_1.ptx:553) cvt.f64.f32 %fd5, %f29;
GPGPU-Sim PTX:  3 (potential) branch divergence @  PC=0xb80 (_1.ptx:533) bra.uni $Lt_3_4610;
GPGPU-Sim PTX:    immediate post dominator      @  PC=0xbf8 (_1.ptx:553) cvt.f64.f32 %fd5, %f29;
GPGPU-Sim PTX: ... end of reconvergence points for _Z18executeFourthLayerPfS_S_
GPGPU-Sim PTX: ... done pre-decoding instructions for '_Z18executeFourthLayerPfS_S_'.
GPGPU-Sim PTX: finished parsing EMBEDDED .ptx file _1.ptx
Adding _cuobjdump_1.ptx with cubin handle 1
GPGPU-Sim PTX: extracting embedded .ptx to temporary file "_ptx_B7X4S6"
Running: cat _ptx_B7X4S6 | sed 's/.version 1.5/.version 1.4/' | sed 's/, texmode_independent//' | sed 's/\(\.extern \.const\[1\] .b8 \w\+\)\[\]/\1\[1\]/' | sed 's/const\[.\]/const\[0\]/g' > _ptx2_KDdfwP
GPGPU-Sim PTX: generating ptxinfo using "$CUDA_INSTALL_PATH/bin/ptxas --gpu-name=sm_20 -v _ptx2_KDdfwP --output-file  /dev/null 2> _ptx_B7X4S6info"
GPGPU-Sim PTX: Kernel '_Z18executeFourthLayerPfS_S_' : regs=12, lmem=0, smem=0, cmem=288
GPGPU-Sim PTX: Kernel '_Z17executeThirdLayerPfS_S_' : regs=12, lmem=0, smem=0, cmem=288
GPGPU-Sim PTX: Kernel '_Z18executeSecondLayerPfS_S_' : regs=22, lmem=0, smem=0, cmem=288
GPGPU-Sim PTX: Kernel '_Z17executeFirstLayerPfS_S_' : regs=17, lmem=0, smem=0, cmem=288
GPGPU-Sim PTX: removing ptxinfo using "rm -f _ptx_B7X4S6 _ptx2_KDdfwP _ptx_B7X4S6info"
GPGPU-Sim PTX: loading globals with explicit initializers... 
GPGPU-Sim PTX: finished loading globals (0 bytes total).
GPGPU-Sim PTX: loading constants with explicit initializers...  done.
GPGPU-Sim PTX: __cudaRegisterFunction _Z17executeThirdLayerPfS_S_ : hostFun 0x0x402821, fat_cubin_handle = 1
GPGPU-Sim PTX: __cudaRegisterFunction _Z18executeSecondLayerPfS_S_ : hostFun 0x0x40275f, fat_cubin_handle = 1
GPGPU-Sim PTX: __cudaRegisterFunction _Z17executeFirstLayerPfS_S_ : hostFun 0x0x40269d, fat_cubin_handle = 1
GPGPU-Sim PTX: __cudaRegisterVar: hostVar = 0x609e60; deviceAddress = kernelTemplate; deviceName = kernelTemplate
GPGPU-Sim PTX: __cudaRegisterVar: Registering const memory space of 100 bytes
GPGPU-Sim PTX registering constant kernelTemplate (100 bytes) to name mapping
GPGPU-Sim PTX: __cudaRegisterVar: hostVar = 0x609ee0; deviceAddress = kernelTemplate2; deviceName = kernelTemplate2
GPGPU-Sim PTX: __cudaRegisterVar: Registering const memory space of 100 bytes
GPGPU-Sim PTX registering constant kernelTemplate2 (100 bytes) to name mapping
magic number = 2051
number of items = 10000
number of rows = 28
number of rows = 28
NUM=28

GPGPU-Sim PTX: cudaLaunch for 0x0x40269d (mode=performance simulation) on stream 0
GPGPU-Sim PTX: pushing kernel '_Z17executeFirstLayerPfS_S_' to stream 0, gridDim= (6,28,1) blockDim = (13,13,1) 
kernel '_Z17executeFirstLayerPfS_S_' transfer to GPU hardware scheduler
GPGPU-Sim uArch: Shader 1 bind to kernel 1 '_Z17executeFirstLayerPfS_S_'
GPGPU-Sim uArch: CTA/core = 8, limited by: threads regs cta_limit
GPGPU-Sim uArch: core:  1, cta: 0 initialized @(1,0)
GPGPU-Sim uArch: Shader 2 bind to kernel 1 '_Z17executeFirstLayerPfS_S_'
GPGPU-Sim uArch: core:  2, cta: 0 initialized @(1,0)
GPGPU-Sim uArch: Shader 3 bind to kernel 1 '_Z17executeFirstLayerPfS_S_'
GPGPU-Sim uArch: core:  3, cta: 0 initialized @(1,0)
GPGPU-Sim uArch: Shader 4 bind to kernel 1 '_Z17executeFirstLayerPfS_S_'
GPGPU-Sim uArch: core:  4, cta: 0 initialized @(1,0)
GPGPU-Sim uArch: Shader 5 bind to kernel 1 '_Z17executeFirstLayerPfS_S_'
GPGPU-Sim uArch: core:  5, cta: 0 initialized @(1,0)
GPGPU-Sim uArch: Shader 6 bind to kernel 1 '_Z17executeFirstLayerPfS_S_'
GPGPU-Sim uArch: core:  6, cta: 0 initialized @(1,0)
GPGPU-Sim uArch: Shader 7 bind to kernel 1 '_Z17executeFirstLayerPfS_S_'
GPGPU-Sim uArch: core:  7, cta: 0 initialized @(1,0)
GPGPU-Sim uArch: Shader 8 bind to kernel 1 '_Z17executeFirstLayerPfS_S_'
GPGPU-Sim uArch: core:  8, cta: 0 initialized @(1,0)
GPGPU-Sim uArch: Shader 9 bind to kernel 1 '_Z17executeFirstLayerPfS_S_'
GPGPU-Sim uArch: core:  9, cta: 0 initialized @(1,0)
GPGPU-Sim uArch: Shader 10 bind to kernel 1 '_Z17executeFirstLayerPfS_S_'
GPGPU-Sim uArch: core: 10, cta: 0 initialized @(1,0)
GPGPU-Sim uArch: Shader 11 bind to kernel 1 '_Z17executeFirstLayerPfS_S_'
GPGPU-Sim uArch: core: 11, cta: 0 initialized @(1,0)
GPGPU-Sim uArch: Shader 12 bind to kernel 1 '_Z17executeFirstLayerPfS_S_'
GPGPU-Sim uArch: core: 12, cta: 0 initialized @(1,0)
GPGPU-Sim uArch: Shader 13 bind to kernel 1 '_Z17executeFirstLayerPfS_S_'
GPGPU-Sim uArch: core: 13, cta: 0 initialized @(1,0)
GPGPU-Sim uArch: Shader 14 bind to kernel 1 '_Z17executeFirstLayerPfS_S_'
GPGPU-Sim uArch: core: 14, cta: 0 initialized @(1,0)
GPGPU-Sim uArch: Shader 0 bind to kernel 1 '_Z17executeFirstLayerPfS_S_'
GPGPU-Sim uArch: core:  0, cta: 0 initialized @(1,0)
GPGPU-Sim uArch: core:  1, cta: 1 initialized @(2,0)
GPGPU-Sim uArch: core:  2, cta: 1 initialized @(2,0)
GPGPU-Sim uArch: core:  3, cta: 1 initialized @(2,0)
GPGPU-Sim uArch: core:  4, cta: 1 initialized @(2,0)
GPGPU-Sim uArch: core:  5, cta: 1 initialized @(2,0)
GPGPU-Sim uArch: core:  6, cta: 1 initialized @(2,0)
GPGPU-Sim uArch: core:  7, cta: 1 initialized @(2,0)
GPGPU-Sim uArch: core:  8, cta: 1 initialized @(2,0)
GPGPU-Sim uArch: core:  9, cta: 1 initialized @(2,0)
GPGPU-Sim uArch: core: 10, cta: 1 initialized @(2,0)
GPGPU-Sim uArch: core: 11, cta: 1 initialized @(2,0)
GPGPU-Sim uArch: core: 12, cta: 1 initialized @(2,0)
GPGPU-Sim uArch: core: 13, cta: 1 initialized @(2,0)
GPGPU-Sim uArch: core: 14, cta: 1 initialized @(2,0)
GPGPU-Sim uArch: core:  0, cta: 1 initialized @(2,0)
GPGPU-Sim uArch: core:  1, cta: 2 initialized @(3,0)
GPGPU-Sim uArch: core:  2, cta: 2 initialized @(3,0)
GPGPU-Sim uArch: core:  3, cta: 2 initialized @(3,0)
GPGPU-Sim uArch: core:  4, cta: 2 initialized @(3,0)
GPGPU-Sim uArch: core:  5, cta: 2 initialized @(3,0)
GPGPU-Sim uArch: core:  6, cta: 2 initialized @(3,0)
GPGPU-Sim uArch: core:  7, cta: 2 initialized @(3,0)
GPGPU-Sim uArch: core:  8, cta: 2 initialized @(3,0)
GPGPU-Sim uArch: core:  9, cta: 2 initialized @(3,0)
GPGPU-Sim uArch: core: 10, cta: 2 initialized @(3,0)
GPGPU-Sim uArch: core: 11, cta: 2 initialized @(3,0)
GPGPU-Sim uArch: core: 12, cta: 2 initialized @(3,0)
GPGPU-Sim uArch: core: 13, cta: 2 initialized @(3,0)
GPGPU-Sim uArch: core: 14, cta: 2 initialized @(3,0)
GPGPU-Sim uArch: core:  0, cta: 2 initialized @(3,0)
GPGPU-Sim uArch: core:  1, cta: 3 initialized @(4,0)
GPGPU-Sim uArch: core:  2, cta: 3 initialized @(4,0)
GPGPU-Sim uArch: core:  3, cta: 3 initialized @(4,0)
GPGPU-Sim uArch: core:  4, cta: 3 initialized @(4,0)
GPGPU-Sim uArch: core:  5, cta: 3 initialized @(4,0)
GPGPU-Sim uArch: core:  6, cta: 3 initialized @(4,0)
GPGPU-Sim uArch: core:  7, cta: 3 initialized @(4,0)
GPGPU-Sim uArch: core:  8, cta: 3 initialized @(4,0)
GPGPU-Sim uArch: core:  9, cta: 3 initialized @(4,0)
GPGPU-Sim uArch: core: 10, cta: 3 initialized @(4,0)
GPGPU-Sim uArch: core: 11, cta: 3 initialized @(4,0)
GPGPU-Sim uArch: core: 12, cta: 3 initialized @(4,0)
GPGPU-Sim uArch: core: 13, cta: 3 initialized @(4,0)
GPGPU-Sim uArch: core: 14, cta: 3 initialized @(4,0)
GPGPU-Sim uArch: core:  0, cta: 3 initialized @(4,0)
GPGPU-Sim uArch: core:  1, cta: 4 initialized @(5,0)
GPGPU-Sim uArch: core:  2, cta: 4 initialized @(5,0)
GPGPU-Sim uArch: core:  3, cta: 4 initialized @(5,0)
GPGPU-Sim uArch: core:  4, cta: 4 initialized @(5,0)
GPGPU-Sim uArch: core:  5, cta: 4 initialized @(5,0)
GPGPU-Sim uArch: core:  6, cta: 4 initialized @(5,0)
GPGPU-Sim uArch: core:  7, cta: 4 initialized @(5,0)
GPGPU-Sim uArch: core:  8, cta: 4 initialized @(5,0)
GPGPU-Sim uArch: core:  9, cta: 4 initialized @(5,0)
GPGPU-Sim uArch: core: 10, cta: 4 initialized @(5,0)
GPGPU-Sim uArch: core: 11, cta: 4 initialized @(5,0)
GPGPU-Sim uArch: core: 12, cta: 4 initialized @(5,0)
GPGPU-Sim uArch: core: 13, cta: 4 initialized @(5,0)
GPGPU-Sim uArch: core: 14, cta: 4 initialized @(5,0)
GPGPU-Sim uArch: core:  0, cta: 4 initialized @(5,0)
GPGPU-Sim uArch: core:  1, cta: 5 initialized @(6,0)
GPGPU-Sim uArch: core:  2, cta: 5 initialized @(6,0)
GPGPU-Sim uArch: core:  3, cta: 5 initialized @(6,0)
GPGPU-Sim uArch: core:  4, cta: 5 initialized @(6,0)
GPGPU-Sim uArch: core:  5, cta: 5 initialized @(6,0)
GPGPU-Sim uArch: core:  6, cta: 5 initialized @(6,0)
GPGPU-Sim uArch: core:  7, cta: 5 initialized @(6,0)
GPGPU-Sim uArch: core:  8, cta: 5 initialized @(6,0)
GPGPU-Sim uArch: core:  9, cta: 5 initialized @(6,0)
GPGPU-Sim uArch: core: 10, cta: 5 initialized @(6,0)
GPGPU-Sim uArch: core: 11, cta: 5 initialized @(6,0)
GPGPU-Sim uArch: core: 12, cta: 5 initialized @(6,0)
GPGPU-Sim uArch: core: 13, cta: 5 initialized @(6,0)
GPGPU-Sim uArch: core: 14, cta: 5 initialized @(6,0)
GPGPU-Sim uArch: core:  0, cta: 5 initialized @(6,0)
GPGPU-Sim uArch: core:  1, cta: 6 initialized @(7,0)
GPGPU-Sim uArch: core:  2, cta: 6 initialized @(7,0)
GPGPU-Sim uArch: core:  3, cta: 6 initialized @(7,0)
GPGPU-Sim uArch: core:  4, cta: 6 initialized @(7,0)
GPGPU-Sim uArch: core:  5, cta: 6 initialized @(7,0)
GPGPU-Sim uArch: core:  6, cta: 6 initialized @(7,0)
GPGPU-Sim uArch: core:  7, cta: 6 initialized @(7,0)
GPGPU-Sim uArch: core:  8, cta: 6 initialized @(7,0)
GPGPU-Sim uArch: core:  9, cta: 6 initialized @(7,0)
GPGPU-Sim uArch: core: 10, cta: 6 initialized @(7,0)
GPGPU-Sim uArch: core: 11, cta: 6 initialized @(7,0)
GPGPU-Sim uArch: core: 12, cta: 6 initialized @(7,0)
GPGPU-Sim uArch: core: 13, cta: 6 initialized @(7,0)
GPGPU-Sim uArch: core: 14, cta: 6 initialized @(7,0)
GPGPU-Sim uArch: core:  0, cta: 6 initialized @(7,0)
GPGPU-Sim uArch: core:  1, cta: 7 initialized @(8,0)
GPGPU-Sim uArch: core:  2, cta: 7 initialized @(8,0)
GPGPU-Sim uArch: core:  3, cta: 7 initialized @(8,0)
GPGPU-Sim uArch: core:  4, cta: 7 initialized @(8,0)
GPGPU-Sim uArch: core:  5, cta: 7 initialized @(8,0)
GPGPU-Sim uArch: core:  6, cta: 7 initialized @(8,0)
GPGPU-Sim uArch: core:  7, cta: 7 initialized @(8,0)
GPGPU-Sim uArch: core:  8, cta: 7 initialized @(8,0)
GPGPU-Sim uArch: core:  9, cta: 7 initialized @(8,0)
GPGPU-Sim uArch: core: 10, cta: 7 initialized @(8,0)
GPGPU-Sim uArch: core: 11, cta: 7 initialized @(8,0)
GPGPU-Sim uArch: core: 12, cta: 7 initialized @(8,0)
GPGPU-Sim uArch: core: 13, cta: 7 initialized @(8,0)
GPGPU-Sim uArch: core: 14, cta: 7 initialized @(8,0)
GPGPU-Sim uArch: core:  0, cta: 7 initialized @(8,0)
GPGPU-Sim uArch: cycles simulated: 500  inst.: 3840 (ipc= 7.7) sim_rate=960 (inst/sec) elapsed = 0:0:00:04 / Tue Mar 22 12:40:03 2016
GPGPU-Sim PTX: 100000 instructions simulated : ctaid=(0,2,0) tid=(5,2,0)
GPGPU-Sim uArch: cycles simulated: 2500  inst.: 111616 (ipc=44.6) sim_rate=22323 (inst/sec) elapsed = 0:0:00:05 / Tue Mar 22 12:40:04 2016
GPGPU-Sim PTX: 200000 instructions simulated : ctaid=(2,2,0) tid=(5,2,0)
GPGPU-Sim PTX: 300000 instructions simulated : ctaid=(4,1,0) tid=(5,2,0)
GPGPU-Sim PTX: 400000 instructions simulated : ctaid=(5,1,0) tid=(5,6,0)
GPGPU-Sim uArch: cycles simulated: 5500  inst.: 419022 (ipc=76.2) sim_rate=69837 (inst/sec) elapsed = 0:0:00:06 / Tue Mar 22 12:40:05 2016
GPGPU-Sim PTX: 500000 instructions simulated : ctaid=(4,1,0) tid=(1,7,0)
GPGPU-Sim PTX: 600000 instructions simulated : ctaid=(2,0,0) tid=(1,7,0)
GPGPU-Sim uArch: cycles simulated: 7500  inst.: 685970 (ipc=91.5) sim_rate=97995 (inst/sec) elapsed = 0:0:00:07 / Tue Mar 22 12:40:06 2016
GPGPU-Sim PTX: 700000 instructions simulated : ctaid=(5,1,0) tid=(0,6,0)
GPGPU-Sim PTX: 800000 instructions simulated : ctaid=(2,2,0) tid=(12,7,0)
GPGPU-Sim uArch: cycles simulated: 9500  inst.: 877866 (ipc=92.4) sim_rate=109733 (inst/sec) elapsed = 0:0:00:08 / Tue Mar 22 12:40:07 2016
GPGPU-Sim PTX: 900000 instructions simulated : ctaid=(1,0,0) tid=(4,11,0)
GPGPU-Sim PTX: 1000000 instructions simulated : ctaid=(5,0,0) tid=(12,12,0)
GPGPU-Sim uArch: Shader 13 finished CTA #0 (11821,0), 7 CTAs running
GPGPU-Sim uArch: core: 13, cta: 0 initialized @(11822,0)
GPGPU-Sim uArch: Shader 12 finished CTA #0 (11823,0), 7 CTAs running
GPGPU-Sim uArch: core: 12, cta: 0 initialized @(11824,0)
GPGPU-Sim uArch: Shader 0 finished CTA #0 (11826,0), 7 CTAs running
GPGPU-Sim uArch: core:  0, cta: 0 initialized @(11827,0)
GPGPU-Sim uArch: Shader 14 finished CTA #0 (11832,0), 7 CTAs running
GPGPU-Sim uArch: core: 14, cta: 0 initialized @(11833,0)
GPGPU-Sim uArch: Shader 9 finished CTA #0 (11843,0), 7 CTAs running
GPGPU-Sim uArch: core:  9, cta: 0 initialized @(11844,0)
GPGPU-Sim uArch: Shader 7 finished CTA #0 (11847,0), 7 CTAs running
GPGPU-Sim uArch: core:  7, cta: 0 initialized @(11848,0)
GPGPU-Sim uArch: Shader 10 finished CTA #0 (11853,0), 7 CTAs running
GPGPU-Sim uArch: core: 10, cta: 0 initialized @(11854,0)
GPGPU-Sim uArch: Shader 8 finished CTA #0 (11942,0), 7 CTAs running
GPGPU-Sim uArch: core:  8, cta: 0 initialized @(11943,0)
GPGPU-Sim uArch: cycles simulated: 12000  inst.: 1062615 (ipc=88.6) sim_rate=118068 (inst/sec) elapsed = 0:0:00:09 / Tue Mar 22 12:40:08 2016
GPGPU-Sim uArch: Shader 11 finished CTA #0 (12023,0), 7 CTAs running
GPGPU-Sim uArch: core: 11, cta: 0 initialized @(12024,0)
GPGPU-Sim PTX: 1100000 instructions simulated : ctaid=(3,4,0) tid=(7,1,0)
GPGPU-Sim uArch: Shader 1 finished CTA #0 (12469,0), 7 CTAs running
GPGPU-Sim uArch: core:  1, cta: 0 initialized @(12470,0)
GPGPU-Sim uArch: Shader 5 finished CTA #0 (12474,0), 7 CTAs running
GPGPU-Sim uArch: core:  5, cta: 0 initialized @(12475,0)
GPGPU-Sim uArch: Shader 6 finished CTA #0 (12482,0), 7 CTAs running
GPGPU-Sim uArch: core:  6, cta: 0 initialized @(12483,0)
GPGPU-Sim uArch: Shader 3 finished CTA #0 (12486,0), 7 CTAs running
GPGPU-Sim uArch: core:  3, cta: 0 initialized @(12487,0)
GPGPU-Sim uArch: Shader 4 finished CTA #0 (12496,0), 7 CTAs running
GPGPU-Sim uArch: core:  4, cta: 0 initialized @(12497,0)
GPGPU-Sim uArch: Shader 2 finished CTA #0 (12504,0), 7 CTAs running
GPGPU-Sim uArch: core:  2, cta: 0 initialized @(12505,0)
GPGPU-Sim PTX: 1200000 instructions simulated : ctaid=(4,3,0) tid=(12,2,0)
GPGPU-Sim PTX: 1300000 instructions simulated : ctaid=(5,4,0) tid=(12,2,0)
GPGPU-Sim uArch: cycles simulated: 14000  inst.: 1325811 (ipc=94.7) sim_rate=132581 (inst/sec) elapsed = 0:0:00:10 / Tue Mar 22 12:40:09 2016
GPGPU-Sim PTX: 1400000 instructions simulated : ctaid=(0,4,0) tid=(10,4,0)
GPGPU-Sim PTX: 1500000 instructions simulated : ctaid=(2,4,0) tid=(11,5,0)
GPGPU-Sim PTX: 1600000 instructions simulated : ctaid=(0,3,0) tid=(11,5,0)
GPGPU-Sim uArch: cycles simulated: 16500  inst.: 1626983 (ipc=98.6) sim_rate=147907 (inst/sec) elapsed = 0:0:00:11 / Tue Mar 22 12:40:10 2016
GPGPU-Sim PTX: 1700000 instructions simulated : ctaid=(3,3,0) tid=(4,8,0)
GPGPU-Sim PTX: 1800000 instructions simulated : ctaid=(3,4,0) tid=(7,10,0)
GPGPU-Sim uArch: cycles simulated: 18500  inst.: 1863677 (ipc=100.7) sim_rate=155306 (inst/sec) elapsed = 0:0:00:12 / Tue Mar 22 12:40:11 2016
GPGPU-Sim PTX: 1900000 instructions simulated : ctaid=(0,3,0) tid=(1,9,0)
GPGPU-Sim PTX: 2000000 instructions simulated : ctaid=(3,2,0) tid=(9,11,0)
GPGPU-Sim uArch: cycles simulated: 21000  inst.: 2075702 (ipc=98.8) sim_rate=159669 (inst/sec) elapsed = 0:0:00:13 / Tue Mar 22 12:40:12 2016
GPGPU-Sim uArch: Shader 1 finished CTA #1 (21080,0), 7 CTAs running
GPGPU-Sim uArch: core:  1, cta: 1 initialized @(21081,0)
GPGPU-Sim uArch: Shader 3 finished CTA #1 (21193,0), 7 CTAs running
GPGPU-Sim uArch: core:  3, cta: 1 initialized @(21194,0)
GPGPU-Sim PTX: 2100000 instructions simulated : ctaid=(1,7,0) tid=(7,1,0)
GPGPU-Sim uArch: Shader 2 finished CTA #1 (21343,0), 7 CTAs running
GPGPU-Sim uArch: core:  2, cta: 1 initialized @(21344,0)
GPGPU-Sim uArch: Shader 12 finished CTA #1 (21463,0), 7 CTAs running
GPGPU-Sim uArch: core: 12, cta: 1 initialized @(21464,0)
GPGPU-Sim uArch: Shader 10 finished CTA #1 (21469,0), 7 CTAs running
GPGPU-Sim uArch: core: 10, cta: 1 initialized @(21470,0)
GPGPU-Sim uArch: Shader 0 finished CTA #1 (21473,0), 7 CTAs running
GPGPU-Sim uArch: core:  0, cta: 1 initialized @(21474,0)
GPGPU-Sim uArch: Shader 11 finished CTA #1 (21482,0), 7 CTAs running
GPGPU-Sim uArch: core: 11, cta: 1 initialized @(21483,0)
GPGPU-Sim uArch: Shader 14 finished CTA #1 (21578,0), 7 CTAs running
GPGPU-Sim uArch: core: 14, cta: 1 initialized @(21579,0)
GPGPU-Sim uArch: Shader 13 finished CTA #1 (21643,0), 7 CTAs running
GPGPU-Sim uArch: core: 13, cta: 1 initialized @(21644,0)
GPGPU-Sim uArch: Shader 6 finished CTA #1 (21891,0), 7 CTAs running
GPGPU-Sim uArch: core:  6, cta: 1 initialized @(21892,0)
GPGPU-Sim uArch: Shader 5 finished CTA #1 (21898,0), 7 CTAs running
GPGPU-Sim uArch: core:  5, cta: 1 initialized @(21899,0)
GPGPU-Sim uArch: Shader 7 finished CTA #1 (21908,0), 7 CTAs running
GPGPU-Sim uArch: core:  7, cta: 1 initialized @(21909,0)
GPGPU-Sim uArch: Shader 9 finished CTA #1 (21910,0), 7 CTAs running
GPGPU-Sim uArch: core:  9, cta: 1 initialized @(21911,0)
GPGPU-Sim uArch: Shader 4 finished CTA #1 (21914,0), 7 CTAs running
GPGPU-Sim uArch: core:  4, cta: 1 initialized @(21915,0)
GPGPU-Sim uArch: Shader 8 finished CTA #1 (22008,0), 7 CTAs running
GPGPU-Sim uArch: core:  8, cta: 1 initialized @(22009,0)
GPGPU-Sim PTX: 2200000 instructions simulated : ctaid=(5,5,0) tid=(6,3,0)
GPGPU-Sim PTX: 2300000 instructions simulated : ctaid=(4,5,0) tid=(0,1,0)
GPGPU-Sim uArch: cycles simulated: 23000  inst.: 2303046 (ipc=100.1) sim_rate=164503 (inst/sec) elapsed = 0:0:00:14 / Tue Mar 22 12:40:13 2016
GPGPU-Sim PTX: 2400000 instructions simulated : ctaid=(3,6,0) tid=(3,6,0)
GPGPU-Sim PTX: 2500000 instructions simulated : ctaid=(0,6,0) tid=(5,3,0)
GPGPU-Sim PTX: 2600000 instructions simulated : ctaid=(5,6,0) tid=(3,5,0)
GPGPU-Sim uArch: cycles simulated: 25500  inst.: 2604200 (ipc=102.1) sim_rate=173613 (inst/sec) elapsed = 0:0:00:15 / Tue Mar 22 12:40:14 2016
GPGPU-Sim PTX: 2700000 instructions simulated : ctaid=(5,5,0) tid=(3,5,0)
GPGPU-Sim PTX: 2800000 instructions simulated : ctaid=(5,6,0) tid=(6,9,0)
GPGPU-Sim PTX: 2900000 instructions simulated : ctaid=(5,5,0) tid=(6,9,0)
GPGPU-Sim uArch: cycles simulated: 28000  inst.: 2905179 (ipc=103.8) sim_rate=181573 (inst/sec) elapsed = 0:0:00:16 / Tue Mar 22 12:40:15 2016
GPGPU-Sim PTX: 3000000 instructions simulated : ctaid=(2,7,0) tid=(7,10,0)
GPGPU-Sim uArch: cycles simulated: 30000  inst.: 3077407 (ipc=102.6) sim_rate=181023 (inst/sec) elapsed = 0:0:00:17 / Tue Mar 22 12:40:16 2016
GPGPU-Sim PTX: 3100000 instructions simulated : ctaid=(4,5,0) tid=(5,12,0)
GPGPU-Sim uArch: Shader 1 finished CTA #2 (30666,0), 7 CTAs running
GPGPU-Sim uArch: core:  1, cta: 2 initialized @(30667,0)
GPGPU-Sim uArch: Shader 3 finished CTA #2 (30694,0), 7 CTAs running
GPGPU-Sim uArch: core:  3, cta: 2 initialized @(30695,0)
GPGPU-Sim uArch: Shader 6 finished CTA #2 (30766,0), 7 CTAs running
GPGPU-Sim uArch: core:  6, cta: 2 initialized @(30767,0)
GPGPU-Sim uArch: Shader 2 finished CTA #2 (30786,0), 7 CTAs running
GPGPU-Sim uArch: core:  2, cta: 2 initialized @(30787,0)
GPGPU-Sim uArch: Shader 5 finished CTA #2 (30800,0), 7 CTAs running
GPGPU-Sim uArch: core:  5, cta: 2 initialized @(30801,0)
GPGPU-Sim uArch: Shader 9 finished CTA #2 (30863,0), 7 CTAs running
GPGPU-Sim uArch: core:  9, cta: 2 initialized @(30864,0)
GPGPU-Sim uArch: Shader 12 finished CTA #2 (30868,0), 7 CTAs running
GPGPU-Sim uArch: core: 12, cta: 2 initialized @(30869,0)
GPGPU-Sim uArch: Shader 8 finished CTA #2 (30875,0), 7 CTAs running
GPGPU-Sim uArch: core:  8, cta: 2 initialized @(30876,0)
GPGPU-Sim uArch: Shader 4 finished CTA #2 (30880,0), 7 CTAs running
GPGPU-Sim uArch: core:  4, cta: 2 initialized @(30881,0)
GPGPU-Sim uArch: Shader 11 finished CTA #2 (30969,0), 7 CTAs running
GPGPU-Sim uArch: core: 11, cta: 2 initialized @(30970,0)
GPGPU-Sim uArch: Shader 7 finished CTA #2 (31054,0), 7 CTAs running
GPGPU-Sim uArch: core:  7, cta: 2 initialized @(31055,0)
GPGPU-Sim uArch: Shader 10 finished CTA #2 (31067,0), 7 CTAs running
GPGPU-Sim uArch: core: 10, cta: 2 initialized @(31068,0)
GPGPU-Sim PTX: 3200000 instructions simulated : ctaid=(1,8,0) tid=(0,0,0)
GPGPU-Sim uArch: Shader 14 finished CTA #2 (31500,0), 7 CTAs running
GPGPU-Sim uArch: core: 14, cta: 2 initialized @(31501,0)
GPGPU-Sim uArch: Shader 0 finished CTA #2 (31689,0), 7 CTAs running
GPGPU-Sim uArch: core:  0, cta: 2 initialized @(31690,0)
GPGPU-Sim uArch: Shader 13 finished CTA #2 (31702,0), 7 CTAs running
GPGPU-Sim uArch: core: 13, cta: 2 initialized @(31703,0)
GPGPU-Sim PTX: 3300000 instructions simulated : ctaid=(4,9,0) tid=(6,2,0)
GPGPU-Sim uArch: cycles simulated: 32000  inst.: 3293345 (ipc=102.9) sim_rate=182963 (inst/sec) elapsed = 0:0:00:18 / Tue Mar 22 12:40:17 2016
GPGPU-Sim PTX: 3400000 instructions simulated : ctaid=(0,8,0) tid=(0,0,0)
GPGPU-Sim PTX: 3500000 instructions simulated : ctaid=(4,8,0) tid=(9,3,0)
GPGPU-Sim PTX: 3600000 instructions simulated : ctaid=(5,7,0) tid=(0,7,0)
GPGPU-Sim uArch: cycles simulated: 34500  inst.: 3601197 (ipc=104.4) sim_rate=189536 (inst/sec) elapsed = 0:0:00:19 / Tue Mar 22 12:40:18 2016
GPGPU-Sim PTX: 3700000 instructions simulated : ctaid=(3,9,0) tid=(5,7,0)
GPGPU-Sim PTX: 3800000 instructions simulated : ctaid=(1,8,0) tid=(6,7,0)
GPGPU-Sim uArch: cycles simulated: 36500  inst.: 3867978 (ipc=106.0) sim_rate=193398 (inst/sec) elapsed = 0:0:00:20 / Tue Mar 22 12:40:19 2016
GPGPU-Sim PTX: 3900000 instructions simulated : ctaid=(0,8,0) tid=(3,10,0)
GPGPU-Sim PTX: 4000000 instructions simulated : ctaid=(3,9,0) tid=(4,11,0)
GPGPU-Sim PTX: 4100000 instructions simulated : ctaid=(4,7,0) tid=(7,10,0)
GPGPU-Sim uArch: cycles simulated: 39000  inst.: 4093315 (ipc=105.0) sim_rate=194919 (inst/sec) elapsed = 0:0:00:21 / Tue Mar 22 12:40:20 2016
GPGPU-Sim uArch: Shader 1 finished CTA #3 (39830,0), 7 CTAs running
GPGPU-Sim uArch: core:  1, cta: 3 initialized @(39831,0)
GPGPU-Sim uArch: Shader 3 finished CTA #3 (39922,0), 7 CTAs running
GPGPU-Sim uArch: core:  3, cta: 3 initialized @(39923,0)
GPGPU-Sim uArch: Shader 2 finished CTA #3 (40110,0), 7 CTAs running
GPGPU-Sim uArch: core:  2, cta: 3 initialized @(40111,0)
GPGPU-Sim PTX: 4200000 instructions simulated : ctaid=(2,11,0) tid=(10,0,0)
GPGPU-Sim uArch: Shader 4 finished CTA #3 (40428,0), 7 CTAs running
GPGPU-Sim uArch: Shader 7 finished CTA #3 (40432,0), 7 CTAs running
GPGPU-Sim uArch: Shader 11 finished CTA #3 (40434,0), 7 CTAs running
GPGPU-Sim uArch: Shader 9 finished CTA #3 (40444,0), 7 CTAs running
GPGPU-Sim uArch: Shader 5 finished CTA #3 (40461,0), 7 CTAs running
GPGPU-Sim uArch: Shader 6 finished CTA #3 (40489,0), 7 CTAs running
GPGPU-Sim uArch: Shader 8 finished CTA #3 (40584,0), 7 CTAs running
GPGPU-Sim uArch: Shader 13 finished CTA #3 (40598,0), 7 CTAs running
GPGPU-Sim uArch: Shader 14 finished CTA #3 (40610,0), 7 CTAs running
GPGPU-Sim uArch: Shader 12 finished CTA #3 (40616,0), 7 CTAs running
GPGPU-Sim uArch: Shader 0 finished CTA #3 (40619,0), 7 CTAs running
GPGPU-Sim uArch: Shader 10 finished CTA #3 (40621,0), 7 CTAs running
GPGPU-Sim PTX: 4300000 instructions simulated : ctaid=(4,10,0) tid=(10,0,0)
GPGPU-Sim uArch: cycles simulated: 41500  inst.: 4339838 (ipc=104.6) sim_rate=197265 (inst/sec) elapsed = 0:0:00:22 / Tue Mar 22 12:40:21 2016
GPGPU-Sim PTX: 4400000 instructions simulated : ctaid=(3,10,0) tid=(9,2,0)
GPGPU-Sim PTX: 4500000 instructions simulated : ctaid=(1,11,0) tid=(9,2,0)
GPGPU-Sim PTX: 4600000 instructions simulated : ctaid=(0,11,0) tid=(11,2,0)
GPGPU-Sim uArch: cycles simulated: 43500  inst.: 4594849 (ipc=105.6) sim_rate=199776 (inst/sec) elapsed = 0:0:00:23 / Tue Mar 22 12:40:22 2016
GPGPU-Sim PTX: 4700000 instructions simulated : ctaid=(0,11,0) tid=(10,8,0)
GPGPU-Sim PTX: 4800000 instructions simulated : ctaid=(4,11,0) tid=(12,5,0)
GPGPU-Sim PTX: 4900000 instructions simulated : ctaid=(0,12,0) tid=(7,6,0)
GPGPU-Sim uArch: cycles simulated: 46000  inst.: 4896573 (ipc=106.4) sim_rate=204023 (inst/sec) elapsed = 0:0:00:24 / Tue Mar 22 12:40:23 2016
GPGPU-Sim PTX: 5000000 instructions simulated : ctaid=(3,11,0) tid=(8,9,0)
GPGPU-Sim PTX: 5100000 instructions simulated : ctaid=(5,11,0) tid=(11,12,0)
GPGPU-Sim uArch: cycles simulated: 48500  inst.: 5139326 (ipc=106.0) sim_rate=205573 (inst/sec) elapsed = 0:0:00:25 / Tue Mar 22 12:40:24 2016
GPGPU-Sim PTX: 5200000 instructions simulated : ctaid=(1,10,0) tid=(7,10,0)
GPGPU-Sim uArch: Shader 4 finished CTA #4 (49641,0), 6 CTAs running
GPGPU-Sim uArch: Shader 1 finished CTA #4 (49649,0), 7 CTAs running
GPGPU-Sim uArch: Shader 3 finished CTA #4 (49656,0), 7 CTAs running
GPGPU-Sim uArch: Shader 2 finished CTA #4 (49660,0), 7 CTAs running
GPGPU-Sim uArch: Shader 6 finished CTA #4 (49667,0), 6 CTAs running
GPGPU-Sim uArch: Shader 5 finished CTA #4 (49756,0), 6 CTAs running
GPGPU-Sim uArch: Shader 7 finished CTA #4 (50029,0), 6 CTAs running
GPGPU-Sim uArch: Shader 8 finished CTA #4 (50037,0), 6 CTAs running
GPGPU-Sim uArch: Shader 9 finished CTA #4 (50041,0), 6 CTAs running
GPGPU-Sim uArch: Shader 12 finished CTA #4 (50049,0), 6 CTAs running
GPGPU-Sim uArch: Shader 10 finished CTA #4 (50055,0), 6 CTAs running
GPGPU-Sim PTX: 5300000 instructions simulated : ctaid=(2,14,0) tid=(1,1,0)
GPGPU-Sim uArch: Shader 11 finished CTA #4 (50202,0), 6 CTAs running
GPGPU-Sim uArch: Shader 14 finished CTA #4 (50307,0), 6 CTAs running
GPGPU-Sim uArch: Shader 13 finished CTA #4 (50329,0), 6 CTAs running
GPGPU-Sim uArch: Shader 0 finished CTA #4 (50419,0), 6 CTAs running
GPGPU-Sim PTX: 5400000 instructions simulated : ctaid=(0,14,0) tid=(7,3,0)
GPGPU-Sim uArch: cycles simulated: 51000  inst.: 5392359 (ipc=105.7) sim_rate=207398 (inst/sec) elapsed = 0:0:00:26 / Tue Mar 22 12:40:25 2016
GPGPU-Sim PTX: 5500000 instructions simulated : ctaid=(3,13,0) tid=(6,3,0)
GPGPU-Sim PTX: 5600000 instructions simulated : ctaid=(4,13,0) tid=(1,3,0)
GPGPU-Sim uArch: cycles simulated: 53000  inst.: 5640427 (ipc=106.4) sim_rate=208904 (inst/sec) elapsed = 0:0:00:27 / Tue Mar 22 12:40:26 2016
GPGPU-Sim PTX: 5700000 instructions simulated : ctaid=(4,12,0) tid=(9,6,0)
GPGPU-Sim PTX: 5800000 instructions simulated : ctaid=(1,14,0) tid=(3,5,0)
GPGPU-Sim PTX: 5900000 instructions simulated : ctaid=(3,12,0) tid=(12,7,0)
GPGPU-Sim uArch: cycles simulated: 55000  inst.: 5897894 (ipc=107.2) sim_rate=210639 (inst/sec) elapsed = 0:0:00:28 / Tue Mar 22 12:40:27 2016
GPGPU-Sim PTX: 6000000 instructions simulated : ctaid=(4,13,0) tid=(5,8,0)
GPGPU-Sim PTX: 6100000 instructions simulated : ctaid=(0,13,0) tid=(12,10,0)
GPGPU-Sim PTX: 6200000 instructions simulated : ctaid=(4,12,0) tid=(5,10,0)
GPGPU-Sim uArch: cycles simulated: 58000  inst.: 6201132 (ipc=106.9) sim_rate=213832 (inst/sec) elapsed = 0:0:00:29 / Tue Mar 22 12:40:28 2016
GPGPU-Sim uArch: Shader 1 finished CTA #5 (58478,0), 6 CTAs running
GPGPU-Sim uArch: Shader 2 finished CTA #5 (58507,0), 6 CTAs running
GPGPU-Sim uArch: Shader 3 finished CTA #5 (58530,0), 6 CTAs running
GPGPU-Sim PTX: 6300000 instructions simulated : ctaid=(5,14,0) tid=(11,10,0)
GPGPU-Sim uArch: Shader 6 finished CTA #5 (59049,0), 5 CTAs running
GPGPU-Sim uArch: Shader 5 finished CTA #5 (59069,0), 5 CTAs running
GPGPU-Sim uArch: Shader 9 finished CTA #5 (59074,0), 5 CTAs running
GPGPU-Sim uArch: Shader 8 finished CTA #5 (59174,0), 5 CTAs running
GPGPU-Sim uArch: Shader 7 finished CTA #5 (59260,0), 5 CTAs running
GPGPU-Sim uArch: Shader 4 finished CTA #5 (59271,0), 5 CTAs running
GPGPU-Sim uArch: Shader 11 finished CTA #5 (59539,0), 5 CTAs running
GPGPU-Sim uArch: Shader 0 finished CTA #5 (59548,0), 5 CTAs running
GPGPU-Sim uArch: Shader 10 finished CTA #5 (59556,0), 5 CTAs running
GPGPU-Sim uArch: Shader 12 finished CTA #5 (59560,0), 5 CTAs running
GPGPU-Sim uArch: Shader 13 finished CTA #5 (59568,0), 5 CTAs running
GPGPU-Sim uArch: Shader 14 finished CTA #5 (59666,0), 5 CTAs running
GPGPU-Sim PTX: 6400000 instructions simulated : ctaid=(0,16,0) tid=(9,0,0)
GPGPU-Sim uArch: cycles simulated: 60500  inst.: 6465234 (ipc=106.9) sim_rate=215507 (inst/sec) elapsed = 0:0:00:30 / Tue Mar 22 12:40:29 2016
GPGPU-Sim PTX: 6500000 instructions simulated : ctaid=(0,15,0) tid=(9,0,0)
GPGPU-Sim PTX: 6600000 instructions simulated : ctaid=(0,15,0) tid=(0,4,0)
GPGPU-Sim PTX: 6700000 instructions simulated : ctaid=(0,15,0) tid=(4,7,0)
GPGPU-Sim uArch: cycles simulated: 63000  inst.: 6761652 (ipc=107.3) sim_rate=218117 (inst/sec) elapsed = 0:0:00:31 / Tue Mar 22 12:40:30 2016
GPGPU-Sim PTX: 6800000 instructions simulated : ctaid=(3,15,0) tid=(4,9,0)
GPGPU-Sim PTX: 6900000 instructions simulated : ctaid=(5,15,0) tid=(9,6,0)
GPGPU-Sim PTX: 7000000 instructions simulated : ctaid=(0,16,0) tid=(6,9,0)
GPGPU-Sim uArch: cycles simulated: 65000  inst.: 7006031 (ipc=107.8) sim_rate=218938 (inst/sec) elapsed = 0:0:00:32 / Tue Mar 22 12:40:31 2016
GPGPU-Sim PTX: 7100000 instructions simulated : ctaid=(0,15,0) tid=(4,10,0)
GPGPU-Sim PTX: 7200000 instructions simulated : ctaid=(1,16,0) tid=(6,10,0)
GPGPU-Sim uArch: cycles simulated: 67000  inst.: 7195431 (ipc=107.4) sim_rate=218043 (inst/sec) elapsed = 0:0:00:33 / Tue Mar 22 12:40:32 2016
GPGPU-Sim PTX: 7300000 instructions simulated : ctaid=(1,18,0) tid=(9,0,0)
GPGPU-Sim uArch: Shader 2 finished CTA #6 (68214,0), 5 CTAs running
GPGPU-Sim uArch: Shader 6 finished CTA #6 (68223,0), 4 CTAs running
GPGPU-Sim uArch: Shader 3 finished CTA #6 (68234,0), 5 CTAs running
GPGPU-Sim uArch: Shader 1 finished CTA #6 (68240,0), 5 CTAs running
GPGPU-Sim uArch: Shader 4 finished CTA #6 (68244,0), 4 CTAs running
GPGPU-Sim uArch: Shader 5 finished CTA #6 (68348,0), 4 CTAs running
GPGPU-Sim uArch: Shader 8 finished CTA #6 (68740,0), 4 CTAs running
GPGPU-Sim uArch: Shader 11 finished CTA #6 (68831,0), 4 CTAs running
GPGPU-Sim uArch: Shader 7 finished CTA #6 (68914,0), 4 CTAs running
GPGPU-Sim uArch: Shader 10 finished CTA #6 (68920,0), 4 CTAs running
GPGPU-Sim uArch: Shader 9 finished CTA #6 (68924,0), 4 CTAs running
GPGPU-Sim uArch: Shader 12 finished CTA #6 (68949,0), 4 CTAs running
GPGPU-Sim PTX: 7400000 instructions simulated : ctaid=(4,18,0) tid=(8,4,0)
GPGPU-Sim uArch: cycles simulated: 69500  inst.: 7440638 (ipc=107.1) sim_rate=218842 (inst/sec) elapsed = 0:0:00:34 / Tue Mar 22 12:40:33 2016
GPGPU-Sim uArch: Shader 14 finished CTA #6 (69696,0), 4 CTAs running
GPGPU-Sim uArch: Shader 13 finished CTA #6 (69700,0), 4 CTAs running
GPGPU-Sim uArch: Shader 0 finished CTA #6 (69707,0), 4 CTAs running
GPGPU-Sim PTX: 7500000 instructions simulated : ctaid=(1,18,0) tid=(9,0,0)
GPGPU-Sim PTX: 7600000 instructions simulated : ctaid=(0,18,0) tid=(0,3,0)
GPGPU-Sim PTX: 7700000 instructions simulated : ctaid=(0,19,0) tid=(11,3,0)
GPGPU-Sim uArch: cycles simulated: 72000  inst.: 7760965 (ipc=107.8) sim_rate=221741 (inst/sec) elapsed = 0:0:00:35 / Tue Mar 22 12:40:34 2016
GPGPU-Sim PTX: 7800000 instructions simulated : ctaid=(4,17,0) tid=(7,7,0)
GPGPU-Sim PTX: 7900000 instructions simulated : ctaid=(0,18,0) tid=(1,5,0)
GPGPU-Sim PTX: 8000000 instructions simulated : ctaid=(4,19,0) tid=(9,8,0)
GPGPU-Sim PTX: 8100000 instructions simulated : ctaid=(0,19,0) tid=(9,11,0)
GPGPU-Sim uArch: cycles simulated: 74500  inst.: 8086564 (ipc=108.5) sim_rate=224626 (inst/sec) elapsed = 0:0:00:36 / Tue Mar 22 12:40:35 2016
GPGPU-Sim PTX: 8200000 instructions simulated : ctaid=(5,19,0) tid=(9,7,0)
GPGPU-Sim uArch: cycles simulated: 76500  inst.: 8271051 (ipc=108.1) sim_rate=223541 (inst/sec) elapsed = 0:0:00:37 / Tue Mar 22 12:40:36 2016
GPGPU-Sim PTX: 8300000 instructions simulated : ctaid=(4,18,0) tid=(12,11,0)
GPGPU-Sim uArch: Shader 2 finished CTA #7 (77288,0), 4 CTAs running
GPGPU-Sim uArch: Shader 1 finished CTA #7 (77291,0), 4 CTAs running
GPGPU-Sim uArch: Shader 3 finished CTA #7 (77298,0), 4 CTAs running
GPGPU-Sim uArch: Shader 7 finished CTA #7 (77726,0), 3 CTAs running
GPGPU-Sim uArch: Shader 6 finished CTA #7 (77736,0), 3 CTAs running
GPGPU-Sim uArch: Shader 4 finished CTA #7 (77741,0), 3 CTAs running
GPGPU-Sim uArch: Shader 5 finished CTA #7 (77744,0), 3 CTAs running
GPGPU-Sim PTX: 8400000 instructions simulated : ctaid=(2,19,0) tid=(10,10,0)
GPGPU-Sim uArch: Shader 9 finished CTA #7 (77752,0), 3 CTAs running
GPGPU-Sim uArch: Shader 8 finished CTA #7 (77840,0), 3 CTAs running
GPGPU-Sim uArch: Shader 10 finished CTA #7 (78335,0), 3 CTAs running
GPGPU-Sim uArch: Shader 11 finished CTA #7 (78366,0), 3 CTAs running
GPGPU-Sim uArch: Shader 14 finished CTA #7 (78498,0), 3 CTAs running
GPGPU-Sim uArch: Shader 0 finished CTA #7 (78504,0), 3 CTAs running
GPGPU-Sim uArch: Shader 13 finished CTA #7 (78556,0), 3 CTAs running
GPGPU-Sim uArch: Shader 12 finished CTA #7 (78565,0), 3 CTAs running
GPGPU-Sim PTX: 8500000 instructions simulated : ctaid=(0,21,0) tid=(10,0,0)
GPGPU-Sim uArch: cycles simulated: 79000  inst.: 8524962 (ipc=107.9) sim_rate=224341 (inst/sec) elapsed = 0:0:00:38 / Tue Mar 22 12:40:37 2016
GPGPU-Sim PTX: 8600000 instructions simulated : ctaid=(2,20,0) tid=(0,1,0)
GPGPU-Sim PTX: 8700000 instructions simulated : ctaid=(4,21,0) tid=(8,2,0)
GPGPU-Sim PTX: 8800000 instructions simulated : ctaid=(5,21,0) tid=(8,7,0)
GPGPU-Sim uArch: cycles simulated: 81500  inst.: 8846210 (ipc=108.5) sim_rate=226825 (inst/sec) elapsed = 0:0:00:39 / Tue Mar 22 12:40:38 2016
GPGPU-Sim PTX: 8900000 instructions simulated : ctaid=(3,21,0) tid=(6,5,0)
GPGPU-Sim PTX: 9000000 instructions simulated : ctaid=(5,21,0) tid=(3,9,0)
GPGPU-Sim PTX: 9100000 instructions simulated : ctaid=(4,20,0) tid=(0,9,0)
GPGPU-Sim PTX: 9200000 instructions simulated : ctaid=(4,21,0) tid=(8,11,0)
GPGPU-Sim uArch: cycles simulated: 84500  inst.: 9214275 (ipc=109.0) sim_rate=230356 (inst/sec) elapsed = 0:0:00:40 / Tue Mar 22 12:40:39 2016
GPGPU-Sim PTX: 9300000 instructions simulated : ctaid=(0,20,0) tid=(3,11,0)
GPGPU-Sim PTX: 9400000 instructions simulated : ctaid=(4,21,0) tid=(10,11,0)
GPGPU-Sim uArch: Shader 3 finished CTA #0 (86871,0), 3 CTAs running
GPGPU-Sim uArch: Shader 2 finished CTA #0 (86879,0), 3 CTAs running
GPGPU-Sim uArch: Shader 4 finished CTA #0 (86884,0), 2 CTAs running
GPGPU-Sim uArch: Shader 1 finished CTA #0 (87031,0), 3 CTAs running
GPGPU-Sim uArch: Shader 6 finished CTA #0 (87037,0), 2 CTAs running
GPGPU-Sim uArch: Shader 8 finished CTA #0 (87047,0), 2 CTAs running
GPGPU-Sim uArch: Shader 7 finished CTA #0 (87105,0), 2 CTAs running
GPGPU-Sim uArch: Shader 5 finished CTA #0 (87164,0), 2 CTAs running
GPGPU-Sim uArch: Shader 9 finished CTA #0 (87264,0), 2 CTAs running
GPGPU-Sim uArch: Shader 0 finished CTA #0 (87307,0), 2 CTAs running
GPGPU-Sim uArch: Shader 13 finished CTA #0 (87307,0), 2 CTAs running
GPGPU-Sim uArch: Shader 14 finished CTA #0 (87312,0), 2 CTAs running
GPGPU-Sim uArch: Shader 12 finished CTA #0 (87325,0), 2 CTAs running
GPGPU-Sim uArch: Shader 10 finished CTA #0 (87373,0), 2 CTAs running
GPGPU-Sim PTX: 9500000 instructions simulated : ctaid=(2,24,0) tid=(6,1,0)
GPGPU-Sim uArch: Shader 11 finished CTA #0 (87445,0), 2 CTAs running
GPGPU-Sim uArch: cycles simulated: 87500  inst.: 9475697 (ipc=108.3) sim_rate=231114 (inst/sec) elapsed = 0:0:00:41 / Tue Mar 22 12:40:40 2016
GPGPU-Sim PTX: 9600000 instructions simulated : ctaid=(4,23,0) tid=(6,1,0)
GPGPU-Sim PTX: 9700000 instructions simulated : ctaid=(5,23,0) tid=(11,2,0)
GPGPU-Sim PTX: 9800000 instructions simulated : ctaid=(5,24,0) tid=(11,3,0)
GPGPU-Sim uArch: cycles simulated: 90000  inst.: 9802637 (ipc=108.9) sim_rate=233396 (inst/sec) elapsed = 0:0:00:42 / Tue Mar 22 12:40:41 2016
GPGPU-Sim PTX: 9900000 instructions simulated : ctaid=(4,23,0) tid=(3,6,0)
GPGPU-Sim PTX: 10000000 instructions simulated : ctaid=(0,24,0) tid=(8,8,0)
GPGPU-Sim PTX: 10100000 instructions simulated : ctaid=(2,24,0) tid=(4,7,0)
GPGPU-Sim PTX: 10200000 instructions simulated : ctaid=(4,22,0) tid=(3,12,0)
GPGPU-Sim uArch: cycles simulated: 93000  inst.: 10166358 (ipc=109.3) sim_rate=236426 (inst/sec) elapsed = 0:0:00:43 / Tue Mar 22 12:40:42 2016
GPGPU-Sim PTX: 10300000 instructions simulated : ctaid=(5,24,0) tid=(10,8,0)
GPGPU-Sim uArch: Shader 2 finished CTA #1 (94188,0), 2 CTAs running
GPGPU-Sim uArch: Shader 3 finished CTA #1 (94337,0), 2 CTAs running
GPGPU-Sim PTX: 10400000 instructions simulated : ctaid=(2,24,0) tid=(0,12,0)
GPGPU-Sim uArch: Shader 1 finished CTA #1 (95740,0), 2 CTAs running
GPGPU-Sim uArch: cycles simulated: 96000  inst.: 10449106 (ipc=108.8) sim_rate=237479 (inst/sec) elapsed = 0:0:00:44 / Tue Mar 22 12:40:43 2016
GPGPU-Sim PTX: 10500000 instructions simulated : ctaid=(0,23,0) tid=(9,11,0)
GPGPU-Sim uArch: Shader 5 finished CTA #1 (96642,0), 1 CTAs running
GPGPU-Sim uArch: Shader 6 finished CTA #1 (96652,0), 1 CTAs running
GPGPU-Sim uArch: Shader 8 finished CTA #1 (96763,0), 1 CTAs running
GPGPU-Sim uArch: Shader 4 finished CTA #1 (96765,0), 1 CTAs running
GPGPU-Sim uArch: Shader 11 finished CTA #1 (96818,0), 1 CTAs running
GPGPU-Sim uArch: Shader 13 finished CTA #1 (96838,0), 1 CTAs running
GPGPU-Sim uArch: Shader 10 finished CTA #1 (96852,0), 1 CTAs running
GPGPU-Sim uArch: Shader 9 finished CTA #1 (96860,0), 1 CTAs running
GPGPU-Sim uArch: Shader 7 finished CTA #1 (96865,0), 1 CTAs running
GPGPU-Sim uArch: Shader 14 finished CTA #1 (96936,0), 1 CTAs running
GPGPU-Sim uArch: Shader 12 finished CTA #1 (97004,0), 1 CTAs running
GPGPU-Sim uArch: Shader 0 finished CTA #1 (97025,0), 1 CTAs running
GPGPU-Sim PTX: 10600000 instructions simulated : ctaid=(1,26,0) tid=(8,2,0)
GPGPU-Sim PTX: 10700000 instructions simulated : ctaid=(0,26,0) tid=(8,3,0)
GPGPU-Sim PTX: 10800000 instructions simulated : ctaid=(2,27,0) tid=(9,1,0)
GPGPU-Sim uArch: cycles simulated: 99000  inst.: 10801960 (ipc=109.1) sim_rate=240043 (inst/sec) elapsed = 0:0:00:45 / Tue Mar 22 12:40:44 2016
GPGPU-Sim PTX: 10900000 instructions simulated : ctaid=(0,26,0) tid=(7,5,0)
GPGPU-Sim PTX: 11000000 instructions simulated : ctaid=(2,26,0) tid=(12,4,0)
GPGPU-Sim PTX: 11100000 instructions simulated : ctaid=(1,25,0) tid=(9,11,0)
GPGPU-Sim uArch: cycles simulated: 101500  inst.: 11108253 (ipc=109.4) sim_rate=241483 (inst/sec) elapsed = 0:0:00:46 / Tue Mar 22 12:40:45 2016
GPGPU-Sim PTX: 11200000 instructions simulated : ctaid=(4,25,0) tid=(3,10,0)
GPGPU-Sim PTX: 11300000 instructions simulated : ctaid=(5,25,0) tid=(4,9,0)
GPGPU-Sim PTX: 11400000 instructions simulated : ctaid=(3,26,0) tid=(9,12,0)
GPGPU-Sim uArch: Shader 2 finished CTA #2 (104221,0), 1 CTAs running
GPGPU-Sim uArch: Shader 3 finished CTA #2 (104230,0), 1 CTAs running
GPGPU-Sim uArch: cycles simulated: 104500  inst.: 11409937 (ipc=109.2) sim_rate=242764 (inst/sec) elapsed = 0:0:00:47 / Tue Mar 22 12:40:46 2016
GPGPU-Sim uArch: Shader 1 finished CTA #2 (104639,0), 1 CTAs running
GPGPU-Sim PTX: 11500000 instructions simulated : ctaid=(2,27,0) tid=(6,11,0)
GPGPU-Sim uArch: Shader 6 finished CTA #2 (105579,0), 0 CTAs running
GPGPU-Sim uArch: Shader 6 empty (release kernel 1 '_Z17executeFirstLayerPfS_S_').
GPGPU-Sim uArch: Shader 9 finished CTA #2 (105613,0), 0 CTAs running
GPGPU-Sim uArch: Shader 9 empty (release kernel 1 '_Z17executeFirstLayerPfS_S_').
GPGPU-Sim uArch: Shader 5 finished CTA #2 (105685,0), 0 CTAs running
GPGPU-Sim uArch: Shader 5 empty (release kernel 1 '_Z17executeFirstLayerPfS_S_').
GPGPU-Sim uArch: Shader 12 finished CTA #2 (106178,0), 0 CTAs running
GPGPU-Sim uArch: Shader 12 empty (release kernel 1 '_Z17executeFirstLayerPfS_S_').
GPGPU-Sim uArch: Shader 8 finished CTA #2 (106309,0), 0 CTAs running
GPGPU-Sim uArch: Shader 8 empty (release kernel 1 '_Z17executeFirstLayerPfS_S_').
GPGPU-Sim uArch: Shader 7 finished CTA #2 (106317,0), 0 CTAs running
GPGPU-Sim uArch: Shader 7 empty (release kernel 1 '_Z17executeFirstLayerPfS_S_').
GPGPU-Sim uArch: Shader 10 finished CTA #2 (106325,0), 0 CTAs running
GPGPU-Sim uArch: Shader 10 empty (release kernel 1 '_Z17executeFirstLayerPfS_S_').
GPGPU-Sim uArch: Shader 11 finished CTA #2 (106329,0), 0 CTAs running
GPGPU-Sim uArch: Shader 11 empty (release kernel 1 '_Z17executeFirstLayerPfS_S_').
GPGPU-Sim uArch: Shader 4 finished CTA #2 (106337,0), 0 CTAs running
GPGPU-Sim uArch: Shader 4 empty (release kernel 1 '_Z17executeFirstLayerPfS_S_').
GPGPU-Sim uArch: Shader 14 finished CTA #2 (106540,0), 0 CTAs running
GPGPU-Sim uArch: Shader 14 empty (release kernel 1 '_Z17executeFirstLayerPfS_S_').
GPGPU-Sim uArch: Shader 13 finished CTA #2 (106634,0), 0 CTAs running
GPGPU-Sim uArch: Shader 13 empty (release kernel 1 '_Z17executeFirstLayerPfS_S_').
GPGPU-Sim uArch: Shader 0 finished CTA #2 (106650,0), 0 CTAs running
GPGPU-Sim uArch: Shader 0 empty (release kernel 1 '_Z17executeFirstLayerPfS_S_').
GPGPU-Sim PTX: 11600000 instructions simulated : ctaid=(3,27,0) tid=(8,5,0)
GPGPU-Sim PTX: 11700000 instructions simulated : ctaid=(3,27,0) tid=(11,7,0)
GPGPU-Sim uArch: cycles simulated: 111000  inst.: 11664047 (ipc=105.1) sim_rate=243000 (inst/sec) elapsed = 0:0:00:48 / Tue Mar 22 12:40:47 2016
GPGPU-Sim uArch: Shader 2 finished CTA #3 (113032,0), 0 CTAs running
GPGPU-Sim uArch: Shader 2 empty (release kernel 1 '_Z17executeFirstLayerPfS_S_').
GPGPU-Sim uArch: Shader 3 finished CTA #3 (113044,0), 0 CTAs running
GPGPU-Sim uArch: Shader 3 empty (release kernel 1 '_Z17executeFirstLayerPfS_S_').
GPGPU-Sim uArch: Shader 1 finished CTA #3 (113547,0), 0 CTAs running
GPGPU-Sim uArch: Shader 1 empty (release kernel 1 '_Z17executeFirstLayerPfS_S_').
GPGPU-Sim uArch: GPU detected kernel '_Z17executeFirstLayerPfS_S_' finished on shader 1.

GPGPU-Sim PTX: cudaLaunch for 0x0x40275f (mode=performance simulation) on stream 0
GPGPU-Sim PTX: pushing kernel '_Z18executeSecondLayerPfS_S_' to stream 0, gridDim= (50,28,1) blockDim = (5,5,1) 
kernel_name = _Z17executeFirstLayerPfS_S_ 
kernel_launch_uid = 1 
gpu_sim_cycle = 113548
gpu_sim_insn = 11694074
gpu_ipc =     102.9879
gpu_tot_sim_cycle = 113548
gpu_tot_sim_insn = 11694074
gpu_tot_ipc =     102.9879
gpu_tot_issued_cta = 168
gpu_stall_dramfull = 1363
gpu_stall_icnt2sh    = 8635
gpu_total_sim_rate=243626

========= Core cache stats =========
L1I_cache:
	L1I_total_cache_accesses = 243880
	L1I_total_cache_misses = 610
	L1I_total_cache_miss_rate = 0.0025
	L1I_total_cache_pending_hits = 0
	L1I_total_cache_reservation_fails = 4140
L1D_cache:
	L1D_cache_core[0]: Access = 9397, Miss = 427, Miss_rate = 0.045, Pending_hits = 43, Reservation_fails = 0
	L1D_cache_core[1]: Access = 10236, Miss = 459, Miss_rate = 0.045, Pending_hits = 36, Reservation_fails = 0
	L1D_cache_core[2]: Access = 10213, Miss = 440, Miss_rate = 0.043, Pending_hits = 33, Reservation_fails = 0
	L1D_cache_core[3]: Access = 10207, Miss = 434, Miss_rate = 0.043, Pending_hits = 38, Reservation_fails = 0
	L1D_cache_core[4]: Access = 9366, Miss = 428, Miss_rate = 0.046, Pending_hits = 34, Reservation_fails = 0
	L1D_cache_core[5]: Access = 9408, Miss = 422, Miss_rate = 0.045, Pending_hits = 38, Reservation_fails = 0
	L1D_cache_core[6]: Access = 9415, Miss = 429, Miss_rate = 0.046, Pending_hits = 33, Reservation_fails = 0
	L1D_cache_core[7]: Access = 9368, Miss = 417, Miss_rate = 0.045, Pending_hits = 44, Reservation_fails = 0
	L1D_cache_core[8]: Access = 9381, Miss = 428, Miss_rate = 0.046, Pending_hits = 47, Reservation_fails = 0
	L1D_cache_core[9]: Access = 9397, Miss = 426, Miss_rate = 0.045, Pending_hits = 39, Reservation_fails = 0
	L1D_cache_core[10]: Access = 9342, Miss = 428, Miss_rate = 0.046, Pending_hits = 45, Reservation_fails = 0
	L1D_cache_core[11]: Access = 9336, Miss = 422, Miss_rate = 0.045, Pending_hits = 48, Reservation_fails = 0
	L1D_cache_core[12]: Access = 9341, Miss = 426, Miss_rate = 0.046, Pending_hits = 40, Reservation_fails = 0
	L1D_cache_core[13]: Access = 9397, Miss = 428, Miss_rate = 0.046, Pending_hits = 48, Reservation_fails = 0
	L1D_cache_core[14]: Access = 9398, Miss = 429, Miss_rate = 0.046, Pending_hits = 44, Reservation_fails = 0
	L1D_total_cache_accesses = 143202
	L1D_total_cache_misses = 6443
	L1D_total_cache_miss_rate = 0.0450
	L1D_total_cache_pending_hits = 610
	L1D_total_cache_reservation_fails = 0
	L1D_cache_data_port_util = 0.084
	L1D_cache_fill_port_util = 0.003
L1C_cache:
	L1C_total_cache_accesses = 28224
	L1C_total_cache_misses = 75
	L1C_total_cache_miss_rate = 0.0027
	L1C_total_cache_pending_hits = 0
	L1C_total_cache_reservation_fails = 0
L1T_cache:
	L1T_total_cache_accesses = 0
	L1T_total_cache_misses = 0
	L1T_total_cache_pending_hits = 0
	L1T_total_cache_reservation_fails = 0

Total_core_cache_stats:
	Total_core_cache_stats_breakdown[GLOBAL_ACC_R][HIT] = 136149
	Total_core_cache_stats_breakdown[GLOBAL_ACC_R][HIT_RESERVED] = 610
	Total_core_cache_stats_breakdown[GLOBAL_ACC_R][MISS] = 4583
	Total_core_cache_stats_breakdown[CONST_ACC_R][HIT] = 28149
	Total_core_cache_stats_breakdown[CONST_ACC_R][MISS] = 75
	Total_core_cache_stats_breakdown[GLOBAL_ACC_W][MISS] = 1860
	Total_core_cache_stats_breakdown[INST_ACC_R][HIT] = 243270
	Total_core_cache_stats_breakdown[INST_ACC_R][MISS] = 610
	Total_core_cache_stats_breakdown[INST_ACC_R][RESERVATION_FAIL] = 4140
Shader 0 warp_id issue ditsribution:
warp_id:
0, 1, 2, 3, 4, 5, 6, 7, 8, 9, 10, 11, 12, 13, 14, 15, 16, 17, 18, 19, 20, 21, 22, 23, 24, 25, 26, 27, 28, 29, 30, 31, 32, 33, 34, 35, 36, 37, 38, 39, 40, 41, 42, 43, 44, 45, 46, 47, 
distro:
845, 874, 874, 874, 874, 845, 874, 874, 874, 874, 874, 845, 874, 874, 874, 874, 874, 845, 408, 437, 437, 437, 437, 437, 437, 437, 437, 437, 437, 437, 437, 437, 437, 437, 437, 408, 437, 437, 437, 437, 437, 437, 437, 437, 437, 437, 437, 408, 
gpgpu_n_tot_thrd_icount = 13976224
gpgpu_n_tot_w_icount = 436757
gpgpu_n_stall_shd_mem = 90786
gpgpu_n_mem_read_local = 0
gpgpu_n_mem_write_local = 0
gpgpu_n_mem_read_global = 4583
gpgpu_n_mem_write_global = 1860
gpgpu_n_mem_texture = 0
gpgpu_n_mem_const = 45
gpgpu_n_load_insn  = 1447992
gpgpu_n_store_insn = 28392
gpgpu_n_shmem_insn = 0
gpgpu_n_tex_insn = 0
gpgpu_n_const_mem_insn = 709800
gpgpu_n_param_mem_insn = 85176
gpgpu_n_shmem_bkconflict = 0
gpgpu_n_cache_bkconflict = 0
gpgpu_n_intrawarp_mshr_merge = 0
gpgpu_n_cmem_portconflict = 0
gpgpu_stall_shd_mem[c_mem][bk_conf] = 0
gpgpu_stall_shd_mem[c_mem][mshr_rc] = 0
gpgpu_stall_shd_mem[c_mem][icnt_rc] = 0
gpgpu_stall_shd_mem[c_mem][data_port_stall] = 0
gpgpu_stall_shd_mem[t_mem][mshr_rc] = 0
gpgpu_stall_shd_mem[t_mem][icnt_rc] = 0
gpgpu_stall_shd_mem[t_mem][data_port_stall] = 0
gpgpu_stall_shd_mem[s_mem][bk_conf] = 0
gpgpu_stall_shd_mem[gl_mem][bk_conf] = 0
gpgpu_stall_shd_mem[gl_mem][coal_stall] = 90786
gpgpu_stall_shd_mem[gl_mem][data_port_stall] = 0
gpgpu_stall_shd_mem[g_mem_ld][mshr_rc] = 0
gpgpu_stall_shd_mem[g_mem_ld][icnt_rc] = 0
gpgpu_stall_shd_mem[g_mem_ld][wb_icnt_rc] = 0
gpgpu_stall_shd_mem[g_mem_ld][wb_rsrv_fail] = 0
gpgpu_stall_shd_mem[g_mem_st][mshr_rc] = 0
gpgpu_stall_shd_mem[g_mem_st][icnt_rc] = 0
gpgpu_stall_shd_mem[g_mem_st][wb_icnt_rc] = 0
gpgpu_stall_shd_mem[g_mem_st][wb_rsrv_fail] = 0
gpgpu_stall_shd_mem[l_mem_ld][mshr_rc] = 0
gpgpu_stall_shd_mem[l_mem_ld][icnt_rc] = 0
gpgpu_stall_shd_mem[l_mem_ld][wb_icnt_rc] = 0
gpgpu_stall_shd_mem[l_mem_ld][wb_rsrv_fail] = 0
gpgpu_stall_shd_mem[l_mem_st][mshr_rc] = 0
gpgpu_stall_shd_mem[l_mem_st][icnt_rc] = 0
gpgpu_stall_shd_mem[l_mem_ld][wb_icnt_rc] = 0
gpgpu_stall_shd_mem[l_mem_ld][wb_rsrv_fail] = 0
gpu_reg_bank_conflict_stalls = 0
Warp Occupancy Distribution:
Stall:538	W0_Idle:326356	W0_Scoreboard:2464617	W1:1617	W2:1706	W3:1602	W4:1573	W5:1910	W6:2148	W7:2029	W8:1839	W9:69677	W10:1230	W11:880	W12:982	W13:1064	W14:1298	W15:978	W16:903	W17:828	W18:938	W19:914	W20:652	W21:625	W22:705	W23:1064	W24:1036	W25:1062	W26:1332	W27:1100	W28:1093	W29:981	W30:664	W31:754	W32:331573
traffic_breakdown_coretomem[CONST_ACC_R] = 360 {8:45,}
traffic_breakdown_coretomem[GLOBAL_ACC_R] = 36664 {8:4583,}
traffic_breakdown_coretomem[GLOBAL_ACC_W] = 172800 {40:499,72:504,136:857,}
traffic_breakdown_coretomem[INST_ACC_R] = 840 {8:105,}
traffic_breakdown_memtocore[CONST_ACC_R] = 3240 {72:45,}
traffic_breakdown_memtocore[GLOBAL_ACC_R] = 623288 {136:4583,}
traffic_breakdown_memtocore[GLOBAL_ACC_W] = 14880 {8:1860,}
traffic_breakdown_memtocore[INST_ACC_R] = 14280 {136:105,}
maxmrqlatency = 74 
maxdqlatency = 0 
maxmflatency = 464 
averagemflatency = 212 
max_icnt2mem_latency = 82 
max_icnt2sh_latency = 113547 
mrq_lat_table:1743 	474 	78 	116 	107 	22 	3 	0 	0 	0 	0 	0 	0 	0 	0 	0 	0 	0 	0 	0 	0 	0 	0 	0 	0 	0 	0 	0 	0 	0 	0 	0 	
dq_lat_table:0 	0 	0 	0 	0 	0 	0 	0 	0 	0 	0 	0 	0 	0 	0 	0 	0 	0 	0 	0 	0 	0 	0 	0 	0 	0 	0 	0 	0 	0 	0 	0 	
mf_lat_table:0 	0 	0 	0 	0 	0 	0 	4085 	2403 	0 	0 	0 	0 	0 	0 	0 	0 	0 	0 	0 	0 	0 	0 	0 	0 	0 	0 	0 	0 	0 	0 	0 	
icnt2mem_lat_table:0 	0 	0 	6060 	524 	6 	3 	0 	0 	0 	0 	0 	0 	0 	0 	0 	0 	0 	0 	0 	0 	0 	0 	0 	
icnt2sh_lat_table:0 	0 	0 	1646 	2895 	87 	0 	0 	0 	0 	0 	0 	77 	147 	272 	589 	775 	0 	0 	0 	0 	0 	0 	0 	
mf_lat_pw_table:0 	0 	0 	0 	0 	0 	0 	207 	19 	0 	0 	0 	0 	0 	0 	0 	0 	0 	0 	0 	0 	0 	0 	0 	0 	0 	0 	0 	0 	0 	0 	0 	
maximum concurrent accesses to same row:
dram[0]:         1         0         0         0         0         0         0         0         0         0         0         0         0         0         0         0 
dram[1]:         1         0         0         0         0         0         0         0         0         0         0         0         0         0         0         0 
dram[2]:         0         0         0         0         0         0         0         0         0         0         0         0         0         0         0         0 
dram[3]:         0         0         0         0         0         0         0         0         0         0         0         0         0         0         0         0 
dram[4]:         0         0         0         0         0         0         0         0         0         0         0         0         0         0         0         0 
dram[5]:         0         0         0         0         0         0         0         0         0         0         0         0         0         0         0         0 
maximum service time to same row:
dram[0]:       311         0         0         0      1481      5688     18471     21674      5396       857     14649     24334     62106     62097         0         0 
dram[1]:      1775         0         0         0      1476      6371     20068     21688      5404      5407     17594     23938     63535     65429         0         0 
dram[2]:      4213         0         0         0      1475      1471     21129     22229      5422      5410     21124     24379     62094     69266         0         0 
dram[3]:      4932         0         0         0      3384      1466     21127     23721      5416      5441     24140     24157     62091     70844         0         0 
dram[4]:         0         0         0         0      4716      1463     21232     24257       834      5397     23872     24154     65426     70653         0         0 
dram[5]:         0         0         0         0      5516      1459     21225     25244       841      5393     23869     24354     62104     70650         0         0 
average row accesses per activate:
dram[0]:  1.000000      -nan      -nan      -nan 10.000000 10.000000 32.000000 32.000000 46.000000 44.000000 64.000000 64.000000 60.000000 60.000000      -nan      -nan 
dram[1]:  3.000000      -nan      -nan      -nan 10.000000 10.000000 32.000000 32.000000 45.000000 47.000000 64.000000 65.000000 60.000000 57.000000      -nan      -nan 
dram[2]:  2.000000      -nan      -nan      -nan 10.000000 12.000000 32.000000 32.000000 44.000000 47.000000 64.000000 64.000000 60.000000 56.000000      -nan      -nan 
dram[3]:  1.000000      -nan      -nan      -nan 10.000000 12.000000 32.000000 32.000000 46.000000 47.000000 64.000000 64.000000 60.000000 56.000000      -nan      -nan 
dram[4]:      -nan      -nan      -nan      -nan 10.000000 12.000000 32.000000 32.000000 45.000000 47.000000 64.000000 64.000000 60.000000 57.000000      -nan      -nan 
dram[5]:      -nan      -nan      -nan      -nan 10.000000 12.000000 32.000000 32.000000 44.000000 47.000000 65.000000 64.000000 60.000000 57.000000      -nan      -nan 
average row locality = 2543/66 = 38.530304
number of total memory accesses made:
dram[0]:         0         0         0         0         0         0         0         0         0         0         0         0         0         0         0         0 
dram[1]:         0         0         0         0         0         0         0         0         0         0         0         0         0         0         0         0 
dram[2]:         0         0         0         0         0         0         0         0         0         0         0         0         0         0         0         0 
dram[3]:         0         0         0         0         0         0         0         0         0         0         0         0         0         0         0         0 
dram[4]:         0         0         0         0         0         0         0         0         0         0         0         0         0         0         0         0 
dram[5]:         0         0         0         0         0         0         0         0         0         0         0         0         0         0         0         0 
total accesses: 0
min_bank_accesses = 0!
min_chip_accesses = 0!
number of total read accesses:
dram[0]:         3         0         0         0        10        10        32        32        32        31        32        32        30        30         0         0 
dram[1]:         3         0         0         0        10        10        32        32        32        32        32        32        30        28         0         0 
dram[2]:         2         0         0         0        10        12        32        32        32        32        32        32        30        28         0         0 
dram[3]:         1         0         0         0        10        12        32        32        32        32        32        32        30        28         0         0 
dram[4]:         0         0         0         0        10        12        32        32        32        32        32        32        30        28         0         0 
dram[5]:         0         0         0         0        10        12        32        32        32        32        32        32        30        28         0         0 
total reads: 1638
min_bank_accesses = 0!
chip skew: 274/272 = 1.01
number of total write accesses:
dram[0]:         0         0         0         0         0         0         0         0        14        13        32        32        30        30         0         0 
dram[1]:         0         0         0         0         0         0         0         0        13        15        32        33        30        29         0         0 
dram[2]:         0         0         0         0         0         0         0         0        12        15        32        32        30        28         0         0 
dram[3]:         0         0         0         0         0         0         0         0        14        15        32        32        30        28         0         0 
dram[4]:         0         0         0         0         0         0         0         0        13        15        32        32        30        29         0         0 
dram[5]:         0         0         0         0         0         0         0         0        12        15        33        32        30        29         0         0 
total reads: 905
min_bank_accesses = 0!
chip skew: 152/149 = 1.02
average mf latency per bank:
dram[0]:       1296    none      none      none        1593      1444      1371      1308       641       685       205       202       208       202    none      none  
dram[1]:       1960    none      none      none        1516      1477      1417      1287       659       628       208       201       207       204    none      none  
dram[2]:          0    none      none      none        1394      1514      1362      1263       673       601       210       199       207       207    none      none  
dram[3]:          0    none      none      none        1452      1801      1334      1289       626       606       212       198       213       200    none      none  
dram[4]:     none      none      none      none        1348      1792      1378      1330       711       623       211       202       210       201    none      none  
dram[5]:     none      none      none      none        1311      1827      1407      1364       673       611       203       206       210       197    none      none  
maximum mf latency per bank:
dram[0]:        282         0         0         0       316       303       300       318       300       293       271       273       303       271         0         0
dram[1]:        269         0         0         0       334       338       350       345       336       325       273       282       274       303         0         0
dram[2]:          0         0         0         0       322       332       291       339       317       308       272       302       270       278         0         0
dram[3]:          0         0         0         0       340       441       302       299       317       340       274       273       329       279         0         0
dram[4]:          0         0         0         0       291       464       348       309       329       281       274       307       276       272         0         0
dram[5]:          0         0         0         0       311       454       355       388       276       304       270       276       284       275         0         0

Number of Memory Banks Accessed per Memory Operation per Warp (from 0):
0	0	0	0	0	0	0	0	0	0	0	0	0	0	0	0	0	0	0	0	0	0	0	0	0	0	0	0	0	0	0	0	0	0	0	0	0	0	0	0	0	0	0	0	0	0	0	0	0	0	0	0	0	0	0	0	0	0	0	0	0	0	0	0	0	0	0	0	0	0	0	0	0	0	0	0	0	0	0	0	0	0	0	0	0	0	0	0	0	0	0	0	0	0	0	0	
Average # of Memory Banks Accessed per Memory Operation per Warp=-nan

position of mrq chosen
0	0	0	0	0	0	0	0	0	0	0	0	0	0	0	0	

average position of mrq chosen = -nan
Memory Partition 0: 
Cache L2_bank_000:
[...]
gpgpu_stall_shd_mem[l_mem_st][icnt_rc] = 0
gpgpu_stall_shd_mem[l_mem_ld][wb_icnt_rc] = 0
gpgpu_stall_shd_mem[l_mem_ld][wb_rsrv_fail] = 0
gpu_reg_bank_conflict_stalls = 0
Warp Occupancy Distribution:
Stall:5312	W0_Idle:1029423	W0_Scoreboard:8017487	W1:2597	W2:3581	W3:4068	W4:3798	W5:4566	W6:4331	W7:4364	W8:4137	W9:72206	W10:3671	W11:2610	W12:2826	W13:3133	W14:3223	W15:3869	W16:3792	W17:3561	W18:3978	W19:4192	W20:4403	W21:3990	W22:4431	W23:3704	W24:2421	W25:1078195	W26:1332	W27:1100	W28:1093	W29:981	W30:664	W31:754	W32:331573
traffic_breakdown_coretomem[CONST_ACC_R] = 600 {8:75,}
traffic_breakdown_coretomem[GLOBAL_ACC_R] = 200056 {8:25007,}
traffic_breakdown_coretomem[GLOBAL_ACC_W] = 394000 {40:1199,72:1204,136:1907,}
traffic_breakdown_coretomem[INST_ACC_R] = 1680 {8:210,}
traffic_breakdown_memtocore[CONST_ACC_R] = 5400 {72:75,}
traffic_breakdown_memtocore[GLOBAL_ACC_R] = 3400952 {136:25007,}
traffic_breakdown_memtocore[GLOBAL_ACC_W] = 34480 {8:4310,}
traffic_breakdown_memtocore[INST_ACC_R] = 28560 {136:210,}
maxmrqlatency = 74 
maxdqlatency = 0 
maxmflatency = 464 
averagemflatency = 168 
max_icnt2mem_latency = 82 
max_icnt2sh_latency = 362703 
mrq_lat_table:3553 	886 	146 	273 	278 	27 	3 	0 	0 	0 	0 	0 	0 	0 	0 	0 	0 	0 	0 	0 	0 	0 	0 	0 	0 	0 	0 	0 	0 	0 	0 	0 	
dq_lat_table:0 	0 	0 	0 	0 	0 	0 	0 	0 	0 	0 	0 	0 	0 	0 	0 	0 	0 	0 	0 	0 	0 	0 	0 	0 	0 	0 	0 	0 	0 	0 	0 	
mf_lat_table:0 	0 	0 	0 	0 	0 	0 	26424 	2968 	0 	0 	0 	0 	0 	0 	0 	0 	0 	0 	0 	0 	0 	0 	0 	0 	0 	0 	0 	0 	0 	0 	0 	
icnt2mem_lat_table:0 	0 	0 	28923 	667 	9 	3 	0 	0 	0 	0 	0 	0 	0 	0 	0 	0 	0 	0 	0 	0 	0 	0 	0 	
icnt2sh_lat_table:0 	0 	0 	15392 	9436 	254 	0 	0 	0 	0 	0 	0 	77 	147 	272 	589 	880 	1340 	1005 	0 	0 	0 	0 	0 	
mf_lat_pw_table:0 	0 	0 	0 	0 	0 	0 	705 	20 	0 	0 	0 	0 	0 	0 	0 	0 	0 	0 	0 	0 	0 	0 	0 	0 	0 	0 	0 	0 	0 	0 	0 	
maximum concurrent accesses to same row:
dram[0]:         1         2         0         0        10        10         0         0         0         0         0         0         0         0         0         0 
dram[1]:         2         0         0         0        10        10         0         0         0         0         0         0         0         0         0         0 
dram[2]:         2         0         0         0        10        12         0         0         0         0         0         0         0         0         0         0 
dram[3]:         2         0         0         0        10        12         0         0         0         0         0         0         0         0         0         0 
dram[4]:         2         0         0         0        10        12         0         0         0         0         0         0         0         0         0         0 
dram[5]:         2         0         0         0        10        12         0         0         0         0         0         0         0         0         0         0 
maximum service time to same row:
dram[0]:     44168     37440    127022    131524    212238    210755     18471     21674      5396       857     14649     24334     62106     62097       279      2816 
dram[1]:     44453     48349    128256    129566    212240    210355     20068     21688      5404      5407     17594     23938     63535     65429      2691       282 
dram[2]:     39555     48152    130851    129560    214199    216710     21129     22229      5422      5410     21124     24379     62094     69266       281      1879 
dram[3]:     38856     49472    129553    132344    212526    214400     21127     23721      5416      5441     24140     24157     62091     70844       282       283 
dram[4]:     42871     50007    131351    132338    211719    214400     21232     24257       834      5397     23872     24154     65426     70653       282       281 
dram[5]:     37733     49993    131331    133354    210930    217516     21225     25244       841      5393     23869     24354     62104     70650       279      4006 
average row accesses per activate:
dram[0]: 17.500000 36.000000 67.000000 67.000000 19.000000 17.500000 32.000000 32.000000 46.000000 44.000000 64.000000 64.000000 62.000000 62.000000 52.000000 55.000000 
dram[1]: 24.000000 71.000000 66.000000 69.000000 19.000000 17.500000 32.000000 32.000000 45.000000 47.000000 64.000000 65.000000 62.000000 61.000000 51.000000 50.000000 
dram[2]: 36.000000 69.000000 72.000000 68.000000 19.500000 19.000000 32.000000 32.000000 44.000000 47.000000 64.000000 64.000000 62.000000 60.000000 49.000000 46.000000 
dram[3]: 34.500000 71.000000 68.000000 66.000000 19.000000 19.000000 32.000000 32.000000 46.000000 47.000000 64.000000 64.000000 62.000000 60.000000 48.000000 54.000000 
dram[4]: 34.000000 71.000000 69.000000 71.000000 19.000000 18.500000 32.000000 32.000000 45.000000 47.000000 64.000000 64.000000 62.000000 61.000000 51.000000 54.000000 
dram[5]: 35.500000 74.000000 66.000000 68.000000 17.500000 18.500000 32.000000 32.000000 44.000000 47.000000 65.000000 64.000000 62.000000 61.000000 47.000000 56.000000 
average row locality = 5166/118 = 43.779659
number of total memory accesses made:
dram[0]:         0         0         0         0         0         0         0         0         0         0         0         0         0         0         0         0 
dram[1]:         0         0         0         0         0         0         0         0         0         0         0         0         0         0         0         0 
dram[2]:         0         0         0         0         0         0         0         0         0         0         0         0         0         0         0         0 
dram[3]:         0         0         0         0         0         0         0         0         0         0         0         0         0         0         0         0 
dram[4]:         0         0         0         0         0         0         0         0         0         0         0         0         0         0         0         0 
dram[5]:         0         0         0         0         0         0         0         0         0         0         0         0         0         0         0         0 
total accesses: 0
min_bank_accesses = 0!
min_chip_accesses = 0!
number of total read accesses:
dram[0]:        35        34        32        32        24        22        32        32        32        31        32        32        32        32        32        32 
dram[1]:        36        32        32        32        24        22        32        32        32        32        32        32        32        32        32        32 
dram[2]:        34        32        32        32        24        24        32        32        32        32        32        32        32        32        32        32 
dram[3]:        34        32        32        32        24        24        32        32        32        32        32        32        32        32        32        32 
dram[4]:        34        32        32        32        22        24        32        32        32        32        32        32        32        32        32        32 
dram[5]:        34        32        32        32        22        24        32        32        32        32        32        32        32        32        32        32 
total reads: 2984
bank skew: 36/22 = 1.64
chip skew: 498/496 = 1.00
number of total write accesses:
dram[0]:        35        38        35        35        14        13         0         0        14        13        32        32        30        30        20        23 
dram[1]:        36        39        34        37        14        13         0         0        13        15        32        33        30        29        19        18 
dram[2]:        38        37        40        36        15        14         0         0        12        15        32        32        30        28        17        14 
dram[3]:        35        39        36        34        14        14         0         0        14        15        32        32        30        28        16        22 
dram[4]:        34        39        37        39        16        13         0         0        13        15        32        32        30        29        19        22 
dram[5]:        37        42        34        36        13        13         0         0        12        15        33        32        30        29        15        24 
total reads: 2182
min_bank_accesses = 0!
chip skew: 370/360 = 1.03
average mf latency per bank:
dram[0]:        257       198       207       212       582       561      1371      1308      1253      1306      1336      1323      1411      1414      1694      1500
dram[1]:        357       204       214       210       560       573      1417      1287      1299      1365      1331      1312      1419      1513      1594      1703
dram[2]:        202       209       200       210       518       621      1362      1263      1294      1342      1343      1331      1458      1495      1676      1836
dram[3]:        202       209       211       209       536       715      1334      1289      1221      1276      1350      1322      1418      1590      1859      1339
dram[4]:        205       205       210       206       501       724      1378      1330      1312      1314      1341      1329      1457      1482      1564      1471
dram[5]:        201       207       215       206       517       740      1407      1364      1283      1281      1315      1335      1415      1510      1830      1331
maximum mf latency per bank:
dram[0]:        282       276       274       267       316       303       300       318       300       293       271       273       303       271       298       306
dram[1]:        280       274       287       274       334       338       350       345       336       354       273       282       274       303       271       288
dram[2]:        279       285       271       272       322       332       291       339       317       350       272       302       270       278       281       283
dram[3]:        286       279       277       280       340       441       302       299       317       340       274       273       329       279       318       307
dram[4]:        281       279       280       280       291       464       348       309       329       281       274       307       276       272       275       285
dram[5]:        288       295       281       271       311       454       355       388       276       304       270       276       284       275       285       292

Number of Memory Banks Accessed per Memory Operation per Warp (from 0):
0	0	0	0	0	0	0	0	0	0	0	0	0	0	0	0	0	0	0	0	0	0	0	0	0	0	0	0	0	0	0	0	0	0	0	0	0	0	0	0	0	0	0	0	0	0	0	0	0	0	0	0	0	0	0	0	0	0	0	0	0	0	0	0	0	0	0	0	0	0	0	0	0	0	0	0	0	0	0	0	0	0	0	0	0	0	0	0	0	0	0	0	0	0	0	0	
Average # of Memory Banks Accessed per Memory Operation per Warp=-nan

position of mrq chosen
0	0	0	0	0	0	0	0	0	0	0	0	0	0	0	0	

average position of mrq chosen = -nan
Memory Partition 0: 
Cache L2_bank_000:
MSHR contents

Cache L2_bank_001:
MSHR contents

In Dram Latency Queue (total = 0): 
DRAM[0]: 16 bks, busW=4 BL=8 CL=12, tRRD=2 tCCD=6, tRCD=12 tRAS=28 tRP=12 tRC=40
n_cmd=478768 n_nop=477202 n_act=22 n_pre=6 n_req=862 n_rd=996 n_write=542 bw_util=0.006425
n_activity=11860 dram_eff=0.2594
bk0: 70a 478115i bk1: 68a 478154i bk2: 64a 478190i bk3: 64a 478196i bk4: 48a 478423i bk5: 44a 478454i bk6: 64a 478601i bk7: 64a 478610i bk8: 64a 478372i bk9: 62a 478389i bk10: 64a 478172i bk11: 64a 478166i bk12: 64a 478174i bk13: 64a 478198i bk14: 64a 478346i bk15: 64a 478314i 
dram_util_bins: 0 0 0 0 0 0 0 0 0 0
dram_eff_bins: 0 0 0 0 0 0 0 0 0 0
mrqq: max=5 avg=0.00565827
Memory Partition 1: 
Cache L2_bank_002:
MSHR contents

Cache L2_bank_003:
MSHR contents

In Dram Latency Queue (total = 0): 
DRAM[1]: 16 bks, busW=4 BL=8 CL=12, tRRD=2 tCCD=6, tRCD=12 tRAS=28 tRP=12 tRC=40
n_cmd=478768 n_nop=477220 n_act=21 n_pre=5 n_req=860 n_rd=996 n_write=526 bw_util=0.006358
n_activity=11777 dram_eff=0.2585
bk0: 72a 478108i bk1: 64a 478149i bk2: 64a 478117i bk3: 64a 478193i bk4: 48a 478426i bk5: 44a 478479i bk6: 64a 478610i bk7: 64a 478610i bk8: 64a 478342i bk9: 64a 478360i bk10: 64a 478207i bk11: 64a 478155i bk12: 64a 478191i bk13: 64a 478225i bk14: 64a 478418i bk15: 64a 478421i 
dram_util_bins: 0 0 0 0 0 0 0 0 0 0
dram_eff_bins: 0 0 0 0 0 0 0 0 0 0
mrqq: max=8 avg=0.00526351
Memory Partition 2: 
Cache L2_bank_004:
MSHR contents

Cache L2_bank_005:
MSHR contents

In Dram Latency Queue (total = 0): 
DRAM[2]: 16 bks, busW=4 BL=8 CL=12, tRRD=2 tCCD=6, tRCD=12 tRAS=28 tRP=12 tRC=40
n_cmd=478768 n_nop=477221 n_act=19 n_pre=3 n_req=858 n_rd=996 n_write=529 bw_util=0.006371
n_activity=11633 dram_eff=0.2622
bk0: 68a 478130i bk1: 64a 478151i bk2: 64a 478163i bk3: 64a 478192i bk4: 48a 478421i bk5: 48a 478468i bk6: 64a 478607i bk7: 64a 478609i bk8: 64a 478385i bk9: 64a 478334i bk10: 64a 478152i bk11: 64a 478084i bk12: 64a 478209i bk13: 64a 478197i bk14: 64a 478448i bk15: 64a 478408i 
dram_util_bins: 0 0 0 0 0 0 0 0 0 0
dram_eff_bins: 0 0 0 0 0 0 0 0 0 0
mrqq: max=5 avg=0.00539301
Memory Partition 3: 
Cache L2_bank_006:
MSHR contents
MSHR: tag=0x8005cb80, atomic=0 1 entries : 0x7fb7acce8ff0 :  mf: uid=2208831, sid10:w02, part=3, addr=0x8005cb80, load , size=128, unknown  status = IN_PARTITION_DRAM (362701), 

Cache L2_bank_007:
MSHR contents

In Dram Latency Queue (total = 0): 
DRAM[3]: 16 bks, busW=4 BL=8 CL=12, tRRD=2 tCCD=6, tRCD=12 tRAS=28 tRP=12 tRC=40
n_cmd=478768 n_nop=477222 n_act=19 n_pre=3 n_req=859 n_rd=996 n_write=528 bw_util=0.006366
n_activity=11623 dram_eff=0.2622
bk0: 68a 478125i bk1: 64a 478184i bk2: 64a 478153i bk3: 64a 478169i bk4: 48a 478422i bk5: 48a 478455i bk6: 64a 478608i bk7: 64a 478609i bk8: 64a 478375i bk9: 64a 478343i bk10: 64a 478170i bk11: 64a 478140i bk12: 64a 478221i bk13: 64a 478233i bk14: 64a 478392i bk15: 64a 478295i 
dram_util_bins: 0 0 0 0 0 0 0 0 0 0
dram_eff_bins: 0 0 0 0 0 0 0 0 0 0
mrqq: max=8 avg=0.00600917
Memory Partition 4: 
Cache L2_bank_008:
MSHR contents

Cache L2_bank_009:
MSHR contents

In Dram Latency Queue (total = 0): 
DRAM[4]: 16 bks, busW=4 BL=8 CL=12, tRRD=2 tCCD=6, tRCD=12 tRAS=28 tRP=12 tRC=40
n_cmd=478768 n_nop=477207 n_act=19 n_pre=3 n_req=866 n_rd=992 n_write=547 bw_util=0.006429
n_activity=11879 dram_eff=0.2591
bk0: 68a 478137i bk1: 64a 478166i bk2: 64a 478180i bk3: 64a 478146i bk4: 44a 478449i bk5: 48a 478464i bk6: 64a 478592i bk7: 64a 478616i bk8: 64a 478394i bk9: 64a 478399i bk10: 64a 478197i bk11: 64a 478151i bk12: 64a 478186i bk13: 64a 478230i bk14: 64a 478422i bk15: 64a 478373i 
dram_util_bins: 0 0 0 0 0 0 0 0 0 0
dram_eff_bins: 0 0 0 0 0 0 0 0 0 0
mrqq: max=4 avg=0.00449487
Memory Partition 5: 
Cache L2_bank_010:
MSHR contents

Cache L2_bank_011:
MSHR contents

In Dram Latency Queue (total = 0): 
DRAM[5]: 16 bks, busW=4 BL=8 CL=12, tRRD=2 tCCD=6, tRCD=12 tRAS=28 tRP=12 tRC=40
n_cmd=478768 n_nop=477216 n_act=19 n_pre=3 n_req=861 n_rd=992 n_write=538 bw_util=0.006391
n_activity=11776 dram_eff=0.2599
bk0: 68a 478159i bk1: 64a 478088i bk2: 64a 478215i bk3: 64a 478150i bk4: 44a 478484i bk5: 48a 478466i bk6: 64a 478585i bk7: 64a 478611i bk8: 64a 478419i bk9: 64a 478408i bk10: 64a 478152i bk11: 64a 478136i bk12: 64a 478204i bk13: 64a 478209i bk14: 64a 478442i bk15: 64a 478330i 
dram_util_bins: 0 0 0 0 0 0 0 0 0 0
dram_eff_bins: 0 0 0 0 0 0 0 0 0 0
mrqq: max=3 avg=0.00486039

========= L2 cache stats =========
L2_cache_bank[0]: Access = 2495, Miss = 251, Miss_rate = 0.101, Pending_hits = 149, Reservation_fails = 1939
L2_cache_bank[1]: Access = 2435, Miss = 247, Miss_rate = 0.101, Pending_hits = 151, Reservation_fails = 1168
L2_cache_bank[2]: Access = 2507, Miss = 252, Miss_rate = 0.101, Pending_hits = 151, Reservation_fails = 1806
L2_cache_bank[3]: Access = 2488, Miss = 246, Miss_rate = 0.099, Pending_hits = 141, Reservation_fails = 1305
L2_cache_bank[4]: Access = 2473, Miss = 250, Miss_rate = 0.101, Pending_hits = 146, Reservation_fails = 1604
L2_cache_bank[5]: Access = 2471, Miss = 248, Miss_rate = 0.100, Pending_hits = 131, Reservation_fails = 1486
L2_cache_bank[6]: Access = 2496, Miss = 250, Miss_rate = 0.100, Pending_hits = 126, Reservation_fails = 976
L2_cache_bank[7]: Access = 2425, Miss = 248, Miss_rate = 0.102, Pending_hits = 144, Reservation_fails = 1321
L2_cache_bank[8]: Access = 2453, Miss = 248, Miss_rate = 0.101, Pending_hits = 145, Reservation_fails = 1308
L2_cache_bank[9]: Access = 2447, Miss = 248, Miss_rate = 0.101, Pending_hits = 151, Reservation_fails = 1741
L2_cache_bank[10]: Access = 2482, Miss = 248, Miss_rate = 0.100, Pending_hits = 133, Reservation_fails = 1310
L2_cache_bank[11]: Access = 2430, Miss = 248, Miss_rate = 0.102, Pending_hits = 153, Reservation_fails = 1537
L2_total_cache_accesses = 29602
L2_total_cache_misses = 2984
L2_total_cache_miss_rate = 0.1008
L2_total_cache_pending_hits = 1721
L2_total_cache_reservation_fails = 17501
L2_total_cache_breakdown:
	L2_cache_stats_breakdown[GLOBAL_ACC_R][HIT] = 22543
	L2_cache_stats_breakdown[GLOBAL_ACC_R][HIT_RESERVED] = 1479
	L2_cache_stats_breakdown[GLOBAL_ACC_R][MISS] = 985
	L2_cache_stats_breakdown[GLOBAL_ACC_R][RESERVATION_FAIL] = 16490
	L2_cache_stats_breakdown[CONST_ACC_R][HIT] = 63
	L2_cache_stats_breakdown[CONST_ACC_R][HIT_RESERVED] = 9
	L2_cache_stats_breakdown[CONST_ACC_R][MISS] = 3
	L2_cache_stats_breakdown[CONST_ACC_R][RESERVATION_FAIL] = 306
	L2_cache_stats_breakdown[GLOBAL_ACC_W][HIT] = 2128
	L2_cache_stats_breakdown[GLOBAL_ACC_W][HIT_RESERVED] = 200
	L2_cache_stats_breakdown[GLOBAL_ACC_W][MISS] = 1982
	L2_cache_stats_breakdown[INST_ACC_R][HIT] = 163
	L2_cache_stats_breakdown[INST_ACC_R][HIT_RESERVED] = 33
	L2_cache_stats_breakdown[INST_ACC_R][MISS] = 14
	L2_cache_stats_breakdown[INST_ACC_R][RESERVATION_FAIL] = 705
L2_cache_data_port_util = 0.022
L2_cache_fill_port_util = 0.003

icnt_total_pkts_mem_to_simt=130620
icnt_total_pkts_simt_to_mem=40837
LD_mem_lat_dist  0 0 0 0 0 0 0 0 0 0 0 0 0 0 0 0 0 0 0 0 0 0 0 0 0 0 0
ST_mem_lat_dist  0 0 0 0 0 0 0 0 0 0 0 0 0 0 0 0 0 0 0 0 0 0 0 0 0 0 0
----------------------------Interconnect-DETAILS--------------------------------
Class 0:
Packet latency average = 10.1373
	minimum = 6
	maximum = 39
Network latency average = 9.90791
	minimum = 6
	maximum = 34
Slowest packet = 13217
Flit latency average = 8.57738
	minimum = 6
	maximum = 34
Slowest flit = 36994
Fragmentation average = 0
	minimum = 0
	maximum = 0
Injected packet rate average = 0.00684058
	minimum = 0.00606046 (at node 14)
	maximum = 0.00789867 (at node 18)
Accepted packet rate average = 0.00684058
	minimum = 0.00606046 (at node 14)
	maximum = 0.00789867 (at node 18)
Injected flit rate average = 0.0199925
	minimum = 0.00771003 (at node 14)
	maximum = 0.0362343 (at node 18)
Accepted flit rate average= 0.0199925
	minimum = 0.00971279 (at node 16)
	maximum = 0.0285725 (at node 5)
Injected packet length average = 2.92264
Accepted packet length average = 2.92264
Total in-flight flits = 0 (0 measured)
====== Overall Traffic Statistics ======
====== Traffic class 0 ======
Packet latency average = 10.3541 (2 samples)
	minimum = 6 (2 samples)
	maximum = 39.5 (2 samples)
Network latency average = 9.66402 (2 samples)
	minimum = 6 (2 samples)
	maximum = 35.5 (2 samples)
Flit latency average = 8.32486 (2 samples)
	minimum = 6 (2 samples)
	maximum = 34 (2 samples)
Fragmentation average = 0 (2 samples)
	minimum = 0 (2 samples)
	maximum = 0 (2 samples)
Injected packet rate average = 0.00557079 (2 samples)
	minimum = 0.00491049 (2 samples)
	maximum = 0.0066046 (2 samples)
Accepted packet rate average = 0.00557079 (2 samples)
	minimum = 0.00491049 (2 samples)
	maximum = 0.0066046 (2 samples)
Injected flit rate average = 0.0160246 (2 samples)
	minimum = 0.00707392 (2 samples)
	maximum = 0.0283639 (2 samples)
Accepted flit rate average = 0.0160246 (2 samples)
	minimum = 0.00896039 (2 samples)
	maximum = 0.0223137 (2 samples)
Injected packet size average = 2.87653 (2 samples)
Accepted packet size average = 2.87653 (2 samples)
Hops average = 1 (2 samples)
