

        *** GPGPU-Sim Simulator Version 3.2.2  [build 0] ***


GPGPU-Sim PTX: simulation mode 0 (can change with PTX_SIM_MODE_FUNC environment variable:
               1=functional simulation only, 0=detailed performance simulator)
GPGPU-Sim: Configuration options:

-network_mode                           1 # Interconnection network mode
-inter_config_file   config_fermi_islip.icnt # Interconnection network config file
-gpgpu_ptx_use_cuobjdump                    1 # Use cuobjdump to extract ptx and sass from binaries
-gpgpu_experimental_lib_support                    0 # Try to extract code from cuda libraries [Broken because of unknown cudaGetExportTable]
-gpgpu_ptx_convert_to_ptxplus                    0 # Convert SASS (native ISA) to ptxplus and run ptxplus
-gpgpu_ptx_force_max_capability                   20 # Force maximum compute capability
-gpgpu_ptx_inst_debug_to_file                    0 # Dump executed instructions' debug information to file
-gpgpu_ptx_inst_debug_file       inst_debug.txt # Executed instructions' debug output file
-gpgpu_ptx_inst_debug_thread_uid                    1 # Thread UID for executed instructions' debug output
-gpgpu_simd_model                       1 # 1 = post-dominator
-gpgpu_shader_core_pipeline              1536:32 # shader core pipeline config, i.e., {<nthread>:<warpsize>}
-gpgpu_tex_cache:l1  4:128:24,L:R:m:N:L,F:128:4,128:2 # per-shader L1 texture cache  (READ-ONLY) config  {<nsets>:<bsize>:<assoc>,<rep>:<wr>:<alloc>:<wr_alloc>,<mshr>:<N>:<merge>,<mq>:<rf>}
-gpgpu_const_cache:l1 64:64:2,L:R:f:N:L,A:2:32,4 # per-shader L1 constant memory cache  (READ-ONLY) config  {<nsets>:<bsize>:<assoc>,<rep>:<wr>:<alloc>:<wr_alloc>,<mshr>:<N>:<merge>,<mq>} 
-gpgpu_cache:il1     4:128:4,L:R:f:N:L,A:2:32,4 # shader L1 instruction cache config  {<nsets>:<bsize>:<assoc>,<rep>:<wr>:<alloc>:<wr_alloc>,<mshr>:<N>:<merge>,<mq>} 
-gpgpu_cache:dl1     32:128:4,L:L:m:N:H,A:32:8,8:2,0,1:0:1:1:0:1,1:4:8:16:32:64,/sciclone/data10/hwang07/GPU_RESEARCH/swl/swl_outputs/RESULTS/gto/ # per-shader L1 data cache config  {<nsets>:<bsize>:<assoc>,<rep>:<wr>:<alloc>:<wr_alloc>,<mshr>:<N>:<merge>,<mq> | none}
-gpgpu_cache:dl1PrefL1                 none # per-shader L1 data cache config  {<nsets>:<bsize>:<assoc>,<rep>:<wr>:<alloc>:<wr_alloc>,<mshr>:<N>:<merge>,<mq> | none}
-gpgpu_cache:dl1PreShared                 none # per-shader L1 data cache config  {<nsets>:<bsize>:<assoc>,<rep>:<wr>:<alloc>:<wr_alloc>,<mshr>:<N>:<merge>,<mq> | none}
-gmem_skip_L1D                          0 # global memory access skip L1D cache (implements -Xptxas -dlcm=cg, default=no skip)
-gpgpu_perfect_mem                      0 # enable perfect memory mode (no cache miss)
-n_regfile_gating_group                    4 # group of lanes that should be read/written together)
-gpgpu_clock_gated_reg_file                    0 # enable clock gated reg file for power calculations
-gpgpu_clock_gated_lanes                    0 # enable clock gated lanes for power calculations
-gpgpu_shader_registers                32768 # Number of registers per shader core. Limits number of concurrent CTAs. (default 8192)
-gpgpu_shader_cta                       8 # Maximum number of concurrent CTAs in shader (default 8)
-gpgpu_num_cta_barriers                   16 # Maximum number of named barriers per CTA (default 16)
-gpgpu_n_clusters                      15 # number of processing clusters
-gpgpu_n_cores_per_cluster                    1 # number of simd cores per cluster
-gpgpu_n_cluster_ejection_buffer_size                    8 # number of packets in ejection buffer
-gpgpu_n_ldst_response_buffer_size                    2 # number of response packets in ld/st unit ejection buffer
-gpgpu_shmem_size                   16384 # Size of shared memory per shader core (default 16kB)
-gpgpu_shmem_size                   49152 # Size of shared memory per shader core (default 16kB)
-gpgpu_shmem_size_PrefL1                16384 # Size of shared memory per shader core (default 16kB)
-gpgpu_shmem_size_PrefShared                16384 # Size of shared memory per shader core (default 16kB)
-gpgpu_shmem_num_banks                   32 # Number of banks in the shared memory in each shader core (default 16)
-gpgpu_shmem_limited_broadcast                    0 # Limit shared memory to do one broadcast per cycle (default on)
-gpgpu_shmem_warp_parts                    1 # Number of portions a warp is divided into for shared memory bank conflict check 
-gpgpu_warpdistro_shader                   -1 # Specify which shader core to collect the warp size distribution from
-gpgpu_warp_issue_shader                    0 # Specify which shader core to collect the warp issue distribution from
-gpgpu_local_mem_map                    1 # Mapping from local memory space address to simulated GPU physical address space (default = enabled)
-gpgpu_num_reg_banks                   16 # Number of register banks (default = 8)
-gpgpu_reg_bank_use_warp_id                    0 # Use warp ID in mapping registers to banks (default = off)
-gpgpu_operand_collector_num_units_sp                    6 # number of collector units (default = 4)
-gpgpu_operand_collector_num_units_sfu                    8 # number of collector units (default = 4)
-gpgpu_operand_collector_num_units_mem                    2 # number of collector units (default = 2)
-gpgpu_operand_collector_num_units_gen                    0 # number of collector units (default = 0)
-gpgpu_operand_collector_num_in_ports_sp                    2 # number of collector unit in ports (default = 1)
-gpgpu_operand_collector_num_in_ports_sfu                    1 # number of collector unit in ports (default = 1)
-gpgpu_operand_collector_num_in_ports_mem                    1 # number of collector unit in ports (default = 1)
-gpgpu_operand_collector_num_in_ports_gen                    0 # number of collector unit in ports (default = 0)
-gpgpu_operand_collector_num_out_ports_sp                    2 # number of collector unit in ports (default = 1)
-gpgpu_operand_collector_num_out_ports_sfu                    1 # number of collector unit in ports (default = 1)
-gpgpu_operand_collector_num_out_ports_mem                    1 # number of collector unit in ports (default = 1)
-gpgpu_operand_collector_num_out_ports_gen                    0 # number of collector unit in ports (default = 0)
-gpgpu_coalesce_arch                   13 # Coalescing arch (default = 13, anything else is off for now)
-gpgpu_num_sched_per_core                    2 # Number of warp schedulers per core
-gpgpu_max_insn_issue_per_warp                    1 # Max number of instructions that can be issued per warp in one cycle by scheduler
-gpgpu_simt_core_sim_order                    1 # Select the simulation order of cores in a cluster (0=Fix, 1=Round-Robin)
-gpgpu_pipeline_widths        2,1,1,2,1,1,2 # Pipeline widths ID_OC_SP,ID_OC_SFU,ID_OC_MEM,OC_EX_SP,OC_EX_SFU,OC_EX_MEM,EX_WB
-gpgpu_num_sp_units                     2 # Number of SP units (default=1)
-gpgpu_num_sfu_units                    1 # Number of SF units (default=1)
-gpgpu_num_mem_units                    1 # Number if ldst units (default=1) WARNING: not hooked up to anything
-gpgpu_scheduler                      gto # Scheduler configuration: < lrr | gto | two_level_active > If two_level_active:<num_active_warps>:<inner_prioritization>:<outer_prioritization>For complete list of prioritization values see shader.h enum scheduler_prioritization_typeDefault: gto
-gpgpu_dram_scheduler                    1 # 0 = fifo, 1 = FR-FCFS (defaul)
-gpgpu_dram_partition_queues              8:8:8:8 # i2$:$2d:d2$:$2i
-l2_ideal                               0 # Use a ideal L2 cache that always hit
-gpgpu_cache:dl2     64:128:8,L:B:m:W:L,A:32:4,4:0,32 # unified banked L2 data cache config  {<nsets>:<bsize>:<assoc>,<rep>:<wr>:<alloc>:<wr_alloc>,<mshr>:<N>:<merge>,<mq>}
-gpgpu_cache:dl2_texture_only                    0 # L2 cache used for texture only
-gpgpu_n_mem                            6 # number of memory modules (e.g. memory controllers) in gpu
-gpgpu_n_sub_partition_per_mchannel                    2 # number of memory subpartition in each memory module
-gpgpu_n_mem_per_ctrlr                    2 # number of memory chips per memory controller
-gpgpu_memlatency_stat                   14 # track and display latency statistics 0x2 enables MC, 0x4 enables queue logs
-gpgpu_frfcfs_dram_sched_queue_size                   16 # 0 = unlimited (default); # entries per chip
-gpgpu_dram_return_queue_size                  116 # 0 = unlimited (default); # entries per chip
-gpgpu_dram_buswidth                    4 # default = 4 bytes (8 bytes per cycle at DDR)
-gpgpu_dram_burst_length                    8 # Burst length of each DRAM request (default = 4 data bus cycle)
-dram_data_command_freq_ratio                    4 # Frequency ratio between DRAM data bus and command bus (default = 2 times, i.e. DDR)
-gpgpu_dram_timing_opt nbk=16:CCD=2:RRD=6:RCD=12:RAS=28:RP=12:RC=40: CL=12:WL=4:CDLR=5:WR=12:nbkgrp=4:CCDL=3:RTPL=2 # DRAM timing parameters = {nbk:tCCD:tRRD:tRCD:tRAS:tRP:tRC:CL:WL:tCDLR:tWR:nbkgrp:tCCDL:tRTPL}
-rop_latency                          120 # ROP queue latency (default 85)
-dram_latency                         100 # DRAM latency (default 30)
-gpgpu_mem_addr_mapping dramid@8;00000000.00000000.00000000.00000000.0000RRRR.RRRRRRRR.BBBCCCCB.CCSSSSSS # mapping memory address to dram model {dramid@<start bit>;<memory address map>}
-gpgpu_mem_addr_test                    0 # run sweep test to check address mapping for aliased address
-gpgpu_mem_address_mask                    1 # 0 = old addressing mask, 1 = new addressing mask, 2 = new add. mask + flipped bank sel and chip sel bits
-gpuwattch_xml_file  gpuwattch_gtx480.xml # GPUWattch XML file
-power_simulation_enabled                    0 # Turn on power simulator (1=On, 0=Off)
-power_per_cycle_dump                    0 # Dump detailed power output each cycle
-power_trace_enabled                    0 # produce a file for the power trace (1=On, 0=Off)
-power_trace_zlevel                     6 # Compression level of the power trace output log (0=no comp, 9=highest)
-steady_power_levels_enabled                    0 # produce a file for the steady power levels (1=On, 0=Off)
-steady_state_definition                  8:4 # allowed deviation:number of samples
-gpgpu_max_cycle                        0 # terminates gpu simulation early (0 = no limit)
-gpgpu_max_insn                         0 # terminates gpu simulation early (0 = no limit)
-gpgpu_max_cta                          0 # terminates gpu simulation early (0 = no limit)
-gpgpu_runtime_stat                   500 # display runtime statistics such as dram utilization {<freq>:<flag>}
-liveness_message_freq                    1 # Minimum number of seconds between simulation liveness messages (0 = always print)
-gpgpu_flush_l1_cache                    0 # Flush L1 cache at the end of each kernel call
-gpgpu_flush_l2_cache                    0 # Flush L2 cache at the end of each kernel call
-gpgpu_deadlock_detect                    1 # Stop the simulation at deadlock (1=on (default), 0=off)
-gpgpu_ptx_instruction_classification                    0 # if enabled will classify ptx instruction types per kernel (Max 255 kernels now)
-gpgpu_ptx_sim_mode                     0 # Select between Performance (default) or Functional simulation (1)
-gpgpu_clock_domains 700.0:700.0:700.0:924.0 # Clock Domain Frequencies in MhZ {<Core Clock>:<ICNT Clock>:<L2 Clock>:<DRAM Clock>}
-gpgpu_max_concurrent_kernel                    8 # maximum kernels that can run concurrently on GPU
-gpgpu_cflog_interval                    0 # Interval between each snapshot in control flow logger
-visualizer_enabled                     0 # Turn on visualizer output (1=On, 0=Off)
-visualizer_outputfile                 NULL # Specifies the output log file for visualizer
-visualizer_zlevel                      6 # Compression level of the visualizer output log (0=no comp, 9=highest)
-trace_enabled                          0 # Turn on traces
-trace_components                    none # comma seperated list of traces to enable. Complete list found in trace_streams.tup. Default none
-trace_sampling_core                    0 # The core which is printed using CORE_DPRINTF. Default 0
-trace_sampling_memory_partition                   -1 # The memory partition which is printed using MEMPART_DPRINTF. Default -1 (i.e. all)
-enable_ptx_file_line_stats                    1 # Turn on PTX source line statistic profiling. (1 = On)
-ptx_line_stats_filename gpgpu_inst_stats.txt # Output file for PTX source line statistics.
-save_embedded_ptx                      0 # saves ptx files embedded in binary as <n>.ptx
-keep                                   0 # keep intermediate files created by GPGPU-Sim when interfacing with external programs
-gpgpu_ptx_save_converted_ptxplus                    0 # Saved converted ptxplus to a file
-ptx_opcode_latency_int         4,13,4,5,145 # Opcode latencies for integers <ADD,MAX,MUL,MAD,DIV>Default 1,1,19,25,145
-ptx_opcode_latency_fp          4,13,4,5,39 # Opcode latencies for single precision floating points <ADD,MAX,MUL,MAD,DIV>Default 1,1,1,1,30
-ptx_opcode_latency_dp         8,19,8,8,330 # Opcode latencies for double precision floating points <ADD,MAX,MUL,MAD,DIV>Default 8,8,8,8,335
-ptx_opcode_initiation_int            1,2,2,1,8 # Opcode initiation intervals for integers <ADD,MAX,MUL,MAD,DIV>Default 1,1,4,4,32
-ptx_opcode_initiation_fp            1,2,1,1,4 # Opcode initiation intervals for single precision floating points <ADD,MAX,MUL,MAD,DIV>Default 1,1,1,1,5
-ptx_opcode_initiation_dp         8,16,8,8,130 # Opcode initiation intervals for double precision floating points <ADD,MAX,MUL,MAD,DIV>Default 8,8,8,8,130
DRAM Timing Options:
nbk                                    16 # number of banks
CCD                                     2 # column to column delay
RRD                                     6 # minimal delay between activation of rows in different banks
RCD                                    12 # row to column delay
RAS                                    28 # time needed to activate row
RP                                     12 # time needed to precharge (deactivate) row
RC                                     40 # row cycle time
CDLR                                    5 # switching from write to read (changes tWTR)
WR                                     12 # last data-in to row precharge
CL                                     12 # CAS latency
WL                                      4 # Write latency
nbkgrp                                  4 # number of bank groups
CCDL                                    3 # column to column delay between accesses to different bank groups
RTPL                                    2 # read to precharge delay between accesses to different bank groups
Total number of memory sub partition = 12
addr_dec_mask[CHIP]  = 0000000000000000 	high:64 low:0
addr_dec_mask[BK]    = 000000000000e100 	high:16 low:8
addr_dec_mask[ROW]   = 000000000fff0000 	high:28 low:16
addr_dec_mask[COL]   = 0000000000001eff 	high:13 low:0
addr_dec_mask[BURST] = 000000000000003f 	high:6 low:0
sub_partition_id_mask = 0000000000000100
GPGPU-Sim uArch: clock freqs: 700000000.000000:700000000.000000:700000000.000000:924000000.000000
GPGPU-Sim uArch: clock periods: 0.00000000142857142857:0.00000000142857142857:0.00000000142857142857:0.00000000108225108225
*** Initializing Memory Statistics ***
GPGPU-Sim uArch: interconnect node map (shaderID+MemID to icntID)
GPGPU-Sim uArch: Memory nodes ID start from index: 15
GPGPU-Sim uArch:    0   1   2   3   4
GPGPU-Sim uArch:    5   6   7   8   9
GPGPU-Sim uArch:   10  11  12  13  14
GPGPU-Sim uArch:   15  16  17  18  19
GPGPU-Sim uArch:   20  21  22  23  24
GPGPU-Sim uArch:   25  26
GPGPU-Sim uArch: interconnect node reverse map (icntID to shaderID+MemID)
GPGPU-Sim uArch: Memory nodes start from ID: 15
GPGPU-Sim uArch:    0   1   2   3   4
GPGPU-Sim uArch:    5   6   7   8   9
GPGPU-Sim uArch:   10  11  12  13  14
GPGPU-Sim uArch:   15  16  17  18  19
GPGPU-Sim uArch:   20  21  22  23  24
GPGPU-Sim uArch:   25  26
96cf2a65eb896a14ecc5af85c6ba92b9  /sciclone/data10/hwang07/adwait/applications/benchmarks/rodinia/cuda/bfs/gpgpu_ptx_sim__bfs
GPGPU-Sim uArch: performance model initialization complete.
GPGPU-Sim PTX: __cudaRegisterFatBinary, fat_cubin_handle = 1, filename=bfs.cu
self exe links to: /sciclone/data10/hwang07/adwait/applications/benchmarks/rodinia/cuda/bfs/gpgpu_ptx_sim__bfs
Running md5sum using "md5sum /sciclone/data10/hwang07/adwait/applications/benchmarks/rodinia/cuda/bfs/gpgpu_ptx_sim__bfs "
Parsing file _cuobjdump_complete_output_8QbEoe
######### cuobjdump parser ########
## Adding new section ELF
Adding arch: sm_20
Adding identifier: bfs.cu
## Adding new section PTX
Adding ptx filename: _cuobjdump_1.ptx
Adding arch: sm_20
Adding identifier: bfs.cu
Done parsing!!!
GPGPU-Sim PTX: __cudaRegisterFunction _Z7Kernel2PbS_S_S_i : hostFun 0x0x401773, fat_cubin_handle = 1
GPGPU-Sim PTX: instruction assembly for function '_Z6KernelP4NodePiPbS2_S2_S1_i'...   done.
GPGPU-Sim PTX: finding reconvergence points for '_Z6KernelP4NodePiPbS2_S2_S1_i'...
GPGPU-Sim PTX: Finding dominators for '_Z6KernelP4NodePiPbS2_S2_S1_i'...
GPGPU-Sim PTX: Finding immediate dominators for '_Z6KernelP4NodePiPbS2_S2_S1_i'...
GPGPU-Sim PTX: Finding postdominators for '_Z6KernelP4NodePiPbS2_S2_S1_i'...
GPGPU-Sim PTX: Finding immediate postdominators for '_Z6KernelP4NodePiPbS2_S2_S1_i'...
GPGPU-Sim PTX: pre-decoding instructions for '_Z6KernelP4NodePiPbS2_S2_S1_i'...
GPGPU-Sim PTX: reconvergence points for _Z6KernelP4NodePiPbS2_S2_S1_i...
GPGPU-Sim PTX:  1 (potential) branch divergence @  PC=0x030 (_1.ptx:73) @%p1 bra $Lt_0_5122;
GPGPU-Sim PTX:    immediate post dominator      @  PC=0x1c0 (_1.ptx:135) exit;
GPGPU-Sim PTX:  2 (potential) branch divergence @  PC=0x068 (_1.ptx:80) @%p2 bra $Lt_0_5122;
GPGPU-Sim PTX:    immediate post dominator      @  PC=0x1c0 (_1.ptx:135) exit;
GPGPU-Sim PTX:  3 (potential) branch divergence @  PC=0x0c0 (_1.ptx:93) @%p3 bra $Lt_0_5122;
GPGPU-Sim PTX:    immediate post dominator      @  PC=0x1c0 (_1.ptx:135) exit;
GPGPU-Sim PTX:  4 (potential) branch divergence @  PC=0x120 (_1.ptx:108) @%p4 bra $Lt_0_4354;
GPGPU-Sim PTX:    immediate post dominator      @  PC=0x1a0 (_1.ptx:128) add.s32 %r10, %r10, 1;
GPGPU-Sim PTX:  5 (potential) branch divergence @  PC=0x1b8 (_1.ptx:131) @%p5 bra $Lt_0_4098;
GPGPU-Sim PTX:    immediate post dominator      @  PC=0x1c0 (_1.ptx:135) exit;
GPGPU-Sim PTX: ... end of reconvergence points for _Z6KernelP4NodePiPbS2_S2_S1_i
GPGPU-Sim PTX: ... done pre-decoding instructions for '_Z6KernelP4NodePiPbS2_S2_S1_i'.
GPGPU-Sim PTX: instruction assembly for function '_Z7Kernel2PbS_S_S_i'...   done.
GPGPU-Sim PTX: finding reconvergence points for '_Z7Kernel2PbS_S_S_i'...
GPGPU-Sim PTX: Finding dominators for '_Z7Kernel2PbS_S_S_i'...
GPGPU-Sim PTX: Finding immediate dominators for '_Z7Kernel2PbS_S_S_i'...
GPGPU-Sim PTX: Finding postdominators for '_Z7Kernel2PbS_S_S_i'...
GPGPU-Sim PTX: Finding immediate postdominators for '_Z7Kernel2PbS_S_S_i'...
GPGPU-Sim PTX: pre-decoding instructions for '_Z7Kernel2PbS_S_S_i'...
GPGPU-Sim PTX: reconvergence points for _Z7Kernel2PbS_S_S_i...
GPGPU-Sim PTX:  1 (potential) branch divergence @  PC=0x1f8 (_1.ptx:157) @%p1 bra $Lt_1_1794;
GPGPU-Sim PTX:    immediate post dominator      @  PC=0x2a0 (_1.ptx:185) exit;
GPGPU-Sim PTX:  2 (potential) branch divergence @  PC=0x230 (_1.ptx:164) @%p2 bra $Lt_1_1794;
GPGPU-Sim PTX:    immediate post dominator      @  PC=0x2a0 (_1.ptx:185) exit;
GPGPU-Sim PTX: ... end of reconvergence points for _Z7Kernel2PbS_S_S_i
GPGPU-Sim PTX: ... done pre-decoding instructions for '_Z7Kernel2PbS_S_S_i'.
GPGPU-Sim PTX: finished parsing EMBEDDED .ptx file _1.ptx
Adding _cuobjdump_1.ptx with cubin handle 1
GPGPU-Sim PTX: extracting embedded .ptx to temporary file "_ptx_Q1YyFi"
Running: cat _ptx_Q1YyFi | sed 's/.version 1.5/.version 1.4/' | sed 's/, texmode_independent//' | sed 's/\(\.extern \.const\[1\] .b8 \w\+\)\[\]/\1\[1\]/' | sed 's/const\[.\]/const\[0\]/g' > _ptx2_nJEdBn
GPGPU-Sim PTX: generating ptxinfo using "$CUDA_INSTALL_PATH/bin/ptxas --gpu-name=sm_20 -v _ptx2_nJEdBn --output-file  /dev/null 2> _ptx_Q1YyFiinfo"
GPGPU-Sim PTX: Kernel '_Z7Kernel2PbS_S_S_i' : regs=12, lmem=0, smem=0, cmem=68
GPGPU-Sim PTX: Kernel '_Z6KernelP4NodePiPbS2_S2_S1_i' : regs=15, lmem=0, smem=0, cmem=84
GPGPU-Sim PTX: removing ptxinfo using "rm -f _ptx_Q1YyFi _ptx2_nJEdBn _ptx_Q1YyFiinfo"
GPGPU-Sim PTX: loading globals with explicit initializers... 
GPGPU-Sim PTX: finished loading globals (0 bytes total).
GPGPU-Sim PTX: loading constants with explicit initializers...  done.
GPGPU-Sim PTX: __cudaRegisterFunction _Z6KernelP4NodePiPbS2_S2_S1_i : hostFun 0x0x401637, fat_cubin_handle = 1
Reading File
Read File
Copied Everything to GPU memory
Start traversing the tree

GPGPU-Sim PTX: cudaLaunch for 0x0x401637 (mode=performance simulation) on stream 0
GPGPU-Sim PTX: pushing kernel '_Z6KernelP4NodePiPbS2_S2_S1_i' to stream 0, gridDim= (1954,1,1) blockDim = (512,1,1) 
kernel '_Z6KernelP4NodePiPbS2_S2_S1_i' transfer to GPU hardware scheduler
GPGPU-Sim uArch: Shader 1 bind to kernel 1 '_Z6KernelP4NodePiPbS2_S2_S1_i'
GPGPU-Sim uArch: CTA/core = 3, limited by: threads
GPGPU-Sim uArch: core:  1, cta: 0 initialized @(1,0)
GPGPU-Sim uArch: Shader 2 bind to kernel 1 '_Z6KernelP4NodePiPbS2_S2_S1_i'
GPGPU-Sim uArch: core:  2, cta: 0 initialized @(1,0)
GPGPU-Sim uArch: Shader 3 bind to kernel 1 '_Z6KernelP4NodePiPbS2_S2_S1_i'
GPGPU-Sim uArch: core:  3, cta: 0 initialized @(1,0)
GPGPU-Sim uArch: Shader 4 bind to kernel 1 '_Z6KernelP4NodePiPbS2_S2_S1_i'
GPGPU-Sim uArch: core:  4, cta: 0 initialized @(1,0)
GPGPU-Sim uArch: Shader 5 bind to kernel 1 '_Z6KernelP4NodePiPbS2_S2_S1_i'
GPGPU-Sim uArch: core:  5, cta: 0 initialized @(1,0)
GPGPU-Sim uArch: Shader 6 bind to kernel 1 '_Z6KernelP4NodePiPbS2_S2_S1_i'
GPGPU-Sim uArch: core:  6, cta: 0 initialized @(1,0)
GPGPU-Sim uArch: Shader 7 bind to kernel 1 '_Z6KernelP4NodePiPbS2_S2_S1_i'
GPGPU-Sim uArch: core:  7, cta: 0 initialized @(1,0)
GPGPU-Sim uArch: Shader 8 bind to kernel 1 '_Z6KernelP4NodePiPbS2_S2_S1_i'
GPGPU-Sim uArch: core:  8, cta: 0 initialized @(1,0)
GPGPU-Sim uArch: Shader 9 bind to kernel 1 '_Z6KernelP4NodePiPbS2_S2_S1_i'
GPGPU-Sim uArch: core:  9, cta: 0 initialized @(1,0)
GPGPU-Sim uArch: Shader 10 bind to kernel 1 '_Z6KernelP4NodePiPbS2_S2_S1_i'
GPGPU-Sim uArch: core: 10, cta: 0 initialized @(1,0)
GPGPU-Sim uArch: Shader 11 bind to kernel 1 '_Z6KernelP4NodePiPbS2_S2_S1_i'
GPGPU-Sim uArch: core: 11, cta: 0 initialized @(1,0)
GPGPU-Sim uArch: Shader 12 bind to kernel 1 '_Z6KernelP4NodePiPbS2_S2_S1_i'
GPGPU-Sim uArch: core: 12, cta: 0 initialized @(1,0)
GPGPU-Sim uArch: Shader 13 bind to kernel 1 '_Z6KernelP4NodePiPbS2_S2_S1_i'
GPGPU-Sim uArch: core: 13, cta: 0 initialized @(1,0)
GPGPU-Sim uArch: Shader 14 bind to kernel 1 '_Z6KernelP4NodePiPbS2_S2_S1_i'
GPGPU-Sim uArch: core: 14, cta: 0 initialized @(1,0)
GPGPU-Sim uArch: Shader 0 bind to kernel 1 '_Z6KernelP4NodePiPbS2_S2_S1_i'
GPGPU-Sim uArch: core:  0, cta: 0 initialized @(1,0)
GPGPU-Sim uArch: core:  1, cta: 1 initialized @(2,0)
GPGPU-Sim uArch: core:  2, cta: 1 initialized @(2,0)
GPGPU-Sim uArch: core:  3, cta: 1 initialized @(2,0)
GPGPU-Sim uArch: core:  4, cta: 1 initialized @(2,0)
GPGPU-Sim uArch: core:  5, cta: 1 initialized @(2,0)
GPGPU-Sim uArch: core:  6, cta: 1 initialized @(2,0)
GPGPU-Sim uArch: core:  7, cta: 1 initialized @(2,0)
GPGPU-Sim uArch: core:  8, cta: 1 initialized @(2,0)
GPGPU-Sim uArch: core:  9, cta: 1 initialized @(2,0)
GPGPU-Sim uArch: core: 10, cta: 1 initialized @(2,0)
GPGPU-Sim uArch: core: 11, cta: 1 initialized @(2,0)
GPGPU-Sim uArch: core: 12, cta: 1 initialized @(2,0)
GPGPU-Sim uArch: core: 13, cta: 1 initialized @(2,0)
GPGPU-Sim uArch: core: 14, cta: 1 initialized @(2,0)
GPGPU-Sim uArch: core:  0, cta: 1 initialized @(2,0)
GPGPU-Sim uArch: core:  1, cta: 2 initialized @(3,0)
GPGPU-Sim uArch: core:  2, cta: 2 initialized @(3,0)
GPGPU-Sim uArch: core:  3, cta: 2 initialized @(3,0)
GPGPU-Sim uArch: core:  4, cta: 2 initialized @(3,0)
GPGPU-Sim uArch: core:  5, cta: 2 initialized @(3,0)
GPGPU-Sim uArch: core:  6, cta: 2 initialized @(3,0)
GPGPU-Sim uArch: core:  7, cta: 2 initialized @(3,0)
GPGPU-Sim uArch: core:  8, cta: 2 initialized @(3,0)
GPGPU-Sim uArch: core:  9, cta: 2 initialized @(3,0)
GPGPU-Sim uArch: core: 10, cta: 2 initialized @(3,0)
GPGPU-Sim uArch: core: 11, cta: 2 initialized @(3,0)
GPGPU-Sim uArch: core: 12, cta: 2 initialized @(3,0)
GPGPU-Sim uArch: core: 13, cta: 2 initialized @(3,0)
GPGPU-Sim uArch: core: 14, cta: 2 initialized @(3,0)
GPGPU-Sim uArch: core:  0, cta: 2 initialized @(3,0)
GPGPU-Sim PTX: 100000 instructions simulated : ctaid=(7,0,0) tid=(31,0,0)
GPGPU-Sim uArch: cycles simulated: 500  inst.: 92160 (ipc=184.3) sim_rate=8378 (inst/sec) elapsed = 0:0:00:11 / Tue Mar 22 07:37:03 2016
GPGPU-Sim PTX: 200000 instructions simulated : ctaid=(11,0,0) tid=(511,0,0)
GPGPU-Sim uArch: cycles simulated: 1000  inst.: 250177 (ipc=250.2) sim_rate=19244 (inst/sec) elapsed = 0:0:00:13 / Tue Mar 22 07:37:05 2016
GPGPU-Sim PTX: 300000 instructions simulated : ctaid=(15,0,0) tid=(285,0,0)
GPGPU-Sim uArch: Shader 3 finished CTA #0 (1256,0), 2 CTAs running
GPGPU-Sim uArch: Shader 3 finished CTA #1 (1256,0), 1 CTAs running
GPGPU-Sim uArch: core:  3, cta: 0 initialized @(1257,0)
GPGPU-Sim uArch: core:  3, cta: 1 initialized @(1258,0)
GPGPU-Sim uArch: Shader 1 finished CTA #1 (1259,0), 2 CTAs running
GPGPU-Sim uArch: core:  1, cta: 1 initialized @(1260,0)
GPGPU-Sim uArch: Shader 0 finished CTA #0 (1265,0), 2 CTAs running
GPGPU-Sim uArch: Shader 0 finished CTA #1 (1265,0), 1 CTAs running
GPGPU-Sim uArch: core:  0, cta: 0 initialized @(1266,0)
GPGPU-Sim uArch: core:  0, cta: 1 initialized @(1267,0)
GPGPU-Sim uArch: Shader 4 finished CTA #0 (1273,0), 2 CTAs running
GPGPU-Sim uArch: Shader 4 finished CTA #1 (1273,0), 1 CTAs running
GPGPU-Sim uArch: core:  4, cta: 0 initialized @(1274,0)
GPGPU-Sim uArch: core:  4, cta: 1 initialized @(1275,0)
GPGPU-Sim uArch: Shader 1 finished CTA #2 (1276,0), 2 CTAs running
GPGPU-Sim uArch: Shader 5 finished CTA #0 (1276,0), 2 CTAs running
GPGPU-Sim uArch: Shader 5 finished CTA #1 (1276,0), 1 CTAs running
GPGPU-Sim uArch: core:  5, cta: 0 initialized @(1277,0)
GPGPU-Sim uArch: core:  1, cta: 2 initialized @(1277,0)
GPGPU-Sim uArch: core:  5, cta: 1 initialized @(1278,0)
GPGPU-Sim uArch: Shader 6 finished CTA #0 (1281,0), 2 CTAs running
GPGPU-Sim uArch: core:  6, cta: 0 initialized @(1282,0)
GPGPU-Sim uArch: Shader 2 finished CTA #0 (1283,0), 2 CTAs running
GPGPU-Sim uArch: Shader 2 finished CTA #1 (1283,0), 1 CTAs running
GPGPU-Sim uArch: core:  2, cta: 0 initialized @(1284,0)
GPGPU-Sim uArch: core:  2, cta: 1 initialized @(1285,0)
GPGPU-Sim uArch: Shader 7 finished CTA #0 (1288,0), 2 CTAs running
GPGPU-Sim uArch: core:  7, cta: 0 initialized @(1289,0)
GPGPU-Sim uArch: Shader 3 finished CTA #2 (1296,0), 2 CTAs running
GPGPU-Sim uArch: core:  3, cta: 2 initialized @(1297,0)
GPGPU-Sim uArch: Shader 0 finished CTA #2 (1302,0), 2 CTAs running
GPGPU-Sim uArch: core:  0, cta: 2 initialized @(1303,0)
GPGPU-Sim uArch: Shader 9 finished CTA #0 (1303,0), 2 CTAs running
GPGPU-Sim uArch: core:  9, cta: 0 initialized @(1304,0)
GPGPU-Sim uArch: Shader 8 finished CTA #0 (1305,0), 2 CTAs running
GPGPU-Sim uArch: Shader 8 finished CTA #1 (1305,0), 1 CTAs running
GPGPU-Sim uArch: core:  8, cta: 0 initialized @(1306,0)
GPGPU-Sim uArch: core:  8, cta: 1 initialized @(1307,0)
GPGPU-Sim uArch: Shader 11 finished CTA #0 (1307,0), 2 CTAs running
GPGPU-Sim uArch: Shader 11 finished CTA #1 (1307,0), 1 CTAs running
GPGPU-Sim uArch: core: 11, cta: 0 initialized @(1308,0)
GPGPU-Sim uArch: Shader 4 finished CTA #2 (1308,0), 2 CTAs running
GPGPU-Sim uArch: core:  4, cta: 2 initialized @(1309,0)
GPGPU-Sim uArch: core: 11, cta: 1 initialized @(1309,0)
GPGPU-Sim uArch: Shader 6 finished CTA #1 (1310,0), 2 CTAs running
GPGPU-Sim uArch: Shader 6 finished CTA #2 (1310,0), 1 CTAs running
GPGPU-Sim uArch: Shader 10 finished CTA #0 (1310,0), 2 CTAs running
GPGPU-Sim uArch: core:  6, cta: 1 initialized @(1311,0)
GPGPU-Sim uArch: core: 10, cta: 0 initialized @(1311,0)
GPGPU-Sim uArch: core:  6, cta: 2 initialized @(1312,0)
GPGPU-Sim uArch: Shader 5 finished CTA #2 (1314,0), 2 CTAs running
GPGPU-Sim uArch: core:  5, cta: 2 initialized @(1315,0)
GPGPU-Sim uArch: Shader 7 finished CTA #1 (1316,0), 2 CTAs running
GPGPU-Sim uArch: Shader 7 finished CTA #2 (1316,0), 1 CTAs running
GPGPU-Sim uArch: core:  7, cta: 1 initialized @(1317,0)
GPGPU-Sim uArch: core:  7, cta: 2 initialized @(1318,0)
GPGPU-Sim uArch: Shader 2 finished CTA #2 (1320,0), 2 CTAs running
GPGPU-Sim uArch: core:  2, cta: 2 initialized @(1321,0)
GPGPU-Sim uArch: Shader 13 finished CTA #0 (1329,0), 2 CTAs running
GPGPU-Sim uArch: Shader 13 finished CTA #1 (1329,0), 1 CTAs running
GPGPU-Sim uArch: core: 13, cta: 0 initialized @(1330,0)
GPGPU-Sim uArch: core: 13, cta: 1 initialized @(1331,0)
GPGPU-Sim uArch: Shader 12 finished CTA #0 (1333,0), 2 CTAs running
GPGPU-Sim uArch: Shader 12 finished CTA #1 (1333,0), 1 CTAs running
GPGPU-Sim uArch: core: 12, cta: 0 initialized @(1334,0)
GPGPU-Sim uArch: Shader 9 finished CTA #1 (1334,0), 2 CTAs running
GPGPU-Sim uArch: Shader 9 finished CTA #2 (1334,0), 1 CTAs running
GPGPU-Sim uArch: core:  9, cta: 1 initialized @(1335,0)
GPGPU-Sim uArch: core: 12, cta: 1 initialized @(1335,0)
GPGPU-Sim uArch: Shader 14 finished CTA #0 (1335,0), 2 CTAs running
GPGPU-Sim uArch: Shader 14 finished CTA #1 (1335,0), 1 CTAs running
GPGPU-Sim uArch: core: 14, cta: 0 initialized @(1336,0)
GPGPU-Sim uArch: core:  9, cta: 2 initialized @(1336,0)
GPGPU-Sim uArch: core: 14, cta: 1 initialized @(1337,0)
GPGPU-Sim uArch: Shader 8 finished CTA #2 (1338,0), 2 CTAs running
GPGPU-Sim uArch: core:  8, cta: 2 initialized @(1339,0)
GPGPU-Sim uArch: Shader 10 finished CTA #1 (1340,0), 2 CTAs running
GPGPU-Sim uArch: Shader 10 finished CTA #2 (1340,0), 1 CTAs running
GPGPU-Sim uArch: core: 10, cta: 1 initialized @(1341,0)
GPGPU-Sim uArch: core: 10, cta: 2 initialized @(1342,0)
GPGPU-Sim uArch: Shader 11 finished CTA #2 (1344,0), 2 CTAs running
GPGPU-Sim uArch: core: 11, cta: 2 initialized @(1345,0)
GPGPU-Sim uArch: Shader 13 finished CTA #2 (1362,0), 2 CTAs running
GPGPU-Sim uArch: core: 13, cta: 2 initialized @(1363,0)
GPGPU-Sim PTX: 400000 instructions simulated : ctaid=(50,0,0) tid=(377,0,0)
GPGPU-Sim uArch: Shader 12 finished CTA #2 (1368,0), 2 CTAs running
GPGPU-Sim uArch: core: 12, cta: 2 initialized @(1369,0)
GPGPU-Sim uArch: Shader 14 finished CTA #2 (1374,0), 2 CTAs running
GPGPU-Sim uArch: core: 14, cta: 2 initialized @(1375,0)
GPGPU-Sim PTX: 500000 instructions simulated : ctaid=(50,0,0) tid=(409,0,0)
GPGPU-Sim PTX: 600000 instructions simulated : ctaid=(84,0,0) tid=(334,0,0)
GPGPU-Sim uArch: Shader 1 finished CTA #1 (1693,0), 2 CTAs running
GPGPU-Sim uArch: core:  1, cta: 1 initialized @(1694,0)
GPGPU-Sim uArch: Shader 0 finished CTA #0 (1772,0), 2 CTAs running
GPGPU-Sim uArch: core:  0, cta: 0 initialized @(1773,0)
GPGPU-Sim uArch: Shader 3 finished CTA #0 (1788,0), 2 CTAs running
GPGPU-Sim uArch: core:  3, cta: 0 initialized @(1789,0)
GPGPU-Sim uArch: Shader 4 finished CTA #0 (1796,0), 2 CTAs running
GPGPU-Sim uArch: core:  4, cta: 0 initialized @(1797,0)
GPGPU-Sim uArch: Shader 3 finished CTA #1 (1806,0), 2 CTAs running
GPGPU-Sim uArch: core:  3, cta: 1 initialized @(1807,0)
GPGPU-Sim uArch: Shader 2 finished CTA #0 (1811,0), 2 CTAs running
GPGPU-Sim uArch: core:  2, cta: 0 initialized @(1812,0)
GPGPU-Sim uArch: Shader 1 finished CTA #2 (1815,0), 2 CTAs running
GPGPU-Sim uArch: Shader 5 finished CTA #0 (1815,0), 2 CTAs running
GPGPU-Sim uArch: core:  5, cta: 0 initialized @(1816,0)
GPGPU-Sim uArch: core:  1, cta: 2 initialized @(1816,0)
GPGPU-Sim uArch: Shader 4 finished CTA #1 (1816,0), 2 CTAs running
GPGPU-Sim uArch: core:  4, cta: 1 initialized @(1817,0)
GPGPU-Sim uArch: Shader 6 finished CTA #0 (1824,0), 2 CTAs running
GPGPU-Sim uArch: core:  6, cta: 0 initialized @(1825,0)
GPGPU-Sim uArch: Shader 10 finished CTA #0 (1825,0), 2 CTAs running
GPGPU-Sim uArch: core: 10, cta: 0 initialized @(1826,0)
GPGPU-Sim uArch: Shader 2 finished CTA #1 (1831,0), 2 CTAs running
GPGPU-Sim uArch: core:  2, cta: 1 initialized @(1832,0)
GPGPU-Sim uArch: Shader 5 finished CTA #1 (1832,0), 2 CTAs running
GPGPU-Sim uArch: core:  5, cta: 1 initialized @(1833,0)
GPGPU-Sim uArch: Shader 8 finished CTA #0 (1833,0), 2 CTAs running
GPGPU-Sim uArch: core:  8, cta: 0 initialized @(1834,0)
GPGPU-Sim uArch: Shader 7 finished CTA #0 (1837,0), 2 CTAs running
GPGPU-Sim uArch: core:  7, cta: 0 initialized @(1838,0)
GPGPU-Sim uArch: Shader 0 finished CTA #1 (1844,0), 2 CTAs running
GPGPU-Sim uArch: core:  0, cta: 1 initialized @(1845,0)
GPGPU-Sim uArch: Shader 9 finished CTA #0 (1846,0), 2 CTAs running
GPGPU-Sim uArch: core:  9, cta: 0 initialized @(1847,0)
GPGPU-Sim uArch: Shader 13 finished CTA #0 (1849,0), 2 CTAs running
GPGPU-Sim uArch: core: 13, cta: 0 initialized @(1850,0)
GPGPU-Sim uArch: Shader 8 finished CTA #1 (1850,0), 2 CTAs running
GPGPU-Sim uArch: core:  8, cta: 1 initialized @(1851,0)
GPGPU-Sim uArch: Shader 7 finished CTA #1 (1861,0), 2 CTAs running
GPGPU-Sim uArch: core:  7, cta: 1 initialized @(1862,0)
GPGPU-Sim uArch: Shader 11 finished CTA #1 (1863,0), 2 CTAs running
GPGPU-Sim uArch: core: 11, cta: 1 initialized @(1864,0)
GPGPU-Sim uArch: Shader 13 finished CTA #1 (1873,0), 2 CTAs running
GPGPU-Sim uArch: core: 13, cta: 1 initialized @(1874,0)
GPGPU-Sim PTX: 700000 instructions simulated : ctaid=(65,0,0) tid=(366,0,0)
GPGPU-Sim uArch: Shader 14 finished CTA #0 (1885,0), 2 CTAs running
GPGPU-Sim uArch: core: 14, cta: 0 initialized @(1886,0)
GPGPU-Sim uArch: Shader 11 finished CTA #0 (1888,0), 2 CTAs running
GPGPU-Sim uArch: core: 11, cta: 0 initialized @(1889,0)
GPGPU-Sim uArch: Shader 12 finished CTA #1 (1893,0), 2 CTAs running
GPGPU-Sim uArch: core: 12, cta: 1 initialized @(1894,0)
GPGPU-Sim uArch: Shader 12 finished CTA #0 (1894,0), 2 CTAs running
GPGPU-Sim uArch: core: 12, cta: 0 initialized @(1895,0)
GPGPU-Sim uArch: Shader 6 finished CTA #1 (1897,0), 2 CTAs running
GPGPU-Sim uArch: core:  6, cta: 1 initialized @(1898,0)
GPGPU-Sim uArch: Shader 14 finished CTA #1 (1907,0), 2 CTAs running
GPGPU-Sim uArch: core: 14, cta: 1 initialized @(1908,0)
GPGPU-Sim uArch: Shader 9 finished CTA #1 (1925,0), 2 CTAs running
GPGPU-Sim uArch: Shader 10 finished CTA #1 (1925,0), 2 CTAs running
GPGPU-Sim uArch: core:  9, cta: 1 initialized @(1926,0)
GPGPU-Sim uArch: core: 10, cta: 1 initialized @(1926,0)
GPGPU-Sim uArch: Shader 0 finished CTA #2 (1966,0), 2 CTAs running
GPGPU-Sim uArch: core:  0, cta: 2 initialized @(1967,0)
GPGPU-Sim uArch: Shader 5 finished CTA #2 (1974,0), 2 CTAs running
GPGPU-Sim uArch: core:  5, cta: 2 initialized @(1975,0)
GPGPU-Sim uArch: Shader 2 finished CTA #2 (1975,0), 2 CTAs running
GPGPU-Sim uArch: core:  2, cta: 2 initialized @(1976,0)
GPGPU-Sim uArch: Shader 3 finished CTA #2 (1977,0), 2 CTAs running
GPGPU-Sim uArch: core:  3, cta: 2 initialized @(1978,0)
GPGPU-Sim uArch: Shader 7 finished CTA #2 (1978,0), 2 CTAs running
GPGPU-Sim uArch: core:  7, cta: 2 initialized @(1979,0)
GPGPU-Sim uArch: Shader 4 finished CTA #2 (1982,0), 2 CTAs running
GPGPU-Sim uArch: core:  4, cta: 2 initialized @(1983,0)
GPGPU-Sim uArch: Shader 6 finished CTA #2 (1986,0), 2 CTAs running
GPGPU-Sim uArch: core:  6, cta: 2 initialized @(1987,0)
GPGPU-Sim uArch: Shader 8 finished CTA #2 (1996,0), 2 CTAs running
GPGPU-Sim PTX: 800000 instructions simulated : ctaid=(106,0,0) tid=(173,0,0)
GPGPU-Sim uArch: core:  8, cta: 2 initialized @(1997,0)
GPGPU-Sim uArch: cycles simulated: 2000  inst.: 739184 (ipc=369.6) sim_rate=52798 (inst/sec) elapsed = 0:0:00:14 / Tue Mar 22 07:37:06 2016
GPGPU-Sim uArch: Shader 9 finished CTA #2 (2008,0), 2 CTAs running
GPGPU-Sim uArch: core:  9, cta: 2 initialized @(2009,0)
GPGPU-Sim uArch: Shader 10 finished CTA #2 (2013,0), 2 CTAs running
GPGPU-Sim uArch: core: 10, cta: 2 initialized @(2014,0)
GPGPU-Sim uArch: Shader 11 finished CTA #2 (2021,0), 2 CTAs running
GPGPU-Sim uArch: Shader 13 finished CTA #2 (2021,0), 2 CTAs running
GPGPU-Sim uArch: core: 11, cta: 2 initialized @(2022,0)
GPGPU-Sim uArch: core: 13, cta: 2 initialized @(2022,0)
GPGPU-Sim uArch: Shader 14 finished CTA #2 (2029,0), 2 CTAs running
GPGPU-Sim uArch: core: 14, cta: 2 initialized @(2030,0)
GPGPU-Sim uArch: Shader 12 finished CTA #2 (2034,0), 2 CTAs running
GPGPU-Sim uArch: core: 12, cta: 2 initialized @(2035,0)
GPGPU-Sim uArch: Shader 1 finished CTA #1 (2121,0), 2 CTAs running
GPGPU-Sim uArch: core:  1, cta: 1 initialized @(2122,0)
GPGPU-Sim PTX: 900000 instructions simulated : ctaid=(123,0,0) tid=(301,0,0)
GPGPU-Sim uArch: Shader 1 finished CTA #2 (2261,0), 2 CTAs running
GPGPU-Sim uArch: core:  1, cta: 2 initialized @(2262,0)
GPGPU-Sim uArch: Shader 0 finished CTA #0 (2268,0), 2 CTAs running
GPGPU-Sim uArch: core:  0, cta: 0 initialized @(2269,0)
GPGPU-Sim uArch: Shader 3 finished CTA #0 (2285,0), 2 CTAs running
GPGPU-Sim uArch: core:  3, cta: 0 initialized @(2286,0)
GPGPU-Sim uArch: Shader 5 finished CTA #0 (2288,0), 2 CTAs running
GPGPU-Sim uArch: core:  5, cta: 0 initialized @(2289,0)
GPGPU-Sim uArch: Shader 2 finished CTA #0 (2290,0), 2 CTAs running
GPGPU-Sim uArch: core:  2, cta: 0 initialized @(2291,0)
GPGPU-Sim uArch: Shader 4 finished CTA #0 (2297,0), 2 CTAs running
GPGPU-Sim uArch: core:  4, cta: 0 initialized @(2298,0)
GPGPU-Sim uArch: Shader 8 finished CTA #0 (2311,0), 2 CTAs running
GPGPU-Sim uArch: core:  8, cta: 0 initialized @(2312,0)
GPGPU-Sim uArch: Shader 10 finished CTA #0 (2319,0), 2 CTAs running
GPGPU-Sim uArch: core: 10, cta: 0 initialized @(2320,0)
GPGPU-Sim uArch: Shader 6 finished CTA #0 (2330,0), 2 CTAs running
GPGPU-Sim uArch: core:  6, cta: 0 initialized @(2331,0)
GPGPU-Sim uArch: Shader 9 finished CTA #0 (2331,0), 2 CTAs running
GPGPU-Sim uArch: core:  9, cta: 0 initialized @(2332,0)
GPGPU-Sim PTX: 1000000 instructions simulated : ctaid=(134,0,0) tid=(202,0,0)
GPGPU-Sim uArch: Shader 7 finished CTA #0 (2344,0), 2 CTAs running
GPGPU-Sim uArch: core:  7, cta: 0 initialized @(2345,0)
GPGPU-Sim uArch: Shader 11 finished CTA #1 (2363,0), 2 CTAs running
GPGPU-Sim uArch: core: 11, cta: 1 initialized @(2364,0)
GPGPU-Sim uArch: Shader 3 finished CTA #1 (2383,0), 2 CTAs running
GPGPU-Sim uArch: core:  3, cta: 1 initialized @(2384,0)
GPGPU-Sim uArch: Shader 13 finished CTA #0 (2386,0), 2 CTAs running
GPGPU-Sim uArch: Shader 14 finished CTA #0 (2386,0), 2 CTAs running
GPGPU-Sim uArch: core: 13, cta: 0 initialized @(2387,0)
GPGPU-Sim uArch: core: 14, cta: 0 initialized @(2387,0)
GPGPU-Sim uArch: Shader 0 finished CTA #1 (2396,0), 2 CTAs running
GPGPU-Sim uArch: core:  0, cta: 1 initialized @(2397,0)
GPGPU-Sim uArch: Shader 4 finished CTA #1 (2408,0), 2 CTAs running
GPGPU-Sim uArch: core:  4, cta: 1 initialized @(2409,0)
GPGPU-Sim uArch: Shader 12 finished CTA #1 (2411,0), 2 CTAs running
GPGPU-Sim uArch: core: 12, cta: 1 initialized @(2412,0)
GPGPU-Sim uArch: Shader 2 finished CTA #1 (2419,0), 2 CTAs running
GPGPU-Sim uArch: core:  2, cta: 1 initialized @(2420,0)
GPGPU-Sim uArch: Shader 5 finished CTA #1 (2424,0), 2 CTAs running
GPGPU-Sim uArch: core:  5, cta: 1 initialized @(2425,0)
GPGPU-Sim uArch: Shader 8 finished CTA #1 (2446,0), 2 CTAs running
GPGPU-Sim uArch: core:  8, cta: 1 initialized @(2447,0)
GPGPU-Sim uArch: Shader 7 finished CTA #1 (2456,0), 2 CTAs running
GPGPU-Sim uArch: core:  7, cta: 1 initialized @(2457,0)
GPGPU-Sim uArch: Shader 10 finished CTA #1 (2462,0), 2 CTAs running
GPGPU-Sim uArch: core: 10, cta: 1 initialized @(2463,0)
GPGPU-Sim uArch: Shader 13 finished CTA #1 (2467,0), 2 CTAs running
GPGPU-Sim uArch: core: 13, cta: 1 initialized @(2468,0)
GPGPU-Sim PTX: 1100000 instructions simulated : ctaid=(144,0,0) tid=(452,0,0)
GPGPU-Sim uArch: Shader 11 finished CTA #0 (2469,0), 2 CTAs running
GPGPU-Sim uArch: core: 11, cta: 0 initialized @(2470,0)
GPGPU-Sim uArch: Shader 6 finished CTA #1 (2473,0), 2 CTAs running
GPGPU-Sim uArch: Shader 9 finished CTA #1 (2473,0), 2 CTAs running
GPGPU-Sim uArch: core:  6, cta: 1 initialized @(2474,0)
GPGPU-Sim uArch: core:  9, cta: 1 initialized @(2474,0)
GPGPU-Sim uArch: Shader 14 finished CTA #1 (2494,0), 2 CTAs running
GPGPU-Sim uArch: core: 14, cta: 1 initialized @(2495,0)
GPGPU-Sim uArch: cycles simulated: 2500  inst.: 1035159 (ipc=414.1) sim_rate=69010 (inst/sec) elapsed = 0:0:00:15 / Tue Mar 22 07:37:07 2016
GPGPU-Sim uArch: Shader 0 finished CTA #2 (2509,0), 2 CTAs running
GPGPU-Sim uArch: core:  0, cta: 2 initialized @(2510,0)
GPGPU-Sim uArch: Shader 5 finished CTA #2 (2513,0), 2 CTAs running
GPGPU-Sim uArch: Shader 12 finished CTA #0 (2513,0), 2 CTAs running
GPGPU-Sim uArch: core:  5, cta: 2 initialized @(2514,0)
GPGPU-Sim uArch: core: 12, cta: 0 initialized @(2514,0)
GPGPU-Sim uArch: Shader 3 finished CTA #2 (2517,0), 2 CTAs running
GPGPU-Sim uArch: core:  3, cta: 2 initialized @(2518,0)
GPGPU-Sim uArch: Shader 4 finished CTA #2 (2530,0), 2 CTAs running
GPGPU-Sim uArch: core:  4, cta: 2 initialized @(2531,0)
GPGPU-Sim uArch: Shader 2 finished CTA #2 (2540,0), 2 CTAs running
GPGPU-Sim uArch: core:  2, cta: 2 initialized @(2541,0)
GPGPU-Sim uArch: Shader 8 finished CTA #2 (2545,0), 2 CTAs running
GPGPU-Sim uArch: core:  8, cta: 2 initialized @(2546,0)
GPGPU-Sim uArch: Shader 1 finished CTA #1 (2552,0), 2 CTAs running
GPGPU-Sim uArch: core:  1, cta: 1 initialized @(2553,0)
GPGPU-Sim uArch: Shader 6 finished CTA #2 (2555,0), 2 CTAs running
GPGPU-Sim uArch: core:  6, cta: 2 initialized @(2556,0)
GPGPU-Sim uArch: Shader 10 finished CTA #2 (2556,0), 2 CTAs running
GPGPU-Sim uArch: core: 10, cta: 2 initialized @(2557,0)
GPGPU-Sim uArch: Shader 7 finished CTA #2 (2565,0), 2 CTAs running
GPGPU-Sim uArch: core:  7, cta: 2 initialized @(2566,0)
GPGPU-Sim uArch: Shader 9 finished CTA #2 (2570,0), 2 CTAs running
GPGPU-Sim uArch: core:  9, cta: 2 initialized @(2571,0)
GPGPU-Sim uArch: Shader 13 finished CTA #2 (2584,0), 2 CTAs running
GPGPU-Sim uArch: core: 13, cta: 2 initialized @(2585,0)
GPGPU-Sim uArch: Shader 11 finished CTA #2 (2587,0), 2 CTAs running
GPGPU-Sim uArch: core: 11, cta: 2 initialized @(2588,0)
GPGPU-Sim PTX: 1200000 instructions simulated : ctaid=(169,0,0) tid=(324,0,0)
GPGPU-Sim uArch: Shader 12 finished CTA #2 (2598,0), 2 CTAs running
GPGPU-Sim uArch: core: 12, cta: 2 initialized @(2599,0)
GPGPU-Sim uArch: Shader 14 finished CTA #2 (2603,0), 2 CTAs running
GPGPU-Sim uArch: core: 14, cta: 2 initialized @(2604,0)
GPGPU-Sim uArch: Shader 1 finished CTA #2 (2693,0), 2 CTAs running
GPGPU-Sim uArch: core:  1, cta: 2 initialized @(2694,0)
GPGPU-Sim uArch: Shader 0 finished CTA #0 (2708,0), 2 CTAs running
GPGPU-Sim uArch: core:  0, cta: 0 initialized @(2709,0)
GPGPU-Sim PTX: 1300000 instructions simulated : ctaid=(178,0,0) tid=(4,0,0)
GPGPU-Sim uArch: Shader 3 finished CTA #0 (2727,0), 2 CTAs running
GPGPU-Sim uArch: Shader 5 finished CTA #0 (2727,0), 2 CTAs running
GPGPU-Sim uArch: core:  3, cta: 0 initialized @(2728,0)
GPGPU-Sim uArch: core:  5, cta: 0 initialized @(2728,0)
GPGPU-Sim uArch: Shader 4 finished CTA #0 (2729,0), 2 CTAs running
GPGPU-Sim uArch: core:  4, cta: 0 initialized @(2730,0)
GPGPU-Sim uArch: Shader 2 finished CTA #0 (2730,0), 2 CTAs running
GPGPU-Sim uArch: core:  2, cta: 0 initialized @(2731,0)
GPGPU-Sim uArch: Shader 8 finished CTA #0 (2751,0), 2 CTAs running
GPGPU-Sim uArch: core:  8, cta: 0 initialized @(2752,0)
GPGPU-Sim uArch: Shader 10 finished CTA #0 (2763,0), 2 CTAs running
GPGPU-Sim uArch: core: 10, cta: 0 initialized @(2764,0)
GPGPU-Sim uArch: Shader 6 finished CTA #0 (2772,0), 2 CTAs running
GPGPU-Sim uArch: core:  6, cta: 0 initialized @(2773,0)
GPGPU-Sim uArch: Shader 9 finished CTA #0 (2773,0), 2 CTAs running
GPGPU-Sim uArch: core:  9, cta: 0 initialized @(2774,0)
GPGPU-Sim uArch: Shader 11 finished CTA #1 (2803,0), 2 CTAs running
GPGPU-Sim uArch: core: 11, cta: 1 initialized @(2804,0)
GPGPU-Sim uArch: Shader 7 finished CTA #0 (2836,0), 2 CTAs running
GPGPU-Sim uArch: core:  7, cta: 0 initialized @(2837,0)
GPGPU-Sim uArch: Shader 14 finished CTA #0 (2837,0), 2 CTAs running
GPGPU-Sim uArch: core: 14, cta: 0 initialized @(2838,0)
GPGPU-Sim uArch: Shader 0 finished CTA #1 (2864,0), 2 CTAs running
GPGPU-Sim uArch: core:  0, cta: 1 initialized @(2865,0)
GPGPU-Sim PTX: 1400000 instructions simulated : ctaid=(146,0,0) tid=(496,0,0)
GPGPU-Sim uArch: Shader 2 finished CTA #1 (2881,0), 2 CTAs running
GPGPU-Sim uArch: core:  2, cta: 1 initialized @(2882,0)
GPGPU-Sim uArch: Shader 13 finished CTA #0 (2883,0), 2 CTAs running
GPGPU-Sim uArch: core: 13, cta: 0 initialized @(2884,0)
GPGPU-Sim uArch: Shader 3 finished CTA #1 (2884,0), 2 CTAs running
GPGPU-Sim uArch: Shader 4 finished CTA #1 (2884,0), 2 CTAs running
GPGPU-Sim uArch: core:  3, cta: 1 initialized @(2885,0)
GPGPU-Sim uArch: core:  4, cta: 1 initialized @(2885,0)
GPGPU-Sim uArch: Shader 5 finished CTA #1 (2891,0), 2 CTAs running
GPGPU-Sim uArch: core:  5, cta: 1 initialized @(2892,0)
GPGPU-Sim uArch: Shader 12 finished CTA #1 (2909,0), 2 CTAs running
GPGPU-Sim uArch: core: 12, cta: 1 initialized @(2910,0)
GPGPU-Sim uArch: Shader 8 finished CTA #1 (2915,0), 2 CTAs running
GPGPU-Sim uArch: core:  8, cta: 1 initialized @(2916,0)
GPGPU-Sim uArch: Shader 10 finished CTA #1 (2922,0), 2 CTAs running
GPGPU-Sim uArch: core: 10, cta: 1 initialized @(2923,0)
GPGPU-Sim uArch: Shader 6 finished CTA #1 (2933,0), 2 CTAs running
GPGPU-Sim uArch: core:  6, cta: 1 initialized @(2934,0)
GPGPU-Sim uArch: Shader 9 finished CTA #1 (2935,0), 2 CTAs running
GPGPU-Sim uArch: core:  9, cta: 1 initialized @(2936,0)
GPGPU-Sim uArch: Shader 11 finished CTA #0 (2967,0), 2 CTAs running
GPGPU-Sim uArch: core: 11, cta: 0 initialized @(2968,0)
GPGPU-Sim uArch: Shader 7 finished CTA #1 (2969,0), 2 CTAs running
GPGPU-Sim uArch: core:  7, cta: 1 initialized @(2970,0)
GPGPU-Sim uArch: Shader 0 finished CTA #2 (2992,0), 2 CTAs running
GPGPU-Sim uArch: Shader 1 finished CTA #1 (2992,0), 2 CTAs running
GPGPU-Sim uArch: core:  0, cta: 2 initialized @(2993,0)
GPGPU-Sim uArch: core:  1, cta: 1 initialized @(2993,0)
GPGPU-Sim uArch: Shader 14 finished CTA #1 (2994,0), 2 CTAs running
GPGPU-Sim uArch: core: 14, cta: 1 initialized @(2995,0)
GPGPU-Sim uArch: cycles simulated: 3000  inst.: 1368651 (ipc=456.2) sim_rate=80508 (inst/sec) elapsed = 0:0:00:17 / Tue Mar 22 07:37:09 2016
GPGPU-Sim uArch: Shader 3 finished CTA #2 (3005,0), 2 CTAs running
GPGPU-Sim uArch: core:  3, cta: 2 initialized @(3006,0)
GPGPU-Sim uArch: Shader 4 finished CTA #2 (3008,0), 2 CTAs running
GPGPU-Sim uArch: core:  4, cta: 2 initialized @(3009,0)
GPGPU-Sim uArch: Shader 13 finished CTA #1 (3009,0), 2 CTAs running
GPGPU-Sim uArch: core: 13, cta: 1 initialized @(3010,0)
GPGPU-Sim uArch: Shader 2 finished CTA #2 (3014,0), 2 CTAs running
GPGPU-Sim uArch: core:  2, cta: 2 initialized @(3015,0)
GPGPU-Sim PTX: 1500000 instructions simulated : ctaid=(192,0,0) tid=(368,0,0)
GPGPU-Sim uArch: Shader 5 finished CTA #2 (3020,0), 2 CTAs running
GPGPU-Sim uArch: core:  5, cta: 2 initialized @(3021,0)
GPGPU-Sim uArch: Shader 8 finished CTA #2 (3034,0), 2 CTAs running
GPGPU-Sim uArch: core:  8, cta: 2 initialized @(3035,0)
GPGPU-Sim uArch: Shader 12 finished CTA #0 (3048,0), 2 CTAs running
GPGPU-Sim uArch: core: 12, cta: 0 initialized @(3049,0)
GPGPU-Sim uArch: Shader 10 finished CTA #2 (3052,0), 2 CTAs running
GPGPU-Sim uArch: core: 10, cta: 2 initialized @(3053,0)
GPGPU-Sim uArch: Shader 6 finished CTA #2 (3060,0), 2 CTAs running
GPGPU-Sim uArch: core:  6, cta: 2 initialized @(3061,0)
GPGPU-Sim uArch: Shader 9 finished CTA #2 (3064,0), 2 CTAs running
GPGPU-Sim uArch: core:  9, cta: 2 initialized @(3065,0)
GPGPU-Sim uArch: Shader 7 finished CTA #2 (3084,0), 2 CTAs running
GPGPU-Sim uArch: core:  7, cta: 2 initialized @(3085,0)
GPGPU-Sim uArch: Shader 11 finished CTA #2 (3092,0), 2 CTAs running
GPGPU-Sim uArch: core: 11, cta: 2 initialized @(3093,0)
GPGPU-Sim uArch: Shader 13 finished CTA #2 (3108,0), 2 CTAs running
GPGPU-Sim uArch: core: 13, cta: 2 initialized @(3109,0)
GPGPU-Sim uArch: Shader 14 finished CTA #2 (3123,0), 2 CTAs running
GPGPU-Sim uArch: core: 14, cta: 2 initialized @(3124,0)
GPGPU-Sim uArch: Shader 1 finished CTA #2 (3128,0), 2 CTAs running
GPGPU-Sim uArch: core:  1, cta: 2 initialized @(3129,0)
GPGPU-Sim uArch: Shader 12 finished CTA #2 (3132,0), 2 CTAs running
GPGPU-Sim uArch: core: 12, cta: 2 initialized @(3133,0)
GPGPU-Sim PTX: 1600000 instructions simulated : ctaid=(214,0,0) tid=(272,0,0)
GPGPU-Sim uArch: Shader 0 finished CTA #0 (3148,0), 2 CTAs running
GPGPU-Sim uArch: core:  0, cta: 0 initialized @(3149,0)
GPGPU-Sim uArch: Shader 2 finished CTA #0 (3165,0), 2 CTAs running
GPGPU-Sim uArch: core:  2, cta: 0 initialized @(3166,0)
GPGPU-Sim uArch: Shader 3 finished CTA #0 (3169,0), 2 CTAs running
GPGPU-Sim uArch: core:  3, cta: 0 initialized @(3170,0)
GPGPU-Sim uArch: Shader 4 finished CTA #0 (3170,0), 2 CTAs running
GPGPU-Sim uArch: Shader 5 finished CTA #0 (3170,0), 2 CTAs running
GPGPU-Sim uArch: core:  4, cta: 0 initialized @(3171,0)
GPGPU-Sim uArch: core:  5, cta: 0 initialized @(3171,0)
GPGPU-Sim uArch: Shader 8 finished CTA #0 (3194,0), 2 CTAs running
GPGPU-Sim uArch: core:  8, cta: 0 initialized @(3195,0)
GPGPU-Sim uArch: Shader 10 finished CTA #0 (3204,0), 2 CTAs running
GPGPU-Sim uArch: core: 10, cta: 0 initialized @(3205,0)
GPGPU-Sim uArch: Shader 6 finished CTA #0 (3209,0), 2 CTAs running
GPGPU-Sim uArch: core:  6, cta: 0 initialized @(3210,0)
GPGPU-Sim uArch: Shader 9 finished CTA #0 (3219,0), 2 CTAs running
GPGPU-Sim uArch: core:  9, cta: 0 initialized @(3220,0)
GPGPU-Sim uArch: Shader 11 finished CTA #1 (3246,0), 2 CTAs running
GPGPU-Sim uArch: core: 11, cta: 1 initialized @(3247,0)
GPGPU-Sim PTX: 1700000 instructions simulated : ctaid=(223,0,0) tid=(426,0,0)
GPGPU-Sim uArch: Shader 14 finished CTA #0 (3268,0), 2 CTAs running
GPGPU-Sim uArch: core: 14, cta: 0 initialized @(3269,0)
GPGPU-Sim uArch: Shader 7 finished CTA #0 (3274,0), 2 CTAs running
GPGPU-Sim uArch: core:  7, cta: 0 initialized @(3275,0)
GPGPU-Sim uArch: Shader 0 finished CTA #1 (3301,0), 2 CTAs running
GPGPU-Sim uArch: core:  0, cta: 1 initialized @(3302,0)
GPGPU-Sim uArch: Shader 2 finished CTA #1 (3322,0), 2 CTAs running
GPGPU-Sim uArch: Shader 4 finished CTA #1 (3322,0), 2 CTAs running
GPGPU-Sim uArch: core:  2, cta: 1 initialized @(3323,0)
GPGPU-Sim uArch: core:  4, cta: 1 initialized @(3323,0)
GPGPU-Sim uArch: Shader 3 finished CTA #1 (3329,0), 2 CTAs running
GPGPU-Sim uArch: core:  3, cta: 1 initialized @(3330,0)
GPGPU-Sim uArch: Shader 5 finished CTA #1 (3330,0), 2 CTAs running
GPGPU-Sim uArch: core:  5, cta: 1 initialized @(3331,0)
GPGPU-Sim uArch: Shader 13 finished CTA #0 (3342,0), 2 CTAs running
GPGPU-Sim uArch: core: 13, cta: 0 initialized @(3343,0)
GPGPU-Sim uArch: Shader 12 finished CTA #1 (3347,0), 2 CTAs running
GPGPU-Sim uArch: core: 12, cta: 1 initialized @(3348,0)
GPGPU-Sim uArch: Shader 8 finished CTA #1 (3360,0), 2 CTAs running
GPGPU-Sim uArch: Shader 10 finished CTA #1 (3360,0), 2 CTAs running
GPGPU-Sim uArch: core:  8, cta: 1 initialized @(3361,0)
GPGPU-Sim uArch: core: 10, cta: 1 initialized @(3361,0)
GPGPU-Sim uArch: Shader 6 finished CTA #1 (3370,0), 2 CTAs running
GPGPU-Sim uArch: core:  6, cta: 1 initialized @(3371,0)
GPGPU-Sim uArch: Shader 9 finished CTA #1 (3372,0), 2 CTAs running
GPGPU-Sim uArch: core:  9, cta: 1 initialized @(3373,0)
GPGPU-Sim PTX: 1800000 instructions simulated : ctaid=(243,0,0) tid=(220,0,0)
GPGPU-Sim uArch: Shader 11 finished CTA #0 (3408,0), 2 CTAs running
GPGPU-Sim uArch: core: 11, cta: 0 initialized @(3409,0)
GPGPU-Sim uArch: Shader 1 finished CTA #1 (3418,0), 2 CTAs running
GPGPU-Sim uArch: core:  1, cta: 1 initialized @(3419,0)
GPGPU-Sim uArch: Shader 7 finished CTA #1 (3422,0), 2 CTAs running
GPGPU-Sim uArch: core:  7, cta: 1 initialized @(3423,0)
GPGPU-Sim uArch: Shader 14 finished CTA #1 (3435,0), 2 CTAs running
GPGPU-Sim uArch: core: 14, cta: 1 initialized @(3436,0)
GPGPU-Sim uArch: Shader 0 finished CTA #2 (3451,0), 2 CTAs running
GPGPU-Sim uArch: core:  0, cta: 2 initialized @(3452,0)
GPGPU-Sim uArch: Shader 2 finished CTA #2 (3464,0), 2 CTAs running
GPGPU-Sim uArch: core:  2, cta: 2 initialized @(3465,0)
GPGPU-Sim uArch: Shader 4 finished CTA #2 (3465,0), 2 CTAs running
GPGPU-Sim uArch: core:  4, cta: 2 initialized @(3466,0)
GPGPU-Sim uArch: Shader 3 finished CTA #2 (3472,0), 2 CTAs running
GPGPU-Sim uArch: core:  3, cta: 2 initialized @(3473,0)
GPGPU-Sim uArch: Shader 5 finished CTA #2 (3476,0), 2 CTAs running
GPGPU-Sim uArch: core:  5, cta: 2 initialized @(3477,0)
GPGPU-Sim uArch: Shader 13 finished CTA #1 (3492,0), 2 CTAs running
GPGPU-Sim uArch: core: 13, cta: 1 initialized @(3493,0)
GPGPU-Sim uArch: cycles simulated: 3500  inst.: 1722084 (ipc=492.0) sim_rate=95671 (inst/sec) elapsed = 0:0:00:18 / Tue Mar 22 07:37:10 2016
GPGPU-Sim uArch: Shader 8 finished CTA #2 (3501,0), 2 CTAs running
GPGPU-Sim uArch: core:  8, cta: 2 initialized @(3502,0)
GPGPU-Sim uArch: Shader 10 finished CTA #2 (3509,0), 2 CTAs running
GPGPU-Sim uArch: core: 10, cta: 2 initialized @(3510,0)
GPGPU-Sim uArch: Shader 6 finished CTA #2 (3519,0), 2 CTAs running
GPGPU-Sim uArch: core:  6, cta: 2 initialized @(3520,0)
GPGPU-Sim uArch: Shader 9 finished CTA #2 (3520,0), 2 CTAs running
GPGPU-Sim uArch: core:  9, cta: 2 initialized @(3521,0)
GPGPU-Sim uArch: Shader 12 finished CTA #0 (3526,0), 2 CTAs running
GPGPU-Sim uArch: core: 12, cta: 0 initialized @(3527,0)
GPGPU-Sim PTX: 1900000 instructions simulated : ctaid=(258,0,0) tid=(86,0,0)
GPGPU-Sim uArch: Shader 11 finished CTA #2 (3550,0), 2 CTAs running
GPGPU-Sim uArch: core: 11, cta: 2 initialized @(3551,0)
GPGPU-Sim uArch: Shader 1 finished CTA #2 (3559,0), 2 CTAs running
GPGPU-Sim uArch: core:  1, cta: 2 initialized @(3560,0)
GPGPU-Sim uArch: Shader 7 finished CTA #2 (3564,0), 2 CTAs running
GPGPU-Sim uArch: core:  7, cta: 2 initialized @(3565,0)
GPGPU-Sim uArch: Shader 14 finished CTA #2 (3584,0), 2 CTAs running
GPGPU-Sim uArch: core: 14, cta: 2 initialized @(3585,0)
GPGPU-Sim uArch: Shader 0 finished CTA #0 (3593,0), 2 CTAs running
GPGPU-Sim uArch: core:  0, cta: 0 initialized @(3594,0)
GPGPU-Sim uArch: Shader 4 finished CTA #0 (3610,0), 2 CTAs running
GPGPU-Sim uArch: core:  4, cta: 0 initialized @(3611,0)
GPGPU-Sim uArch: Shader 2 finished CTA #0 (3614,0), 2 CTAs running
GPGPU-Sim uArch: core:  2, cta: 0 initialized @(3615,0)
GPGPU-Sim uArch: Shader 13 finished CTA #2 (3616,0), 2 CTAs running
GPGPU-Sim uArch: core: 13, cta: 2 initialized @(3617,0)
GPGPU-Sim uArch: Shader 3 finished CTA #0 (3620,0), 2 CTAs running
GPGPU-Sim uArch: core:  3, cta: 0 initialized @(3621,0)
GPGPU-Sim uArch: Shader 5 finished CTA #0 (3625,0), 2 CTAs running
GPGPU-Sim uArch: core:  5, cta: 0 initialized @(3626,0)
GPGPU-Sim uArch: Shader 8 finished CTA #0 (3639,0), 2 CTAs running
GPGPU-Sim uArch: core:  8, cta: 0 initialized @(3640,0)
GPGPU-Sim uArch: Shader 12 finished CTA #2 (3644,0), 2 CTAs running
GPGPU-Sim uArch: core: 12, cta: 2 initialized @(3645,0)
GPGPU-Sim uArch: Shader 10 finished CTA #0 (3649,0), 2 CTAs running
GPGPU-Sim uArch: core: 10, cta: 0 initialized @(3650,0)
GPGPU-Sim uArch: Shader 6 finished CTA #0 (3657,0), 2 CTAs running
GPGPU-Sim uArch: core:  6, cta: 0 initialized @(3658,0)
GPGPU-Sim PTX: 2000000 instructions simulated : ctaid=(267,0,0) tid=(118,0,0)
GPGPU-Sim uArch: Shader 9 finished CTA #0 (3668,0), 2 CTAs running
GPGPU-Sim uArch: core:  9, cta: 0 initialized @(3669,0)
GPGPU-Sim uArch: Shader 11 finished CTA #1 (3696,0), 2 CTAs running
GPGPU-Sim uArch: core: 11, cta: 1 initialized @(3697,0)
GPGPU-Sim uArch: Shader 7 finished CTA #0 (3716,0), 2 CTAs running
GPGPU-Sim uArch: core:  7, cta: 0 initialized @(3717,0)
GPGPU-Sim uArch: Shader 14 finished CTA #0 (3722,0), 2 CTAs running
GPGPU-Sim uArch: core: 14, cta: 0 initialized @(3723,0)
GPGPU-Sim uArch: Shader 0 finished CTA #1 (3738,0), 2 CTAs running
GPGPU-Sim uArch: core:  0, cta: 1 initialized @(3739,0)
GPGPU-Sim uArch: Shader 2 finished CTA #1 (3764,0), 2 CTAs running
GPGPU-Sim uArch: Shader 4 finished CTA #1 (3764,0), 2 CTAs running
GPGPU-Sim uArch: core:  2, cta: 1 initialized @(3765,0)
GPGPU-Sim uArch: core:  4, cta: 1 initialized @(3765,0)
GPGPU-Sim uArch: Shader 5 finished CTA #1 (3767,0), 2 CTAs running
GPGPU-Sim uArch: core:  5, cta: 1 initialized @(3768,0)
GPGPU-Sim uArch: Shader 3 finished CTA #1 (3769,0), 2 CTAs running
GPGPU-Sim uArch: core:  3, cta: 1 initialized @(3770,0)
GPGPU-Sim uArch: Shader 13 finished CTA #0 (3788,0), 2 CTAs running
GPGPU-Sim uArch: core: 13, cta: 0 initialized @(3789,0)
GPGPU-Sim uArch: Shader 8 finished CTA #1 (3794,0), 2 CTAs running
GPGPU-Sim uArch: Shader 10 finished CTA #1 (3794,0), 2 CTAs running
GPGPU-Sim uArch: core:  8, cta: 1 initialized @(3795,0)
GPGPU-Sim uArch: core: 10, cta: 1 initialized @(3795,0)
GPGPU-Sim PTX: 2100000 instructions simulated : ctaid=(281,0,0) tid=(41,0,0)
GPGPU-Sim uArch: Shader 6 finished CTA #1 (3807,0), 2 CTAs running
GPGPU-Sim uArch: core:  6, cta: 1 initialized @(3808,0)
GPGPU-Sim uArch: Shader 12 finished CTA #1 (3808,0), 2 CTAs running
GPGPU-Sim uArch: core: 12, cta: 1 initialized @(3809,0)
GPGPU-Sim uArch: Shader 9 finished CTA #1 (3815,0), 2 CTAs running
GPGPU-Sim uArch: core:  9, cta: 1 initialized @(3816,0)
GPGPU-Sim uArch: Shader 11 finished CTA #0 (3845,0), 2 CTAs running
GPGPU-Sim uArch: core: 11, cta: 0 initialized @(3846,0)
GPGPU-Sim uArch: Shader 1 finished CTA #1 (3851,0), 2 CTAs running
GPGPU-Sim uArch: core:  1, cta: 1 initialized @(3852,0)
GPGPU-Sim uArch: Shader 7 finished CTA #1 (3867,0), 2 CTAs running
GPGPU-Sim uArch: core:  7, cta: 1 initialized @(3868,0)
GPGPU-Sim uArch: Shader 14 finished CTA #1 (3869,0), 2 CTAs running
GPGPU-Sim uArch: core: 14, cta: 1 initialized @(3870,0)
GPGPU-Sim uArch: Shader 0 finished CTA #2 (3892,0), 2 CTAs running
GPGPU-Sim uArch: core:  0, cta: 2 initialized @(3893,0)
GPGPU-Sim uArch: Shader 4 finished CTA #2 (3906,0), 2 CTAs running
GPGPU-Sim uArch: core:  4, cta: 2 initialized @(3907,0)
GPGPU-Sim uArch: Shader 2 finished CTA #2 (3907,0), 2 CTAs running
GPGPU-Sim uArch: core:  2, cta: 2 initialized @(3908,0)
GPGPU-Sim uArch: Shader 3 finished CTA #2 (3916,0), 2 CTAs running
GPGPU-Sim uArch: core:  3, cta: 2 initialized @(3917,0)
GPGPU-Sim uArch: Shader 5 finished CTA #2 (3918,0), 2 CTAs running
GPGPU-Sim uArch: core:  5, cta: 2 initialized @(3919,0)
GPGPU-Sim PTX: 2200000 instructions simulated : ctaid=(289,0,0) tid=(289,0,0)
GPGPU-Sim uArch: Shader 13 finished CTA #1 (3935,0), 2 CTAs running
GPGPU-Sim uArch: core: 13, cta: 1 initialized @(3936,0)
GPGPU-Sim uArch: Shader 8 finished CTA #2 (3945,0), 2 CTAs running
GPGPU-Sim uArch: core:  8, cta: 2 initialized @(3946,0)
GPGPU-Sim uArch: Shader 10 finished CTA #2 (3949,0), 2 CTAs running
GPGPU-Sim uArch: core: 10, cta: 2 initialized @(3950,0)
GPGPU-Sim uArch: Shader 6 finished CTA #2 (3957,0), 2 CTAs running
GPGPU-Sim uArch: core:  6, cta: 2 initialized @(3958,0)
GPGPU-Sim uArch: Shader 9 finished CTA #2 (3960,0), 2 CTAs running
GPGPU-Sim uArch: core:  9, cta: 2 initialized @(3961,0)
GPGPU-Sim uArch: Shader 12 finished CTA #0 (3969,0), 2 CTAs running
GPGPU-Sim uArch: core: 12, cta: 0 initialized @(3970,0)
GPGPU-Sim uArch: Shader 1 finished CTA #2 (3990,0), 2 CTAs running
GPGPU-Sim uArch: core:  1, cta: 2 initialized @(3991,0)
GPGPU-Sim uArch: Shader 11 finished CTA #2 (3997,0), 2 CTAs running
GPGPU-Sim uArch: core: 11, cta: 2 initialized @(3998,0)
GPGPU-Sim uArch: cycles simulated: 4000  inst.: 2081112 (ipc=520.3) sim_rate=109532 (inst/sec) elapsed = 0:0:00:19 / Tue Mar 22 07:37:11 2016
GPGPU-Sim uArch: Shader 7 finished CTA #2 (4014,0), 2 CTAs running
GPGPU-Sim uArch: core:  7, cta: 2 initialized @(4015,0)
GPGPU-Sim uArch: Shader 14 finished CTA #2 (4024,0), 2 CTAs running
GPGPU-Sim uArch: core: 14, cta: 2 initialized @(4025,0)
GPGPU-Sim uArch: Shader 0 finished CTA #0 (4040,0), 2 CTAs running
GPGPU-Sim uArch: core:  0, cta: 0 initialized @(4041,0)
GPGPU-Sim uArch: Shader 4 finished CTA #0 (4050,0), 2 CTAs running
GPGPU-Sim uArch: core:  4, cta: 0 initialized @(4051,0)
GPGPU-Sim uArch: Shader 2 finished CTA #0 (4051,0), 2 CTAs running
GPGPU-Sim uArch: core:  2, cta: 0 initialized @(4052,0)
GPGPU-Sim PTX: 2300000 instructions simulated : ctaid=(309,0,0) tid=(33,0,0)
GPGPU-Sim uArch: Shader 3 finished CTA #0 (4064,0), 2 CTAs running
GPGPU-Sim uArch: core:  3, cta: 0 initialized @(4065,0)
GPGPU-Sim uArch: Shader 5 finished CTA #0 (4067,0), 2 CTAs running
GPGPU-Sim uArch: core:  5, cta: 0 initialized @(4068,0)
GPGPU-Sim uArch: Shader 13 finished CTA #2 (4083,0), 2 CTAs running
GPGPU-Sim uArch: core: 13, cta: 2 initialized @(4084,0)
GPGPU-Sim uArch: Shader 8 finished CTA #0 (4086,0), 2 CTAs running
GPGPU-Sim uArch: core:  8, cta: 0 initialized @(4087,0)
GPGPU-Sim uArch: Shader 1 finished CTA #0 (4094,0), 2 CTAs running
GPGPU-Sim uArch: Shader 10 finished CTA #0 (4094,0), 2 CTAs running
GPGPU-Sim uArch: core: 10, cta: 0 initialized @(4095,0)
GPGPU-Sim uArch: core:  1, cta: 0 initialized @(4095,0)
GPGPU-Sim uArch: Shader 6 finished CTA #0 (4104,0), 2 CTAs running
GPGPU-Sim uArch: core:  6, cta: 0 initialized @(4105,0)
GPGPU-Sim uArch: Shader 9 finished CTA #0 (4112,0), 2 CTAs running
GPGPU-Sim uArch: core:  9, cta: 0 initialized @(4113,0)
GPGPU-Sim uArch: Shader 12 finished CTA #2 (4113,0), 2 CTAs running
GPGPU-Sim uArch: core: 12, cta: 2 initialized @(4114,0)
GPGPU-Sim uArch: Shader 11 finished CTA #1 (4142,0), 2 CTAs running
GPGPU-Sim uArch: core: 11, cta: 1 initialized @(4143,0)
GPGPU-Sim uArch: Shader 7 finished CTA #0 (4159,0), 2 CTAs running
GPGPU-Sim uArch: core:  7, cta: 0 initialized @(4160,0)
GPGPU-Sim uArch: Shader 14 finished CTA #0 (4171,0), 2 CTAs running
GPGPU-Sim uArch: core: 14, cta: 0 initialized @(4172,0)
GPGPU-Sim uArch: Shader 0 finished CTA #1 (4177,0), 2 CTAs running
GPGPU-Sim uArch: core:  0, cta: 1 initialized @(4178,0)
GPGPU-Sim PTX: 2400000 instructions simulated : ctaid=(314,0,0) tid=(193,0,0)
GPGPU-Sim uArch: Shader 2 finished CTA #1 (4202,0), 2 CTAs running
GPGPU-Sim uArch: core:  2, cta: 1 initialized @(4203,0)
GPGPU-Sim uArch: Shader 4 finished CTA #1 (4203,0), 2 CTAs running
GPGPU-Sim uArch: core:  4, cta: 1 initialized @(4204,0)
GPGPU-Sim uArch: Shader 5 finished CTA #1 (4209,0), 2 CTAs running
GPGPU-Sim uArch: core:  5, cta: 1 initialized @(4210,0)
GPGPU-Sim uArch: Shader 3 finished CTA #1 (4211,0), 2 CTAs running
GPGPU-Sim uArch: core:  3, cta: 1 initialized @(4212,0)
GPGPU-Sim uArch: Shader 13 finished CTA #0 (4223,0), 2 CTAs running
GPGPU-Sim uArch: core: 13, cta: 0 initialized @(4224,0)
GPGPU-Sim uArch: Shader 8 finished CTA #1 (4237,0), 2 CTAs running
GPGPU-Sim uArch: Shader 10 finished CTA #1 (4237,0), 2 CTAs running
GPGPU-Sim uArch: core:  8, cta: 1 initialized @(4238,0)
GPGPU-Sim uArch: core: 10, cta: 1 initialized @(4238,0)
GPGPU-Sim uArch: Shader 6 finished CTA #1 (4245,0), 2 CTAs running
GPGPU-Sim uArch: core:  6, cta: 1 initialized @(4246,0)
GPGPU-Sim uArch: Shader 12 finished CTA #1 (4260,0), 2 CTAs running
GPGPU-Sim uArch: core: 12, cta: 1 initialized @(4261,0)
GPGPU-Sim uArch: Shader 9 finished CTA #1 (4261,0), 2 CTAs running
GPGPU-Sim uArch: core:  9, cta: 1 initialized @(4262,0)
GPGPU-Sim uArch: Shader 1 finished CTA #1 (4278,0), 2 CTAs running
GPGPU-Sim uArch: core:  1, cta: 1 initialized @(4279,0)
GPGPU-Sim uArch: Shader 11 finished CTA #0 (4289,0), 2 CTAs running
GPGPU-Sim uArch: core: 11, cta: 0 initialized @(4290,0)
GPGPU-Sim uArch: Shader 7 finished CTA #1 (4308,0), 2 CTAs running
GPGPU-Sim uArch: core:  7, cta: 1 initialized @(4309,0)
GPGPU-Sim PTX: 2500000 instructions simulated : ctaid=(331,0,0) tid=(65,0,0)
GPGPU-Sim uArch: Shader 14 finished CTA #1 (4316,0), 2 CTAs running
GPGPU-Sim uArch: core: 14, cta: 1 initialized @(4317,0)
GPGPU-Sim uArch: Shader 0 finished CTA #2 (4331,0), 2 CTAs running
GPGPU-Sim uArch: core:  0, cta: 2 initialized @(4332,0)
GPGPU-Sim uArch: Shader 2 finished CTA #2 (4347,0), 2 CTAs running
GPGPU-Sim uArch: core:  2, cta: 2 initialized @(4348,0)
GPGPU-Sim uArch: Shader 4 finished CTA #2 (4348,0), 2 CTAs running
GPGPU-Sim uArch: core:  4, cta: 2 initialized @(4349,0)
GPGPU-Sim uArch: Shader 3 finished CTA #2 (4355,0), 2 CTAs running
GPGPU-Sim uArch: core:  3, cta: 2 initialized @(4356,0)
GPGPU-Sim uArch: Shader 5 finished CTA #2 (4359,0), 2 CTAs running
GPGPU-Sim uArch: core:  5, cta: 2 initialized @(4360,0)
GPGPU-Sim uArch: Shader 13 finished CTA #1 (4378,0), 2 CTAs running
GPGPU-Sim uArch: core: 13, cta: 1 initialized @(4379,0)
GPGPU-Sim uArch: Shader 8 finished CTA #2 (4384,0), 2 CTAs running
GPGPU-Sim uArch: core:  8, cta: 2 initialized @(4385,0)
GPGPU-Sim uArch: Shader 10 finished CTA #2 (4389,0), 2 CTAs running
GPGPU-Sim uArch: core: 10, cta: 2 initialized @(4390,0)
GPGPU-Sim uArch: Shader 6 finished CTA #2 (4398,0), 2 CTAs running
GPGPU-Sim uArch: core:  6, cta: 2 initialized @(4399,0)
GPGPU-Sim uArch: Shader 9 finished CTA #2 (4406,0), 2 CTAs running
GPGPU-Sim uArch: core:  9, cta: 2 initialized @(4407,0)
GPGPU-Sim uArch: Shader 12 finished CTA #0 (4410,0), 2 CTAs running
GPGPU-Sim uArch: core: 12, cta: 0 initialized @(4411,0)
GPGPU-Sim uArch: Shader 1 finished CTA #2 (4420,0), 2 CTAs running
GPGPU-Sim uArch: core:  1, cta: 2 initialized @(4421,0)
GPGPU-Sim uArch: Shader 11 finished CTA #2 (4436,0), 2 CTAs running
GPGPU-Sim uArch: core: 11, cta: 2 initialized @(4437,0)
GPGPU-Sim PTX: 2600000 instructions simulated : ctaid=(309,0,0) tid=(481,0,0)
GPGPU-Sim uArch: Shader 7 finished CTA #2 (4449,0), 2 CTAs running
GPGPU-Sim uArch: core:  7, cta: 2 initialized @(4450,0)
GPGPU-Sim uArch: Shader 14 finished CTA #2 (4467,0), 2 CTAs running
GPGPU-Sim uArch: core: 14, cta: 2 initialized @(4468,0)
GPGPU-Sim uArch: Shader 0 finished CTA #0 (4476,0), 2 CTAs running
GPGPU-Sim uArch: core:  0, cta: 0 initialized @(4477,0)
GPGPU-Sim uArch: Shader 2 finished CTA #0 (4497,0), 2 CTAs running
GPGPU-Sim uArch: core:  2, cta: 0 initialized @(4498,0)
GPGPU-Sim uArch: Shader 4 finished CTA #0 (4498,0), 2 CTAs running
GPGPU-Sim uArch: core:  4, cta: 0 initialized @(4499,0)
GPGPU-Sim uArch: cycles simulated: 4500  inst.: 2446584 (ipc=543.7) sim_rate=116504 (inst/sec) elapsed = 0:0:00:21 / Tue Mar 22 07:37:13 2016
GPGPU-Sim uArch: Shader 3 finished CTA #0 (4505,0), 2 CTAs running
GPGPU-Sim uArch: core:  3, cta: 0 initialized @(4506,0)
GPGPU-Sim uArch: Shader 5 finished CTA #0 (4507,0), 2 CTAs running
GPGPU-Sim uArch: core:  5, cta: 0 initialized @(4508,0)
GPGPU-Sim uArch: Shader 13 finished CTA #2 (4526,0), 2 CTAs running
GPGPU-Sim uArch: core: 13, cta: 2 initialized @(4527,0)
GPGPU-Sim uArch: Shader 8 finished CTA #0 (4529,0), 2 CTAs running
GPGPU-Sim uArch: core:  8, cta: 0 initialized @(4530,0)
GPGPU-Sim uArch: Shader 10 finished CTA #0 (4538,0), 2 CTAs running
GPGPU-Sim uArch: core: 10, cta: 0 initialized @(4539,0)
GPGPU-Sim uArch: Shader 1 finished CTA #0 (4544,0), 2 CTAs running
GPGPU-Sim uArch: core:  1, cta: 0 initialized @(4545,0)
GPGPU-Sim uArch: Shader 6 finished CTA #0 (4548,0), 2 CTAs running
GPGPU-Sim uArch: core:  6, cta: 0 initialized @(4549,0)
GPGPU-Sim uArch: Shader 9 finished CTA #0 (4557,0), 2 CTAs running
GPGPU-Sim uArch: Shader 12 finished CTA #2 (4557,0), 2 CTAs running
GPGPU-Sim uArch: core:  9, cta: 0 initialized @(4558,0)
GPGPU-Sim uArch: core: 12, cta: 2 initialized @(4558,0)
GPGPU-Sim PTX: 2700000 instructions simulated : ctaid=(363,0,0) tid=(1,0,0)
GPGPU-Sim uArch: Shader 11 finished CTA #1 (4589,0), 2 CTAs running
GPGPU-Sim uArch: core: 11, cta: 1 initialized @(4590,0)
GPGPU-Sim uArch: Shader 7 finished CTA #0 (4602,0), 2 CTAs running
GPGPU-Sim uArch: core:  7, cta: 0 initialized @(4603,0)
GPGPU-Sim uArch: Shader 14 finished CTA #0 (4614,0), 2 CTAs running
GPGPU-Sim uArch: core: 14, cta: 0 initialized @(4615,0)
GPGPU-Sim uArch: Shader 0 finished CTA #1 (4624,0), 2 CTAs running
GPGPU-Sim uArch: core:  0, cta: 1 initialized @(4625,0)
GPGPU-Sim uArch: Shader 4 finished CTA #1 (4642,0), 2 CTAs running
GPGPU-Sim uArch: core:  4, cta: 1 initialized @(4643,0)
GPGPU-Sim uArch: Shader 2 finished CTA #1 (4647,0), 2 CTAs running
GPGPU-Sim uArch: core:  2, cta: 1 initialized @(4648,0)
GPGPU-Sim uArch: Shader 3 finished CTA #1 (4649,0), 2 CTAs running
GPGPU-Sim uArch: core:  3, cta: 1 initialized @(4650,0)
GPGPU-Sim uArch: Shader 5 finished CTA #1 (4654,0), 2 CTAs running
GPGPU-Sim uArch: core:  5, cta: 1 initialized @(4655,0)
GPGPU-Sim uArch: Shader 13 finished CTA #0 (4672,0), 2 CTAs running
GPGPU-Sim uArch: core: 13, cta: 0 initialized @(4673,0)
GPGPU-Sim uArch: Shader 8 finished CTA #1 (4677,0), 2 CTAs running
GPGPU-Sim uArch: core:  8, cta: 1 initialized @(4678,0)
GPGPU-Sim uArch: Shader 10 finished CTA #1 (4685,0), 2 CTAs running
GPGPU-Sim uArch: core: 10, cta: 1 initialized @(4686,0)
GPGPU-Sim uArch: Shader 6 finished CTA #1 (4697,0), 2 CTAs running
GPGPU-Sim uArch: core:  6, cta: 1 initialized @(4698,0)
GPGPU-Sim PTX: 2800000 instructions simulated : ctaid=(337,0,0) tid=(161,0,0)
GPGPU-Sim uArch: Shader 9 finished CTA #1 (4702,0), 2 CTAs running
GPGPU-Sim uArch: Shader 12 finished CTA #1 (4702,0), 2 CTAs running
GPGPU-Sim uArch: core:  9, cta: 1 initialized @(4703,0)
GPGPU-Sim uArch: core: 12, cta: 1 initialized @(4703,0)
GPGPU-Sim uArch: Shader 1 finished CTA #1 (4713,0), 2 CTAs running
GPGPU-Sim uArch: core:  1, cta: 1 initialized @(4714,0)
GPGPU-Sim uArch: Shader 11 finished CTA #0 (4734,0), 2 CTAs running
GPGPU-Sim uArch: core: 11, cta: 0 initialized @(4735,0)
GPGPU-Sim uArch: Shader 7 finished CTA #1 (4750,0), 2 CTAs running
GPGPU-Sim uArch: core:  7, cta: 1 initialized @(4751,0)
GPGPU-Sim uArch: Shader 14 finished CTA #1 (4762,0), 2 CTAs running
GPGPU-Sim uArch: core: 14, cta: 1 initialized @(4763,0)
GPGPU-Sim uArch: Shader 0 finished CTA #2 (4768,0), 2 CTAs running
GPGPU-Sim uArch: core:  0, cta: 2 initialized @(4769,0)
GPGPU-Sim uArch: Shader 2 finished CTA #2 (4788,0), 2 CTAs running
GPGPU-Sim uArch: core:  2, cta: 2 initialized @(4789,0)
GPGPU-Sim uArch: Shader 4 finished CTA #2 (4792,0), 2 CTAs running
GPGPU-Sim uArch: core:  4, cta: 2 initialized @(4793,0)
GPGPU-Sim uArch: Shader 3 finished CTA #2 (4798,0), 2 CTAs running
GPGPU-Sim uArch: core:  3, cta: 2 initialized @(4799,0)
GPGPU-Sim uArch: Shader 5 finished CTA #2 (4804,0), 2 CTAs running
GPGPU-Sim uArch: core:  5, cta: 2 initialized @(4805,0)
GPGPU-Sim uArch: Shader 13 finished CTA #1 (4813,0), 2 CTAs running
GPGPU-Sim uArch: core: 13, cta: 1 initialized @(4814,0)
GPGPU-Sim uArch: Shader 8 finished CTA #2 (4823,0), 2 CTAs running
GPGPU-Sim uArch: core:  8, cta: 2 initialized @(4824,0)
GPGPU-Sim PTX: 2900000 instructions simulated : ctaid=(380,0,0) tid=(449,0,0)
GPGPU-Sim uArch: Shader 10 finished CTA #2 (4832,0), 2 CTAs running
GPGPU-Sim uArch: core: 10, cta: 2 initialized @(4833,0)
GPGPU-Sim uArch: Shader 6 finished CTA #2 (4835,0), 2 CTAs running
GPGPU-Sim uArch: core:  6, cta: 2 initialized @(4836,0)
GPGPU-Sim uArch: Shader 9 finished CTA #2 (4843,0), 2 CTAs running
GPGPU-Sim uArch: core:  9, cta: 2 initialized @(4844,0)
GPGPU-Sim uArch: Shader 12 finished CTA #0 (4847,0), 2 CTAs running
GPGPU-Sim uArch: core: 12, cta: 0 initialized @(4848,0)
GPGPU-Sim uArch: Shader 1 finished CTA #2 (4867,0), 2 CTAs running
GPGPU-Sim uArch: core:  1, cta: 2 initialized @(4868,0)
GPGPU-Sim uArch: Shader 11 finished CTA #2 (4876,0), 2 CTAs running
GPGPU-Sim uArch: core: 11, cta: 2 initialized @(4877,0)
GPGPU-Sim uArch: Shader 7 finished CTA #2 (4896,0), 2 CTAs running
GPGPU-Sim uArch: core:  7, cta: 2 initialized @(4897,0)
GPGPU-Sim uArch: Shader 14 finished CTA #2 (4904,0), 2 CTAs running
GPGPU-Sim uArch: core: 14, cta: 2 initialized @(4905,0)
GPGPU-Sim uArch: Shader 0 finished CTA #0 (4915,0), 2 CTAs running
GPGPU-Sim uArch: core:  0, cta: 0 initialized @(4916,0)
GPGPU-Sim uArch: Shader 2 finished CTA #0 (4934,0), 2 CTAs running
GPGPU-Sim uArch: Shader 4 finished CTA #0 (4934,0), 2 CTAs running
GPGPU-Sim uArch: core:  2, cta: 0 initialized @(4935,0)
GPGPU-Sim uArch: core:  4, cta: 0 initialized @(4935,0)
GPGPU-Sim uArch: Shader 3 finished CTA #0 (4947,0), 2 CTAs running
GPGPU-Sim uArch: core:  3, cta: 0 initialized @(4948,0)
GPGPU-Sim uArch: Shader 5 finished CTA #0 (4948,0), 2 CTAs running
GPGPU-Sim uArch: core:  5, cta: 0 initialized @(4949,0)
GPGPU-Sim PTX: 3000000 instructions simulated : ctaid=(395,0,0) tid=(225,0,0)
GPGPU-Sim uArch: Shader 13 finished CTA #2 (4965,0), 2 CTAs running
GPGPU-Sim uArch: core: 13, cta: 2 initialized @(4966,0)
GPGPU-Sim uArch: Shader 8 finished CTA #0 (4974,0), 2 CTAs running
GPGPU-Sim uArch: core:  8, cta: 0 initialized @(4975,0)
GPGPU-Sim uArch: Shader 10 finished CTA #0 (4975,0), 2 CTAs running
GPGPU-Sim uArch: core: 10, cta: 0 initialized @(4976,0)
GPGPU-Sim uArch: Shader 6 finished CTA #0 (4989,0), 2 CTAs running
GPGPU-Sim uArch: core:  6, cta: 0 initialized @(4990,0)
GPGPU-Sim uArch: Shader 9 finished CTA #0 (4993,0), 2 CTAs running
GPGPU-Sim uArch: core:  9, cta: 0 initialized @(4994,0)
GPGPU-Sim uArch: Shader 12 finished CTA #2 (4997,0), 2 CTAs running
GPGPU-Sim uArch: core: 12, cta: 2 initialized @(4998,0)
GPGPU-Sim uArch: cycles simulated: 5000  inst.: 2809752 (ipc=562.0) sim_rate=122163 (inst/sec) elapsed = 0:0:00:23 / Tue Mar 22 07:37:15 2016
GPGPU-Sim uArch: Shader 1 finished CTA #0 (5007,0), 2 CTAs running
GPGPU-Sim uArch: core:  1, cta: 0 initialized @(5008,0)
GPGPU-Sim uArch: Shader 11 finished CTA #1 (5026,0), 2 CTAs running
GPGPU-Sim uArch: core: 11, cta: 1 initialized @(5027,0)
GPGPU-Sim uArch: Shader 7 finished CTA #0 (5043,0), 2 CTAs running
GPGPU-Sim uArch: core:  7, cta: 0 initialized @(5044,0)
GPGPU-Sim uArch: Shader 14 finished CTA #0 (5055,0), 2 CTAs running
GPGPU-Sim uArch: core: 14, cta: 0 initialized @(5056,0)
GPGPU-Sim uArch: Shader 0 finished CTA #1 (5067,0), 2 CTAs running
GPGPU-Sim uArch: core:  0, cta: 1 initialized @(5068,0)
GPGPU-Sim PTX: 3100000 instructions simulated : ctaid=(411,0,0) tid=(129,0,0)
GPGPU-Sim uArch: Shader 4 finished CTA #1 (5084,0), 2 CTAs running
GPGPU-Sim uArch: core:  4, cta: 1 initialized @(5085,0)
GPGPU-Sim uArch: Shader 2 finished CTA #1 (5085,0), 2 CTAs running
GPGPU-Sim uArch: core:  2, cta: 1 initialized @(5086,0)
GPGPU-Sim uArch: Shader 3 finished CTA #1 (5095,0), 2 CTAs running
GPGPU-Sim uArch: core:  3, cta: 1 initialized @(5096,0)
GPGPU-Sim uArch: Shader 5 finished CTA #1 (5101,0), 2 CTAs running
GPGPU-Sim uArch: core:  5, cta: 1 initialized @(5102,0)
GPGPU-Sim uArch: Shader 13 finished CTA #0 (5114,0), 2 CTAs running
GPGPU-Sim uArch: core: 13, cta: 0 initialized @(5115,0)
GPGPU-Sim uArch: Shader 8 finished CTA #1 (5119,0), 2 CTAs running
GPGPU-Sim uArch: core:  8, cta: 1 initialized @(5120,0)
GPGPU-Sim uArch: Shader 10 finished CTA #1 (5122,0), 2 CTAs running
GPGPU-Sim uArch: core: 10, cta: 1 initialized @(5123,0)
GPGPU-Sim uArch: Shader 6 finished CTA #1 (5139,0), 2 CTAs running
GPGPU-Sim uArch: core:  6, cta: 1 initialized @(5140,0)
GPGPU-Sim uArch: Shader 9 finished CTA #1 (5140,0), 2 CTAs running
GPGPU-Sim uArch: Shader 12 finished CTA #1 (5140,0), 2 CTAs running
GPGPU-Sim uArch: core:  9, cta: 1 initialized @(5141,0)
GPGPU-Sim uArch: core: 12, cta: 1 initialized @(5141,0)
GPGPU-Sim uArch: Shader 1 finished CTA #1 (5154,0), 2 CTAs running
GPGPU-Sim uArch: core:  1, cta: 1 initialized @(5155,0)
GPGPU-Sim uArch: Shader 11 finished CTA #0 (5179,0), 2 CTAs running
GPGPU-Sim uArch: core: 11, cta: 0 initialized @(5180,0)
GPGPU-Sim uArch: Shader 7 finished CTA #1 (5189,0), 2 CTAs running
GPGPU-Sim uArch: core:  7, cta: 1 initialized @(5190,0)
GPGPU-Sim uArch: Shader 14 finished CTA #1 (5201,0), 2 CTAs running
GPGPU-Sim uArch: core: 14, cta: 1 initialized @(5202,0)
GPGPU-Sim PTX: 3200000 instructions simulated : ctaid=(417,0,0) tid=(353,0,0)
GPGPU-Sim uArch: Shader 0 finished CTA #2 (5215,0), 2 CTAs running
GPGPU-Sim uArch: core:  0, cta: 2 initialized @(5216,0)
GPGPU-Sim uArch: Shader 2 finished CTA #2 (5227,0), 2 CTAs running
GPGPU-Sim uArch: core:  2, cta: 2 initialized @(5228,0)
GPGPU-Sim uArch: Shader 4 finished CTA #2 (5233,0), 2 CTAs running
GPGPU-Sim uArch: core:  4, cta: 2 initialized @(5234,0)
GPGPU-Sim uArch: Shader 3 finished CTA #2 (5237,0), 2 CTAs running
GPGPU-Sim uArch: core:  3, cta: 2 initialized @(5238,0)
GPGPU-Sim uArch: Shader 5 finished CTA #2 (5247,0), 2 CTAs running
GPGPU-Sim uArch: core:  5, cta: 2 initialized @(5248,0)
GPGPU-Sim uArch: Shader 13 finished CTA #1 (5260,0), 2 CTAs running
GPGPU-Sim uArch: core: 13, cta: 1 initialized @(5261,0)
GPGPU-Sim uArch: Shader 8 finished CTA #2 (5266,0), 2 CTAs running
GPGPU-Sim uArch: core:  8, cta: 2 initialized @(5267,0)
GPGPU-Sim uArch: Shader 10 finished CTA #2 (5274,0), 2 CTAs running
GPGPU-Sim uArch: core: 10, cta: 2 initialized @(5275,0)
GPGPU-Sim uArch: Shader 6 finished CTA #2 (5284,0), 2 CTAs running
GPGPU-Sim uArch: core:  6, cta: 2 initialized @(5285,0)
GPGPU-Sim uArch: Shader 9 finished CTA #2 (5286,0), 2 CTAs running
GPGPU-Sim uArch: core:  9, cta: 2 initialized @(5287,0)
GPGPU-Sim uArch: Shader 12 finished CTA #0 (5292,0), 2 CTAs running
GPGPU-Sim uArch: core: 12, cta: 0 initialized @(5293,0)
GPGPU-Sim uArch: Shader 1 finished CTA #2 (5307,0), 2 CTAs running
GPGPU-Sim uArch: core:  1, cta: 2 initialized @(5308,0)
GPGPU-Sim uArch: Shader 11 finished CTA #2 (5309,0), 2 CTAs running
GPGPU-Sim uArch: core: 11, cta: 2 initialized @(5310,0)
GPGPU-Sim PTX: 3300000 instructions simulated : ctaid=(434,0,0) tid=(33,0,0)
GPGPU-Sim uArch: Shader 7 finished CTA #2 (5338,0), 2 CTAs running
GPGPU-Sim uArch: core:  7, cta: 2 initialized @(5339,0)
GPGPU-Sim uArch: Shader 14 finished CTA #2 (5348,0), 2 CTAs running
GPGPU-Sim uArch: core: 14, cta: 2 initialized @(5349,0)
GPGPU-Sim uArch: Shader 0 finished CTA #0 (5359,0), 2 CTAs running
GPGPU-Sim uArch: core:  0, cta: 0 initialized @(5360,0)
GPGPU-Sim uArch: Shader 2 finished CTA #0 (5378,0), 2 CTAs running
GPGPU-Sim uArch: core:  2, cta: 0 initialized @(5379,0)
GPGPU-Sim uArch: Shader 4 finished CTA #0 (5380,0), 2 CTAs running
GPGPU-Sim uArch: core:  4, cta: 0 initialized @(5381,0)
GPGPU-Sim uArch: Shader 3 finished CTA #0 (5386,0), 2 CTAs running
GPGPU-Sim uArch: core:  3, cta: 0 initialized @(5387,0)
GPGPU-Sim uArch: Shader 5 finished CTA #0 (5390,0), 2 CTAs running
GPGPU-Sim uArch: core:  5, cta: 0 initialized @(5391,0)
GPGPU-Sim uArch: Shader 13 finished CTA #2 (5409,0), 2 CTAs running
GPGPU-Sim uArch: core: 13, cta: 2 initialized @(5410,0)
GPGPU-Sim uArch: Shader 8 finished CTA #0 (5415,0), 2 CTAs running
GPGPU-Sim uArch: core:  8, cta: 0 initialized @(5416,0)
GPGPU-Sim uArch: Shader 10 finished CTA #0 (5422,0), 2 CTAs running
GPGPU-Sim uArch: core: 10, cta: 0 initialized @(5423,0)
GPGPU-Sim uArch: Shader 6 finished CTA #0 (5426,0), 2 CTAs running
GPGPU-Sim uArch: core:  6, cta: 0 initialized @(5427,0)
GPGPU-Sim uArch: Shader 12 finished CTA #2 (5431,0), 2 CTAs running
GPGPU-Sim uArch: core: 12, cta: 2 initialized @(5432,0)
GPGPU-Sim uArch: Shader 9 finished CTA #0 (5434,0), 2 CTAs running
GPGPU-Sim uArch: core:  9, cta: 0 initialized @(5435,0)
GPGPU-Sim uArch: Shader 1 finished CTA #0 (5454,0), 2 CTAs running
GPGPU-Sim uArch: core:  1, cta: 0 initialized @(5455,0)
GPGPU-Sim uArch: Shader 11 finished CTA #1 (5465,0), 2 CTAs running
GPGPU-Sim uArch: core: 11, cta: 1 initialized @(5466,0)
GPGPU-Sim PTX: 3400000 instructions simulated : ctaid=(454,0,0) tid=(161,0,0)
GPGPU-Sim uArch: Shader 7 finished CTA #0 (5483,0), 2 CTAs running
GPGPU-Sim uArch: core:  7, cta: 0 initialized @(5484,0)
GPGPU-Sim uArch: Shader 14 finished CTA #0 (5497,0), 2 CTAs running
GPGPU-Sim uArch: core: 14, cta: 0 initialized @(5498,0)
GPGPU-Sim uArch: cycles simulated: 5500  inst.: 3177944 (ipc=577.8) sim_rate=132414 (inst/sec) elapsed = 0:0:00:24 / Tue Mar 22 07:37:16 2016
GPGPU-Sim uArch: Shader 0 finished CTA #1 (5511,0), 2 CTAs running
[...]
gpgpu_stall_shd_mem[g_mem_ld][mshr_rc] = 0
gpgpu_stall_shd_mem[g_mem_ld][icnt_rc] = 0
gpgpu_stall_shd_mem[g_mem_ld][wb_icnt_rc] = 0
gpgpu_stall_shd_mem[g_mem_ld][wb_rsrv_fail] = 0
gpgpu_stall_shd_mem[g_mem_st][mshr_rc] = 0
gpgpu_stall_shd_mem[g_mem_st][icnt_rc] = 0
gpgpu_stall_shd_mem[g_mem_st][wb_icnt_rc] = 0
gpgpu_stall_shd_mem[g_mem_st][wb_rsrv_fail] = 0
gpgpu_stall_shd_mem[l_mem_ld][mshr_rc] = 0
gpgpu_stall_shd_mem[l_mem_ld][icnt_rc] = 0
gpgpu_stall_shd_mem[l_mem_ld][wb_icnt_rc] = 0
gpgpu_stall_shd_mem[l_mem_ld][wb_rsrv_fail] = 0
gpgpu_stall_shd_mem[l_mem_st][mshr_rc] = 0
gpgpu_stall_shd_mem[l_mem_st][icnt_rc] = 0
gpgpu_stall_shd_mem[l_mem_ld][wb_icnt_rc] = 0
gpgpu_stall_shd_mem[l_mem_ld][wb_rsrv_fail] = 0
gpu_reg_bank_conflict_stalls = 0
Warp Occupancy Distribution:
Stall:21340	W0_Idle:27793	W0_Scoreboard:236758	W1:133	W2:0	W3:0	W4:0	W5:0	W6:0	W7:0	W8:0	W9:0	W10:0	W11:0	W12:0	W13:0	W14:0	W15:0	W16:0	W17:0	W18:0	W19:0	W20:0	W21:0	W22:0	W23:0	W24:0	W25:0	W26:0	W27:0	W28:0	W29:0	W30:0	W31:0	W32:937724
traffic_breakdown_coretomem[CONST_ACC_R] = 120 {8:15,}
traffic_breakdown_coretomem[GLOBAL_ACC_R] = 125064 {8:15633,}
traffic_breakdown_coretomem[GLOBAL_ACC_W] = 760 {40:19,}
traffic_breakdown_coretomem[INST_ACC_R] = 496 {8:62,}
traffic_breakdown_memtocore[CONST_ACC_R] = 1080 {72:15,}
traffic_breakdown_memtocore[GLOBAL_ACC_R] = 2126088 {136:15633,}
traffic_breakdown_memtocore[GLOBAL_ACC_W] = 152 {8:19,}
traffic_breakdown_memtocore[INST_ACC_R] = 8432 {136:62,}
maxmrqlatency = 62 
maxdqlatency = 0 
maxmflatency = 339 
averagemflatency = 261 
max_icnt2mem_latency = 36 
max_icnt2sh_latency = 38846 
mrq_lat_table:14672 	341 	239 	230 	150 	34 	0 	0 	0 	0 	0 	0 	0 	0 	0 	0 	0 	0 	0 	0 	0 	0 	0 	0 	0 	0 	0 	0 	0 	0 	0 	0 	
dq_lat_table:0 	0 	0 	0 	0 	0 	0 	0 	0 	0 	0 	0 	0 	0 	0 	0 	0 	0 	0 	0 	0 	0 	0 	0 	0 	0 	0 	0 	0 	0 	0 	0 	
mf_lat_table:0 	0 	0 	0 	0 	0 	0 	14 	15653 	0 	0 	0 	0 	0 	0 	0 	0 	0 	0 	0 	0 	0 	0 	0 	0 	0 	0 	0 	0 	0 	0 	0 	
icnt2mem_lat_table:0 	0 	0 	15706 	17 	6 	0 	0 	0 	0 	0 	0 	0 	0 	0 	0 	0 	0 	0 	0 	0 	0 	0 	0 	
icnt2sh_lat_table:0 	0 	0 	15035 	553 	60 	0 	0 	0 	0 	1 	6 	0 	0 	8 	4 	0 	0 	0 	0 	0 	0 	0 	0 	
mf_lat_pw_table:0 	0 	0 	0 	0 	0 	0 	1 	79 	0 	0 	0 	0 	0 	0 	0 	0 	0 	0 	0 	0 	0 	0 	0 	0 	0 	0 	0 	0 	0 	0 	0 	
maximum concurrent accesses to same row:
dram[0]:        32        32        32        32        32        32        32        32        32        32        32        32        32        32        32        32 
dram[1]:        32        32        32        32        32        32        32        32        32        32        32        32        32        32        32        32 
dram[2]:        32        32        32        32        32        32        32        32        32        32        32        32        32        32        32        32 
dram[3]:        32        32        32        32        32        32        32        32        32        32        32        32        32        32        32        32 
dram[4]:        32        32        32        32        32        32        32        32        32        32        32        32        32        32        32        32 
dram[5]:        32        32        32        32        32        32        32        32        32        32        32        32        32        32        32        32 
maximum service time to same row:
dram[0]:      7550      7531      7563      7560      7554      7532      7540      7577      7609      7606      7576      7551      8112      7557      7678      7670 
dram[1]:      7562      7589      7555      7568      7548      7553      7567      7562      7570      7563      7557      7535      8144      8115      7697      7700 
dram[2]:      7572      7556      7551      7569      7553      7532      7562      7549      7589      7579      7542      7548      8172      8174      7655      7678 
dram[3]:      7605      7562      7561      7562      7540      7546      7557      7556      7573      7566      7532      7563      8172      8140      7657      7699 
dram[4]:      7522      7565      7561      7554      7540      7539      7584      7555      7593      7578      7537      7553      8116      8168      7672      7682 
dram[5]:      7541      7568      7553      7563      7539      7846      7562      7547      7592      7559      7541      7560      8104      8189      7702      7710 
average row accesses per activate:
dram[0]: 20.375000 23.142857 32.000000 32.000000 32.000000 32.000000 32.000000 32.000000 32.000000 32.000000 28.000000 28.333334 29.000000 19.444445 32.000000 32.000000 
dram[1]: 27.000000 32.000000 32.000000 32.000000 23.142857 32.000000 32.000000 32.000000 23.285715 32.000000 28.000000 28.333334 29.000000 28.666666 32.000000 32.000000 
dram[2]: 27.000000 32.000000 32.000000 32.000000 32.000000 26.833334 32.000000 32.000000 27.000000 32.000000 28.000000 28.333334 29.000000 28.666666 32.000000 32.000000 
dram[3]: 32.000000 32.000000 32.000000 32.000000 32.000000 32.000000 32.000000 32.000000 32.000000 32.000000 28.000000 28.333334 29.000000 28.666666 27.000000 32.000000 
dram[4]: 32.000000 32.000000 32.000000 32.000000 32.000000 31.799999 32.000000 27.000000 32.000000 32.000000 19.222221 24.428572 29.000000 28.666666 32.000000 32.000000 
dram[5]: 20.375000 32.000000 32.000000 27.000000 32.000000 20.375000 32.000000 32.000000 27.000000 27.000000 28.333334 28.333334 28.833334 28.666666 32.000000 32.000000 
average row locality = 15666/535 = 29.282244
number of total memory accesses made:
dram[0]:         0         0         0         0         0         0         0         0         0         0         0         0         0         0         0         0 
dram[1]:         0         0         0         0         0         0         0         0         0         0         0         0         0         0         0         0 
dram[2]:         0         0         0         0         0         0         0         0         0         0         0         0         0         0         0         0 
dram[3]:         0         0         0         0         0         0         0         0         0         0         0         0         0         0         0         0 
dram[4]:         0         0         0         0         0         0         0         0         0         0         0         0         0         0         0         0 
dram[5]:         0         0         0         0         0         0         0         0         0         0         0         0         0         0         0         0 
total accesses: 0
min_bank_accesses = 0!
min_chip_accesses = 0!
number of total read accesses:
dram[0]:       163       161       160       160       160       160       160       160       160       160       168       170       174       174       160       160 
dram[1]:       162       160       160       160       161       160       160       160       162       160       168       170       174       172       160       160 
dram[2]:       162       160       160       160       160       161       160       160       161       160       168       170       174       172       160       160 
dram[3]:       160       160       160       160       160       160       160       160       160       160       168       170       174       172       161       160 
dram[4]:       160       160       160       160       160       159       160       161       160       160       171       171       174       172       160       160 
dram[5]:       162       160       160       161       160       161       160       160       161       161       170       170       173       172       160       160 
total reads: 15651
bank skew: 174/159 = 1.09
chip skew: 2611/2605 = 1.00
number of total write accesses:
dram[0]:         0         1         0         0         0         0         0         0         0         0         0         0         0         1         0         0 
dram[1]:         0         0         0         0         1         0         0         0         1         0         0         0         0         0         0         0 
dram[2]:         0         0         0         0         0         0         0         0         1         0         0         0         0         0         0         0 
dram[3]:         0         0         0         0         0         0         0         0         0         0         0         0         0         0         1         0 
dram[4]:         0         0         0         0         0         0         0         1         0         0         2         0         0         0         0         0 
dram[5]:         1         0         0         1         0         2         0         0         1         1         0         0         0         0         0         0 
total reads: 15
min_bank_accesses = 0!
chip skew: 6/1 = 6.00
average mf latency per bank:
dram[0]:        279       260       259       260       262       263       260       260       259       260       260       260       262       262       259       260
dram[1]:        256       261       259       261       262       266       260       261       258       261       260       261       261       263       260       261
dram[2]:        256       260       259       260       263       265       260       261       260       260       260       261       261       261       260       261
dram[3]:        260       260       259       260       260       263       260       261       260       261       260       260       261       262       259       261
dram[4]:        260       260       259       260       261       264       260       260       259       260       258       261       260       261       260       260
dram[5]:        258       260       259       258       261       265       260       261       258       259       260       261       261       262       260       261
maximum mf latency per bank:
dram[0]:        283       303       279       279       292       305       281       281       278       277       277       281       317       310       278       286
dram[1]:        277       288       278       279       306       337       277       287       279       290       278       291       315       302       282       288
dram[2]:        277       281       277       280       310       339       278       283       281       281       292       283       301       299       282       284
dram[3]:        277       284       277       280       280       300       280       279       277       294       278       294       285       283       278       290
dram[4]:        279       280       278       281       296       318       282       277       277       290       305       292       289       300       278       286
dram[5]:        280       286       279       286       283       325       279       295       282       294       278       292       286       297       280       291

Number of Memory Banks Accessed per Memory Operation per Warp (from 0):
0	0	0	0	0	0	0	0	0	0	0	0	0	0	0	0	0	0	0	0	0	0	0	0	0	0	0	0	0	0	0	0	0	0	0	0	0	0	0	0	0	0	0	0	0	0	0	0	0	0	0	0	0	0	0	0	0	0	0	0	0	0	0	0	0	0	0	0	0	0	0	0	0	0	0	0	0	0	0	0	0	0	0	0	0	0	0	0	0	0	0	0	0	0	0	0	
Average # of Memory Banks Accessed per Memory Operation per Warp=-nan

position of mrq chosen
0	0	0	0	0	0	0	0	0	0	0	0	0	0	0	0	

average position of mrq chosen = -nan
Memory Partition 0: 
Cache L2_bank_000:
MSHR contents

Cache L2_bank_001:
MSHR contents

In Dram Latency Queue (total = 0): 
DRAM[0]: 16 bks, busW=4 BL=8 CL=12, tRRD=2 tCCD=6, tRCD=12 tRAS=28 tRP=12 tRC=40
n_cmd=54022 n_nop=48632 n_act=92 n_pre=76 n_req=2612 n_rd=5220 n_write=2 bw_util=0.1933
n_activity=31782 dram_eff=0.3286
bk0: 326a 53134i bk1: 322a 53026i bk2: 320a 53231i bk3: 320a 53153i bk4: 320a 53209i bk5: 320a 53035i bk6: 320a 53216i bk7: 320a 53117i bk8: 320a 53236i bk9: 320a 53123i bk10: 336a 53178i bk11: 340a 53063i bk12: 348a 53106i bk13: 348a 52816i bk14: 320a 53224i bk15: 320a 53132i 
dram_util_bins: 0 0 0 0 0 0 0 0 0 0
dram_eff_bins: 0 0 0 0 0 0 0 0 0 0
mrqq: max=4 avg=0.0317093
Memory Partition 1: 
Cache L2_bank_002:
MSHR contents

Cache L2_bank_003:
MSHR contents

In Dram Latency Queue (total = 0): 
DRAM[1]: 16 bks, busW=4 BL=8 CL=12, tRRD=2 tCCD=6, tRCD=12 tRAS=28 tRP=12 tRC=40
n_cmd=54022 n_nop=48639 n_act=89 n_pre=73 n_req=2611 n_rd=5218 n_write=3 bw_util=0.1933
n_activity=30076 dram_eff=0.3472
bk0: 324a 53174i bk1: 320a 53042i bk2: 320a 53203i bk3: 320a 53034i bk4: 322a 53116i bk5: 320a 52884i bk6: 320a 53201i bk7: 320a 53046i bk8: 324a 53114i bk9: 320a 53044i bk10: 336a 53158i bk11: 340a 52973i bk12: 348a 53105i bk13: 344a 52892i bk14: 320a 53186i bk15: 320a 53025i 
dram_util_bins: 0 0 0 0 0 0 0 0 0 0
dram_eff_bins: 0 0 0 0 0 0 0 0 0 0
mrqq: max=7 avg=0.0413905
Memory Partition 2: 
Cache L2_bank_004:
MSHR contents

Cache L2_bank_005:
MSHR contents

In Dram Latency Queue (total = 0): 
DRAM[2]: 16 bks, busW=4 BL=8 CL=12, tRRD=2 tCCD=6, tRCD=12 tRAS=28 tRP=12 tRC=40
n_cmd=54022 n_nop=48647 n_act=87 n_pre=71 n_req=2609 n_rd=5216 n_write=1 bw_util=0.1931
n_activity=31325 dram_eff=0.3331
bk0: 324a 53184i bk1: 320a 53114i bk2: 320a 53220i bk3: 320a 53152i bk4: 320a 53184i bk5: 322a 52988i bk6: 320a 53217i bk7: 320a 53141i bk8: 322a 53190i bk9: 320a 53140i bk10: 336a 53152i bk11: 340a 52959i bk12: 348a 53103i bk13: 344a 52964i bk14: 320a 53210i bk15: 320a 53059i 
dram_util_bins: 0 0 0 0 0 0 0 0 0 0
dram_eff_bins: 0 0 0 0 0 0 0 0 0 0
mrqq: max=9 avg=0.0363741
Memory Partition 3: 
Cache L2_bank_006:
MSHR contents

Cache L2_bank_007:
MSHR contents

In Dram Latency Queue (total = 0): 
DRAM[3]: 16 bks, busW=4 BL=8 CL=12, tRRD=2 tCCD=6, tRCD=12 tRAS=28 tRP=12 tRC=40
n_cmd=54022 n_nop=48657 n_act=85 n_pre=69 n_req=2606 n_rd=5210 n_write=1 bw_util=0.1929
n_activity=30052 dram_eff=0.3468
bk0: 320a 53206i bk1: 320a 53094i bk2: 320a 53218i bk3: 320a 53056i bk4: 320a 53173i bk5: 320a 52937i bk6: 320a 53200i bk7: 320a 53053i bk8: 320a 53208i bk9: 320a 53000i bk10: 336a 53160i bk11: 340a 53013i bk12: 348a 53121i bk13: 344a 53023i bk14: 322a 53141i bk15: 320a 53044i 
dram_util_bins: 0 0 0 0 0 0 0 0 0 0
dram_eff_bins: 0 0 0 0 0 0 0 0 0 0
mrqq: max=4 avg=0.0296176
Memory Partition 4: 
Cache L2_bank_008:
MSHR contents

Cache L2_bank_009:
MSHR contents

In Dram Latency Queue (total = 0): 
DRAM[4]: 16 bks, busW=4 BL=8 CL=12, tRRD=2 tCCD=6, tRCD=12 tRAS=28 tRP=12 tRC=40
n_cmd=54022 n_nop=48640 n_act=89 n_pre=73 n_req=2611 n_rd=5216 n_write=4 bw_util=0.1933
n_activity=31833 dram_eff=0.328
bk0: 320a 53220i bk1: 320a 53118i bk2: 320a 53221i bk3: 320a 53156i bk4: 320a 53177i bk5: 318a 53027i bk6: 320a 53207i bk7: 322a 53060i bk8: 320a 53239i bk9: 320a 53137i bk10: 342a 53055i bk11: 342a 52948i bk12: 348a 53127i bk13: 344a 52959i bk14: 320a 53203i bk15: 320a 53120i 
dram_util_bins: 0 0 0 0 0 0 0 0 0 0
dram_eff_bins: 0 0 0 0 0 0 0 0 0 0
mrqq: max=5 avg=0.0285254
Memory Partition 5: 
Cache L2_bank_010:
MSHR contents

Cache L2_bank_011:
MSHR contents

In Dram Latency Queue (total = 0): 
DRAM[5]: 16 bks, busW=4 BL=8 CL=12, tRRD=2 tCCD=6, tRCD=12 tRAS=28 tRP=12 tRC=40
n_cmd=54022 n_nop=48623 n_act=93 n_pre=77 n_req=2617 n_rd=5222 n_write=7 bw_util=0.1936
n_activity=30758 dram_eff=0.34
bk0: 324a 53106i bk1: 320a 53077i bk2: 320a 53226i bk3: 322a 53070i bk4: 320a 53158i bk5: 322a 52813i bk6: 320a 53209i bk7: 320a 53096i bk8: 322a 53170i bk9: 322a 52997i bk10: 340a 53138i bk11: 340a 52929i bk12: 346a 53104i bk13: 344a 52904i bk14: 320a 53194i bk15: 320a 53069i 
dram_util_bins: 0 0 0 0 0 0 0 0 0 0
dram_eff_bins: 0 0 0 0 0 0 0 0 0 0
mrqq: max=6 avg=0.0415757

========= L2 cache stats =========
L2_cache_bank[0]: Access = 1333, Miss = 1305, Miss_rate = 0.979, Pending_hits = 6, Reservation_fails = 224
L2_cache_bank[1]: Access = 1306, Miss = 1305, Miss_rate = 0.999, Pending_hits = 0, Reservation_fails = 0
L2_cache_bank[2]: Access = 1323, Miss = 1307, Miss_rate = 0.988, Pending_hits = 3, Reservation_fails = 109
L2_cache_bank[3]: Access = 1302, Miss = 1302, Miss_rate = 1.000, Pending_hits = 0, Reservation_fails = 0
L2_cache_bank[4]: Access = 1335, Miss = 1305, Miss_rate = 0.978, Pending_hits = 6, Reservation_fails = 200
L2_cache_bank[5]: Access = 1303, Miss = 1303, Miss_rate = 1.000, Pending_hits = 0, Reservation_fails = 0
L2_cache_bank[6]: Access = 1303, Miss = 1303, Miss_rate = 1.000, Pending_hits = 0, Reservation_fails = 0
L2_cache_bank[7]: Access = 1302, Miss = 1302, Miss_rate = 1.000, Pending_hits = 0, Reservation_fails = 0
L2_cache_bank[8]: Access = 1306, Miss = 1305, Miss_rate = 0.999, Pending_hits = 0, Reservation_fails = 0
L2_cache_bank[9]: Access = 1304, Miss = 1303, Miss_rate = 0.999, Pending_hits = 0, Reservation_fails = 0
L2_cache_bank[10]: Access = 1306, Miss = 1306, Miss_rate = 1.000, Pending_hits = 0, Reservation_fails = 0
L2_cache_bank[11]: Access = 1306, Miss = 1305, Miss_rate = 0.999, Pending_hits = 0, Reservation_fails = 0
L2_total_cache_accesses = 15729
L2_total_cache_misses = 15651
L2_total_cache_miss_rate = 0.9950
L2_total_cache_pending_hits = 15
L2_total_cache_reservation_fails = 533
L2_total_cache_breakdown:
	L2_cache_stats_breakdown[GLOBAL_ACC_R][HIT] = 1
	L2_cache_stats_breakdown[GLOBAL_ACC_R][MISS] = 15632
	L2_cache_stats_breakdown[CONST_ACC_R][HIT] = 11
	L2_cache_stats_breakdown[CONST_ACC_R][HIT_RESERVED] = 3
	L2_cache_stats_breakdown[CONST_ACC_R][MISS] = 1
	L2_cache_stats_breakdown[CONST_ACC_R][RESERVATION_FAIL] = 108
	L2_cache_stats_breakdown[GLOBAL_ACC_W][HIT] = 7
	L2_cache_stats_breakdown[GLOBAL_ACC_W][MISS] = 12
	L2_cache_stats_breakdown[INST_ACC_R][HIT] = 44
	L2_cache_stats_breakdown[INST_ACC_R][HIT_RESERVED] = 12
	L2_cache_stats_breakdown[INST_ACC_R][MISS] = 6
	L2_cache_stats_breakdown[INST_ACC_R][RESERVATION_FAIL] = 425
L2_cache_data_port_util = 0.000
L2_cache_fill_port_util = 0.127

icnt_total_pkts_mem_to_simt=78539
icnt_total_pkts_simt_to_mem=15748
LD_mem_lat_dist  0 0 0 0 0 0 0 0 0 0 0 0 0 0 0 0 0 0 0 0 0 0 0 0 0 0 0
ST_mem_lat_dist  0 0 0 0 0 0 0 0 0 0 0 0 0 0 0 0 0 0 0 0 0 0 0 0 0 0 0
----------------------------Interconnect-DETAILS--------------------------------
Class 0:
Packet latency average = 8.37066
	minimum = 6
	maximum = 50
Network latency average = 8.29064
	minimum = 6
	maximum = 45
Slowest packet = 16119
Flit latency average = 6.42003
	minimum = 6
	maximum = 41
Slowest flit = 48228
Fragmentation average = 0
	minimum = 0
	maximum = 0
Injected packet rate average = 0.0285978
	minimum = 0.0256561 (at node 1)
	maximum = 0.0336676 (at node 19)
Accepted packet rate average = 0.0285978
	minimum = 0.0256561 (at node 1)
	maximum = 0.0336676 (at node 19)
Injected flit rate average = 0.085728
	minimum = 0.0256561 (at node 1)
	maximum = 0.167748 (at node 19)
Accepted flit rate average= 0.085728
	minimum = 0.0319473 (at node 18)
	maximum = 0.12946 (at node 13)
Injected packet length average = 2.99771
Accepted packet length average = 2.99771
Total in-flight flits = 0 (0 measured)
====== Overall Traffic Statistics ======
====== Traffic class 0 ======
Packet latency average = 8.31763 (2 samples)
	minimum = 6 (2 samples)
	maximum = 53 (2 samples)
Network latency average = 8.24416 (2 samples)
	minimum = 6 (2 samples)
	maximum = 42 (2 samples)
Flit latency average = 6.35403 (2 samples)
	minimum = 6 (2 samples)
	maximum = 38 (2 samples)
Fragmentation average = 0 (2 samples)
	minimum = 0 (2 samples)
	maximum = 0 (2 samples)
Injected packet rate average = 0.0284688 (2 samples)
	minimum = 0.0254611 (2 samples)
	maximum = 0.0333782 (2 samples)
Accepted packet rate average = 0.0284688 (2 samples)
	minimum = 0.0254611 (2 samples)
	maximum = 0.0333782 (2 samples)
Injected flit rate average = 0.0853277 (2 samples)
	minimum = 0.0254611 (2 samples)
	maximum = 0.165867 (2 samples)
Accepted flit rate average = 0.0853277 (2 samples)
	minimum = 0.0317649 (2 samples)
	maximum = 0.128697 (2 samples)
Injected packet size average = 2.99724 (2 samples)
Accepted packet size average = 2.99724 (2 samples)
Hops average = 1 (2 samples)
