

        *** GPGPU-Sim Simulator Version 3.2.2  [build 0] ***


GPGPU-Sim PTX: simulation mode 0 (can change with PTX_SIM_MODE_FUNC environment variable:
               1=functional simulation only, 0=detailed performance simulator)
GPGPU-Sim: Configuration options:

-network_mode                           1 # Interconnection network mode
-inter_config_file   config_fermi_islip.icnt # Interconnection network config file
-gpgpu_ptx_use_cuobjdump                    1 # Use cuobjdump to extract ptx and sass from binaries
-gpgpu_experimental_lib_support                    0 # Try to extract code from cuda libraries [Broken because of unknown cudaGetExportTable]
-gpgpu_ptx_convert_to_ptxplus                    0 # Convert SASS (native ISA) to ptxplus and run ptxplus
-gpgpu_ptx_force_max_capability                   20 # Force maximum compute capability
-gpgpu_ptx_inst_debug_to_file                    0 # Dump executed instructions' debug information to file
-gpgpu_ptx_inst_debug_file       inst_debug.txt # Executed instructions' debug output file
-gpgpu_ptx_inst_debug_thread_uid                    1 # Thread UID for executed instructions' debug output
-gpgpu_simd_model                       1 # 1 = post-dominator
-gpgpu_shader_core_pipeline              1536:32 # shader core pipeline config, i.e., {<nthread>:<warpsize>}
-gpgpu_tex_cache:l1  4:128:24,L:R:m:N:L,F:128:4,128:2 # per-shader L1 texture cache  (READ-ONLY) config  {<nsets>:<bsize>:<assoc>,<rep>:<wr>:<alloc>:<wr_alloc>,<mshr>:<N>:<merge>,<mq>:<rf>}
-gpgpu_const_cache:l1 64:64:2,L:R:f:N:L,A:2:32,4 # per-shader L1 constant memory cache  (READ-ONLY) config  {<nsets>:<bsize>:<assoc>,<rep>:<wr>:<alloc>:<wr_alloc>,<mshr>:<N>:<merge>,<mq>} 
-gpgpu_cache:il1     4:128:4,L:R:f:N:L,A:2:32,4 # shader L1 instruction cache config  {<nsets>:<bsize>:<assoc>,<rep>:<wr>:<alloc>:<wr_alloc>,<mshr>:<N>:<merge>,<mq>} 
-gpgpu_cache:dl1     32:128:4,L:L:m:N:H,A:32:8,8:2,0,1:0:1:1:0:1,1:4:8:16:32:64,/sciclone/data10/hwang07/GPU_RESEARCH/swl/swl_outputs/RESULTS/swl8/ # per-shader L1 data cache config  {<nsets>:<bsize>:<assoc>,<rep>:<wr>:<alloc>:<wr_alloc>,<mshr>:<N>:<merge>,<mq> | none}
-gpgpu_cache:dl1PrefL1                 none # per-shader L1 data cache config  {<nsets>:<bsize>:<assoc>,<rep>:<wr>:<alloc>:<wr_alloc>,<mshr>:<N>:<merge>,<mq> | none}
-gpgpu_cache:dl1PreShared                 none # per-shader L1 data cache config  {<nsets>:<bsize>:<assoc>,<rep>:<wr>:<alloc>:<wr_alloc>,<mshr>:<N>:<merge>,<mq> | none}
-gmem_skip_L1D                          0 # global memory access skip L1D cache (implements -Xptxas -dlcm=cg, default=no skip)
-gpgpu_perfect_mem                      0 # enable perfect memory mode (no cache miss)
-n_regfile_gating_group                    4 # group of lanes that should be read/written together)
-gpgpu_clock_gated_reg_file                    0 # enable clock gated reg file for power calculations
-gpgpu_clock_gated_lanes                    0 # enable clock gated lanes for power calculations
-gpgpu_shader_registers                32768 # Number of registers per shader core. Limits number of concurrent CTAs. (default 8192)
-gpgpu_shader_cta                       8 # Maximum number of concurrent CTAs in shader (default 8)
-gpgpu_num_cta_barriers                   16 # Maximum number of named barriers per CTA (default 16)
-gpgpu_n_clusters                      15 # number of processing clusters
-gpgpu_n_cores_per_cluster                    1 # number of simd cores per cluster
-gpgpu_n_cluster_ejection_buffer_size                    8 # number of packets in ejection buffer
-gpgpu_n_ldst_response_buffer_size                    2 # number of response packets in ld/st unit ejection buffer
-gpgpu_shmem_size                   16384 # Size of shared memory per shader core (default 16kB)
-gpgpu_shmem_size                   49152 # Size of shared memory per shader core (default 16kB)
-gpgpu_shmem_size_PrefL1                16384 # Size of shared memory per shader core (default 16kB)
-gpgpu_shmem_size_PrefShared                16384 # Size of shared memory per shader core (default 16kB)
-gpgpu_shmem_num_banks                   32 # Number of banks in the shared memory in each shader core (default 16)
-gpgpu_shmem_limited_broadcast                    0 # Limit shared memory to do one broadcast per cycle (default on)
-gpgpu_shmem_warp_parts                    1 # Number of portions a warp is divided into for shared memory bank conflict check 
-gpgpu_warpdistro_shader                   -1 # Specify which shader core to collect the warp size distribution from
-gpgpu_warp_issue_shader                    0 # Specify which shader core to collect the warp issue distribution from
-gpgpu_local_mem_map                    1 # Mapping from local memory space address to simulated GPU physical address space (default = enabled)
-gpgpu_num_reg_banks                   16 # Number of register banks (default = 8)
-gpgpu_reg_bank_use_warp_id                    0 # Use warp ID in mapping registers to banks (default = off)
-gpgpu_operand_collector_num_units_sp                    6 # number of collector units (default = 4)
-gpgpu_operand_collector_num_units_sfu                    8 # number of collector units (default = 4)
-gpgpu_operand_collector_num_units_mem                    2 # number of collector units (default = 2)
-gpgpu_operand_collector_num_units_gen                    0 # number of collector units (default = 0)
-gpgpu_operand_collector_num_in_ports_sp                    2 # number of collector unit in ports (default = 1)
-gpgpu_operand_collector_num_in_ports_sfu                    1 # number of collector unit in ports (default = 1)
-gpgpu_operand_collector_num_in_ports_mem                    1 # number of collector unit in ports (default = 1)
-gpgpu_operand_collector_num_in_ports_gen                    0 # number of collector unit in ports (default = 0)
-gpgpu_operand_collector_num_out_ports_sp                    2 # number of collector unit in ports (default = 1)
-gpgpu_operand_collector_num_out_ports_sfu                    1 # number of collector unit in ports (default = 1)
-gpgpu_operand_collector_num_out_ports_mem                    1 # number of collector unit in ports (default = 1)
-gpgpu_operand_collector_num_out_ports_gen                    0 # number of collector unit in ports (default = 0)
-gpgpu_coalesce_arch                   13 # Coalescing arch (default = 13, anything else is off for now)
-gpgpu_num_sched_per_core                    2 # Number of warp schedulers per core
-gpgpu_max_insn_issue_per_warp                    1 # Max number of instructions that can be issued per warp in one cycle by scheduler
-gpgpu_simt_core_sim_order                    1 # Select the simulation order of cores in a cluster (0=Fix, 1=Round-Robin)
-gpgpu_pipeline_widths        2,1,1,2,1,1,2 # Pipeline widths ID_OC_SP,ID_OC_SFU,ID_OC_MEM,OC_EX_SP,OC_EX_SFU,OC_EX_MEM,EX_WB
-gpgpu_num_sp_units                     2 # Number of SP units (default=1)
-gpgpu_num_sfu_units                    1 # Number of SF units (default=1)
-gpgpu_num_mem_units                    1 # Number if ldst units (default=1) WARNING: not hooked up to anything
-gpgpu_scheduler        warp_limiting:2:8 # Scheduler configuration: < lrr | gto | two_level_active > If two_level_active:<num_active_warps>:<inner_prioritization>:<outer_prioritization>For complete list of prioritization values see shader.h enum scheduler_prioritization_typeDefault: gto
-gpgpu_dram_scheduler                    1 # 0 = fifo, 1 = FR-FCFS (defaul)
-gpgpu_dram_partition_queues              8:8:8:8 # i2$:$2d:d2$:$2i
-l2_ideal                               0 # Use a ideal L2 cache that always hit
-gpgpu_cache:dl2     64:128:8,L:B:m:W:L,A:32:4,4:0,32 # unified banked L2 data cache config  {<nsets>:<bsize>:<assoc>,<rep>:<wr>:<alloc>:<wr_alloc>,<mshr>:<N>:<merge>,<mq>}
-gpgpu_cache:dl2_texture_only                    0 # L2 cache used for texture only
-gpgpu_n_mem                            6 # number of memory modules (e.g. memory controllers) in gpu
-gpgpu_n_sub_partition_per_mchannel                    2 # number of memory subpartition in each memory module
-gpgpu_n_mem_per_ctrlr                    2 # number of memory chips per memory controller
-gpgpu_memlatency_stat                   14 # track and display latency statistics 0x2 enables MC, 0x4 enables queue logs
-gpgpu_frfcfs_dram_sched_queue_size                   16 # 0 = unlimited (default); # entries per chip
-gpgpu_dram_return_queue_size                  116 # 0 = unlimited (default); # entries per chip
-gpgpu_dram_buswidth                    4 # default = 4 bytes (8 bytes per cycle at DDR)
-gpgpu_dram_burst_length                    8 # Burst length of each DRAM request (default = 4 data bus cycle)
-dram_data_command_freq_ratio                    4 # Frequency ratio between DRAM data bus and command bus (default = 2 times, i.e. DDR)
-gpgpu_dram_timing_opt nbk=16:CCD=2:RRD=6:RCD=12:RAS=28:RP=12:RC=40: CL=12:WL=4:CDLR=5:WR=12:nbkgrp=4:CCDL=3:RTPL=2 # DRAM timing parameters = {nbk:tCCD:tRRD:tRCD:tRAS:tRP:tRC:CL:WL:tCDLR:tWR:nbkgrp:tCCDL:tRTPL}
-rop_latency                          120 # ROP queue latency (default 85)
-dram_latency                         100 # DRAM latency (default 30)
-gpgpu_mem_addr_mapping dramid@8;00000000.00000000.00000000.00000000.0000RRRR.RRRRRRRR.BBBCCCCB.CCSSSSSS # mapping memory address to dram model {dramid@<start bit>;<memory address map>}
-gpgpu_mem_addr_test                    0 # run sweep test to check address mapping for aliased address
-gpgpu_mem_address_mask                    1 # 0 = old addressing mask, 1 = new addressing mask, 2 = new add. mask + flipped bank sel and chip sel bits
-gpuwattch_xml_file  gpuwattch_gtx480.xml # GPUWattch XML file
-power_simulation_enabled                    0 # Turn on power simulator (1=On, 0=Off)
-power_per_cycle_dump                    0 # Dump detailed power output each cycle
-power_trace_enabled                    0 # produce a file for the power trace (1=On, 0=Off)
-power_trace_zlevel                     6 # Compression level of the power trace output log (0=no comp, 9=highest)
-steady_power_levels_enabled                    0 # produce a file for the steady power levels (1=On, 0=Off)
-steady_state_definition                  8:4 # allowed deviation:number of samples
-gpgpu_max_cycle                        0 # terminates gpu simulation early (0 = no limit)
-gpgpu_max_insn                         0 # terminates gpu simulation early (0 = no limit)
-gpgpu_max_cta                          0 # terminates gpu simulation early (0 = no limit)
-gpgpu_runtime_stat                   500 # display runtime statistics such as dram utilization {<freq>:<flag>}
-liveness_message_freq                    1 # Minimum number of seconds between simulation liveness messages (0 = always print)
-gpgpu_flush_l1_cache                    0 # Flush L1 cache at the end of each kernel call
-gpgpu_flush_l2_cache                    0 # Flush L2 cache at the end of each kernel call
-gpgpu_deadlock_detect                    1 # Stop the simulation at deadlock (1=on (default), 0=off)
-gpgpu_ptx_instruction_classification                    0 # if enabled will classify ptx instruction types per kernel (Max 255 kernels now)
-gpgpu_ptx_sim_mode                     0 # Select between Performance (default) or Functional simulation (1)
-gpgpu_clock_domains 700.0:700.0:700.0:924.0 # Clock Domain Frequencies in MhZ {<Core Clock>:<ICNT Clock>:<L2 Clock>:<DRAM Clock>}
-gpgpu_max_concurrent_kernel                    8 # maximum kernels that can run concurrently on GPU
-gpgpu_cflog_interval                    0 # Interval between each snapshot in control flow logger
-visualizer_enabled                     0 # Turn on visualizer output (1=On, 0=Off)
-visualizer_outputfile                 NULL # Specifies the output log file for visualizer
-visualizer_zlevel                      6 # Compression level of the visualizer output log (0=no comp, 9=highest)
-trace_enabled                          0 # Turn on traces
-trace_components                    none # comma seperated list of traces to enable. Complete list found in trace_streams.tup. Default none
-trace_sampling_core                    0 # The core which is printed using CORE_DPRINTF. Default 0
-trace_sampling_memory_partition                   -1 # The memory partition which is printed using MEMPART_DPRINTF. Default -1 (i.e. all)
-enable_ptx_file_line_stats                    1 # Turn on PTX source line statistic profiling. (1 = On)
-ptx_line_stats_filename gpgpu_inst_stats.txt # Output file for PTX source line statistics.
-save_embedded_ptx                      0 # saves ptx files embedded in binary as <n>.ptx
-keep                                   0 # keep intermediate files created by GPGPU-Sim when interfacing with external programs
-gpgpu_ptx_save_converted_ptxplus                    0 # Saved converted ptxplus to a file
-ptx_opcode_latency_int         4,13,4,5,145 # Opcode latencies for integers <ADD,MAX,MUL,MAD,DIV>Default 1,1,19,25,145
-ptx_opcode_latency_fp          4,13,4,5,39 # Opcode latencies for single precision floating points <ADD,MAX,MUL,MAD,DIV>Default 1,1,1,1,30
-ptx_opcode_latency_dp         8,19,8,8,330 # Opcode latencies for double precision floating points <ADD,MAX,MUL,MAD,DIV>Default 8,8,8,8,335
-ptx_opcode_initiation_int            1,2,2,1,8 # Opcode initiation intervals for integers <ADD,MAX,MUL,MAD,DIV>Default 1,1,4,4,32
-ptx_opcode_initiation_fp            1,2,1,1,4 # Opcode initiation intervals for single precision floating points <ADD,MAX,MUL,MAD,DIV>Default 1,1,1,1,5
-ptx_opcode_initiation_dp         8,16,8,8,130 # Opcode initiation intervals for double precision floating points <ADD,MAX,MUL,MAD,DIV>Default 8,8,8,8,130
DRAM Timing Options:
nbk                                    16 # number of banks
CCD                                     2 # column to column delay
RRD                                     6 # minimal delay between activation of rows in different banks
RCD                                    12 # row to column delay
RAS                                    28 # time needed to activate row
RP                                     12 # time needed to precharge (deactivate) row
RC                                     40 # row cycle time
CDLR                                    5 # switching from write to read (changes tWTR)
WR                                     12 # last data-in to row precharge
CL                                     12 # CAS latency
WL                                      4 # Write latency
nbkgrp                                  4 # number of bank groups
CCDL                                    3 # column to column delay between accesses to different bank groups
RTPL                                    2 # read to precharge delay between accesses to different bank groups
Total number of memory sub partition = 12
addr_dec_mask[CHIP]  = 0000000000000000 	high:64 low:0
addr_dec_mask[BK]    = 000000000000e100 	high:16 low:8
addr_dec_mask[ROW]   = 000000000fff0000 	high:28 low:16
addr_dec_mask[COL]   = 0000000000001eff 	high:13 low:0
addr_dec_mask[BURST] = 000000000000003f 	high:6 low:0
sub_partition_id_mask = 0000000000000100
GPGPU-Sim uArch: clock freqs: 700000000.000000:700000000.000000:700000000.000000:924000000.000000
GPGPU-Sim uArch: clock periods: 0.00000000142857142857:0.00000000142857142857:0.00000000142857142857:0.00000000108225108225
*** Initializing Memory Statistics ***
GPGPU-Sim uArch: interconnect node map (shaderID+MemID to icntID)
GPGPU-Sim uArch: Memory nodes ID start from index: 15
GPGPU-Sim uArch:    0   1   2   3   4
GPGPU-Sim uArch:    5   6   7   8   9
GPGPU-Sim uArch:   10  11  12  13  14
GPGPU-Sim uArch:   15  16  17  18  19
GPGPU-Sim uArch:   20  21  22  23  24
GPGPU-Sim uArch:   25  26
GPGPU-Sim uArch: interconnect node reverse map (icntID to shaderID+MemID)
GPGPU-Sim uArch: Memory nodes start from ID: 15
GPGPU-Sim uArch:    0   1   2   3   4
GPGPU-Sim uArch:    5   6   7   8   9
GPGPU-Sim uArch:   10  11  12  13  14
GPGPU-Sim uArch:   15  16  17  18  19
GPGPU-Sim uArch:   20  21  22  23  24
GPGPU-Sim uArch:   25  26
96cf2a65eb896a14ecc5af85c6ba92b9  /sciclone/data10/hwang07/adwait/applications/benchmarks/rodinia/cuda/bfs/gpgpu_ptx_sim__bfs
GPGPU-Sim uArch: performance model initialization complete.
GPGPU-Sim PTX: __cudaRegisterFatBinary, fat_cubin_handle = 1, filename=bfs.cu
self exe links to: /sciclone/data10/hwang07/adwait/applications/benchmarks/rodinia/cuda/bfs/gpgpu_ptx_sim__bfs
Running md5sum using "md5sum /sciclone/data10/hwang07/adwait/applications/benchmarks/rodinia/cuda/bfs/gpgpu_ptx_sim__bfs "
Parsing file _cuobjdump_complete_output_9Nzgsh
######### cuobjdump parser ########
## Adding new section ELF
Adding arch: sm_20
Adding identifier: bfs.cu
## Adding new section PTX
Adding ptx filename: _cuobjdump_1.ptx
Adding arch: sm_20
Adding identifier: bfs.cu
Done parsing!!!
GPGPU-Sim PTX: __cudaRegisterFunction _Z7Kernel2PbS_S_S_i : hostFun 0x0x401773, fat_cubin_handle = 1
GPGPU-Sim PTX: instruction assembly for function '_Z6KernelP4NodePiPbS2_S2_S1_i'...   done.
GPGPU-Sim PTX: finding reconvergence points for '_Z6KernelP4NodePiPbS2_S2_S1_i'...
GPGPU-Sim PTX: Finding dominators for '_Z6KernelP4NodePiPbS2_S2_S1_i'...
GPGPU-Sim PTX: Finding immediate dominators for '_Z6KernelP4NodePiPbS2_S2_S1_i'...
GPGPU-Sim PTX: Finding postdominators for '_Z6KernelP4NodePiPbS2_S2_S1_i'...
GPGPU-Sim PTX: Finding immediate postdominators for '_Z6KernelP4NodePiPbS2_S2_S1_i'...
GPGPU-Sim PTX: pre-decoding instructions for '_Z6KernelP4NodePiPbS2_S2_S1_i'...
GPGPU-Sim PTX: reconvergence points for _Z6KernelP4NodePiPbS2_S2_S1_i...
GPGPU-Sim PTX:  1 (potential) branch divergence @  PC=0x030 (_1.ptx:73) @%p1 bra $Lt_0_5122;
GPGPU-Sim PTX:    immediate post dominator      @  PC=0x1c0 (_1.ptx:135) exit;
GPGPU-Sim PTX:  2 (potential) branch divergence @  PC=0x068 (_1.ptx:80) @%p2 bra $Lt_0_5122;
GPGPU-Sim PTX:    immediate post dominator      @  PC=0x1c0 (_1.ptx:135) exit;
GPGPU-Sim PTX:  3 (potential) branch divergence @  PC=0x0c0 (_1.ptx:93) @%p3 bra $Lt_0_5122;
GPGPU-Sim PTX:    immediate post dominator      @  PC=0x1c0 (_1.ptx:135) exit;
GPGPU-Sim PTX:  4 (potential) branch divergence @  PC=0x120 (_1.ptx:108) @%p4 bra $Lt_0_4354;
GPGPU-Sim PTX:    immediate post dominator      @  PC=0x1a0 (_1.ptx:128) add.s32 %r10, %r10, 1;
GPGPU-Sim PTX:  5 (potential) branch divergence @  PC=0x1b8 (_1.ptx:131) @%p5 bra $Lt_0_4098;
GPGPU-Sim PTX:    immediate post dominator      @  PC=0x1c0 (_1.ptx:135) exit;
GPGPU-Sim PTX: ... end of reconvergence points for _Z6KernelP4NodePiPbS2_S2_S1_i
GPGPU-Sim PTX: ... done pre-decoding instructions for '_Z6KernelP4NodePiPbS2_S2_S1_i'.
GPGPU-Sim PTX: instruction assembly for function '_Z7Kernel2PbS_S_S_i'...   done.
GPGPU-Sim PTX: finding reconvergence points for '_Z7Kernel2PbS_S_S_i'...
GPGPU-Sim PTX: Finding dominators for '_Z7Kernel2PbS_S_S_i'...
GPGPU-Sim PTX: Finding immediate dominators for '_Z7Kernel2PbS_S_S_i'...
GPGPU-Sim PTX: Finding postdominators for '_Z7Kernel2PbS_S_S_i'...
GPGPU-Sim PTX: Finding immediate postdominators for '_Z7Kernel2PbS_S_S_i'...
GPGPU-Sim PTX: pre-decoding instructions for '_Z7Kernel2PbS_S_S_i'...
GPGPU-Sim PTX: reconvergence points for _Z7Kernel2PbS_S_S_i...
GPGPU-Sim PTX:  1 (potential) branch divergence @  PC=0x1f8 (_1.ptx:157) @%p1 bra $Lt_1_1794;
GPGPU-Sim PTX:    immediate post dominator      @  PC=0x2a0 (_1.ptx:185) exit;
GPGPU-Sim PTX:  2 (potential) branch divergence @  PC=0x230 (_1.ptx:164) @%p2 bra $Lt_1_1794;
GPGPU-Sim PTX:    immediate post dominator      @  PC=0x2a0 (_1.ptx:185) exit;
GPGPU-Sim PTX: ... end of reconvergence points for _Z7Kernel2PbS_S_S_i
GPGPU-Sim PTX: ... done pre-decoding instructions for '_Z7Kernel2PbS_S_S_i'.
GPGPU-Sim PTX: finished parsing EMBEDDED .ptx file _1.ptx
Adding _cuobjdump_1.ptx with cubin handle 1
GPGPU-Sim PTX: extracting embedded .ptx to temporary file "_ptx_WS9odh"
Running: cat _ptx_WS9odh | sed 's/.version 1.5/.version 1.4/' | sed 's/, texmode_independent//' | sed 's/\(\.extern \.const\[1\] .b8 \w\+\)\[\]/\1\[1\]/' | sed 's/const\[.\]/const\[0\]/g' > _ptx2_xEvEsm
GPGPU-Sim PTX: generating ptxinfo using "$CUDA_INSTALL_PATH/bin/ptxas --gpu-name=sm_20 -v _ptx2_xEvEsm --output-file  /dev/null 2> _ptx_WS9odhinfo"
GPGPU-Sim PTX: Kernel '_Z7Kernel2PbS_S_S_i' : regs=12, lmem=0, smem=0, cmem=68
GPGPU-Sim PTX: Kernel '_Z6KernelP4NodePiPbS2_S2_S1_i' : regs=15, lmem=0, smem=0, cmem=84
GPGPU-Sim PTX: removing ptxinfo using "rm -f _ptx_WS9odh _ptx2_xEvEsm _ptx_WS9odhinfo"
GPGPU-Sim PTX: loading globals with explicit initializers... 
GPGPU-Sim PTX: finished loading globals (0 bytes total).
GPGPU-Sim PTX: loading constants with explicit initializers...  done.
GPGPU-Sim PTX: __cudaRegisterFunction _Z6KernelP4NodePiPbS2_S2_S1_i : hostFun 0x0x401637, fat_cubin_handle = 1
Reading File
Read File
Copied Everything to GPU memory
Start traversing the tree

GPGPU-Sim PTX: cudaLaunch for 0x0x401637 (mode=performance simulation) on stream 0
GPGPU-Sim PTX: pushing kernel '_Z6KernelP4NodePiPbS2_S2_S1_i' to stream 0, gridDim= (1954,1,1) blockDim = (512,1,1) 
kernel '_Z6KernelP4NodePiPbS2_S2_S1_i' transfer to GPU hardware scheduler
GPGPU-Sim uArch: Shader 1 bind to kernel 1 '_Z6KernelP4NodePiPbS2_S2_S1_i'
GPGPU-Sim uArch: CTA/core = 3, limited by: threads
GPGPU-Sim uArch: core:  1, cta: 0 initialized @(1,0)
GPGPU-Sim uArch: Shader 2 bind to kernel 1 '_Z6KernelP4NodePiPbS2_S2_S1_i'
GPGPU-Sim uArch: core:  2, cta: 0 initialized @(1,0)
GPGPU-Sim uArch: Shader 3 bind to kernel 1 '_Z6KernelP4NodePiPbS2_S2_S1_i'
GPGPU-Sim uArch: core:  3, cta: 0 initialized @(1,0)
GPGPU-Sim uArch: Shader 4 bind to kernel 1 '_Z6KernelP4NodePiPbS2_S2_S1_i'
GPGPU-Sim uArch: core:  4, cta: 0 initialized @(1,0)
GPGPU-Sim uArch: Shader 5 bind to kernel 1 '_Z6KernelP4NodePiPbS2_S2_S1_i'
GPGPU-Sim uArch: core:  5, cta: 0 initialized @(1,0)
GPGPU-Sim uArch: Shader 6 bind to kernel 1 '_Z6KernelP4NodePiPbS2_S2_S1_i'
GPGPU-Sim uArch: core:  6, cta: 0 initialized @(1,0)
GPGPU-Sim uArch: Shader 7 bind to kernel 1 '_Z6KernelP4NodePiPbS2_S2_S1_i'
GPGPU-Sim uArch: core:  7, cta: 0 initialized @(1,0)
GPGPU-Sim uArch: Shader 8 bind to kernel 1 '_Z6KernelP4NodePiPbS2_S2_S1_i'
GPGPU-Sim uArch: core:  8, cta: 0 initialized @(1,0)
GPGPU-Sim uArch: Shader 9 bind to kernel 1 '_Z6KernelP4NodePiPbS2_S2_S1_i'
GPGPU-Sim uArch: core:  9, cta: 0 initialized @(1,0)
GPGPU-Sim uArch: Shader 10 bind to kernel 1 '_Z6KernelP4NodePiPbS2_S2_S1_i'
GPGPU-Sim uArch: core: 10, cta: 0 initialized @(1,0)
GPGPU-Sim uArch: Shader 11 bind to kernel 1 '_Z6KernelP4NodePiPbS2_S2_S1_i'
GPGPU-Sim uArch: core: 11, cta: 0 initialized @(1,0)
GPGPU-Sim uArch: Shader 12 bind to kernel 1 '_Z6KernelP4NodePiPbS2_S2_S1_i'
GPGPU-Sim uArch: core: 12, cta: 0 initialized @(1,0)
GPGPU-Sim uArch: Shader 13 bind to kernel 1 '_Z6KernelP4NodePiPbS2_S2_S1_i'
GPGPU-Sim uArch: core: 13, cta: 0 initialized @(1,0)
GPGPU-Sim uArch: Shader 14 bind to kernel 1 '_Z6KernelP4NodePiPbS2_S2_S1_i'
GPGPU-Sim uArch: core: 14, cta: 0 initialized @(1,0)
GPGPU-Sim uArch: Shader 0 bind to kernel 1 '_Z6KernelP4NodePiPbS2_S2_S1_i'
GPGPU-Sim uArch: core:  0, cta: 0 initialized @(1,0)
GPGPU-Sim uArch: core:  1, cta: 1 initialized @(2,0)
GPGPU-Sim uArch: core:  2, cta: 1 initialized @(2,0)
GPGPU-Sim uArch: core:  3, cta: 1 initialized @(2,0)
GPGPU-Sim uArch: core:  4, cta: 1 initialized @(2,0)
GPGPU-Sim uArch: core:  5, cta: 1 initialized @(2,0)
GPGPU-Sim uArch: core:  6, cta: 1 initialized @(2,0)
GPGPU-Sim uArch: core:  7, cta: 1 initialized @(2,0)
GPGPU-Sim uArch: core:  8, cta: 1 initialized @(2,0)
GPGPU-Sim uArch: core:  9, cta: 1 initialized @(2,0)
GPGPU-Sim uArch: core: 10, cta: 1 initialized @(2,0)
GPGPU-Sim uArch: core: 11, cta: 1 initialized @(2,0)
GPGPU-Sim uArch: core: 12, cta: 1 initialized @(2,0)
GPGPU-Sim uArch: core: 13, cta: 1 initialized @(2,0)
GPGPU-Sim uArch: core: 14, cta: 1 initialized @(2,0)
GPGPU-Sim uArch: core:  0, cta: 1 initialized @(2,0)
GPGPU-Sim uArch: core:  1, cta: 2 initialized @(3,0)
GPGPU-Sim uArch: core:  2, cta: 2 initialized @(3,0)
GPGPU-Sim uArch: core:  3, cta: 2 initialized @(3,0)
GPGPU-Sim uArch: core:  4, cta: 2 initialized @(3,0)
GPGPU-Sim uArch: core:  5, cta: 2 initialized @(3,0)
GPGPU-Sim uArch: core:  6, cta: 2 initialized @(3,0)
GPGPU-Sim uArch: core:  7, cta: 2 initialized @(3,0)
GPGPU-Sim uArch: core:  8, cta: 2 initialized @(3,0)
GPGPU-Sim uArch: core:  9, cta: 2 initialized @(3,0)
GPGPU-Sim uArch: core: 10, cta: 2 initialized @(3,0)
GPGPU-Sim uArch: core: 11, cta: 2 initialized @(3,0)
GPGPU-Sim uArch: core: 12, cta: 2 initialized @(3,0)
GPGPU-Sim uArch: core: 13, cta: 2 initialized @(3,0)
GPGPU-Sim uArch: core: 14, cta: 2 initialized @(3,0)
GPGPU-Sim uArch: core:  0, cta: 2 initialized @(3,0)
GPGPU-Sim uArch: cycles simulated: 500  inst.: 30720 (ipc=61.4) sim_rate=3413 (inst/sec) elapsed = 0:0:00:09 / Tue Mar 22 12:52:11 2016
GPGPU-Sim PTX: 100000 instructions simulated : ctaid=(0,0,0) tid=(317,0,0)
GPGPU-Sim uArch: cycles simulated: 1000  inst.: 99041 (ipc=99.0) sim_rate=9904 (inst/sec) elapsed = 0:0:00:10 / Tue Mar 22 12:52:12 2016
GPGPU-Sim uArch: Shader 3 finished CTA #0 (1220,0), 2 CTAs running
GPGPU-Sim uArch: core:  3, cta: 0 initialized @(1221,0)
GPGPU-Sim uArch: Shader 4 finished CTA #0 (1226,0), 2 CTAs running
GPGPU-Sim uArch: core:  4, cta: 0 initialized @(1227,0)
GPGPU-Sim uArch: Shader 0 finished CTA #0 (1232,0), 2 CTAs running
GPGPU-Sim uArch: core:  0, cta: 0 initialized @(1233,0)
GPGPU-Sim uArch: Shader 5 finished CTA #0 (1238,0), 2 CTAs running
GPGPU-Sim uArch: core:  5, cta: 0 initialized @(1239,0)
GPGPU-Sim uArch: Shader 2 finished CTA #0 (1244,0), 2 CTAs running
GPGPU-Sim uArch: core:  2, cta: 0 initialized @(1245,0)
GPGPU-Sim uArch: Shader 6 finished CTA #0 (1250,0), 2 CTAs running
GPGPU-Sim uArch: core:  6, cta: 0 initialized @(1251,0)
GPGPU-Sim uArch: Shader 7 finished CTA #0 (1256,0), 2 CTAs running
GPGPU-Sim uArch: core:  7, cta: 0 initialized @(1257,0)
GPGPU-Sim uArch: Shader 8 finished CTA #0 (1262,0), 2 CTAs running
GPGPU-Sim uArch: core:  8, cta: 0 initialized @(1263,0)
GPGPU-Sim uArch: Shader 9 finished CTA #0 (1268,0), 2 CTAs running
GPGPU-Sim uArch: core:  9, cta: 0 initialized @(1269,0)
GPGPU-Sim uArch: Shader 10 finished CTA #0 (1274,0), 2 CTAs running
GPGPU-Sim uArch: core: 10, cta: 0 initialized @(1275,0)
GPGPU-Sim uArch: Shader 11 finished CTA #0 (1280,0), 2 CTAs running
GPGPU-Sim uArch: core: 11, cta: 0 initialized @(1281,0)
GPGPU-Sim uArch: Shader 12 finished CTA #0 (1286,0), 2 CTAs running
GPGPU-Sim uArch: core: 12, cta: 0 initialized @(1287,0)
GPGPU-Sim uArch: Shader 13 finished CTA #0 (1292,0), 2 CTAs running
GPGPU-Sim uArch: core: 13, cta: 0 initialized @(1293,0)
GPGPU-Sim uArch: Shader 14 finished CTA #0 (1298,0), 2 CTAs running
GPGPU-Sim uArch: core: 14, cta: 0 initialized @(1299,0)
GPGPU-Sim PTX: 200000 instructions simulated : ctaid=(27,0,0) tid=(505,0,0)
GPGPU-Sim uArch: Shader 3 finished CTA #1 (1636,0), 2 CTAs running
GPGPU-Sim uArch: core:  3, cta: 1 initialized @(1637,0)
GPGPU-Sim uArch: Shader 1 finished CTA #1 (1644,0), 2 CTAs running
GPGPU-Sim uArch: core:  1, cta: 1 initialized @(1645,0)
GPGPU-Sim uArch: Shader 0 finished CTA #1 (1645,0), 2 CTAs running
GPGPU-Sim uArch: core:  0, cta: 1 initialized @(1646,0)
GPGPU-Sim uArch: Shader 4 finished CTA #1 (1652,0), 2 CTAs running
GPGPU-Sim uArch: core:  4, cta: 1 initialized @(1653,0)
GPGPU-Sim uArch: Shader 2 finished CTA #1 (1661,0), 2 CTAs running
GPGPU-Sim uArch: core:  2, cta: 1 initialized @(1662,0)
GPGPU-Sim uArch: Shader 5 finished CTA #1 (1662,0), 2 CTAs running
GPGPU-Sim uArch: core:  5, cta: 1 initialized @(1663,0)
GPGPU-Sim uArch: Shader 6 finished CTA #1 (1673,0), 2 CTAs running
GPGPU-Sim uArch: core:  6, cta: 1 initialized @(1674,0)
GPGPU-Sim uArch: Shader 8 finished CTA #1 (1681,0), 2 CTAs running
GPGPU-Sim uArch: core:  8, cta: 1 initialized @(1682,0)
GPGPU-Sim uArch: Shader 7 finished CTA #1 (1683,0), 2 CTAs running
GPGPU-Sim uArch: core:  7, cta: 1 initialized @(1684,0)
GPGPU-Sim uArch: Shader 9 finished CTA #1 (1691,0), 2 CTAs running
GPGPU-Sim uArch: core:  9, cta: 1 initialized @(1692,0)
GPGPU-Sim uArch: Shader 11 finished CTA #1 (1696,0), 2 CTAs running
GPGPU-Sim uArch: core: 11, cta: 1 initialized @(1697,0)
GPGPU-Sim uArch: Shader 10 finished CTA #1 (1700,0), 2 CTAs running
GPGPU-Sim uArch: Shader 12 finished CTA #1 (1700,0), 2 CTAs running
GPGPU-Sim uArch: core: 12, cta: 1 initialized @(1701,0)
GPGPU-Sim uArch: core: 10, cta: 1 initialized @(1701,0)
GPGPU-Sim uArch: Shader 13 finished CTA #1 (1704,0), 2 CTAs running
GPGPU-Sim uArch: core: 13, cta: 1 initialized @(1705,0)
GPGPU-Sim uArch: Shader 14 finished CTA #1 (1705,0), 2 CTAs running
GPGPU-Sim uArch: core: 14, cta: 1 initialized @(1706,0)
GPGPU-Sim PTX: 300000 instructions simulated : ctaid=(43,0,0) tid=(270,0,0)
GPGPU-Sim uArch: Shader 1 finished CTA #2 (1981,0), 2 CTAs running
GPGPU-Sim uArch: core:  1, cta: 2 initialized @(1982,0)
GPGPU-Sim uArch: cycles simulated: 2000  inst.: 337136 (ipc=168.6) sim_rate=30648 (inst/sec) elapsed = 0:0:00:11 / Tue Mar 22 12:52:13 2016
GPGPU-Sim uArch: Shader 3 finished CTA #2 (2006,0), 2 CTAs running
GPGPU-Sim uArch: core:  3, cta: 2 initialized @(2007,0)
GPGPU-Sim uArch: Shader 4 finished CTA #2 (2012,0), 2 CTAs running
GPGPU-Sim uArch: core:  4, cta: 2 initialized @(2013,0)
GPGPU-Sim uArch: Shader 0 finished CTA #2 (2024,0), 2 CTAs running
GPGPU-Sim uArch: core:  0, cta: 2 initialized @(2025,0)
GPGPU-Sim uArch: Shader 5 finished CTA #2 (2025,0), 2 CTAs running
GPGPU-Sim uArch: core:  5, cta: 2 initialized @(2026,0)
GPGPU-Sim uArch: Shader 6 finished CTA #2 (2037,0), 2 CTAs running
GPGPU-Sim uArch: core:  6, cta: 2 initialized @(2038,0)
GPGPU-Sim uArch: Shader 2 finished CTA #2 (2038,0), 2 CTAs running
GPGPU-Sim uArch: core:  2, cta: 2 initialized @(2039,0)
GPGPU-Sim uArch: Shader 8 finished CTA #2 (2040,0), 2 CTAs running
GPGPU-Sim uArch: core:  8, cta: 2 initialized @(2041,0)
GPGPU-Sim PTX: 400000 instructions simulated : ctaid=(45,0,0) tid=(397,0,0)
GPGPU-Sim uArch: Shader 7 finished CTA #2 (2041,0), 2 CTAs running
GPGPU-Sim uArch: core:  7, cta: 2 initialized @(2042,0)
GPGPU-Sim uArch: Shader 9 finished CTA #2 (2057,0), 2 CTAs running
GPGPU-Sim uArch: core:  9, cta: 2 initialized @(2058,0)
GPGPU-Sim uArch: Shader 11 finished CTA #2 (2059,0), 2 CTAs running
GPGPU-Sim uArch: core: 11, cta: 2 initialized @(2060,0)
GPGPU-Sim uArch: Shader 10 finished CTA #2 (2064,0), 2 CTAs running
GPGPU-Sim uArch: core: 10, cta: 2 initialized @(2065,0)
GPGPU-Sim uArch: Shader 12 finished CTA #2 (2070,0), 2 CTAs running
GPGPU-Sim uArch: core: 12, cta: 2 initialized @(2071,0)
GPGPU-Sim uArch: Shader 13 finished CTA #2 (2073,0), 2 CTAs running
GPGPU-Sim uArch: core: 13, cta: 2 initialized @(2074,0)
GPGPU-Sim uArch: Shader 14 finished CTA #2 (2088,0), 2 CTAs running
GPGPU-Sim uArch: core: 14, cta: 2 initialized @(2089,0)
GPGPU-Sim uArch: Shader 1 finished CTA #1 (2335,0), 2 CTAs running
GPGPU-Sim uArch: core:  1, cta: 1 initialized @(2336,0)
GPGPU-Sim uArch: Shader 3 finished CTA #0 (2361,0), 2 CTAs running
GPGPU-Sim uArch: core:  3, cta: 0 initialized @(2362,0)
GPGPU-Sim PTX: 500000 instructions simulated : ctaid=(74,0,0) tid=(394,0,0)
GPGPU-Sim uArch: Shader 4 finished CTA #0 (2370,0), 2 CTAs running
GPGPU-Sim uArch: core:  4, cta: 0 initialized @(2371,0)
GPGPU-Sim uArch: Shader 5 finished CTA #0 (2373,0), 2 CTAs running
GPGPU-Sim uArch: core:  5, cta: 0 initialized @(2374,0)
GPGPU-Sim uArch: Shader 0 finished CTA #0 (2374,0), 2 CTAs running
GPGPU-Sim uArch: core:  0, cta: 0 initialized @(2375,0)
GPGPU-Sim uArch: Shader 2 finished CTA #0 (2378,0), 2 CTAs running
GPGPU-Sim uArch: core:  2, cta: 0 initialized @(2379,0)
GPGPU-Sim uArch: Shader 6 finished CTA #0 (2392,0), 2 CTAs running
GPGPU-Sim uArch: core:  6, cta: 0 initialized @(2393,0)
GPGPU-Sim uArch: Shader 8 finished CTA #0 (2397,0), 2 CTAs running
GPGPU-Sim uArch: core:  8, cta: 0 initialized @(2398,0)
GPGPU-Sim uArch: Shader 7 finished CTA #0 (2400,0), 2 CTAs running
GPGPU-Sim uArch: core:  7, cta: 0 initialized @(2401,0)
GPGPU-Sim uArch: Shader 11 finished CTA #0 (2412,0), 2 CTAs running
GPGPU-Sim uArch: core: 11, cta: 0 initialized @(2413,0)
GPGPU-Sim uArch: Shader 9 finished CTA #0 (2413,0), 2 CTAs running
GPGPU-Sim uArch: Shader 10 finished CTA #0 (2413,0), 2 CTAs running
GPGPU-Sim uArch: core:  9, cta: 0 initialized @(2414,0)
GPGPU-Sim uArch: core: 10, cta: 0 initialized @(2414,0)
GPGPU-Sim uArch: Shader 12 finished CTA #0 (2418,0), 2 CTAs running
GPGPU-Sim uArch: core: 12, cta: 0 initialized @(2419,0)
GPGPU-Sim uArch: Shader 13 finished CTA #0 (2425,0), 2 CTAs running
GPGPU-Sim uArch: core: 13, cta: 0 initialized @(2426,0)
GPGPU-Sim uArch: Shader 14 finished CTA #0 (2441,0), 2 CTAs running
GPGPU-Sim uArch: core: 14, cta: 0 initialized @(2442,0)
GPGPU-Sim uArch: Shader 1 finished CTA #2 (2685,0), 2 CTAs running
GPGPU-Sim uArch: core:  1, cta: 2 initialized @(2686,0)
GPGPU-Sim PTX: 600000 instructions simulated : ctaid=(82,0,0) tid=(132,0,0)
GPGPU-Sim uArch: Shader 3 finished CTA #1 (2712,0), 2 CTAs running
GPGPU-Sim uArch: core:  3, cta: 1 initialized @(2713,0)
GPGPU-Sim uArch: Shader 4 finished CTA #1 (2720,0), 2 CTAs running
GPGPU-Sim uArch: core:  4, cta: 1 initialized @(2721,0)
GPGPU-Sim uArch: Shader 5 finished CTA #1 (2723,0), 2 CTAs running
GPGPU-Sim uArch: core:  5, cta: 1 initialized @(2724,0)
GPGPU-Sim uArch: Shader 0 finished CTA #1 (2724,0), 2 CTAs running
GPGPU-Sim uArch: core:  0, cta: 1 initialized @(2725,0)
GPGPU-Sim uArch: Shader 2 finished CTA #1 (2728,0), 2 CTAs running
GPGPU-Sim uArch: core:  2, cta: 1 initialized @(2729,0)
GPGPU-Sim uArch: Shader 6 finished CTA #1 (2740,0), 2 CTAs running
GPGPU-Sim uArch: Shader 7 finished CTA #1 (2740,0), 2 CTAs running
GPGPU-Sim uArch: Shader 8 finished CTA #1 (2740,0), 2 CTAs running
GPGPU-Sim uArch: core:  6, cta: 1 initialized @(2741,0)
GPGPU-Sim uArch: core:  7, cta: 1 initialized @(2741,0)
GPGPU-Sim uArch: core:  8, cta: 1 initialized @(2741,0)
GPGPU-Sim uArch: Shader 11 finished CTA #1 (2763,0), 2 CTAs running
GPGPU-Sim uArch: core: 11, cta: 1 initialized @(2764,0)
GPGPU-Sim uArch: Shader 9 finished CTA #1 (2764,0), 2 CTAs running
GPGPU-Sim uArch: core:  9, cta: 1 initialized @(2765,0)
GPGPU-Sim uArch: Shader 10 finished CTA #1 (2766,0), 2 CTAs running
GPGPU-Sim uArch: core: 10, cta: 1 initialized @(2767,0)
GPGPU-Sim uArch: Shader 12 finished CTA #1 (2768,0), 2 CTAs running
GPGPU-Sim uArch: core: 12, cta: 1 initialized @(2769,0)
GPGPU-Sim uArch: Shader 13 finished CTA #1 (2774,0), 2 CTAs running
GPGPU-Sim uArch: core: 13, cta: 1 initialized @(2775,0)
GPGPU-Sim uArch: Shader 14 finished CTA #1 (2805,0), 2 CTAs running
GPGPU-Sim uArch: core: 14, cta: 1 initialized @(2806,0)
GPGPU-Sim uArch: cycles simulated: 3000  inst.: 643083 (ipc=214.4) sim_rate=53590 (inst/sec) elapsed = 0:0:00:12 / Tue Mar 22 12:52:14 2016
GPGPU-Sim PTX: 700000 instructions simulated : ctaid=(92,0,0) tid=(176,0,0)
GPGPU-Sim uArch: Shader 1 finished CTA #1 (3036,0), 2 CTAs running
GPGPU-Sim uArch: core:  1, cta: 1 initialized @(3037,0)
GPGPU-Sim uArch: Shader 3 finished CTA #2 (3061,0), 2 CTAs running
GPGPU-Sim uArch: core:  3, cta: 2 initialized @(3062,0)
GPGPU-Sim uArch: Shader 4 finished CTA #2 (3069,0), 2 CTAs running
GPGPU-Sim uArch: core:  4, cta: 2 initialized @(3070,0)
GPGPU-Sim uArch: Shader 0 finished CTA #2 (3073,0), 2 CTAs running
GPGPU-Sim uArch: core:  0, cta: 2 initialized @(3074,0)
GPGPU-Sim uArch: Shader 2 finished CTA #2 (3080,0), 2 CTAs running
GPGPU-Sim uArch: core:  2, cta: 2 initialized @(3081,0)
GPGPU-Sim uArch: Shader 5 finished CTA #2 (3083,0), 2 CTAs running
GPGPU-Sim uArch: core:  5, cta: 2 initialized @(3084,0)
GPGPU-Sim uArch: Shader 8 finished CTA #2 (3086,0), 2 CTAs running
GPGPU-Sim uArch: core:  8, cta: 2 initialized @(3087,0)
GPGPU-Sim uArch: Shader 7 finished CTA #2 (3091,0), 2 CTAs running
GPGPU-Sim uArch: core:  7, cta: 2 initialized @(3092,0)
GPGPU-Sim uArch: Shader 6 finished CTA #2 (3093,0), 2 CTAs running
GPGPU-Sim uArch: core:  6, cta: 2 initialized @(3094,0)
GPGPU-Sim uArch: Shader 11 finished CTA #2 (3112,0), 2 CTAs running
GPGPU-Sim uArch: core: 11, cta: 2 initialized @(3113,0)
GPGPU-Sim uArch: Shader 10 finished CTA #2 (3115,0), 2 CTAs running
GPGPU-Sim uArch: core: 10, cta: 2 initialized @(3116,0)
GPGPU-Sim uArch: Shader 9 finished CTA #2 (3116,0), 2 CTAs running
GPGPU-Sim uArch: core:  9, cta: 2 initialized @(3117,0)
GPGPU-Sim uArch: Shader 12 finished CTA #2 (3123,0), 2 CTAs running
GPGPU-Sim uArch: core: 12, cta: 2 initialized @(3124,0)
GPGPU-Sim uArch: Shader 13 finished CTA #2 (3124,0), 2 CTAs running
GPGPU-Sim uArch: core: 13, cta: 2 initialized @(3125,0)
GPGPU-Sim uArch: Shader 14 finished CTA #2 (3154,0), 2 CTAs running
GPGPU-Sim uArch: core: 14, cta: 2 initialized @(3155,0)
GPGPU-Sim PTX: 800000 instructions simulated : ctaid=(115,0,0) tid=(67,0,0)
GPGPU-Sim uArch: Shader 1 finished CTA #2 (3390,0), 2 CTAs running
GPGPU-Sim uArch: core:  1, cta: 2 initialized @(3391,0)
GPGPU-Sim uArch: Shader 3 finished CTA #0 (3408,0), 2 CTAs running
GPGPU-Sim uArch: core:  3, cta: 0 initialized @(3409,0)
GPGPU-Sim uArch: Shader 0 finished CTA #0 (3421,0), 2 CTAs running
GPGPU-Sim uArch: Shader 4 finished CTA #0 (3421,0), 2 CTAs running
GPGPU-Sim uArch: core:  4, cta: 0 initialized @(3422,0)
GPGPU-Sim uArch: core:  0, cta: 0 initialized @(3422,0)
GPGPU-Sim uArch: Shader 2 finished CTA #0 (3431,0), 2 CTAs running
GPGPU-Sim uArch: core:  2, cta: 0 initialized @(3432,0)
GPGPU-Sim uArch: Shader 5 finished CTA #0 (3434,0), 2 CTAs running
GPGPU-Sim uArch: core:  5, cta: 0 initialized @(3435,0)
GPGPU-Sim uArch: Shader 7 finished CTA #0 (3437,0), 2 CTAs running
GPGPU-Sim uArch: core:  7, cta: 0 initialized @(3438,0)
GPGPU-Sim uArch: Shader 6 finished CTA #0 (3441,0), 2 CTAs running
GPGPU-Sim uArch: core:  6, cta: 0 initialized @(3442,0)
GPGPU-Sim uArch: Shader 8 finished CTA #0 (3443,0), 2 CTAs running
GPGPU-Sim uArch: core:  8, cta: 0 initialized @(3444,0)
GPGPU-Sim uArch: Shader 9 finished CTA #0 (3459,0), 2 CTAs running
GPGPU-Sim uArch: core:  9, cta: 0 initialized @(3460,0)
GPGPU-Sim uArch: Shader 11 finished CTA #0 (3460,0), 2 CTAs running
GPGPU-Sim uArch: core: 11, cta: 0 initialized @(3461,0)
GPGPU-Sim uArch: Shader 10 finished CTA #0 (3471,0), 2 CTAs running
GPGPU-Sim uArch: core: 10, cta: 0 initialized @(3472,0)
GPGPU-Sim uArch: Shader 13 finished CTA #0 (3473,0), 2 CTAs running
GPGPU-Sim uArch: core: 13, cta: 0 initialized @(3474,0)
GPGPU-Sim uArch: Shader 12 finished CTA #0 (3476,0), 2 CTAs running
GPGPU-Sim uArch: core: 12, cta: 0 initialized @(3477,0)
GPGPU-Sim uArch: Shader 14 finished CTA #0 (3505,0), 2 CTAs running
GPGPU-Sim uArch: core: 14, cta: 0 initialized @(3506,0)
GPGPU-Sim PTX: 900000 instructions simulated : ctaid=(120,0,0) tid=(118,0,0)
GPGPU-Sim uArch: Shader 1 finished CTA #1 (3739,0), 2 CTAs running
GPGPU-Sim uArch: core:  1, cta: 1 initialized @(3740,0)
GPGPU-Sim uArch: Shader 4 finished CTA #1 (3771,0), 2 CTAs running
GPGPU-Sim uArch: core:  4, cta: 1 initialized @(3772,0)
GPGPU-Sim uArch: Shader 3 finished CTA #1 (3772,0), 2 CTAs running
GPGPU-Sim uArch: core:  3, cta: 1 initialized @(3773,0)
GPGPU-Sim uArch: Shader 0 finished CTA #1 (3773,0), 2 CTAs running
GPGPU-Sim uArch: core:  0, cta: 1 initialized @(3774,0)
GPGPU-Sim uArch: Shader 2 finished CTA #1 (3782,0), 2 CTAs running
GPGPU-Sim uArch: core:  2, cta: 1 initialized @(3783,0)
GPGPU-Sim uArch: Shader 7 finished CTA #1 (3785,0), 2 CTAs running
GPGPU-Sim uArch: core:  7, cta: 1 initialized @(3786,0)
GPGPU-Sim uArch: Shader 5 finished CTA #1 (3787,0), 2 CTAs running
GPGPU-Sim uArch: core:  5, cta: 1 initialized @(3788,0)
GPGPU-Sim uArch: Shader 6 finished CTA #1 (3793,0), 2 CTAs running
GPGPU-Sim uArch: core:  6, cta: 1 initialized @(3794,0)
GPGPU-Sim uArch: Shader 8 finished CTA #1 (3805,0), 2 CTAs running
GPGPU-Sim uArch: core:  8, cta: 1 initialized @(3806,0)
GPGPU-Sim uArch: Shader 9 finished CTA #1 (3806,0), 2 CTAs running
GPGPU-Sim uArch: core:  9, cta: 1 initialized @(3807,0)
GPGPU-Sim uArch: Shader 11 finished CTA #1 (3811,0), 2 CTAs running
GPGPU-Sim uArch: core: 11, cta: 1 initialized @(3812,0)
GPGPU-Sim uArch: Shader 10 finished CTA #1 (3817,0), 2 CTAs running
GPGPU-Sim uArch: core: 10, cta: 1 initialized @(3818,0)
GPGPU-Sim uArch: Shader 12 finished CTA #1 (3824,0), 2 CTAs running
GPGPU-Sim uArch: core: 12, cta: 1 initialized @(3825,0)
GPGPU-Sim uArch: Shader 13 finished CTA #1 (3826,0), 2 CTAs running
GPGPU-Sim uArch: core: 13, cta: 1 initialized @(3827,0)
GPGPU-Sim PTX: 1000000 instructions simulated : ctaid=(131,0,0) tid=(289,0,0)
GPGPU-Sim uArch: Shader 14 finished CTA #1 (3855,0), 2 CTAs running
GPGPU-Sim uArch: core: 14, cta: 1 initialized @(3856,0)
GPGPU-Sim uArch: Shader 1 finished CTA #0 (3988,0), 2 CTAs running
GPGPU-Sim uArch: core:  1, cta: 0 initialized @(3989,0)
GPGPU-Sim uArch: cycles simulated: 4000  inst.: 960792 (ipc=240.2) sim_rate=73907 (inst/sec) elapsed = 0:0:00:13 / Tue Mar 22 12:52:15 2016
GPGPU-Sim uArch: Shader 1 finished CTA #2 (4091,0), 2 CTAs running
GPGPU-Sim uArch: core:  1, cta: 2 initialized @(4092,0)
GPGPU-Sim uArch: Shader 3 finished CTA #2 (4113,0), 2 CTAs running
GPGPU-Sim uArch: core:  3, cta: 2 initialized @(4114,0)
GPGPU-Sim uArch: Shader 4 finished CTA #2 (4120,0), 2 CTAs running
GPGPU-Sim uArch: core:  4, cta: 2 initialized @(4121,0)
GPGPU-Sim uArch: Shader 0 finished CTA #2 (4121,0), 2 CTAs running
GPGPU-Sim uArch: core:  0, cta: 2 initialized @(4122,0)
GPGPU-Sim uArch: Shader 7 finished CTA #2 (4128,0), 2 CTAs running
GPGPU-Sim uArch: core:  7, cta: 2 initialized @(4129,0)
GPGPU-Sim uArch: Shader 2 finished CTA #2 (4132,0), 2 CTAs running
GPGPU-Sim uArch: core:  2, cta: 2 initialized @(4133,0)
GPGPU-Sim uArch: Shader 5 finished CTA #2 (4138,0), 2 CTAs running
GPGPU-Sim uArch: core:  5, cta: 2 initialized @(4139,0)
GPGPU-Sim PTX: 1100000 instructions simulated : ctaid=(142,0,0) tid=(417,0,0)
GPGPU-Sim uArch: Shader 6 finished CTA #2 (4140,0), 2 CTAs running
GPGPU-Sim uArch: core:  6, cta: 2 initialized @(4141,0)
GPGPU-Sim uArch: Shader 8 finished CTA #2 (4144,0), 2 CTAs running
GPGPU-Sim uArch: core:  8, cta: 2 initialized @(4145,0)
GPGPU-Sim uArch: Shader 9 finished CTA #2 (4148,0), 2 CTAs running
GPGPU-Sim uArch: core:  9, cta: 2 initialized @(4149,0)
GPGPU-Sim uArch: Shader 10 finished CTA #2 (4158,0), 2 CTAs running
GPGPU-Sim uArch: core: 10, cta: 2 initialized @(4159,0)
GPGPU-Sim uArch: Shader 11 finished CTA #2 (4162,0), 2 CTAs running
GPGPU-Sim uArch: core: 11, cta: 2 initialized @(4163,0)
GPGPU-Sim uArch: Shader 12 finished CTA #2 (4172,0), 2 CTAs running
GPGPU-Sim uArch: Shader 13 finished CTA #2 (4172,0), 2 CTAs running
GPGPU-Sim uArch: core: 12, cta: 2 initialized @(4173,0)
GPGPU-Sim uArch: core: 13, cta: 2 initialized @(4173,0)
GPGPU-Sim uArch: Shader 14 finished CTA #2 (4204,0), 2 CTAs running
GPGPU-Sim uArch: core: 14, cta: 2 initialized @(4205,0)
GPGPU-Sim uArch: Shader 1 finished CTA #1 (4437,0), 2 CTAs running
GPGPU-Sim uArch: core:  1, cta: 1 initialized @(4438,0)
GPGPU-Sim PTX: 1200000 instructions simulated : ctaid=(155,0,0) tid=(257,0,0)
GPGPU-Sim uArch: Shader 3 finished CTA #0 (4460,0), 2 CTAs running
GPGPU-Sim uArch: core:  3, cta: 0 initialized @(4461,0)
GPGPU-Sim uArch: Shader 4 finished CTA #0 (4462,0), 2 CTAs running
GPGPU-Sim uArch: core:  4, cta: 0 initialized @(4463,0)
GPGPU-Sim uArch: Shader 7 finished CTA #0 (4472,0), 2 CTAs running
GPGPU-Sim uArch: core:  7, cta: 0 initialized @(4473,0)
GPGPU-Sim uArch: Shader 0 finished CTA #0 (4475,0), 2 CTAs running
GPGPU-Sim uArch: core:  0, cta: 0 initialized @(4476,0)
GPGPU-Sim uArch: Shader 5 finished CTA #0 (4483,0), 2 CTAs running
GPGPU-Sim uArch: core:  5, cta: 0 initialized @(4484,0)
GPGPU-Sim uArch: Shader 2 finished CTA #0 (4485,0), 2 CTAs running
GPGPU-Sim uArch: core:  2, cta: 0 initialized @(4486,0)
GPGPU-Sim uArch: Shader 6 finished CTA #0 (4487,0), 2 CTAs running
GPGPU-Sim uArch: core:  6, cta: 0 initialized @(4488,0)
GPGPU-Sim uArch: Shader 8 finished CTA #0 (4492,0), 2 CTAs running
GPGPU-Sim uArch: Shader 9 finished CTA #0 (4492,0), 2 CTAs running
GPGPU-Sim uArch: core:  8, cta: 0 initialized @(4493,0)
GPGPU-Sim uArch: core:  9, cta: 0 initialized @(4493,0)
GPGPU-Sim uArch: Shader 11 finished CTA #0 (4507,0), 2 CTAs running
GPGPU-Sim uArch: core: 11, cta: 0 initialized @(4508,0)
GPGPU-Sim uArch: Shader 10 finished CTA #0 (4511,0), 2 CTAs running
GPGPU-Sim uArch: core: 10, cta: 0 initialized @(4512,0)
GPGPU-Sim uArch: Shader 13 finished CTA #0 (4514,0), 2 CTAs running
GPGPU-Sim uArch: core: 13, cta: 0 initialized @(4515,0)
GPGPU-Sim uArch: Shader 12 finished CTA #0 (4522,0), 2 CTAs running
GPGPU-Sim uArch: core: 12, cta: 0 initialized @(4523,0)
GPGPU-Sim uArch: Shader 14 finished CTA #0 (4553,0), 2 CTAs running
GPGPU-Sim uArch: core: 14, cta: 0 initialized @(4554,0)
GPGPU-Sim PTX: 1300000 instructions simulated : ctaid=(172,0,0) tid=(289,0,0)
GPGPU-Sim uArch: Shader 1 finished CTA #0 (4778,0), 2 CTAs running
GPGPU-Sim uArch: core:  1, cta: 0 initialized @(4779,0)
GPGPU-Sim uArch: Shader 3 finished CTA #1 (4802,0), 2 CTAs running
GPGPU-Sim uArch: core:  3, cta: 1 initialized @(4803,0)
GPGPU-Sim uArch: Shader 4 finished CTA #1 (4805,0), 2 CTAs running
GPGPU-Sim uArch: core:  4, cta: 1 initialized @(4806,0)
GPGPU-Sim uArch: Shader 7 finished CTA #1 (4814,0), 2 CTAs running
GPGPU-Sim uArch: core:  7, cta: 1 initialized @(4815,0)
GPGPU-Sim uArch: Shader 5 finished CTA #1 (4826,0), 2 CTAs running
GPGPU-Sim uArch: core:  5, cta: 1 initialized @(4827,0)
GPGPU-Sim uArch: Shader 0 finished CTA #1 (4829,0), 2 CTAs running
GPGPU-Sim uArch: core:  0, cta: 1 initialized @(4830,0)
GPGPU-Sim uArch: Shader 6 finished CTA #1 (4830,0), 2 CTAs running
GPGPU-Sim uArch: core:  6, cta: 1 initialized @(4831,0)
GPGPU-Sim uArch: Shader 8 finished CTA #1 (4835,0), 2 CTAs running
GPGPU-Sim uArch: core:  8, cta: 1 initialized @(4836,0)
GPGPU-Sim uArch: Shader 9 finished CTA #1 (4838,0), 2 CTAs running
GPGPU-Sim uArch: core:  9, cta: 1 initialized @(4839,0)
GPGPU-Sim uArch: Shader 2 finished CTA #1 (4845,0), 2 CTAs running
GPGPU-Sim uArch: core:  2, cta: 1 initialized @(4846,0)
GPGPU-Sim uArch: Shader 13 finished CTA #1 (4852,0), 2 CTAs running
GPGPU-Sim uArch: core: 13, cta: 1 initialized @(4853,0)
GPGPU-Sim uArch: Shader 10 finished CTA #1 (4853,0), 2 CTAs running
GPGPU-Sim uArch: core: 10, cta: 1 initialized @(4854,0)
GPGPU-Sim uArch: Shader 11 finished CTA #1 (4862,0), 2 CTAs running
GPGPU-Sim uArch: core: 11, cta: 1 initialized @(4863,0)
GPGPU-Sim uArch: Shader 12 finished CTA #1 (4873,0), 2 CTAs running
GPGPU-Sim uArch: core: 12, cta: 1 initialized @(4874,0)
GPGPU-Sim uArch: Shader 14 finished CTA #1 (4904,0), 2 CTAs running
GPGPU-Sim uArch: core: 14, cta: 1 initialized @(4905,0)
GPGPU-Sim uArch: cycles simulated: 5000  inst.: 1280472 (ipc=256.1) sim_rate=91462 (inst/sec) elapsed = 0:0:00:14 / Tue Mar 22 12:52:16 2016
GPGPU-Sim PTX: 1400000 instructions simulated : ctaid=(186,0,0) tid=(129,0,0)
GPGPU-Sim uArch: Shader 1 finished CTA #2 (5124,0), 2 CTAs running
GPGPU-Sim uArch: core:  1, cta: 2 initialized @(5125,0)
GPGPU-Sim uArch: Shader 3 finished CTA #2 (5143,0), 2 CTAs running
GPGPU-Sim uArch: core:  3, cta: 2 initialized @(5144,0)
GPGPU-Sim uArch: Shader 4 finished CTA #2 (5146,0), 2 CTAs running
GPGPU-Sim uArch: core:  4, cta: 2 initialized @(5147,0)
GPGPU-Sim uArch: Shader 7 finished CTA #2 (5153,0), 2 CTAs running
GPGPU-Sim uArch: core:  7, cta: 2 initialized @(5154,0)
GPGPU-Sim uArch: Shader 5 finished CTA #2 (5165,0), 2 CTAs running
GPGPU-Sim uArch: core:  5, cta: 2 initialized @(5166,0)
GPGPU-Sim uArch: Shader 6 finished CTA #2 (5172,0), 2 CTAs running
GPGPU-Sim uArch: core:  6, cta: 2 initialized @(5173,0)
GPGPU-Sim uArch: Shader 0 finished CTA #2 (5176,0), 2 CTAs running
GPGPU-Sim uArch: Shader 8 finished CTA #2 (5176,0), 2 CTAs running
GPGPU-Sim uArch: core:  8, cta: 2 initialized @(5177,0)
GPGPU-Sim uArch: core:  0, cta: 2 initialized @(5177,0)
GPGPU-Sim uArch: Shader 9 finished CTA #2 (5180,0), 2 CTAs running
GPGPU-Sim uArch: core:  9, cta: 2 initialized @(5181,0)
GPGPU-Sim uArch: Shader 2 finished CTA #2 (5190,0), 2 CTAs running
GPGPU-Sim uArch: core:  2, cta: 2 initialized @(5191,0)
GPGPU-Sim uArch: Shader 13 finished CTA #2 (5191,0), 2 CTAs running
GPGPU-Sim uArch: core: 13, cta: 2 initialized @(5192,0)
GPGPU-Sim uArch: Shader 10 finished CTA #2 (5195,0), 2 CTAs running
GPGPU-Sim uArch: core: 10, cta: 2 initialized @(5196,0)
GPGPU-Sim uArch: Shader 11 finished CTA #2 (5208,0), 2 CTAs running
GPGPU-Sim uArch: core: 11, cta: 2 initialized @(5209,0)
GPGPU-Sim uArch: Shader 12 finished CTA #2 (5218,0), 2 CTAs running
GPGPU-Sim uArch: core: 12, cta: 2 initialized @(5219,0)
GPGPU-Sim uArch: Shader 14 finished CTA #2 (5262,0), 2 CTAs running
GPGPU-Sim uArch: core: 14, cta: 2 initialized @(5263,0)
GPGPU-Sim PTX: 1500000 instructions simulated : ctaid=(195,0,0) tid=(193,0,0)
GPGPU-Sim uArch: Shader 1 finished CTA #1 (5469,0), 2 CTAs running
GPGPU-Sim uArch: core:  1, cta: 1 initialized @(5470,0)
GPGPU-Sim uArch: Shader 3 finished CTA #0 (5485,0), 2 CTAs running
GPGPU-Sim uArch: core:  3, cta: 0 initialized @(5486,0)
GPGPU-Sim uArch: Shader 4 finished CTA #0 (5488,0), 2 CTAs running
GPGPU-Sim uArch: core:  4, cta: 0 initialized @(5489,0)
GPGPU-Sim uArch: Shader 7 finished CTA #0 (5492,0), 2 CTAs running
GPGPU-Sim uArch: core:  7, cta: 0 initialized @(5493,0)
GPGPU-Sim uArch: Shader 5 finished CTA #0 (5506,0), 2 CTAs running
GPGPU-Sim uArch: core:  5, cta: 0 initialized @(5507,0)
GPGPU-Sim uArch: Shader 0 finished CTA #0 (5515,0), 2 CTAs running
GPGPU-Sim uArch: core:  0, cta: 0 initialized @(5516,0)
GPGPU-Sim uArch: Shader 6 finished CTA #0 (5518,0), 2 CTAs running
GPGPU-Sim uArch: Shader 8 finished CTA #0 (5518,0), 2 CTAs running
GPGPU-Sim uArch: core:  6, cta: 0 initialized @(5519,0)
GPGPU-Sim uArch: core:  8, cta: 0 initialized @(5519,0)
GPGPU-Sim uArch: Shader 9 finished CTA #0 (5522,0), 2 CTAs running
GPGPU-Sim uArch: core:  9, cta: 0 initialized @(5523,0)
GPGPU-Sim uArch: Shader 13 finished CTA #0 (5529,0), 2 CTAs running
GPGPU-Sim uArch: core: 13, cta: 0 initialized @(5530,0)
GPGPU-Sim uArch: Shader 2 finished CTA #0 (5535,0), 2 CTAs running
GPGPU-Sim uArch: core:  2, cta: 0 initialized @(5536,0)
GPGPU-Sim uArch: Shader 10 finished CTA #0 (5538,0), 2 CTAs running
GPGPU-Sim uArch: core: 10, cta: 0 initialized @(5539,0)
GPGPU-Sim uArch: Shader 11 finished CTA #0 (5557,0), 2 CTAs running
GPGPU-Sim uArch: core: 11, cta: 0 initialized @(5558,0)
GPGPU-Sim uArch: Shader 12 finished CTA #0 (5563,0), 2 CTAs running
GPGPU-Sim uArch: core: 12, cta: 0 initialized @(5564,0)
GPGPU-Sim uArch: Shader 14 finished CTA #0 (5605,0), 2 CTAs running
GPGPU-Sim uArch: core: 14, cta: 0 initialized @(5606,0)
GPGPU-Sim PTX: 1600000 instructions simulated : ctaid=(213,0,0) tid=(65,0,0)
GPGPU-Sim uArch: Shader 1 finished CTA #0 (5810,0), 2 CTAs running
GPGPU-Sim uArch: core:  1, cta: 0 initialized @(5811,0)
GPGPU-Sim uArch: Shader 3 finished CTA #1 (5826,0), 2 CTAs running
GPGPU-Sim uArch: core:  3, cta: 1 initialized @(5827,0)
GPGPU-Sim uArch: Shader 4 finished CTA #1 (5830,0), 2 CTAs running
GPGPU-Sim uArch: core:  4, cta: 1 initialized @(5831,0)
GPGPU-Sim uArch: Shader 7 finished CTA #1 (5834,0), 2 CTAs running
GPGPU-Sim uArch: core:  7, cta: 1 initialized @(5835,0)
GPGPU-Sim uArch: Shader 5 finished CTA #1 (5845,0), 2 CTAs running
GPGPU-Sim uArch: core:  5, cta: 1 initialized @(5846,0)
GPGPU-Sim uArch: Shader 6 finished CTA #1 (5860,0), 2 CTAs running
GPGPU-Sim uArch: Shader 8 finished CTA #1 (5860,0), 2 CTAs running
GPGPU-Sim uArch: core:  6, cta: 1 initialized @(5861,0)
GPGPU-Sim uArch: core:  8, cta: 1 initialized @(5861,0)
GPGPU-Sim uArch: Shader 9 finished CTA #1 (5863,0), 2 CTAs running
GPGPU-Sim uArch: core:  9, cta: 1 initialized @(5864,0)
GPGPU-Sim uArch: Shader 13 finished CTA #1 (5867,0), 2 CTAs running
GPGPU-Sim uArch: core: 13, cta: 1 initialized @(5868,0)
GPGPU-Sim uArch: Shader 0 finished CTA #1 (5871,0), 2 CTAs running
GPGPU-Sim uArch: core:  0, cta: 1 initialized @(5872,0)
GPGPU-Sim uArch: Shader 2 finished CTA #1 (5877,0), 2 CTAs running
GPGPU-Sim uArch: core:  2, cta: 1 initialized @(5878,0)
GPGPU-Sim uArch: Shader 10 finished CTA #1 (5879,0), 2 CTAs running
GPGPU-Sim uArch: core: 10, cta: 1 initialized @(5880,0)
GPGPU-Sim uArch: Shader 12 finished CTA #1 (5906,0), 2 CTAs running
GPGPU-Sim uArch: core: 12, cta: 1 initialized @(5907,0)
GPGPU-Sim uArch: Shader 11 finished CTA #1 (5910,0), 2 CTAs running
GPGPU-Sim uArch: core: 11, cta: 1 initialized @(5911,0)
GPGPU-Sim PTX: 1700000 instructions simulated : ctaid=(221,0,0) tid=(449,0,0)
GPGPU-Sim uArch: Shader 14 finished CTA #1 (5947,0), 2 CTAs running
GPGPU-Sim uArch: core: 14, cta: 1 initialized @(5948,0)
GPGPU-Sim uArch: cycles simulated: 6000  inst.: 1600504 (ipc=266.8) sim_rate=106700 (inst/sec) elapsed = 0:0:00:15 / Tue Mar 22 12:52:17 2016
GPGPU-Sim uArch: Shader 1 finished CTA #2 (6152,0), 2 CTAs running
GPGPU-Sim uArch: core:  1, cta: 2 initialized @(6153,0)
GPGPU-Sim uArch: Shader 3 finished CTA #2 (6164,0), 2 CTAs running
GPGPU-Sim uArch: core:  3, cta: 2 initialized @(6165,0)
GPGPU-Sim uArch: Shader 4 finished CTA #2 (6170,0), 2 CTAs running
GPGPU-Sim uArch: core:  4, cta: 2 initialized @(6171,0)
GPGPU-Sim uArch: Shader 7 finished CTA #2 (6177,0), 2 CTAs running
GPGPU-Sim uArch: core:  7, cta: 2 initialized @(6178,0)
GPGPU-Sim uArch: Shader 5 finished CTA #2 (6186,0), 2 CTAs running
GPGPU-Sim uArch: core:  5, cta: 2 initialized @(6187,0)
GPGPU-Sim uArch: Shader 6 finished CTA #2 (6202,0), 2 CTAs running
GPGPU-Sim uArch: Shader 8 finished CTA #2 (6202,0), 2 CTAs running
GPGPU-Sim uArch: core:  6, cta: 2 initialized @(6203,0)
GPGPU-Sim uArch: core:  8, cta: 2 initialized @(6203,0)
GPGPU-Sim uArch: Shader 9 finished CTA #2 (6207,0), 2 CTAs running
GPGPU-Sim uArch: Shader 13 finished CTA #2 (6207,0), 2 CTAs running
GPGPU-Sim uArch: core:  9, cta: 2 initialized @(6208,0)
GPGPU-Sim uArch: core: 13, cta: 2 initialized @(6208,0)
GPGPU-Sim PTX: 1800000 instructions simulated : ctaid=(230,0,0) tid=(449,0,0)
GPGPU-Sim uArch: Shader 0 finished CTA #2 (6213,0), 2 CTAs running
GPGPU-Sim uArch: core:  0, cta: 2 initialized @(6214,0)
GPGPU-Sim uArch: Shader 2 finished CTA #2 (6219,0), 2 CTAs running
GPGPU-Sim uArch: core:  2, cta: 2 initialized @(6220,0)
GPGPU-Sim uArch: Shader 10 finished CTA #2 (6221,0), 2 CTAs running
GPGPU-Sim uArch: core: 10, cta: 2 initialized @(6222,0)
GPGPU-Sim uArch: Shader 12 finished CTA #2 (6250,0), 2 CTAs running
GPGPU-Sim uArch: core: 12, cta: 2 initialized @(6251,0)
GPGPU-Sim uArch: Shader 11 finished CTA #2 (6257,0), 2 CTAs running
GPGPU-Sim uArch: core: 11, cta: 2 initialized @(6258,0)
GPGPU-Sim uArch: Shader 14 finished CTA #2 (6288,0), 2 CTAs running
GPGPU-Sim uArch: core: 14, cta: 2 initialized @(6289,0)
GPGPU-Sim uArch: Shader 1 finished CTA #1 (6494,0), 2 CTAs running
GPGPU-Sim uArch: core:  1, cta: 1 initialized @(6495,0)
GPGPU-Sim PTX: 1900000 instructions simulated : ctaid=(250,0,0) tid=(353,0,0)
GPGPU-Sim uArch: Shader 3 finished CTA #0 (6507,0), 2 CTAs running
GPGPU-Sim uArch: core:  3, cta: 0 initialized @(6508,0)
GPGPU-Sim uArch: Shader 4 finished CTA #0 (6513,0), 2 CTAs running
GPGPU-Sim uArch: core:  4, cta: 0 initialized @(6514,0)
GPGPU-Sim uArch: Shader 7 finished CTA #0 (6519,0), 2 CTAs running
GPGPU-Sim uArch: core:  7, cta: 0 initialized @(6520,0)
GPGPU-Sim uArch: Shader 5 finished CTA #0 (6529,0), 2 CTAs running
GPGPU-Sim uArch: core:  5, cta: 0 initialized @(6530,0)
GPGPU-Sim uArch: Shader 8 finished CTA #0 (6544,0), 2 CTAs running
GPGPU-Sim uArch: core:  8, cta: 0 initialized @(6545,0)
GPGPU-Sim uArch: Shader 13 finished CTA #0 (6545,0), 2 CTAs running
GPGPU-Sim uArch: core: 13, cta: 0 initialized @(6546,0)
GPGPU-Sim uArch: Shader 6 finished CTA #0 (6548,0), 2 CTAs running
GPGPU-Sim uArch: core:  6, cta: 0 initialized @(6549,0)
GPGPU-Sim uArch: Shader 9 finished CTA #0 (6553,0), 2 CTAs running
GPGPU-Sim uArch: core:  9, cta: 0 initialized @(6554,0)
GPGPU-Sim uArch: Shader 0 finished CTA #0 (6556,0), 2 CTAs running
GPGPU-Sim uArch: core:  0, cta: 0 initialized @(6557,0)
GPGPU-Sim uArch: Shader 2 finished CTA #0 (6560,0), 2 CTAs running
GPGPU-Sim uArch: core:  2, cta: 0 initialized @(6561,0)
GPGPU-Sim uArch: Shader 10 finished CTA #0 (6562,0), 2 CTAs running
GPGPU-Sim uArch: core: 10, cta: 0 initialized @(6563,0)
GPGPU-Sim uArch: Shader 12 finished CTA #0 (6591,0), 2 CTAs running
GPGPU-Sim uArch: core: 12, cta: 0 initialized @(6592,0)
GPGPU-Sim uArch: Shader 11 finished CTA #0 (6607,0), 2 CTAs running
GPGPU-Sim uArch: core: 11, cta: 0 initialized @(6608,0)
GPGPU-Sim uArch: Shader 14 finished CTA #0 (6630,0), 2 CTAs running
GPGPU-Sim uArch: core: 14, cta: 0 initialized @(6631,0)
GPGPU-Sim PTX: 2000000 instructions simulated : ctaid=(255,0,0) tid=(321,0,0)
GPGPU-Sim uArch: Shader 1 finished CTA #0 (6834,0), 2 CTAs running
GPGPU-Sim uArch: core:  1, cta: 0 initialized @(6835,0)
GPGPU-Sim uArch: Shader 3 finished CTA #1 (6849,0), 2 CTAs running
GPGPU-Sim uArch: core:  3, cta: 1 initialized @(6850,0)
GPGPU-Sim uArch: Shader 4 finished CTA #1 (6855,0), 2 CTAs running
GPGPU-Sim uArch: core:  4, cta: 1 initialized @(6856,0)
GPGPU-Sim uArch: Shader 7 finished CTA #1 (6858,0), 2 CTAs running
GPGPU-Sim uArch: core:  7, cta: 1 initialized @(6859,0)
GPGPU-Sim uArch: Shader 5 finished CTA #1 (6871,0), 2 CTAs running
GPGPU-Sim uArch: core:  5, cta: 1 initialized @(6872,0)
GPGPU-Sim uArch: Shader 8 finished CTA #1 (6885,0), 2 CTAs running
GPGPU-Sim uArch: core:  8, cta: 1 initialized @(6886,0)
GPGPU-Sim uArch: Shader 13 finished CTA #1 (6886,0), 2 CTAs running
GPGPU-Sim uArch: core: 13, cta: 1 initialized @(6887,0)
GPGPU-Sim uArch: Shader 6 finished CTA #1 (6890,0), 2 CTAs running
GPGPU-Sim uArch: core:  6, cta: 1 initialized @(6891,0)
GPGPU-Sim uArch: Shader 9 finished CTA #1 (6895,0), 2 CTAs running
GPGPU-Sim uArch: core:  9, cta: 1 initialized @(6896,0)
GPGPU-Sim uArch: Shader 0 finished CTA #1 (6897,0), 2 CTAs running
GPGPU-Sim uArch: core:  0, cta: 1 initialized @(6898,0)
GPGPU-Sim uArch: Shader 2 finished CTA #1 (6900,0), 2 CTAs running
GPGPU-Sim uArch: core:  2, cta: 1 initialized @(6901,0)
GPGPU-Sim uArch: Shader 10 finished CTA #1 (6904,0), 2 CTAs running
GPGPU-Sim uArch: core: 10, cta: 1 initialized @(6905,0)
GPGPU-Sim uArch: Shader 12 finished CTA #1 (6932,0), 2 CTAs running
GPGPU-Sim uArch: core: 12, cta: 1 initialized @(6933,0)
GPGPU-Sim uArch: Shader 11 finished CTA #1 (6957,0), 2 CTAs running
GPGPU-Sim uArch: core: 11, cta: 1 initialized @(6958,0)
GPGPU-Sim uArch: Shader 14 finished CTA #1 (6972,0), 2 CTAs running
GPGPU-Sim uArch: core: 14, cta: 1 initialized @(6973,0)
GPGPU-Sim uArch: cycles simulated: 7000  inst.: 1920632 (ipc=274.4) sim_rate=120039 (inst/sec) elapsed = 0:0:00:16 / Tue Mar 22 12:52:18 2016
GPGPU-Sim PTX: 2100000 instructions simulated : ctaid=(275,0,0) tid=(225,0,0)
GPGPU-Sim uArch: Shader 1 finished CTA #2 (7173,0), 2 CTAs running
GPGPU-Sim uArch: core:  1, cta: 2 initialized @(7174,0)
GPGPU-Sim uArch: Shader 3 finished CTA #2 (7191,0), 2 CTAs running
GPGPU-Sim uArch: core:  3, cta: 2 initialized @(7192,0)
GPGPU-Sim uArch: Shader 4 finished CTA #2 (7197,0), 2 CTAs running
GPGPU-Sim uArch: core:  4, cta: 2 initialized @(7198,0)
GPGPU-Sim uArch: Shader 7 finished CTA #2 (7201,0), 2 CTAs running
GPGPU-Sim uArch: core:  7, cta: 2 initialized @(7202,0)
GPGPU-Sim uArch: Shader 5 finished CTA #2 (7213,0), 2 CTAs running
GPGPU-Sim uArch: core:  5, cta: 2 initialized @(7214,0)
GPGPU-Sim uArch: Shader 8 finished CTA #2 (7227,0), 2 CTAs running
GPGPU-Sim uArch: core:  8, cta: 2 initialized @(7228,0)
GPGPU-Sim uArch: Shader 13 finished CTA #2 (7229,0), 2 CTAs running
GPGPU-Sim uArch: core: 13, cta: 2 initialized @(7230,0)
GPGPU-Sim uArch: Shader 6 finished CTA #2 (7231,0), 2 CTAs running
GPGPU-Sim uArch: core:  6, cta: 2 initialized @(7232,0)
GPGPU-Sim uArch: Shader 0 finished CTA #2 (7236,0), 2 CTAs running
GPGPU-Sim uArch: core:  0, cta: 2 initialized @(7237,0)
GPGPU-Sim uArch: Shader 9 finished CTA #2 (7237,0), 2 CTAs running
GPGPU-Sim uArch: core:  9, cta: 2 initialized @(7238,0)
GPGPU-Sim uArch: Shader 2 finished CTA #2 (7244,0), 2 CTAs running
GPGPU-Sim uArch: core:  2, cta: 2 initialized @(7245,0)
GPGPU-Sim uArch: Shader 10 finished CTA #2 (7246,0), 2 CTAs running
GPGPU-Sim uArch: core: 10, cta: 2 initialized @(7247,0)
GPGPU-Sim uArch: Shader 12 finished CTA #2 (7273,0), 2 CTAs running
GPGPU-Sim uArch: core: 12, cta: 2 initialized @(7274,0)
GPGPU-Sim uArch: Shader 11 finished CTA #2 (7307,0), 2 CTAs running
GPGPU-Sim uArch: core: 11, cta: 2 initialized @(7308,0)
GPGPU-Sim uArch: Shader 14 finished CTA #2 (7313,0), 2 CTAs running
GPGPU-Sim uArch: core: 14, cta: 2 initialized @(7314,0)
GPGPU-Sim PTX: 2200000 instructions simulated : ctaid=(288,0,0) tid=(193,0,0)
GPGPU-Sim uArch: Shader 1 finished CTA #1 (7514,0), 2 CTAs running
GPGPU-Sim uArch: core:  1, cta: 1 initialized @(7515,0)
GPGPU-Sim uArch: Shader 3 finished CTA #0 (7530,0), 2 CTAs running
GPGPU-Sim uArch: core:  3, cta: 0 initialized @(7531,0)
GPGPU-Sim uArch: Shader 4 finished CTA #0 (7538,0), 2 CTAs running
GPGPU-Sim uArch: core:  4, cta: 0 initialized @(7539,0)
GPGPU-Sim uArch: Shader 7 finished CTA #0 (7543,0), 2 CTAs running
GPGPU-Sim uArch: core:  7, cta: 0 initialized @(7544,0)
GPGPU-Sim uArch: Shader 5 finished CTA #0 (7553,0), 2 CTAs running
GPGPU-Sim uArch: core:  5, cta: 0 initialized @(7554,0)
GPGPU-Sim uArch: Shader 8 finished CTA #0 (7569,0), 2 CTAs running
GPGPU-Sim uArch: core:  8, cta: 0 initialized @(7570,0)
GPGPU-Sim uArch: Shader 13 finished CTA #0 (7570,0), 2 CTAs running
GPGPU-Sim uArch: core: 13, cta: 0 initialized @(7571,0)
GPGPU-Sim uArch: Shader 6 finished CTA #0 (7573,0), 2 CTAs running
GPGPU-Sim uArch: core:  6, cta: 0 initialized @(7574,0)
GPGPU-Sim uArch: Shader 0 finished CTA #0 (7575,0), 2 CTAs running
GPGPU-Sim uArch: core:  0, cta: 0 initialized @(7576,0)
GPGPU-Sim uArch: Shader 9 finished CTA #0 (7579,0), 2 CTAs running
GPGPU-Sim uArch: core:  9, cta: 0 initialized @(7580,0)
GPGPU-Sim uArch: Shader 2 finished CTA #0 (7586,0), 2 CTAs running
GPGPU-Sim uArch: core:  2, cta: 0 initialized @(7587,0)
GPGPU-Sim uArch: Shader 10 finished CTA #0 (7588,0), 2 CTAs running
GPGPU-Sim uArch: core: 10, cta: 0 initialized @(7589,0)
GPGPU-Sim uArch: Shader 12 finished CTA #0 (7615,0), 2 CTAs running
GPGPU-Sim uArch: core: 12, cta: 0 initialized @(7616,0)
GPGPU-Sim uArch: Shader 11 finished CTA #0 (7648,0), 2 CTAs running
GPGPU-Sim uArch: core: 11, cta: 0 initialized @(7649,0)
GPGPU-Sim uArch: Shader 14 finished CTA #0 (7650,0), 2 CTAs running
GPGPU-Sim uArch: core: 14, cta: 0 initialized @(7651,0)
GPGPU-Sim PTX: 2300000 instructions simulated : ctaid=(302,0,0) tid=(129,0,0)
GPGPU-Sim uArch: Shader 1 finished CTA #0 (7862,0), 2 CTAs running
GPGPU-Sim uArch: core:  1, cta: 0 initialized @(7863,0)
GPGPU-Sim uArch: Shader 3 finished CTA #1 (7872,0), 2 CTAs running
GPGPU-Sim uArch: core:  3, cta: 1 initialized @(7873,0)
GPGPU-Sim uArch: Shader 4 finished CTA #1 (7879,0), 2 CTAs running
GPGPU-Sim uArch: core:  4, cta: 1 initialized @(7880,0)
GPGPU-Sim uArch: Shader 7 finished CTA #1 (7885,0), 2 CTAs running
GPGPU-Sim uArch: core:  7, cta: 1 initialized @(7886,0)
GPGPU-Sim uArch: Shader 5 finished CTA #1 (7893,0), 2 CTAs running
GPGPU-Sim uArch: core:  5, cta: 1 initialized @(7894,0)
GPGPU-Sim uArch: Shader 13 finished CTA #1 (7908,0), 2 CTAs running
GPGPU-Sim uArch: core: 13, cta: 1 initialized @(7909,0)
GPGPU-Sim uArch: Shader 8 finished CTA #1 (7910,0), 2 CTAs running
GPGPU-Sim uArch: core:  8, cta: 1 initialized @(7911,0)
GPGPU-Sim uArch: Shader 6 finished CTA #1 (7911,0), 2 CTAs running
GPGPU-Sim uArch: core:  6, cta: 1 initialized @(7912,0)
GPGPU-Sim uArch: Shader 0 finished CTA #1 (7914,0), 2 CTAs running
GPGPU-Sim uArch: core:  0, cta: 1 initialized @(7915,0)
GPGPU-Sim uArch: Shader 9 finished CTA #1 (7921,0), 2 CTAs running
GPGPU-Sim uArch: core:  9, cta: 1 initialized @(7922,0)
GPGPU-Sim uArch: Shader 2 finished CTA #1 (7926,0), 2 CTAs running
GPGPU-Sim uArch: core:  2, cta: 1 initialized @(7927,0)
GPGPU-Sim uArch: Shader 10 finished CTA #1 (7930,0), 2 CTAs running
GPGPU-Sim uArch: core: 10, cta: 1 initialized @(7931,0)
GPGPU-Sim uArch: Shader 12 finished CTA #1 (7957,0), 2 CTAs running
GPGPU-Sim uArch: core: 12, cta: 1 initialized @(7958,0)
GPGPU-Sim PTX: 2400000 instructions simulated : ctaid=(310,0,0) tid=(65,0,0)
GPGPU-Sim uArch: Shader 14 finished CTA #1 (7986,0), 2 CTAs running
GPGPU-Sim uArch: core: 14, cta: 1 initialized @(7987,0)
GPGPU-Sim uArch: Shader 11 finished CTA #1 (7987,0), 2 CTAs running
GPGPU-Sim uArch: core: 11, cta: 1 initialized @(7988,0)
GPGPU-Sim uArch: cycles simulated: 8000  inst.: 2240216 (ipc=280.0) sim_rate=131777 (inst/sec) elapsed = 0:0:00:17 / Tue Mar 22 12:52:19 2016
GPGPU-Sim uArch: Shader 1 finished CTA #2 (8202,0), 2 CTAs running
GPGPU-Sim uArch: core:  1, cta: 2 initialized @(8203,0)
GPGPU-Sim uArch: Shader 3 finished CTA #2 (8211,0), 2 CTAs running
GPGPU-Sim uArch: core:  3, cta: 2 initialized @(8212,0)
GPGPU-Sim uArch: Shader 4 finished CTA #2 (8225,0), 2 CTAs running
GPGPU-Sim uArch: core:  4, cta: 2 initialized @(8226,0)
GPGPU-Sim uArch: Shader 7 finished CTA #2 (8226,0), 2 CTAs running
GPGPU-Sim uArch: core:  7, cta: 2 initialized @(8227,0)
GPGPU-Sim uArch: Shader 5 finished CTA #2 (8230,0), 2 CTAs running
GPGPU-Sim uArch: core:  5, cta: 2 initialized @(8231,0)
GPGPU-Sim uArch: Shader 6 finished CTA #2 (8248,0), 2 CTAs running
GPGPU-Sim uArch: core:  6, cta: 2 initialized @(8249,0)
GPGPU-Sim uArch: Shader 13 finished CTA #2 (8251,0), 2 CTAs running
GPGPU-Sim uArch: core: 13, cta: 2 initialized @(8252,0)
GPGPU-Sim uArch: Shader 8 finished CTA #2 (8252,0), 2 CTAs running
GPGPU-Sim uArch: core:  8, cta: 2 initialized @(8253,0)
GPGPU-Sim uArch: Shader 0 finished CTA #2 (8255,0), 2 CTAs running
GPGPU-Sim uArch: core:  0, cta: 2 initialized @(8256,0)
GPGPU-Sim uArch: Shader 9 finished CTA #2 (8261,0), 2 CTAs running
GPGPU-Sim uArch: core:  9, cta: 2 initialized @(8262,0)
GPGPU-Sim uArch: Shader 2 finished CTA #2 (8266,0), 2 CTAs running
GPGPU-Sim uArch: core:  2, cta: 2 initialized @(8267,0)
GPGPU-Sim uArch: Shader 10 finished CTA #2 (8272,0), 2 CTAs running
GPGPU-Sim uArch: core: 10, cta: 2 initialized @(8273,0)
GPGPU-Sim PTX: 2500000 instructions simulated : ctaid=(332,0,0) tid=(65,0,0)
GPGPU-Sim uArch: Shader 12 finished CTA #2 (8299,0), 2 CTAs running
GPGPU-Sim uArch: core: 12, cta: 2 initialized @(8300,0)
GPGPU-Sim uArch: Shader 14 finished CTA #2 (8323,0), 2 CTAs running
GPGPU-Sim uArch: core: 14, cta: 2 initialized @(8324,0)
GPGPU-Sim uArch: Shader 11 finished CTA #2 (8326,0), 2 CTAs running
GPGPU-Sim uArch: core: 11, cta: 2 initialized @(8327,0)
GPGPU-Sim uArch: cycles simulated: 8500  inst.: 2405976 (ipc=283.1) sim_rate=133665 (inst/sec) elapsed = 0:0:00:18 / Tue Mar 22 12:52:20 2016
GPGPU-Sim uArch: Shader 1 finished CTA #1 (8542,0), 2 CTAs running
GPGPU-Sim uArch: core:  1, cta: 1 initialized @(8543,0)
GPGPU-Sim uArch: Shader 3 finished CTA #0 (8552,0), 2 CTAs running
GPGPU-Sim uArch: core:  3, cta: 0 initialized @(8553,0)
GPGPU-Sim uArch: Shader 4 finished CTA #0 (8564,0), 2 CTAs running
GPGPU-Sim uArch: Shader 7 finished CTA #0 (8564,0), 2 CTAs running
GPGPU-Sim uArch: core:  4, cta: 0 initialized @(8565,0)
GPGPU-Sim uArch: core:  7, cta: 0 initialized @(8565,0)
GPGPU-Sim uArch: Shader 5 finished CTA #0 (8568,0), 2 CTAs running
GPGPU-Sim uArch: core:  5, cta: 0 initialized @(8569,0)
GPGPU-Sim PTX: 2600000 instructions simulated : ctaid=(342,0,0) tid=(321,0,0)
GPGPU-Sim uArch: Shader 6 finished CTA #0 (8585,0), 2 CTAs running
GPGPU-Sim uArch: core:  6, cta: 0 initialized @(8586,0)
GPGPU-Sim uArch: Shader 13 finished CTA #0 (8593,0), 2 CTAs running
GPGPU-Sim uArch: core: 13, cta: 0 initialized @(8594,0)
GPGPU-Sim uArch: Shader 0 finished CTA #0 (8594,0), 2 CTAs running
GPGPU-Sim uArch: core:  0, cta: 0 initialized @(8595,0)
GPGPU-Sim uArch: Shader 8 finished CTA #0 (8598,0), 2 CTAs running
GPGPU-Sim uArch: core:  8, cta: 0 initialized @(8599,0)
GPGPU-Sim uArch: Shader 9 finished CTA #0 (8604,0), 2 CTAs running
GPGPU-Sim uArch: core:  9, cta: 0 initialized @(8605,0)
GPGPU-Sim uArch: Shader 2 finished CTA #0 (8605,0), 2 CTAs running
GPGPU-Sim uArch: core:  2, cta: 0 initialized @(8606,0)
GPGPU-Sim uArch: Shader 10 finished CTA #0 (8613,0), 2 CTAs running
GPGPU-Sim uArch: core: 10, cta: 0 initialized @(8614,0)
GPGPU-Sim uArch: Shader 12 finished CTA #0 (8641,0), 2 CTAs running
GPGPU-Sim uArch: core: 12, cta: 0 initialized @(8642,0)
GPGPU-Sim uArch: Shader 14 finished CTA #0 (8660,0), 2 CTAs running
GPGPU-Sim uArch: core: 14, cta: 0 initialized @(8661,0)
GPGPU-Sim uArch: Shader 11 finished CTA #0 (8668,0), 2 CTAs running
GPGPU-Sim uArch: core: 11, cta: 0 initialized @(8669,0)
GPGPU-Sim PTX: 2700000 instructions simulated : ctaid=(355,0,0) tid=(353,0,0)
GPGPU-Sim uArch: Shader 1 finished CTA #0 (8883,0), 2 CTAs running
GPGPU-Sim uArch: core:  1, cta: 0 initialized @(8884,0)
GPGPU-Sim uArch: Shader 3 finished CTA #1 (8894,0), 2 CTAs running
GPGPU-Sim uArch: core:  3, cta: 1 initialized @(8895,0)
GPGPU-Sim uArch: Shader 5 finished CTA #1 (8905,0), 2 CTAs running
GPGPU-Sim uArch: core:  5, cta: 1 initialized @(8906,0)
GPGPU-Sim uArch: Shader 4 finished CTA #1 (8907,0), 2 CTAs running
GPGPU-Sim uArch: Shader 7 finished CTA #1 (8907,0), 2 CTAs running
GPGPU-Sim uArch: core:  7, cta: 1 initialized @(8908,0)
GPGPU-Sim uArch: core:  4, cta: 1 initialized @(8908,0)
GPGPU-Sim uArch: Shader 6 finished CTA #1 (8922,0), 2 CTAs running
GPGPU-Sim uArch: core:  6, cta: 1 initialized @(8923,0)
GPGPU-Sim uArch: Shader 0 finished CTA #1 (8935,0), 2 CTAs running
GPGPU-Sim uArch: Shader 13 finished CTA #1 (8935,0), 2 CTAs running
GPGPU-Sim uArch: core: 13, cta: 1 initialized @(8936,0)
GPGPU-Sim uArch: core:  0, cta: 1 initialized @(8936,0)
GPGPU-Sim uArch: Shader 8 finished CTA #1 (8938,0), 2 CTAs running
GPGPU-Sim uArch: core:  8, cta: 1 initialized @(8939,0)
GPGPU-Sim uArch: Shader 2 finished CTA #1 (8945,0), 2 CTAs running
GPGPU-Sim uArch: core:  2, cta: 1 initialized @(8946,0)
GPGPU-Sim uArch: Shader 9 finished CTA #1 (8946,0), 2 CTAs running
GPGPU-Sim uArch: core:  9, cta: 1 initialized @(8947,0)
GPGPU-Sim uArch: Shader 10 finished CTA #1 (8954,0), 2 CTAs running
GPGPU-Sim uArch: core: 10, cta: 1 initialized @(8955,0)
GPGPU-Sim uArch: Shader 12 finished CTA #1 (8982,0), 2 CTAs running
GPGPU-Sim uArch: core: 12, cta: 1 initialized @(8983,0)
GPGPU-Sim uArch: Shader 14 finished CTA #1 (8997,0), 2 CTAs running
GPGPU-Sim uArch: core: 14, cta: 1 initialized @(8998,0)
GPGPU-Sim uArch: Shader 11 finished CTA #1 (9008,0), 2 CTAs running
GPGPU-Sim uArch: core: 11, cta: 1 initialized @(9009,0)
GPGPU-Sim PTX: 2800000 instructions simulated : ctaid=(374,0,0) tid=(65,0,0)
GPGPU-Sim uArch: Shader 1 finished CTA #2 (9225,0), 2 CTAs running
GPGPU-Sim uArch: core:  1, cta: 2 initialized @(9226,0)
GPGPU-Sim uArch: Shader 3 finished CTA #2 (9235,0), 2 CTAs running
GPGPU-Sim uArch: core:  3, cta: 2 initialized @(9236,0)
GPGPU-Sim uArch: Shader 5 finished CTA #2 (9242,0), 2 CTAs running
GPGPU-Sim uArch: core:  5, cta: 2 initialized @(9243,0)
GPGPU-Sim uArch: Shader 4 finished CTA #2 (9246,0), 2 CTAs running
GPGPU-Sim uArch: core:  4, cta: 2 initialized @(9247,0)
GPGPU-Sim uArch: Shader 7 finished CTA #2 (9249,0), 2 CTAs running
GPGPU-Sim uArch: core:  7, cta: 2 initialized @(9250,0)
GPGPU-Sim uArch: Shader 6 finished CTA #2 (9263,0), 2 CTAs running
GPGPU-Sim uArch: core:  6, cta: 2 initialized @(9264,0)
GPGPU-Sim uArch: Shader 0 finished CTA #2 (9273,0), 2 CTAs running
GPGPU-Sim uArch: core:  0, cta: 2 initialized @(9274,0)
GPGPU-Sim uArch: Shader 13 finished CTA #2 (9277,0), 2 CTAs running
GPGPU-Sim uArch: core: 13, cta: 2 initialized @(9278,0)
GPGPU-Sim uArch: Shader 8 finished CTA #2 (9279,0), 2 CTAs running
GPGPU-Sim uArch: core:  8, cta: 2 initialized @(9280,0)
GPGPU-Sim uArch: Shader 9 finished CTA #2 (9286,0), 2 CTAs running
GPGPU-Sim uArch: core:  9, cta: 2 initialized @(9287,0)
GPGPU-Sim uArch: Shader 2 finished CTA #2 (9287,0), 2 CTAs running
GPGPU-Sim uArch: core:  2, cta: 2 initialized @(9288,0)
GPGPU-Sim uArch: Shader 10 finished CTA #2 (9292,0), 2 CTAs running
GPGPU-Sim uArch: core: 10, cta: 2 initialized @(9293,0)
GPGPU-Sim uArch: Shader 12 finished CTA #2 (9319,0), 2 CTAs running
GPGPU-Sim uArch: core: 12, cta: 2 initialized @(9320,0)
GPGPU-Sim uArch: Shader 14 finished CTA #2 (9336,0), 2 CTAs running
GPGPU-Sim uArch: core: 14, cta: 2 initialized @(9337,0)
GPGPU-Sim uArch: Shader 11 finished CTA #2 (9348,0), 2 CTAs running
GPGPU-Sim uArch: core: 11, cta: 2 initialized @(9349,0)
GPGPU-Sim PTX: 2900000 instructions simulated : ctaid=(376,0,0) tid=(353,0,0)
GPGPU-Sim uArch: cycles simulated: 9500  inst.: 2726968 (ipc=287.0) sim_rate=143524 (inst/sec) elapsed = 0:0:00:19 / Tue Mar 22 12:52:21 2016
GPGPU-Sim uArch: Shader 1 finished CTA #1 (9564,0), 2 CTAs running
GPGPU-Sim uArch: core:  1, cta: 1 initialized @(9565,0)
GPGPU-Sim uArch: Shader 3 finished CTA #0 (9575,0), 2 CTAs running
GPGPU-Sim uArch: core:  3, cta: 0 initialized @(9576,0)
GPGPU-Sim uArch: Shader 5 finished CTA #0 (9580,0), 2 CTAs running
GPGPU-Sim uArch: core:  5, cta: 0 initialized @(9581,0)
GPGPU-Sim uArch: Shader 4 finished CTA #0 (9586,0), 2 CTAs running
GPGPU-Sim uArch: core:  4, cta: 0 initialized @(9587,0)
GPGPU-Sim uArch: Shader 7 finished CTA #0 (9591,0), 2 CTAs running
GPGPU-Sim uArch: core:  7, cta: 0 initialized @(9592,0)
GPGPU-Sim uArch: Shader 6 finished CTA #0 (9602,0), 2 CTAs running
GPGPU-Sim uArch: core:  6, cta: 0 initialized @(9603,0)
GPGPU-Sim uArch: Shader 0 finished CTA #0 (9610,0), 2 CTAs running
GPGPU-Sim uArch: core:  0, cta: 0 initialized @(9611,0)
GPGPU-Sim uArch: Shader 13 finished CTA #0 (9618,0), 2 CTAs running
GPGPU-Sim uArch: core: 13, cta: 0 initialized @(9619,0)
GPGPU-Sim uArch: Shader 8 finished CTA #0 (9619,0), 2 CTAs running
GPGPU-Sim uArch: core:  8, cta: 0 initialized @(9620,0)
GPGPU-Sim uArch: Shader 2 finished CTA #0 (9626,0), 2 CTAs running
GPGPU-Sim uArch: Shader 9 finished CTA #0 (9626,0), 2 CTAs running
GPGPU-Sim uArch: core:  9, cta: 0 initialized @(9627,0)
GPGPU-Sim uArch: core:  2, cta: 0 initialized @(9627,0)
GPGPU-Sim uArch: Shader 10 finished CTA #0 (9630,0), 2 CTAs running
GPGPU-Sim uArch: core: 10, cta: 0 initialized @(9631,0)
GPGPU-Sim uArch: Shader 12 finished CTA #0 (9658,0), 2 CTAs running
GPGPU-Sim uArch: core: 12, cta: 0 initialized @(9659,0)
GPGPU-Sim uArch: Shader 14 finished CTA #0 (9675,0), 2 CTAs running
GPGPU-Sim uArch: core: 14, cta: 0 initialized @(9676,0)
GPGPU-Sim uArch: Shader 11 finished CTA #0 (9689,0), 2 CTAs running
GPGPU-Sim uArch: core: 11, cta: 0 initialized @(9690,0)
GPGPU-Sim PTX: 3000000 instructions simulated : ctaid=(399,0,0) tid=(65,0,0)
GPGPU-Sim uArch: Shader 1 finished CTA #0 (9905,0), 2 CTAs running
GPGPU-Sim uArch: core:  1, cta: 0 initialized @(9906,0)
GPGPU-Sim uArch: Shader 3 finished CTA #1 (9914,0), 2 CTAs running
GPGPU-Sim uArch: core:  3, cta: 1 initialized @(9915,0)
GPGPU-Sim uArch: Shader 5 finished CTA #1 (9920,0), 2 CTAs running
GPGPU-Sim uArch: core:  5, cta: 1 initialized @(9921,0)
GPGPU-Sim uArch: Shader 4 finished CTA #1 (9927,0), 2 CTAs running
GPGPU-Sim uArch: core:  4, cta: 1 initialized @(9928,0)
GPGPU-Sim uArch: Shader 7 finished CTA #1 (9932,0), 2 CTAs running
GPGPU-Sim uArch: core:  7, cta: 1 initialized @(9933,0)
GPGPU-Sim uArch: Shader 6 finished CTA #1 (9941,0), 2 CTAs running
GPGPU-Sim uArch: core:  6, cta: 1 initialized @(9942,0)
GPGPU-Sim uArch: Shader 0 finished CTA #1 (9947,0), 2 CTAs running
GPGPU-Sim uArch: core:  0, cta: 1 initialized @(9948,0)
GPGPU-Sim uArch: Shader 13 finished CTA #1 (9957,0), 2 CTAs running
GPGPU-Sim uArch: core: 13, cta: 1 initialized @(9958,0)
GPGPU-Sim uArch: Shader 8 finished CTA #1 (9960,0), 2 CTAs running
GPGPU-Sim uArch: core:  8, cta: 1 initialized @(9961,0)
GPGPU-Sim uArch: Shader 2 finished CTA #1 (9966,0), 2 CTAs running
GPGPU-Sim uArch: Shader 9 finished CTA #1 (9966,0), 2 CTAs running
GPGPU-Sim uArch: core:  9, cta: 1 initialized @(9967,0)
GPGPU-Sim uArch: core:  2, cta: 1 initialized @(9967,0)
GPGPU-Sim uArch: Shader 10 finished CTA #1 (9967,0), 2 CTAs running
GPGPU-Sim uArch: core: 10, cta: 1 initialized @(9968,0)
GPGPU-Sim uArch: Shader 12 finished CTA #1 (9997,0), 2 CTAs running
GPGPU-Sim uArch: core: 12, cta: 1 initialized @(9998,0)
GPGPU-Sim uArch: Shader 14 finished CTA #1 (10011,0), 2 CTAs running
GPGPU-Sim uArch: core: 14, cta: 1 initialized @(10012,0)
GPGPU-Sim uArch: Shader 11 finished CTA #1 (10029,0), 2 CTAs running
GPGPU-Sim uArch: core: 11, cta: 1 initialized @(10030,0)
GPGPU-Sim PTX: 3100000 instructions simulated : ctaid=(415,0,0) tid=(65,0,0)
GPGPU-Sim uArch: Shader 1 finished CTA #2 (10247,0), 2 CTAs running
GPGPU-Sim uArch: core:  1, cta: 2 initialized @(10248,0)
GPGPU-Sim uArch: Shader 3 finished CTA #2 (10253,0), 2 CTAs running
GPGPU-Sim uArch: core:  3, cta: 2 initialized @(10254,0)
GPGPU-Sim uArch: Shader 5 finished CTA #2 (10258,0), 2 CTAs running
GPGPU-Sim uArch: core:  5, cta: 2 initialized @(10259,0)
GPGPU-Sim uArch: Shader 4 finished CTA #2 (10269,0), 2 CTAs running
GPGPU-Sim uArch: core:  4, cta: 2 initialized @(10270,0)
GPGPU-Sim uArch: Shader 7 finished CTA #2 (10273,0), 2 CTAs running
GPGPU-Sim uArch: core:  7, cta: 2 initialized @(10274,0)
GPGPU-Sim uArch: Shader 6 finished CTA #2 (10280,0), 2 CTAs running
GPGPU-Sim uArch: core:  6, cta: 2 initialized @(10281,0)
GPGPU-Sim uArch: Shader 0 finished CTA #2 (10286,0), 2 CTAs running
GPGPU-Sim uArch: core:  0, cta: 2 initialized @(10287,0)
GPGPU-Sim uArch: Shader 13 finished CTA #2 (10300,0), 2 CTAs running
GPGPU-Sim uArch: core: 13, cta: 2 initialized @(10301,0)
GPGPU-Sim uArch: Shader 8 finished CTA #2 (10303,0), 2 CTAs running
GPGPU-Sim uArch: core:  8, cta: 2 initialized @(10304,0)
GPGPU-Sim uArch: Shader 2 finished CTA #2 (10304,0), 2 CTAs running
GPGPU-Sim uArch: core:  2, cta: 2 initialized @(10305,0)
GPGPU-Sim uArch: Shader 10 finished CTA #2 (10305,0), 2 CTAs running
GPGPU-Sim uArch: core: 10, cta: 2 initialized @(10306,0)
GPGPU-Sim uArch: Shader 9 finished CTA #2 (10308,0), 2 CTAs running
GPGPU-Sim uArch: core:  9, cta: 2 initialized @(10309,0)
GPGPU-Sim uArch: Shader 12 finished CTA #2 (10333,0), 2 CTAs running
GPGPU-Sim uArch: core: 12, cta: 2 initialized @(10334,0)
GPGPU-Sim PTX: 3200000 instructions simulated : ctaid=(416,0,0) tid=(449,0,0)
GPGPU-Sim uArch: Shader 14 finished CTA #2 (10348,0), 2 CTAs running
GPGPU-Sim uArch: core: 14, cta: 2 initialized @(10349,0)
GPGPU-Sim uArch: Shader 11 finished CTA #2 (10371,0), 2 CTAs running
GPGPU-Sim uArch: core: 11, cta: 2 initialized @(10372,0)
GPGPU-Sim uArch: cycles simulated: 10500  inst.: 3046008 (ipc=290.1) sim_rate=152300 (inst/sec) elapsed = 0:0:00:20 / Tue Mar 22 12:52:22 2016
GPGPU-Sim uArch: Shader 1 finished CTA #1 (10588,0), 2 CTAs running
GPGPU-Sim uArch: core:  1, cta: 1 initialized @(10589,0)
GPGPU-Sim uArch: Shader 3 finished CTA #0 (10592,0), 2 CTAs running
GPGPU-Sim uArch: core:  3, cta: 0 initialized @(10593,0)
GPGPU-Sim uArch: Shader 5 finished CTA #0 (10600,0), 2 CTAs running
GPGPU-Sim uArch: core:  5, cta: 0 initialized @(10601,0)
GPGPU-Sim uArch: Shader 4 finished CTA #0 (10611,0), 2 CTAs running
GPGPU-Sim uArch: core:  4, cta: 0 initialized @(10612,0)
GPGPU-Sim uArch: Shader 7 finished CTA #0 (10616,0), 2 CTAs running
GPGPU-Sim uArch: core:  7, cta: 0 initialized @(10617,0)
GPGPU-Sim uArch: Shader 6 finished CTA #0 (10620,0), 2 CTAs running
GPGPU-Sim uArch: core:  6, cta: 0 initialized @(10621,0)
GPGPU-Sim uArch: Shader 0 finished CTA #0 (10625,0), 2 CTAs running
GPGPU-Sim uArch: core:  0, cta: 0 initialized @(10626,0)
GPGPU-Sim PTX: 3300000 instructions simulated : ctaid=(436,0,0) tid=(1,0,0)
GPGPU-Sim uArch: Shader 13 finished CTA #0 (10641,0), 2 CTAs running
[...]
gpgpu_stall_shd_mem[g_mem_ld][wb_rsrv_fail] = 0
gpgpu_stall_shd_mem[g_mem_st][mshr_rc] = 0
gpgpu_stall_shd_mem[g_mem_st][icnt_rc] = 0
gpgpu_stall_shd_mem[g_mem_st][wb_icnt_rc] = 0
gpgpu_stall_shd_mem[g_mem_st][wb_rsrv_fail] = 0
gpgpu_stall_shd_mem[l_mem_ld][mshr_rc] = 0
gpgpu_stall_shd_mem[l_mem_ld][icnt_rc] = 0
gpgpu_stall_shd_mem[l_mem_ld][wb_icnt_rc] = 0
gpgpu_stall_shd_mem[l_mem_ld][wb_rsrv_fail] = 0
gpgpu_stall_shd_mem[l_mem_st][mshr_rc] = 0
gpgpu_stall_shd_mem[l_mem_st][icnt_rc] = 0
gpgpu_stall_shd_mem[l_mem_ld][wb_icnt_rc] = 0
gpgpu_stall_shd_mem[l_mem_ld][wb_rsrv_fail] = 0
gpu_reg_bank_conflict_stalls = 0
Warp Occupancy Distribution:
Stall:5238	W0_Idle:35579	W0_Scoreboard:1722620	W1:133	W2:0	W3:0	W4:0	W5:0	W6:0	W7:0	W8:0	W9:0	W10:0	W11:0	W12:0	W13:0	W14:0	W15:0	W16:0	W17:0	W18:0	W19:0	W20:0	W21:0	W22:0	W23:0	W24:0	W25:0	W26:0	W27:0	W28:0	W29:0	W30:0	W31:0	W32:937724
traffic_breakdown_coretomem[CONST_ACC_R] = 120 {8:15,}
traffic_breakdown_coretomem[GLOBAL_ACC_R] = 125064 {8:15633,}
traffic_breakdown_coretomem[GLOBAL_ACC_W] = 760 {40:19,}
traffic_breakdown_coretomem[INST_ACC_R] = 496 {8:62,}
traffic_breakdown_memtocore[CONST_ACC_R] = 1080 {72:15,}
traffic_breakdown_memtocore[GLOBAL_ACC_R] = 2126088 {136:15633,}
traffic_breakdown_memtocore[GLOBAL_ACC_W] = 152 {8:19,}
traffic_breakdown_memtocore[INST_ACC_R] = 8432 {136:62,}
maxmrqlatency = 37 
maxdqlatency = 0 
maxmflatency = 299 
averagemflatency = 259 
max_icnt2mem_latency = 36 
max_icnt2sh_latency = 85222 
mrq_lat_table:15390 	182 	47 	33 	12 	2 	0 	0 	0 	0 	0 	0 	0 	0 	0 	0 	0 	0 	0 	0 	0 	0 	0 	0 	0 	0 	0 	0 	0 	0 	0 	0 	
dq_lat_table:0 	0 	0 	0 	0 	0 	0 	0 	0 	0 	0 	0 	0 	0 	0 	0 	0 	0 	0 	0 	0 	0 	0 	0 	0 	0 	0 	0 	0 	0 	0 	0 	
mf_lat_table:0 	0 	0 	0 	0 	0 	0 	17 	15650 	0 	0 	0 	0 	0 	0 	0 	0 	0 	0 	0 	0 	0 	0 	0 	0 	0 	0 	0 	0 	0 	0 	0 	
icnt2mem_lat_table:0 	0 	0 	15707 	16 	6 	0 	0 	0 	0 	0 	0 	0 	0 	0 	0 	0 	0 	0 	0 	0 	0 	0 	0 	
icnt2sh_lat_table:0 	0 	0 	15602 	45 	1 	0 	0 	0 	0 	1 	6 	0 	0 	0 	8 	4 	0 	0 	0 	0 	0 	0 	0 	
mf_lat_pw_table:0 	0 	0 	0 	0 	0 	0 	1 	178 	0 	0 	0 	0 	0 	0 	0 	0 	0 	0 	0 	0 	0 	0 	0 	0 	0 	0 	0 	0 	0 	0 	0 	
maximum concurrent accesses to same row:
dram[0]:        32        32        32        32        32        32        32        32        32        32        32        32        32        32        32        32 
dram[1]:        32        32        32        32        32        32        32        32        32        32        32        32        32        32        32        32 
dram[2]:        32        32        32        32        32        32        32        32        32        32        32        32        32        32        32        32 
dram[3]:        32        32        32        32        32        32        32        32        32        32        32        32        32        32        32        32 
dram[4]:        32        32        32        32        32        32        32        32        32        32        32        32        32        32        32        32 
dram[5]:        32        32        32        32        32        32        32        32        32        32        32        32        32        32        32        32 
maximum service time to same row:
dram[0]:     17495     17509     17300     17294     17469     17480     17501     17278     17259     17425     17432     17490     17484     17252     17284     17492 
dram[1]:     17500     17457     17270     17269     17424     17479     17486     17293     17268     17450     17481     17494     17575     17261     17273     17445 
dram[2]:     17377     17505     17318     17274     17416     17437     17471     17266     17265     17460     17409     17427     17546     17244     17278     17459 
dram[3]:     17416     17437     17302     17271     17423     17401     17441     17269     17304     17427     17504     17479     17634     17289     17303     17434 
dram[4]:     17516     17273     17284     17289     17489     17505     17262     17261     17265     17418     17509     17251     17251     17291     17288     17511 
dram[5]:     17437     17260     17249     17428     17503     17494     17278     17276     17435     17261     17509     17260     17309     17446     17483     17500 
average row accesses per activate:
dram[0]: 20.375000 27.000000 32.000000 32.000000 32.000000 32.000000 32.000000 32.000000 32.000000 32.000000 28.000000 28.333334 29.000000 19.444445 32.000000 32.000000 
dram[1]: 27.000000 32.000000 32.000000 32.000000 23.142857 32.000000 32.000000 32.000000 23.285715 32.000000 28.000000 28.333334 29.000000 28.666666 32.000000 32.000000 
dram[2]: 27.000000 32.000000 32.000000 32.000000 32.000000 26.833334 32.000000 32.000000 27.000000 32.000000 28.000000 28.333334 29.000000 28.666666 32.000000 32.000000 
dram[3]: 32.000000 32.000000 32.000000 32.000000 32.000000 32.000000 32.000000 32.000000 32.000000 32.000000 28.000000 28.333334 29.000000 28.666666 27.000000 32.000000 
dram[4]: 32.000000 32.000000 32.000000 32.000000 32.000000 31.799999 32.000000 27.000000 32.000000 32.000000 19.222221 24.428572 29.000000 28.666666 32.000000 32.000000 
dram[5]: 23.285715 32.000000 32.000000 27.000000 32.000000 20.375000 32.000000 32.000000 27.000000 27.000000 28.333334 28.333334 28.833334 28.666666 32.000000 32.000000 
average row locality = 15666/533 = 29.392120
number of total memory accesses made:
dram[0]:         0         0         0         0         0         0         0         0         0         0         0         0         0         0         0         0 
dram[1]:         0         0         0         0         0         0         0         0         0         0         0         0         0         0         0         0 
dram[2]:         0         0         0         0         0         0         0         0         0         0         0         0         0         0         0         0 
dram[3]:         0         0         0         0         0         0         0         0         0         0         0         0         0         0         0         0 
dram[4]:         0         0         0         0         0         0         0         0         0         0         0         0         0         0         0         0 
dram[5]:         0         0         0         0         0         0         0         0         0         0         0         0         0         0         0         0 
total accesses: 0
min_bank_accesses = 0!
min_chip_accesses = 0!
number of total read accesses:
dram[0]:       163       161       160       160       160       160       160       160       160       160       168       170       174       174       160       160 
dram[1]:       162       160       160       160       161       160       160       160       162       160       168       170       174       172       160       160 
dram[2]:       162       160       160       160       160       161       160       160       161       160       168       170       174       172       160       160 
dram[3]:       160       160       160       160       160       160       160       160       160       160       168       170       174       172       161       160 
dram[4]:       160       160       160       160       160       159       160       161       160       160       171       171       174       172       160       160 
dram[5]:       162       160       160       161       160       161       160       160       161       161       170       170       173       172       160       160 
total reads: 15651
bank skew: 174/159 = 1.09
chip skew: 2611/2605 = 1.00
number of total write accesses:
dram[0]:         0         1         0         0         0         0         0         0         0         0         0         0         0         1         0         0 
dram[1]:         0         0         0         0         1         0         0         0         1         0         0         0         0         0         0         0 
dram[2]:         0         0         0         0         0         0         0         0         1         0         0         0         0         0         0         0 
dram[3]:         0         0         0         0         0         0         0         0         0         0         0         0         0         0         1         0 
dram[4]:         0         0         0         0         0         0         0         1         0         0         2         0         0         0         0         0 
dram[5]:         1         0         0         1         0         2         0         0         1         1         0         0         0         0         0         0 
total reads: 15
min_bank_accesses = 0!
chip skew: 6/1 = 6.00
average mf latency per bank:
dram[0]:        278       259       259       260       259       260       259       260       259       260       259       260       259       258       259       260
dram[1]:        256       260       259       259       259       259       259       259       258       259       259       260       259       260       259       259
dram[2]:        256       259       259       259       259       260       259       259       259       259       259       260       259       260       259       259
dram[3]:        259       260       259       260       259       259       259       259       259       259       259       259       259       260       258       260
dram[4]:        259       259       259       259       259       260       259       259       259       260       258       260       259       260       259       260
dram[5]:        258       259       259       257       259       258       259       259       258       258       259       260       259       260       259       260
maximum mf latency per bank:
dram[0]:        282       283       284       279       278       295       277       278       278       282       288       281       278       278       285       282
dram[1]:        279       280       279       282       277       277       277       282       280       278       277       281       282       279       277       284
dram[2]:        277       278       277       291       278       278       277       279       279       282       278       283       277       282       279       277
dram[3]:        277       282       283       277       278       277       277       279       279       278       280       281       278       283       283       281
dram[4]:        277       277       280       277       285       281       278       278       279       281       299       286       277       283       281       280
dram[5]:        283       286       277       279       277       288       279       278       279       282       278       277       278       286       286       281

Number of Memory Banks Accessed per Memory Operation per Warp (from 0):
0	0	0	0	0	0	0	0	0	0	0	0	0	0	0	0	0	0	0	0	0	0	0	0	0	0	0	0	0	0	0	0	0	0	0	0	0	0	0	0	0	0	0	0	0	0	0	0	0	0	0	0	0	0	0	0	0	0	0	0	0	0	0	0	0	0	0	0	0	0	0	0	0	0	0	0	0	0	0	0	0	0	0	0	0	0	0	0	0	0	0	0	0	0	0	0	
Average # of Memory Banks Accessed per Memory Operation per Warp=-nan

position of mrq chosen
0	0	0	0	0	0	0	0	0	0	0	0	0	0	0	0	

average position of mrq chosen = -nan
Memory Partition 0: 
Cache L2_bank_000:
MSHR contents

Cache L2_bank_001:
MSHR contents

In Dram Latency Queue (total = 0): 
DRAM[0]: 16 bks, busW=4 BL=8 CL=12, tRRD=2 tCCD=6, tRCD=12 tRAS=28 tRP=12 tRC=40
n_cmd=119488 n_nop=114100 n_act=91 n_pre=75 n_req=2612 n_rd=5220 n_write=2 bw_util=0.08741
n_activity=35738 dram_eff=0.2922
bk0: 326a 118619i bk1: 322a 118573i bk2: 320a 118682i bk3: 320a 118602i bk4: 320a 118681i bk5: 320a 118626i bk6: 320a 118705i bk7: 320a 118629i bk8: 320a 118682i bk9: 320a 118634i bk10: 336a 118627i bk11: 340a 118567i bk12: 348a 118614i bk13: 348a 118506i bk14: 320a 118680i bk15: 320a 118613i 
dram_util_bins: 0 0 0 0 0 0 0 0 0 0
dram_eff_bins: 0 0 0 0 0 0 0 0 0 0
mrqq: max=2 avg=0.00217595
Memory Partition 1: 
Cache L2_bank_002:
MSHR contents

Cache L2_bank_003:
MSHR contents

In Dram Latency Queue (total = 0): 
DRAM[1]: 16 bks, busW=4 BL=8 CL=12, tRRD=2 tCCD=6, tRCD=12 tRAS=28 tRP=12 tRC=40
n_cmd=119488 n_nop=114105 n_act=89 n_pre=73 n_req=2611 n_rd=5218 n_write=3 bw_util=0.08739
n_activity=35450 dram_eff=0.2946
bk0: 324a 118668i bk1: 320a 118600i bk2: 320a 118716i bk3: 320a 118632i bk4: 322a 118651i bk5: 320a 118654i bk6: 320a 118706i bk7: 320a 118639i bk8: 324a 118620i bk9: 320a 118641i bk10: 336a 118637i bk11: 340a 118525i bk12: 348a 118611i bk13: 344a 118510i bk14: 320a 118708i bk15: 320a 118652i 
dram_util_bins: 0 0 0 0 0 0 0 0 0 0
dram_eff_bins: 0 0 0 0 0 0 0 0 0 0
mrqq: max=1 avg=0.00197509
Memory Partition 2: 
Cache L2_bank_004:
MSHR contents

Cache L2_bank_005:
MSHR contents

In Dram Latency Queue (total = 0): 
DRAM[2]: 16 bks, busW=4 BL=8 CL=12, tRRD=2 tCCD=6, tRCD=12 tRAS=28 tRP=12 tRC=40
n_cmd=119488 n_nop=114113 n_act=87 n_pre=71 n_req=2609 n_rd=5216 n_write=1 bw_util=0.08732
n_activity=36912 dram_eff=0.2827
bk0: 324a 118673i bk1: 320a 118671i bk2: 320a 118707i bk3: 320a 118652i bk4: 320a 118702i bk5: 322a 118624i bk6: 320a 118719i bk7: 320a 118654i bk8: 322a 118683i bk9: 320a 118654i bk10: 336a 118656i bk11: 340a 118551i bk12: 348a 118626i bk13: 344a 118560i bk14: 320a 118711i bk15: 320a 118665i 
dram_util_bins: 0 0 0 0 0 0 0 0 0 0
dram_eff_bins: 0 0 0 0 0 0 0 0 0 0
mrqq: max=2 avg=0.00181608
Memory Partition 3: 
Cache L2_bank_006:
MSHR contents

Cache L2_bank_007:
MSHR contents

In Dram Latency Queue (total = 0): 
DRAM[3]: 16 bks, busW=4 BL=8 CL=12, tRRD=2 tCCD=6, tRCD=12 tRAS=28 tRP=12 tRC=40
n_cmd=119488 n_nop=114123 n_act=85 n_pre=69 n_req=2606 n_rd=5210 n_write=1 bw_util=0.08722
n_activity=35056 dram_eff=0.2973
bk0: 320a 118699i bk1: 320a 118631i bk2: 320a 118676i bk3: 320a 118575i bk4: 320a 118674i bk5: 320a 118623i bk6: 320a 118712i bk7: 320a 118666i bk8: 320a 118715i bk9: 320a 118659i bk10: 336a 118639i bk11: 340a 118600i bk12: 348a 118628i bk13: 344a 118509i bk14: 322a 118642i bk15: 320a 118632i 
dram_util_bins: 0 0 0 0 0 0 0 0 0 0
dram_eff_bins: 0 0 0 0 0 0 0 0 0 0
mrqq: max=1 avg=0.00145621
Memory Partition 4: 
Cache L2_bank_008:
MSHR contents

Cache L2_bank_009:
MSHR contents

In Dram Latency Queue (total = 0): 
DRAM[4]: 16 bks, busW=4 BL=8 CL=12, tRRD=2 tCCD=6, tRCD=12 tRAS=28 tRP=12 tRC=40
n_cmd=119488 n_nop=114106 n_act=89 n_pre=73 n_req=2611 n_rd=5216 n_write=4 bw_util=0.08737
n_activity=35457 dram_eff=0.2944
bk0: 320a 118679i bk1: 320a 118655i bk2: 320a 118698i bk3: 320a 118631i bk4: 320a 118698i bk5: 318a 118642i bk6: 320a 118707i bk7: 322a 118630i bk8: 320a 118705i bk9: 320a 118628i bk10: 342a 118515i bk11: 342a 118537i bk12: 348a 118604i bk13: 344a 118513i bk14: 320a 118674i bk15: 320a 118610i 
dram_util_bins: 0 0 0 0 0 0 0 0 0 0
dram_eff_bins: 0 0 0 0 0 0 0 0 0 0
mrqq: max=2 avg=0.00236844
Memory Partition 5: 
Cache L2_bank_010:
MSHR contents

Cache L2_bank_011:
MSHR contents

In Dram Latency Queue (total = 0): 
DRAM[5]: 16 bks, busW=4 BL=8 CL=12, tRRD=2 tCCD=6, tRCD=12 tRAS=28 tRP=12 tRC=40
n_cmd=119488 n_nop=114091 n_act=92 n_pre=76 n_req=2617 n_rd=5222 n_write=7 bw_util=0.08752
n_activity=35140 dram_eff=0.2976
bk0: 324a 118619i bk1: 320a 118669i bk2: 320a 118720i bk3: 322a 118656i bk4: 320a 118693i bk5: 322a 118515i bk6: 320a 118698i bk7: 320a 118651i bk8: 322a 118668i bk9: 322a 118600i bk10: 340a 118626i bk11: 340a 118568i bk12: 346a 118607i bk13: 344a 118506i bk14: 320a 118680i bk15: 320a 118619i 
dram_util_bins: 0 0 0 0 0 0 0 0 0 0
dram_eff_bins: 0 0 0 0 0 0 0 0 0 0
mrqq: max=2 avg=0.00293753

========= L2 cache stats =========
L2_cache_bank[0]: Access = 1333, Miss = 1305, Miss_rate = 0.979, Pending_hits = 6, Reservation_fails = 225
L2_cache_bank[1]: Access = 1306, Miss = 1305, Miss_rate = 0.999, Pending_hits = 0, Reservation_fails = 0
L2_cache_bank[2]: Access = 1323, Miss = 1307, Miss_rate = 0.988, Pending_hits = 3, Reservation_fails = 107
L2_cache_bank[3]: Access = 1302, Miss = 1302, Miss_rate = 1.000, Pending_hits = 0, Reservation_fails = 0
L2_cache_bank[4]: Access = 1335, Miss = 1305, Miss_rate = 0.978, Pending_hits = 6, Reservation_fails = 216
L2_cache_bank[5]: Access = 1303, Miss = 1303, Miss_rate = 1.000, Pending_hits = 0, Reservation_fails = 0
L2_cache_bank[6]: Access = 1303, Miss = 1303, Miss_rate = 1.000, Pending_hits = 0, Reservation_fails = 0
L2_cache_bank[7]: Access = 1302, Miss = 1302, Miss_rate = 1.000, Pending_hits = 0, Reservation_fails = 0
L2_cache_bank[8]: Access = 1306, Miss = 1305, Miss_rate = 0.999, Pending_hits = 0, Reservation_fails = 0
L2_cache_bank[9]: Access = 1304, Miss = 1303, Miss_rate = 0.999, Pending_hits = 0, Reservation_fails = 0
L2_cache_bank[10]: Access = 1306, Miss = 1306, Miss_rate = 1.000, Pending_hits = 0, Reservation_fails = 0
L2_cache_bank[11]: Access = 1306, Miss = 1305, Miss_rate = 0.999, Pending_hits = 0, Reservation_fails = 0
L2_total_cache_accesses = 15729
L2_total_cache_misses = 15651
L2_total_cache_miss_rate = 0.9950
L2_total_cache_pending_hits = 15
L2_total_cache_reservation_fails = 548
L2_total_cache_breakdown:
	L2_cache_stats_breakdown[GLOBAL_ACC_R][HIT] = 1
	L2_cache_stats_breakdown[GLOBAL_ACC_R][MISS] = 15632
	L2_cache_stats_breakdown[CONST_ACC_R][HIT] = 11
	L2_cache_stats_breakdown[CONST_ACC_R][HIT_RESERVED] = 3
	L2_cache_stats_breakdown[CONST_ACC_R][MISS] = 1
	L2_cache_stats_breakdown[CONST_ACC_R][RESERVATION_FAIL] = 109
	L2_cache_stats_breakdown[GLOBAL_ACC_W][HIT] = 7
	L2_cache_stats_breakdown[GLOBAL_ACC_W][MISS] = 12
	L2_cache_stats_breakdown[INST_ACC_R][HIT] = 44
	L2_cache_stats_breakdown[INST_ACC_R][HIT_RESERVED] = 12
	L2_cache_stats_breakdown[INST_ACC_R][MISS] = 6
	L2_cache_stats_breakdown[INST_ACC_R][RESERVATION_FAIL] = 439
L2_cache_data_port_util = 0.000
L2_cache_fill_port_util = 0.058

icnt_total_pkts_mem_to_simt=78539
icnt_total_pkts_simt_to_mem=15748
LD_mem_lat_dist  0 0 0 0 0 0 0 0 0 0 0 0 0 0 0 0 0 0 0 0 0 0 0 0 0 0 0
ST_mem_lat_dist  0 0 0 0 0 0 0 0 0 0 0 0 0 0 0 0 0 0 0 0 0 0 0 0 0 0 0
----------------------------Interconnect-DETAILS--------------------------------
Class 0:
Packet latency average = 8.07708
	minimum = 6
	maximum = 34
Network latency average = 8.05748
	minimum = 6
	maximum = 34
Slowest packet = 15759
Flit latency average = 6.07086
	minimum = 6
	maximum = 34
Slowest flit = 47204
Fragmentation average = 0
	minimum = 0
	maximum = 0
Injected packet rate average = 0.0128991
	minimum = 0.0115722 (at node 1)
	maximum = 0.0151858 (at node 19)
Accepted packet rate average = 0.0128991
	minimum = 0.0115722 (at node 1)
	maximum = 0.0151858 (at node 19)
Injected flit rate average = 0.0386677
	minimum = 0.0115722 (at node 1)
	maximum = 0.0756629 (at node 19)
Accepted flit rate average= 0.0386677
	minimum = 0.0144099 (at node 18)
	maximum = 0.0583932 (at node 10)
Injected packet length average = 2.99771
Accepted packet length average = 2.99771
Total in-flight flits = 0 (0 measured)
====== Overall Traffic Statistics ======
====== Traffic class 0 ======
Packet latency average = 8.0794 (2 samples)
	minimum = 6 (2 samples)
	maximum = 34 (2 samples)
Network latency average = 8.05624 (2 samples)
	minimum = 6 (2 samples)
	maximum = 34 (2 samples)
Flit latency average = 6.06825 (2 samples)
	minimum = 6 (2 samples)
	maximum = 34 (2 samples)
Fragmentation average = 0 (2 samples)
	minimum = 0 (2 samples)
	maximum = 0 (2 samples)
Injected packet rate average = 0.0128711 (2 samples)
	minimum = 0.0115442 (2 samples)
	maximum = 0.0150906 (2 samples)
Accepted packet rate average = 0.0128711 (2 samples)
	minimum = 0.0115442 (2 samples)
	maximum = 0.0150906 (2 samples)
Injected flit rate average = 0.0385778 (2 samples)
	minimum = 0.0115442 (2 samples)
	maximum = 0.0749896 (2 samples)
Accepted flit rate average = 0.0385778 (2 samples)
	minimum = 0.0143613 (2 samples)
	maximum = 0.0585378 (2 samples)
Injected packet size average = 2.99724 (2 samples)
Accepted packet size average = 2.99724 (2 samples)
Hops average = 1 (2 samples)
