

        *** GPGPU-Sim Simulator Version 3.2.2  [build 0] ***


GPGPU-Sim PTX: simulation mode 0 (can change with PTX_SIM_MODE_FUNC environment variable:
               1=functional simulation only, 0=detailed performance simulator)
GPGPU-Sim: Configuration options:

-network_mode                           1 # Interconnection network mode
-inter_config_file   config_fermi_islip.icnt # Interconnection network config file
-gpgpu_ptx_use_cuobjdump                    1 # Use cuobjdump to extract ptx and sass from binaries
-gpgpu_experimental_lib_support                    0 # Try to extract code from cuda libraries [Broken because of unknown cudaGetExportTable]
-gpgpu_ptx_convert_to_ptxplus                    0 # Convert SASS (native ISA) to ptxplus and run ptxplus
-gpgpu_ptx_force_max_capability                   20 # Force maximum compute capability
-gpgpu_ptx_inst_debug_to_file                    0 # Dump executed instructions' debug information to file
-gpgpu_ptx_inst_debug_file       inst_debug.txt # Executed instructions' debug output file
-gpgpu_ptx_inst_debug_thread_uid                    1 # Thread UID for executed instructions' debug output
-gpgpu_simd_model                       1 # 1 = post-dominator
-gpgpu_shader_core_pipeline              1536:32 # shader core pipeline config, i.e., {<nthread>:<warpsize>}
-gpgpu_tex_cache:l1  4:128:24,L:R:m:N:L,F:128:4,128:2 # per-shader L1 texture cache  (READ-ONLY) config  {<nsets>:<bsize>:<assoc>,<rep>:<wr>:<alloc>:<wr_alloc>,<mshr>:<N>:<merge>,<mq>:<rf>}
-gpgpu_const_cache:l1 64:64:2,L:R:f:N:L,A:2:32,4 # per-shader L1 constant memory cache  (READ-ONLY) config  {<nsets>:<bsize>:<assoc>,<rep>:<wr>:<alloc>:<wr_alloc>,<mshr>:<N>:<merge>,<mq>} 
-gpgpu_cache:il1     4:128:4,L:R:f:N:L,A:2:32,4 # shader L1 instruction cache config  {<nsets>:<bsize>:<assoc>,<rep>:<wr>:<alloc>:<wr_alloc>,<mshr>:<N>:<merge>,<mq>} 
-gpgpu_cache:dl1     32:128:4,L:L:m:N:H,A:32:8,8:2,0,1:0:1:1:0:1,1:4:8:16:32:64,/sciclone/data10/hwang07/GPU_RESEARCH/swl/swl_outputs/RESULTS/swl8/ # per-shader L1 data cache config  {<nsets>:<bsize>:<assoc>,<rep>:<wr>:<alloc>:<wr_alloc>,<mshr>:<N>:<merge>,<mq> | none}
-gpgpu_cache:dl1PrefL1                 none # per-shader L1 data cache config  {<nsets>:<bsize>:<assoc>,<rep>:<wr>:<alloc>:<wr_alloc>,<mshr>:<N>:<merge>,<mq> | none}
-gpgpu_cache:dl1PreShared                 none # per-shader L1 data cache config  {<nsets>:<bsize>:<assoc>,<rep>:<wr>:<alloc>:<wr_alloc>,<mshr>:<N>:<merge>,<mq> | none}
-gmem_skip_L1D                          0 # global memory access skip L1D cache (implements -Xptxas -dlcm=cg, default=no skip)
-gpgpu_perfect_mem                      0 # enable perfect memory mode (no cache miss)
-n_regfile_gating_group                    4 # group of lanes that should be read/written together)
-gpgpu_clock_gated_reg_file                    0 # enable clock gated reg file for power calculations
-gpgpu_clock_gated_lanes                    0 # enable clock gated lanes for power calculations
-gpgpu_shader_registers                32768 # Number of registers per shader core. Limits number of concurrent CTAs. (default 8192)
-gpgpu_shader_cta                       8 # Maximum number of concurrent CTAs in shader (default 8)
-gpgpu_num_cta_barriers                   16 # Maximum number of named barriers per CTA (default 16)
-gpgpu_n_clusters                      15 # number of processing clusters
-gpgpu_n_cores_per_cluster                    1 # number of simd cores per cluster
-gpgpu_n_cluster_ejection_buffer_size                    8 # number of packets in ejection buffer
-gpgpu_n_ldst_response_buffer_size                    2 # number of response packets in ld/st unit ejection buffer
-gpgpu_shmem_size                   16384 # Size of shared memory per shader core (default 16kB)
-gpgpu_shmem_size                   49152 # Size of shared memory per shader core (default 16kB)
-gpgpu_shmem_size_PrefL1                16384 # Size of shared memory per shader core (default 16kB)
-gpgpu_shmem_size_PrefShared                16384 # Size of shared memory per shader core (default 16kB)
-gpgpu_shmem_num_banks                   32 # Number of banks in the shared memory in each shader core (default 16)
-gpgpu_shmem_limited_broadcast                    0 # Limit shared memory to do one broadcast per cycle (default on)
-gpgpu_shmem_warp_parts                    1 # Number of portions a warp is divided into for shared memory bank conflict check 
-gpgpu_warpdistro_shader                   -1 # Specify which shader core to collect the warp size distribution from
-gpgpu_warp_issue_shader                    0 # Specify which shader core to collect the warp issue distribution from
-gpgpu_local_mem_map                    1 # Mapping from local memory space address to simulated GPU physical address space (default = enabled)
-gpgpu_num_reg_banks                   16 # Number of register banks (default = 8)
-gpgpu_reg_bank_use_warp_id                    0 # Use warp ID in mapping registers to banks (default = off)
-gpgpu_operand_collector_num_units_sp                    6 # number of collector units (default = 4)
-gpgpu_operand_collector_num_units_sfu                    8 # number of collector units (default = 4)
-gpgpu_operand_collector_num_units_mem                    2 # number of collector units (default = 2)
-gpgpu_operand_collector_num_units_gen                    0 # number of collector units (default = 0)
-gpgpu_operand_collector_num_in_ports_sp                    2 # number of collector unit in ports (default = 1)
-gpgpu_operand_collector_num_in_ports_sfu                    1 # number of collector unit in ports (default = 1)
-gpgpu_operand_collector_num_in_ports_mem                    1 # number of collector unit in ports (default = 1)
-gpgpu_operand_collector_num_in_ports_gen                    0 # number of collector unit in ports (default = 0)
-gpgpu_operand_collector_num_out_ports_sp                    2 # number of collector unit in ports (default = 1)
-gpgpu_operand_collector_num_out_ports_sfu                    1 # number of collector unit in ports (default = 1)
-gpgpu_operand_collector_num_out_ports_mem                    1 # number of collector unit in ports (default = 1)
-gpgpu_operand_collector_num_out_ports_gen                    0 # number of collector unit in ports (default = 0)
-gpgpu_coalesce_arch                   13 # Coalescing arch (default = 13, anything else is off for now)
-gpgpu_num_sched_per_core                    2 # Number of warp schedulers per core
-gpgpu_max_insn_issue_per_warp                    1 # Max number of instructions that can be issued per warp in one cycle by scheduler
-gpgpu_simt_core_sim_order                    1 # Select the simulation order of cores in a cluster (0=Fix, 1=Round-Robin)
-gpgpu_pipeline_widths        2,1,1,2,1,1,2 # Pipeline widths ID_OC_SP,ID_OC_SFU,ID_OC_MEM,OC_EX_SP,OC_EX_SFU,OC_EX_MEM,EX_WB
-gpgpu_num_sp_units                     2 # Number of SP units (default=1)
-gpgpu_num_sfu_units                    1 # Number of SF units (default=1)
-gpgpu_num_mem_units                    1 # Number if ldst units (default=1) WARNING: not hooked up to anything
-gpgpu_scheduler        warp_limiting:2:8 # Scheduler configuration: < lrr | gto | two_level_active > If two_level_active:<num_active_warps>:<inner_prioritization>:<outer_prioritization>For complete list of prioritization values see shader.h enum scheduler_prioritization_typeDefault: gto
-gpgpu_dram_scheduler                    1 # 0 = fifo, 1 = FR-FCFS (defaul)
-gpgpu_dram_partition_queues              8:8:8:8 # i2$:$2d:d2$:$2i
-l2_ideal                               0 # Use a ideal L2 cache that always hit
-gpgpu_cache:dl2     64:128:8,L:B:m:W:L,A:32:4,4:0,32 # unified banked L2 data cache config  {<nsets>:<bsize>:<assoc>,<rep>:<wr>:<alloc>:<wr_alloc>,<mshr>:<N>:<merge>,<mq>}
-gpgpu_cache:dl2_texture_only                    0 # L2 cache used for texture only
-gpgpu_n_mem                            6 # number of memory modules (e.g. memory controllers) in gpu
-gpgpu_n_sub_partition_per_mchannel                    2 # number of memory subpartition in each memory module
-gpgpu_n_mem_per_ctrlr                    2 # number of memory chips per memory controller
-gpgpu_memlatency_stat                   14 # track and display latency statistics 0x2 enables MC, 0x4 enables queue logs
-gpgpu_frfcfs_dram_sched_queue_size                   16 # 0 = unlimited (default); # entries per chip
-gpgpu_dram_return_queue_size                  116 # 0 = unlimited (default); # entries per chip
-gpgpu_dram_buswidth                    4 # default = 4 bytes (8 bytes per cycle at DDR)
-gpgpu_dram_burst_length                    8 # Burst length of each DRAM request (default = 4 data bus cycle)
-dram_data_command_freq_ratio                    4 # Frequency ratio between DRAM data bus and command bus (default = 2 times, i.e. DDR)
-gpgpu_dram_timing_opt nbk=16:CCD=2:RRD=6:RCD=12:RAS=28:RP=12:RC=40: CL=12:WL=4:CDLR=5:WR=12:nbkgrp=4:CCDL=3:RTPL=2 # DRAM timing parameters = {nbk:tCCD:tRRD:tRCD:tRAS:tRP:tRC:CL:WL:tCDLR:tWR:nbkgrp:tCCDL:tRTPL}
-rop_latency                          120 # ROP queue latency (default 85)
-dram_latency                         100 # DRAM latency (default 30)
-gpgpu_mem_addr_mapping dramid@8;00000000.00000000.00000000.00000000.0000RRRR.RRRRRRRR.BBBCCCCB.CCSSSSSS # mapping memory address to dram model {dramid@<start bit>;<memory address map>}
-gpgpu_mem_addr_test                    0 # run sweep test to check address mapping for aliased address
-gpgpu_mem_address_mask                    1 # 0 = old addressing mask, 1 = new addressing mask, 2 = new add. mask + flipped bank sel and chip sel bits
-gpuwattch_xml_file  gpuwattch_gtx480.xml # GPUWattch XML file
-power_simulation_enabled                    0 # Turn on power simulator (1=On, 0=Off)
-power_per_cycle_dump                    0 # Dump detailed power output each cycle
-power_trace_enabled                    0 # produce a file for the power trace (1=On, 0=Off)
-power_trace_zlevel                     6 # Compression level of the power trace output log (0=no comp, 9=highest)
-steady_power_levels_enabled                    0 # produce a file for the steady power levels (1=On, 0=Off)
-steady_state_definition                  8:4 # allowed deviation:number of samples
-gpgpu_max_cycle                        0 # terminates gpu simulation early (0 = no limit)
-gpgpu_max_insn                         0 # terminates gpu simulation early (0 = no limit)
-gpgpu_max_cta                          0 # terminates gpu simulation early (0 = no limit)
-gpgpu_runtime_stat                   500 # display runtime statistics such as dram utilization {<freq>:<flag>}
-liveness_message_freq                    1 # Minimum number of seconds between simulation liveness messages (0 = always print)
-gpgpu_flush_l1_cache                    0 # Flush L1 cache at the end of each kernel call
-gpgpu_flush_l2_cache                    0 # Flush L2 cache at the end of each kernel call
-gpgpu_deadlock_detect                    1 # Stop the simulation at deadlock (1=on (default), 0=off)
-gpgpu_ptx_instruction_classification                    0 # if enabled will classify ptx instruction types per kernel (Max 255 kernels now)
-gpgpu_ptx_sim_mode                     0 # Select between Performance (default) or Functional simulation (1)
-gpgpu_clock_domains 700.0:700.0:700.0:924.0 # Clock Domain Frequencies in MhZ {<Core Clock>:<ICNT Clock>:<L2 Clock>:<DRAM Clock>}
-gpgpu_max_concurrent_kernel                    8 # maximum kernels that can run concurrently on GPU
-gpgpu_cflog_interval                    0 # Interval between each snapshot in control flow logger
-visualizer_enabled                     0 # Turn on visualizer output (1=On, 0=Off)
-visualizer_outputfile                 NULL # Specifies the output log file for visualizer
-visualizer_zlevel                      6 # Compression level of the visualizer output log (0=no comp, 9=highest)
-trace_enabled                          0 # Turn on traces
-trace_components                    none # comma seperated list of traces to enable. Complete list found in trace_streams.tup. Default none
-trace_sampling_core                    0 # The core which is printed using CORE_DPRINTF. Default 0
-trace_sampling_memory_partition                   -1 # The memory partition which is printed using MEMPART_DPRINTF. Default -1 (i.e. all)
-enable_ptx_file_line_stats                    1 # Turn on PTX source line statistic profiling. (1 = On)
-ptx_line_stats_filename gpgpu_inst_stats.txt # Output file for PTX source line statistics.
-save_embedded_ptx                      0 # saves ptx files embedded in binary as <n>.ptx
-keep                                   0 # keep intermediate files created by GPGPU-Sim when interfacing with external programs
-gpgpu_ptx_save_converted_ptxplus                    0 # Saved converted ptxplus to a file
-ptx_opcode_latency_int         4,13,4,5,145 # Opcode latencies for integers <ADD,MAX,MUL,MAD,DIV>Default 1,1,19,25,145
-ptx_opcode_latency_fp          4,13,4,5,39 # Opcode latencies for single precision floating points <ADD,MAX,MUL,MAD,DIV>Default 1,1,1,1,30
-ptx_opcode_latency_dp         8,19,8,8,330 # Opcode latencies for double precision floating points <ADD,MAX,MUL,MAD,DIV>Default 8,8,8,8,335
-ptx_opcode_initiation_int            1,2,2,1,8 # Opcode initiation intervals for integers <ADD,MAX,MUL,MAD,DIV>Default 1,1,4,4,32
-ptx_opcode_initiation_fp            1,2,1,1,4 # Opcode initiation intervals for single precision floating points <ADD,MAX,MUL,MAD,DIV>Default 1,1,1,1,5
-ptx_opcode_initiation_dp         8,16,8,8,130 # Opcode initiation intervals for double precision floating points <ADD,MAX,MUL,MAD,DIV>Default 8,8,8,8,130
DRAM Timing Options:
nbk                                    16 # number of banks
CCD                                     2 # column to column delay
RRD                                     6 # minimal delay between activation of rows in different banks
RCD                                    12 # row to column delay
RAS                                    28 # time needed to activate row
RP                                     12 # time needed to precharge (deactivate) row
RC                                     40 # row cycle time
CDLR                                    5 # switching from write to read (changes tWTR)
WR                                     12 # last data-in to row precharge
CL                                     12 # CAS latency
WL                                      4 # Write latency
nbkgrp                                  4 # number of bank groups
CCDL                                    3 # column to column delay between accesses to different bank groups
RTPL                                    2 # read to precharge delay between accesses to different bank groups
Total number of memory sub partition = 12
addr_dec_mask[CHIP]  = 0000000000000000 	high:64 low:0
addr_dec_mask[BK]    = 000000000000e100 	high:16 low:8
addr_dec_mask[ROW]   = 000000000fff0000 	high:28 low:16
addr_dec_mask[COL]   = 0000000000001eff 	high:13 low:0
addr_dec_mask[BURST] = 000000000000003f 	high:6 low:0
sub_partition_id_mask = 0000000000000100
GPGPU-Sim uArch: clock freqs: 700000000.000000:700000000.000000:700000000.000000:924000000.000000
GPGPU-Sim uArch: clock periods: 0.00000000142857142857:0.00000000142857142857:0.00000000142857142857:0.00000000108225108225
*** Initializing Memory Statistics ***
GPGPU-Sim uArch: interconnect node map (shaderID+MemID to icntID)
GPGPU-Sim uArch: Memory nodes ID start from index: 15
GPGPU-Sim uArch:    0   1   2   3   4
GPGPU-Sim uArch:    5   6   7   8   9
GPGPU-Sim uArch:   10  11  12  13  14
GPGPU-Sim uArch:   15  16  17  18  19
GPGPU-Sim uArch:   20  21  22  23  24
GPGPU-Sim uArch:   25  26
GPGPU-Sim uArch: interconnect node reverse map (icntID to shaderID+MemID)
GPGPU-Sim uArch: Memory nodes start from ID: 15
GPGPU-Sim uArch:    0   1   2   3   4
GPGPU-Sim uArch:    5   6   7   8   9
GPGPU-Sim uArch:   10  11  12  13  14
GPGPU-Sim uArch:   15  16  17  18  19
GPGPU-Sim uArch:   20  21  22  23  24
GPGPU-Sim uArch:   25  26
a694f6f961931330989587dbd586e872  /sciclone/data10/hwang07/adwait/applications/benchmarks/CUDA/KMN/gpgpu_ptx_sim__KMN
GPGPU-Sim uArch: performance model initialization complete.
GPGPU-Sim PTX: __cudaRegisterFatBinary, fat_cubin_handle = 1, filename=kmeans_cuda.cu
self exe links to: /sciclone/data10/hwang07/adwait/applications/benchmarks/CUDA/KMN/gpgpu_ptx_sim__KMN
Running md5sum using "md5sum /sciclone/data10/hwang07/adwait/applications/benchmarks/CUDA/KMN/gpgpu_ptx_sim__KMN "
Parsing file _cuobjdump_complete_output_SVkWaI
######### cuobjdump parser ########
## Adding new section ELF
Adding arch: sm_20
Adding identifier: kmeans_cuda.cu
## Adding new section PTX
Adding ptx filename: _cuobjdump_1.ptx
Adding arch: sm_20
Adding identifier: kmeans_cuda.cu
Done parsing!!!
GPGPU-Sim PTX: __cudaRegisterFunction _Z11kmeansPointPfiiiPiS_S_S0_ : hostFun 0x0x402a5e, fat_cubin_handle = 1
GPGPU-Sim PTX: instruction assembly for function '_Z14invert_mappingPfS_ii'...   done.
GPGPU-Sim PTX: finding reconvergence points for '_Z14invert_mappingPfS_ii'...
GPGPU-Sim PTX: Finding dominators for '_Z14invert_mappingPfS_ii'...
GPGPU-Sim PTX: Finding immediate dominators for '_Z14invert_mappingPfS_ii'...
GPGPU-Sim PTX: Finding postdominators for '_Z14invert_mappingPfS_ii'...
GPGPU-Sim PTX: Finding immediate postdominators for '_Z14invert_mappingPfS_ii'...
GPGPU-Sim PTX: pre-decoding instructions for '_Z14invert_mappingPfS_ii'...
GPGPU-Sim PTX: reconvergence points for _Z14invert_mappingPfS_ii...
GPGPU-Sim PTX:  1 (potential) branch divergence @  PC=0x038 (_1.ptx:70) @%p1 bra $Lt_0_2050;
GPGPU-Sim PTX:    immediate post dominator      @  PC=0x110 (_1.ptx:103) exit;
GPGPU-Sim PTX:  2 (potential) branch divergence @  PC=0x058 (_1.ptx:74) @%p2 bra $Lt_0_2562;
GPGPU-Sim PTX:    immediate post dominator      @  PC=0x110 (_1.ptx:103) exit;
GPGPU-Sim PTX:  3 (potential) branch divergence @  PC=0x108 (_1.ptx:99) @%p3 bra $Lt_0_3074;
GPGPU-Sim PTX:    immediate post dominator      @  PC=0x110 (_1.ptx:103) exit;
GPGPU-Sim PTX: ... end of reconvergence points for _Z14invert_mappingPfS_ii
GPGPU-Sim PTX: ... done pre-decoding instructions for '_Z14invert_mappingPfS_ii'.
GPGPU-Sim PTX: instruction assembly for function '_Z11kmeansPointPfiiiPiS_S_S0_'...   done.
GPGPU-Sim PTX: finding reconvergence points for '_Z11kmeansPointPfiiiPiS_S_S0_'...
GPGPU-Sim PTX: Finding dominators for '_Z11kmeansPointPfiiiPiS_S_S0_'...
GPGPU-Sim PTX: Finding immediate dominators for '_Z11kmeansPointPfiiiPiS_S_S0_'...
GPGPU-Sim PTX: Finding postdominators for '_Z11kmeansPointPfiiiPiS_S_S0_'...
GPGPU-Sim PTX: Finding immediate postdominators for '_Z11kmeansPointPfiiiPiS_S_S0_'...
GPGPU-Sim PTX: pre-decoding instructions for '_Z11kmeansPointPfiiiPiS_S_S0_'...
GPGPU-Sim PTX: reconvergence points for _Z11kmeansPointPfiiiPiS_S_S0_...
GPGPU-Sim PTX:  1 (potential) branch divergence @  PC=0x180 (_1.ptx:136) @!%p1 bra $Lt_1_4866;
GPGPU-Sim PTX:    immediate post dominator      @  PC=0x320 (_1.ptx:202) @!%p1 bra $Lt_1_7682;
GPGPU-Sim PTX:  2 (potential) branch divergence @  PC=0x1a0 (_1.ptx:140) @%p2 bra $Lt_1_8194;
GPGPU-Sim PTX:    immediate post dominator      @  PC=0x320 (_1.ptx:202) @!%p1 bra $Lt_1_7682;
GPGPU-Sim PTX:  3 (potential) branch divergence @  PC=0x1e8 (_1.ptx:151) @!%p3 bra $Lt_1_8450;
GPGPU-Sim PTX:    immediate post dominator      @  PC=0x2c8 (_1.ptx:185) setp.lt.f32 %p5, %f2, %f1;
GPGPU-Sim PTX:  4 (potential) branch divergence @  PC=0x2b0 (_1.ptx:180) @%p4 bra $Lt_1_6402;
GPGPU-Sim PTX:    immediate post dominator      @  PC=0x2b8 (_1.ptx:181) bra.uni $Lt_1_5890;
GPGPU-Sim PTX:  5 (potential) branch divergence @  PC=0x2b8 (_1.ptx:181) bra.uni $Lt_1_5890;
GPGPU-Sim PTX:    immediate post dominator      @  PC=0x2c8 (_1.ptx:185) setp.lt.f32 %p5, %f2, %f1;
GPGPU-Sim PTX:  6 (potential) branch divergence @  PC=0x2d0 (_1.ptx:186) @!%p5 bra $Lt_1_6914;
GPGPU-Sim PTX:    immediate post dominator      @  PC=0x2e8 (_1.ptx:192) add.s32 %r18, %r18, 1;
GPGPU-Sim PTX:  7 (potential) branch divergence @  PC=0x2f8 (_1.ptx:194) @%p6 bra $Lt_1_5634;
GPGPU-Sim PTX:    immediate post dominator      @  PC=0x300 (_1.ptx:195) bra.uni $Lt_1_4610;
GPGPU-Sim PTX:  8 (potential) branch divergence @  PC=0x300 (_1.ptx:195) bra.uni $Lt_1_4610;
GPGPU-Sim PTX:    immediate post dominator      @  PC=0x320 (_1.ptx:202) @!%p1 bra $Lt_1_7682;
GPGPU-Sim PTX:  9 (potential) branch divergence @  PC=0x310 (_1.ptx:198) bra.uni $Lt_1_4610;
GPGPU-Sim PTX:    immediate post dominator      @  PC=0x320 (_1.ptx:202) @!%p1 bra $Lt_1_7682;
GPGPU-Sim PTX: 10 (potential) branch divergence @  PC=0x320 (_1.ptx:202) @!%p1 bra $Lt_1_7682;
GPGPU-Sim PTX:    immediate post dominator      @  PC=0x350 (_1.ptx:211) exit;
GPGPU-Sim PTX: ... end of reconvergence points for _Z11kmeansPointPfiiiPiS_S_S0_
GPGPU-Sim PTX: ... done pre-decoding instructions for '_Z11kmeansPointPfiiiPiS_S_S0_'.
GPGPU-Sim PTX: allocating global region for "t_features" from 0x100 to 0x104 (global memory space)
GPGPU-Sim PTX: allocating global region for "t_features_flipped" from 0x104 to 0x108 (global memory space)
GPGPU-Sim PTX: allocating global region for "t_clusters" from 0x108 to 0x10c (global memory space)
GPGPU-Sim PTX: finished parsing EMBEDDED .ptx file _1.ptx
Adding _cuobjdump_1.ptx with cubin handle 1
GPGPU-Sim PTX: extracting embedded .ptx to temporary file "_ptx_4JDxnK"
Running: cat _ptx_4JDxnK | sed 's/.version 1.5/.version 1.4/' | sed 's/, texmode_independent//' | sed 's/\(\.extern \.const\[1\] .b8 \w\+\)\[\]/\1\[1\]/' | sed 's/const\[.\]/const\[0\]/g' > _ptx2_8qDIJO
GPGPU-Sim PTX: generating ptxinfo using "$CUDA_INSTALL_PATH/bin/ptxas --gpu-name=sm_20 -v _ptx2_8qDIJO --output-file  /dev/null 2> _ptx_4JDxnKinfo"
GPGPU-Sim PTX: Kernel '_Z11kmeansPointPfiiiPiS_S_S0_' : regs=15, lmem=0, smem=0, cmem=88
GPGPU-Sim PTX: Kernel '_Z14invert_mappingPfS_ii' : regs=10, lmem=0, smem=0, cmem=56
GPGPU-Sim PTX: removing ptxinfo using "rm -f _ptx_4JDxnK _ptx2_8qDIJO _ptx_4JDxnKinfo"
GPGPU-Sim PTX: loading globals with explicit initializers... 
GPGPU-Sim PTX: finished loading globals (0 bytes total).
GPGPU-Sim PTX: loading constants with explicit initializers...  done.
GPGPU-Sim PTX: __cudaRegisterFunction _Z14invert_mappingPfS_ii : hostFun 0x0x4028ce, fat_cubin_handle = 1
GPGPU-Sim PTX: in __cudaRegisterTexture:
GPGPU-Sim PTX:   int dim = 1
GPGPU-Sim PTX:   int norm = 0
GPGPU-Sim PTX:   int ext = 0
GPGPU-Sim PTX:   Execution warning: Not finished implementing "void __cudaRegisterTexture(void**, const textureReference*, const void**, const char*, int, int, int)"
GPGPU-Sim PTX: in __cudaRegisterTexture:
GPGPU-Sim PTX:   int dim = 1
GPGPU-Sim PTX:   int norm = 0
GPGPU-Sim PTX:   int ext = 0
GPGPU-Sim PTX:   Execution warning: Not finished implementing "void __cudaRegisterTexture(void**, const textureReference*, const void**, const char*, int, int, int)"
GPGPU-Sim PTX: in __cudaRegisterTexture:
GPGPU-Sim PTX:   int dim = 1
GPGPU-Sim PTX:   int norm = 0
GPGPU-Sim PTX:   int ext = 0
GPGPU-Sim PTX:   Execution warning: Not finished implementing "void __cudaRegisterTexture(void**, const textureReference*, const void**, const char*, int, int, int)"

I/O completed

Number of objects: 28672
Number of features: 138

GPGPU-Sim PTX: cudaLaunch for 0x0x402a5e (mode=performance simulation) on stream 0
GPGPU-Sim PTX: pushing kernel '_Z11kmeansPointPfiiiPiS_S_S0_' to stream 0, gridDim= (11,11,1) blockDim = (256,1,1) 
kernel '_Z11kmeansPointPfiiiPiS_S_S0_' transfer to GPU hardware scheduler
GPGPU-Sim uArch: Shader 1 bind to kernel 1 '_Z11kmeansPointPfiiiPiS_S_S0_'
GPGPU-Sim uArch: CTA/core = 6, limited by: threads
GPGPU-Sim uArch: core:  1, cta: 0 initialized @(1,0)
GPGPU-Sim uArch: Shader 2 bind to kernel 1 '_Z11kmeansPointPfiiiPiS_S_S0_'
GPGPU-Sim uArch: core:  2, cta: 0 initialized @(1,0)
GPGPU-Sim uArch: Shader 3 bind to kernel 1 '_Z11kmeansPointPfiiiPiS_S_S0_'
GPGPU-Sim uArch: core:  3, cta: 0 initialized @(1,0)
GPGPU-Sim uArch: Shader 4 bind to kernel 1 '_Z11kmeansPointPfiiiPiS_S_S0_'
GPGPU-Sim uArch: core:  4, cta: 0 initialized @(1,0)
GPGPU-Sim uArch: Shader 5 bind to kernel 1 '_Z11kmeansPointPfiiiPiS_S_S0_'
GPGPU-Sim uArch: core:  5, cta: 0 initialized @(1,0)
GPGPU-Sim uArch: Shader 6 bind to kernel 1 '_Z11kmeansPointPfiiiPiS_S_S0_'
GPGPU-Sim uArch: core:  6, cta: 0 initialized @(1,0)
GPGPU-Sim uArch: Shader 7 bind to kernel 1 '_Z11kmeansPointPfiiiPiS_S_S0_'
GPGPU-Sim uArch: core:  7, cta: 0 initialized @(1,0)
GPGPU-Sim uArch: Shader 8 bind to kernel 1 '_Z11kmeansPointPfiiiPiS_S_S0_'
GPGPU-Sim uArch: core:  8, cta: 0 initialized @(1,0)
GPGPU-Sim uArch: Shader 9 bind to kernel 1 '_Z11kmeansPointPfiiiPiS_S_S0_'
GPGPU-Sim uArch: core:  9, cta: 0 initialized @(1,0)
GPGPU-Sim uArch: Shader 10 bind to kernel 1 '_Z11kmeansPointPfiiiPiS_S_S0_'
GPGPU-Sim uArch: core: 10, cta: 0 initialized @(1,0)
GPGPU-Sim uArch: Shader 11 bind to kernel 1 '_Z11kmeansPointPfiiiPiS_S_S0_'
GPGPU-Sim uArch: core: 11, cta: 0 initialized @(1,0)
GPGPU-Sim uArch: Shader 12 bind to kernel 1 '_Z11kmeansPointPfiiiPiS_S_S0_'
GPGPU-Sim uArch: core: 12, cta: 0 initialized @(1,0)
GPGPU-Sim uArch: Shader 13 bind to kernel 1 '_Z11kmeansPointPfiiiPiS_S_S0_'
GPGPU-Sim uArch: core: 13, cta: 0 initialized @(1,0)
GPGPU-Sim uArch: Shader 14 bind to kernel 1 '_Z11kmeansPointPfiiiPiS_S_S0_'
GPGPU-Sim uArch: core: 14, cta: 0 initialized @(1,0)
GPGPU-Sim uArch: Shader 0 bind to kernel 1 '_Z11kmeansPointPfiiiPiS_S_S0_'
GPGPU-Sim uArch: core:  0, cta: 0 initialized @(1,0)
GPGPU-Sim uArch: core:  1, cta: 1 initialized @(2,0)
GPGPU-Sim uArch: core:  2, cta: 1 initialized @(2,0)
GPGPU-Sim uArch: core:  3, cta: 1 initialized @(2,0)
GPGPU-Sim uArch: core:  4, cta: 1 initialized @(2,0)
GPGPU-Sim uArch: core:  5, cta: 1 initialized @(2,0)
GPGPU-Sim uArch: core:  6, cta: 1 initialized @(2,0)
GPGPU-Sim uArch: core:  7, cta: 1 initialized @(2,0)
GPGPU-Sim uArch: core:  8, cta: 1 initialized @(2,0)
GPGPU-Sim uArch: core:  9, cta: 1 initialized @(2,0)
GPGPU-Sim uArch: core: 10, cta: 1 initialized @(2,0)
GPGPU-Sim uArch: core: 11, cta: 1 initialized @(2,0)
GPGPU-Sim uArch: core: 12, cta: 1 initialized @(2,0)
GPGPU-Sim uArch: core: 13, cta: 1 initialized @(2,0)
GPGPU-Sim uArch: core: 14, cta: 1 initialized @(2,0)
GPGPU-Sim uArch: core:  0, cta: 1 initialized @(2,0)
GPGPU-Sim uArch: core:  1, cta: 2 initialized @(3,0)
GPGPU-Sim uArch: core:  2, cta: 2 initialized @(3,0)
GPGPU-Sim uArch: core:  3, cta: 2 initialized @(3,0)
GPGPU-Sim uArch: core:  4, cta: 2 initialized @(3,0)
GPGPU-Sim uArch: core:  5, cta: 2 initialized @(3,0)
GPGPU-Sim uArch: core:  6, cta: 2 initialized @(3,0)
GPGPU-Sim uArch: core:  7, cta: 2 initialized @(3,0)
GPGPU-Sim uArch: core:  8, cta: 2 initialized @(3,0)
GPGPU-Sim uArch: core:  9, cta: 2 initialized @(3,0)
GPGPU-Sim uArch: core: 10, cta: 2 initialized @(3,0)
GPGPU-Sim uArch: core: 11, cta: 2 initialized @(3,0)
GPGPU-Sim uArch: core: 12, cta: 2 initialized @(3,0)
GPGPU-Sim uArch: core: 13, cta: 2 initialized @(3,0)
GPGPU-Sim uArch: core: 14, cta: 2 initialized @(3,0)
GPGPU-Sim uArch: core:  0, cta: 2 initialized @(3,0)
GPGPU-Sim uArch: core:  1, cta: 3 initialized @(4,0)
GPGPU-Sim uArch: core:  2, cta: 3 initialized @(4,0)
GPGPU-Sim uArch: core:  3, cta: 3 initialized @(4,0)
GPGPU-Sim uArch: core:  4, cta: 3 initialized @(4,0)
GPGPU-Sim uArch: core:  5, cta: 3 initialized @(4,0)
GPGPU-Sim uArch: core:  6, cta: 3 initialized @(4,0)
GPGPU-Sim uArch: core:  7, cta: 3 initialized @(4,0)
GPGPU-Sim uArch: core:  8, cta: 3 initialized @(4,0)
GPGPU-Sim uArch: core:  9, cta: 3 initialized @(4,0)
GPGPU-Sim uArch: core: 10, cta: 3 initialized @(4,0)
GPGPU-Sim uArch: core: 11, cta: 3 initialized @(4,0)
GPGPU-Sim uArch: core: 12, cta: 3 initialized @(4,0)
GPGPU-Sim uArch: core: 13, cta: 3 initialized @(4,0)
GPGPU-Sim uArch: core: 14, cta: 3 initialized @(4,0)
GPGPU-Sim uArch: core:  0, cta: 3 initialized @(4,0)
GPGPU-Sim uArch: core:  1, cta: 4 initialized @(5,0)
GPGPU-Sim uArch: core:  2, cta: 4 initialized @(5,0)
GPGPU-Sim uArch: core:  3, cta: 4 initialized @(5,0)
GPGPU-Sim uArch: core:  4, cta: 4 initialized @(5,0)
GPGPU-Sim uArch: core:  5, cta: 4 initialized @(5,0)
GPGPU-Sim uArch: core:  6, cta: 4 initialized @(5,0)
GPGPU-Sim uArch: core:  7, cta: 4 initialized @(5,0)
GPGPU-Sim uArch: core:  8, cta: 4 initialized @(5,0)
GPGPU-Sim uArch: core:  9, cta: 4 initialized @(5,0)
GPGPU-Sim uArch: core: 10, cta: 4 initialized @(5,0)
GPGPU-Sim uArch: core: 11, cta: 4 initialized @(5,0)
GPGPU-Sim uArch: core: 12, cta: 4 initialized @(5,0)
GPGPU-Sim uArch: core: 13, cta: 4 initialized @(5,0)
GPGPU-Sim uArch: core: 14, cta: 4 initialized @(5,0)
GPGPU-Sim uArch: core:  0, cta: 4 initialized @(5,0)
GPGPU-Sim uArch: core:  1, cta: 5 initialized @(6,0)
GPGPU-Sim uArch: core:  2, cta: 5 initialized @(6,0)
GPGPU-Sim uArch: core:  3, cta: 5 initialized @(6,0)
GPGPU-Sim uArch: core:  4, cta: 5 initialized @(6,0)
GPGPU-Sim uArch: core:  5, cta: 5 initialized @(6,0)
GPGPU-Sim uArch: core:  6, cta: 5 initialized @(6,0)
GPGPU-Sim uArch: core:  7, cta: 5 initialized @(6,0)
GPGPU-Sim uArch: core:  8, cta: 5 initialized @(6,0)
GPGPU-Sim uArch: core:  9, cta: 5 initialized @(6,0)
GPGPU-Sim uArch: core: 10, cta: 5 initialized @(6,0)
GPGPU-Sim uArch: core: 11, cta: 5 initialized @(6,0)
GPGPU-Sim uArch: core: 12, cta: 5 initialized @(6,0)
GPGPU-Sim uArch: core: 13, cta: 5 initialized @(6,0)
GPGPU-Sim uArch: core: 14, cta: 5 initialized @(6,0)
GPGPU-Sim uArch: core:  0, cta: 5 initialized @(6,0)
GPGPU-Sim uArch: cycles simulated: 500  inst.: 83552 (ipc=167.1) sim_rate=11936 (inst/sec) elapsed = 0:0:00:07 / Tue Mar 22 12:49:11 2016
GPGPU-Sim PTX: 100000 instructions simulated : ctaid=(10,1,0) tid=(95,0,0)
GPGPU-Sim PTX: 200000 instructions simulated : ctaid=(2,2,0) tid=(31,0,0)
GPGPU-Sim PTX: 300000 instructions simulated : ctaid=(6,2,0) tid=(127,0,0)
GPGPU-Sim uArch: cycles simulated: 1500  inst.: 297824 (ipc=198.5) sim_rate=29782 (inst/sec) elapsed = 0:0:00:10 / Tue Mar 22 12:49:14 2016
GPGPU-Sim uArch: cycles simulated: 2500  inst.: 299040 (ipc=119.6) sim_rate=27185 (inst/sec) elapsed = 0:0:00:11 / Tue Mar 22 12:49:15 2016
GPGPU-Sim uArch: cycles simulated: 4000  inst.: 319840 (ipc=80.0) sim_rate=26653 (inst/sec) elapsed = 0:0:00:12 / Tue Mar 22 12:49:16 2016
GPGPU-Sim uArch: cycles simulated: 5500  inst.: 333600 (ipc=60.7) sim_rate=25661 (inst/sec) elapsed = 0:0:00:13 / Tue Mar 22 12:49:17 2016
GPGPU-Sim uArch: cycles simulated: 7000  inst.: 338400 (ipc=48.3) sim_rate=24171 (inst/sec) elapsed = 0:0:00:14 / Tue Mar 22 12:49:18 2016
GPGPU-Sim PTX: 400000 instructions simulated : ctaid=(3,2,0) tid=(31,0,0)
GPGPU-Sim uArch: cycles simulated: 8500  inst.: 379008 (ipc=44.6) sim_rate=25267 (inst/sec) elapsed = 0:0:00:15 / Tue Mar 22 12:49:19 2016
GPGPU-Sim uArch: cycles simulated: 10000  inst.: 387840 (ipc=38.8) sim_rate=24240 (inst/sec) elapsed = 0:0:00:16 / Tue Mar 22 12:49:20 2016
GPGPU-Sim uArch: cycles simulated: 11000  inst.: 401888 (ipc=36.5) sim_rate=23640 (inst/sec) elapsed = 0:0:00:17 / Tue Mar 22 12:49:21 2016
GPGPU-Sim uArch: cycles simulated: 12500  inst.: 425536 (ipc=34.0) sim_rate=23640 (inst/sec) elapsed = 0:0:00:18 / Tue Mar 22 12:49:22 2016
GPGPU-Sim uArch: cycles simulated: 14000  inst.: 445856 (ipc=31.8) sim_rate=23466 (inst/sec) elapsed = 0:0:00:19 / Tue Mar 22 12:49:23 2016
GPGPU-Sim PTX: 500000 instructions simulated : ctaid=(4,1,0) tid=(95,0,0)
GPGPU-Sim uArch: cycles simulated: 15500  inst.: 476224 (ipc=30.7) sim_rate=23811 (inst/sec) elapsed = 0:0:00:20 / Tue Mar 22 12:49:24 2016
GPGPU-Sim uArch: cycles simulated: 16500  inst.: 496416 (ipc=30.1) sim_rate=23638 (inst/sec) elapsed = 0:0:00:21 / Tue Mar 22 12:49:25 2016
GPGPU-Sim uArch: cycles simulated: 18000  inst.: 517440 (ipc=28.7) sim_rate=23520 (inst/sec) elapsed = 0:0:00:22 / Tue Mar 22 12:49:26 2016
GPGPU-Sim uArch: cycles simulated: 20000  inst.: 551744 (ipc=27.6) sim_rate=23988 (inst/sec) elapsed = 0:0:00:23 / Tue Mar 22 12:49:27 2016
GPGPU-Sim PTX: 600000 instructions simulated : ctaid=(6,0,0) tid=(95,0,0)
GPGPU-Sim uArch: cycles simulated: 21500  inst.: 576512 (ipc=26.8) sim_rate=24021 (inst/sec) elapsed = 0:0:00:24 / Tue Mar 22 12:49:28 2016
GPGPU-Sim uArch: cycles simulated: 23500  inst.: 607712 (ipc=25.9) sim_rate=24308 (inst/sec) elapsed = 0:0:00:25 / Tue Mar 22 12:49:29 2016
GPGPU-Sim uArch: cycles simulated: 25000  inst.: 635040 (ipc=25.4) sim_rate=24424 (inst/sec) elapsed = 0:0:00:26 / Tue Mar 22 12:49:30 2016
GPGPU-Sim uArch: cycles simulated: 27000  inst.: 667936 (ipc=24.7) sim_rate=24738 (inst/sec) elapsed = 0:0:00:27 / Tue Mar 22 12:49:31 2016
GPGPU-Sim PTX: 700000 instructions simulated : ctaid=(4,0,0) tid=(223,0,0)
GPGPU-Sim uArch: cycles simulated: 28500  inst.: 693472 (ipc=24.3) sim_rate=24766 (inst/sec) elapsed = 0:0:00:28 / Tue Mar 22 12:49:32 2016
GPGPU-Sim uArch: cycles simulated: 30500  inst.: 729344 (ipc=23.9) sim_rate=25149 (inst/sec) elapsed = 0:0:00:29 / Tue Mar 22 12:49:33 2016
GPGPU-Sim uArch: cycles simulated: 32000  inst.: 755200 (ipc=23.6) sim_rate=25173 (inst/sec) elapsed = 0:0:00:30 / Tue Mar 22 12:49:34 2016
GPGPU-Sim PTX: 800000 instructions simulated : ctaid=(0,2,0) tid=(31,0,0)
GPGPU-Sim uArch: cycles simulated: 33500  inst.: 785312 (ipc=23.4) sim_rate=25332 (inst/sec) elapsed = 0:0:00:31 / Tue Mar 22 12:49:35 2016
GPGPU-Sim uArch: cycles simulated: 35000  inst.: 809824 (ipc=23.1) sim_rate=25307 (inst/sec) elapsed = 0:0:00:32 / Tue Mar 22 12:49:36 2016
GPGPU-Sim uArch: cycles simulated: 36500  inst.: 838752 (ipc=23.0) sim_rate=25416 (inst/sec) elapsed = 0:0:00:33 / Tue Mar 22 12:49:37 2016
GPGPU-Sim uArch: cycles simulated: 38000  inst.: 865184 (ipc=22.8) sim_rate=25446 (inst/sec) elapsed = 0:0:00:34 / Tue Mar 22 12:49:38 2016
GPGPU-Sim PTX: 900000 instructions simulated : ctaid=(2,1,0) tid=(159,0,0)
GPGPU-Sim uArch: cycles simulated: 40000  inst.: 901440 (ipc=22.5) sim_rate=25755 (inst/sec) elapsed = 0:0:00:35 / Tue Mar 22 12:49:39 2016
GPGPU-Sim uArch: cycles simulated: 41500  inst.: 924928 (ipc=22.3) sim_rate=25692 (inst/sec) elapsed = 0:0:00:36 / Tue Mar 22 12:49:40 2016
GPGPU-Sim uArch: cycles simulated: 43000  inst.: 954912 (ipc=22.2) sim_rate=25808 (inst/sec) elapsed = 0:0:00:37 / Tue Mar 22 12:49:41 2016
GPGPU-Sim PTX: 1000000 instructions simulated : ctaid=(5,1,0) tid=(95,0,0)
GPGPU-Sim uArch: cycles simulated: 44500  inst.: 979104 (ipc=22.0) sim_rate=25765 (inst/sec) elapsed = 0:0:00:38 / Tue Mar 22 12:49:42 2016
GPGPU-Sim uArch: cycles simulated: 46000  inst.: 1007808 (ipc=21.9) sim_rate=25841 (inst/sec) elapsed = 0:0:00:39 / Tue Mar 22 12:49:43 2016
GPGPU-Sim uArch: cycles simulated: 48000  inst.: 1040032 (ipc=21.7) sim_rate=26000 (inst/sec) elapsed = 0:0:00:40 / Tue Mar 22 12:49:44 2016
GPGPU-Sim uArch: cycles simulated: 49500  inst.: 1067296 (ipc=21.6) sim_rate=26031 (inst/sec) elapsed = 0:0:00:41 / Tue Mar 22 12:49:45 2016
GPGPU-Sim PTX: 1100000 instructions simulated : ctaid=(6,1,0) tid=(31,0,0)
GPGPU-Sim uArch: cycles simulated: 51000  inst.: 1092128 (ipc=21.4) sim_rate=26003 (inst/sec) elapsed = 0:0:00:42 / Tue Mar 22 12:49:46 2016
GPGPU-Sim uArch: cycles simulated: 52500  inst.: 1118784 (ipc=21.3) sim_rate=26018 (inst/sec) elapsed = 0:0:00:43 / Tue Mar 22 12:49:47 2016
GPGPU-Sim uArch: cycles simulated: 54000  inst.: 1140864 (ipc=21.1) sim_rate=25928 (inst/sec) elapsed = 0:0:00:44 / Tue Mar 22 12:49:48 2016
GPGPU-Sim PTX: 1200000 instructions simulated : ctaid=(7,0,0) tid=(31,0,0)
GPGPU-Sim uArch: cycles simulated: 56000  inst.: 1181728 (ipc=21.1) sim_rate=26260 (inst/sec) elapsed = 0:0:00:45 / Tue Mar 22 12:49:49 2016
GPGPU-Sim uArch: cycles simulated: 57500  inst.: 1203872 (ipc=20.9) sim_rate=26171 (inst/sec) elapsed = 0:0:00:46 / Tue Mar 22 12:49:50 2016
GPGPU-Sim uArch: cycles simulated: 59000  inst.: 1230848 (ipc=20.9) sim_rate=26188 (inst/sec) elapsed = 0:0:00:47 / Tue Mar 22 12:49:51 2016
GPGPU-Sim uArch: cycles simulated: 60000  inst.: 1252544 (ipc=20.9) sim_rate=26094 (inst/sec) elapsed = 0:0:00:48 / Tue Mar 22 12:49:52 2016
GPGPU-Sim PTX: 1300000 instructions simulated : ctaid=(10,0,0) tid=(95,0,0)
GPGPU-Sim uArch: cycles simulated: 61500  inst.: 1284256 (ipc=20.9) sim_rate=26209 (inst/sec) elapsed = 0:0:00:49 / Tue Mar 22 12:49:53 2016
GPGPU-Sim uArch: cycles simulated: 62500  inst.: 1300960 (ipc=20.8) sim_rate=26019 (inst/sec) elapsed = 0:0:00:50 / Tue Mar 22 12:49:54 2016
GPGPU-Sim uArch: cycles simulated: 64000  inst.: 1326688 (ipc=20.7) sim_rate=26013 (inst/sec) elapsed = 0:0:00:51 / Tue Mar 22 12:49:55 2016
GPGPU-Sim uArch: cycles simulated: 65500  inst.: 1353440 (ipc=20.7) sim_rate=26027 (inst/sec) elapsed = 0:0:00:52 / Tue Mar 22 12:49:56 2016
GPGPU-Sim PTX: 1400000 instructions simulated : ctaid=(2,1,0) tid=(95,0,0)
GPGPU-Sim uArch: cycles simulated: 66500  inst.: 1376000 (ipc=20.7) sim_rate=25962 (inst/sec) elapsed = 0:0:00:53 / Tue Mar 22 12:49:57 2016
GPGPU-Sim uArch: cycles simulated: 68000  inst.: 1400960 (ipc=20.6) sim_rate=25943 (inst/sec) elapsed = 0:0:00:54 / Tue Mar 22 12:49:58 2016
GPGPU-Sim uArch: cycles simulated: 69000  inst.: 1416480 (ipc=20.5) sim_rate=25754 (inst/sec) elapsed = 0:0:00:55 / Tue Mar 22 12:49:59 2016
GPGPU-Sim uArch: cycles simulated: 70500  inst.: 1441856 (ipc=20.5) sim_rate=25747 (inst/sec) elapsed = 0:0:00:56 / Tue Mar 22 12:50:00 2016
GPGPU-Sim PTX: 1500000 instructions simulated : ctaid=(0,2,0) tid=(31,0,0)
GPGPU-Sim uArch: cycles simulated: 72000  inst.: 1477248 (ipc=20.5) sim_rate=25916 (inst/sec) elapsed = 0:0:00:57 / Tue Mar 22 12:50:01 2016
GPGPU-Sim uArch: cycles simulated: 73500  inst.: 1505152 (ipc=20.5) sim_rate=25950 (inst/sec) elapsed = 0:0:00:58 / Tue Mar 22 12:50:02 2016
GPGPU-Sim uArch: cycles simulated: 74500  inst.: 1520768 (ipc=20.4) sim_rate=25775 (inst/sec) elapsed = 0:0:00:59 / Tue Mar 22 12:50:03 2016
GPGPU-Sim uArch: cycles simulated: 76000  inst.: 1547520 (ipc=20.4) sim_rate=25792 (inst/sec) elapsed = 0:0:01:00 / Tue Mar 22 12:50:04 2016
GPGPU-Sim uArch: cycles simulated: 77000  inst.: 1562208 (ipc=20.3) sim_rate=25609 (inst/sec) elapsed = 0:0:01:01 / Tue Mar 22 12:50:05 2016
GPGPU-Sim PTX: 1600000 instructions simulated : ctaid=(6,0,0) tid=(95,0,0)
GPGPU-Sim uArch: cycles simulated: 78500  inst.: 1587296 (ipc=20.2) sim_rate=25601 (inst/sec) elapsed = 0:0:01:02 / Tue Mar 22 12:50:06 2016
GPGPU-Sim uArch: cycles simulated: 80000  inst.: 1617408 (ipc=20.2) sim_rate=25673 (inst/sec) elapsed = 0:0:01:03 / Tue Mar 22 12:50:07 2016
GPGPU-Sim uArch: cycles simulated: 81500  inst.: 1642880 (ipc=20.2) sim_rate=25670 (inst/sec) elapsed = 0:0:01:04 / Tue Mar 22 12:50:08 2016
GPGPU-Sim uArch: cycles simulated: 82500  inst.: 1659104 (ipc=20.1) sim_rate=25524 (inst/sec) elapsed = 0:0:01:05 / Tue Mar 22 12:50:09 2016
GPGPU-Sim PTX: 1700000 instructions simulated : ctaid=(6,0,0) tid=(31,0,0)
GPGPU-Sim uArch: cycles simulated: 83500  inst.: 1682208 (ipc=20.1) sim_rate=25488 (inst/sec) elapsed = 0:0:01:06 / Tue Mar 22 12:50:10 2016
GPGPU-Sim uArch: cycles simulated: 85000  inst.: 1706368 (ipc=20.1) sim_rate=25468 (inst/sec) elapsed = 0:0:01:07 / Tue Mar 22 12:50:11 2016
GPGPU-Sim uArch: cycles simulated: 86000  inst.: 1726016 (ipc=20.1) sim_rate=25382 (inst/sec) elapsed = 0:0:01:08 / Tue Mar 22 12:50:12 2016
GPGPU-Sim uArch: cycles simulated: 87500  inst.: 1752896 (ipc=20.0) sim_rate=25404 (inst/sec) elapsed = 0:0:01:09 / Tue Mar 22 12:50:13 2016
GPGPU-Sim uArch: cycles simulated: 88500  inst.: 1773376 (ipc=20.0) sim_rate=25333 (inst/sec) elapsed = 0:0:01:10 / Tue Mar 22 12:50:14 2016
GPGPU-Sim PTX: 1800000 instructions simulated : ctaid=(0,0,0) tid=(95,0,0)
GPGPU-Sim uArch: cycles simulated: 89500  inst.: 1793472 (ipc=20.0) sim_rate=25260 (inst/sec) elapsed = 0:0:01:11 / Tue Mar 22 12:50:15 2016
GPGPU-Sim uArch: cycles simulated: 91000  inst.: 1821824 (ipc=20.0) sim_rate=25303 (inst/sec) elapsed = 0:0:01:12 / Tue Mar 22 12:50:16 2016
GPGPU-Sim uArch: cycles simulated: 92500  inst.: 1850464 (ipc=20.0) sim_rate=25348 (inst/sec) elapsed = 0:0:01:13 / Tue Mar 22 12:50:17 2016
GPGPU-Sim PTX: 1900000 instructions simulated : ctaid=(4,0,0) tid=(31,0,0)
GPGPU-Sim uArch: cycles simulated: 94000  inst.: 1878848 (ipc=20.0) sim_rate=25389 (inst/sec) elapsed = 0:0:01:14 / Tue Mar 22 12:50:18 2016
GPGPU-Sim uArch: cycles simulated: 95500  inst.: 1904128 (ipc=19.9) sim_rate=25388 (inst/sec) elapsed = 0:0:01:15 / Tue Mar 22 12:50:19 2016
GPGPU-Sim uArch: cycles simulated: 97000  inst.: 1932288 (ipc=19.9) sim_rate=25424 (inst/sec) elapsed = 0:0:01:16 / Tue Mar 22 12:50:20 2016
GPGPU-Sim uArch: cycles simulated: 98500  inst.: 1956864 (ipc=19.9) sim_rate=25413 (inst/sec) elapsed = 0:0:01:17 / Tue Mar 22 12:50:21 2016
GPGPU-Sim PTX: 2000000 instructions simulated : ctaid=(3,1,0) tid=(223,0,0)
GPGPU-Sim uArch: cycles simulated: 99500  inst.: 1974944 (ipc=19.8) sim_rate=25319 (inst/sec) elapsed = 0:0:01:18 / Tue Mar 22 12:50:22 2016
GPGPU-Sim uArch: cycles simulated: 100500  inst.: 1994176 (ipc=19.8) sim_rate=25242 (inst/sec) elapsed = 0:0:01:19 / Tue Mar 22 12:50:23 2016
GPGPU-Sim uArch: cycles simulated: 102000  inst.: 2021568 (ipc=19.8) sim_rate=25269 (inst/sec) elapsed = 0:0:01:20 / Tue Mar 22 12:50:24 2016
GPGPU-Sim uArch: cycles simulated: 103000  inst.: 2036000 (ipc=19.8) sim_rate=25135 (inst/sec) elapsed = 0:0:01:21 / Tue Mar 22 12:50:25 2016
GPGPU-Sim uArch: cycles simulated: 104500  inst.: 2059680 (ipc=19.7) sim_rate=25118 (inst/sec) elapsed = 0:0:01:22 / Tue Mar 22 12:50:26 2016
GPGPU-Sim PTX: 2100000 instructions simulated : ctaid=(1,0,0) tid=(223,0,0)
GPGPU-Sim uArch: cycles simulated: 106000  inst.: 2082944 (ipc=19.7) sim_rate=25095 (inst/sec) elapsed = 0:0:01:23 / Tue Mar 22 12:50:27 2016
GPGPU-Sim uArch: cycles simulated: 107500  inst.: 2111008 (ipc=19.6) sim_rate=25131 (inst/sec) elapsed = 0:0:01:24 / Tue Mar 22 12:50:28 2016
GPGPU-Sim uArch: cycles simulated: 109500  inst.: 2142944 (ipc=19.6) sim_rate=25211 (inst/sec) elapsed = 0:0:01:25 / Tue Mar 22 12:50:29 2016
GPGPU-Sim PTX: 2200000 instructions simulated : ctaid=(6,2,0) tid=(31,0,0)
GPGPU-Sim uArch: cycles simulated: 111000  inst.: 2173888 (ipc=19.6) sim_rate=25277 (inst/sec) elapsed = 0:0:01:26 / Tue Mar 22 12:50:30 2016
GPGPU-Sim uArch: cycles simulated: 113000  inst.: 2207456 (ipc=19.5) sim_rate=25373 (inst/sec) elapsed = 0:0:01:27 / Tue Mar 22 12:50:31 2016
GPGPU-Sim uArch: cycles simulated: 114500  inst.: 2238112 (ipc=19.5) sim_rate=25433 (inst/sec) elapsed = 0:0:01:28 / Tue Mar 22 12:50:32 2016
GPGPU-Sim uArch: cycles simulated: 116000  inst.: 2263936 (ipc=19.5) sim_rate=25437 (inst/sec) elapsed = 0:0:01:29 / Tue Mar 22 12:50:33 2016
GPGPU-Sim PTX: 2300000 instructions simulated : ctaid=(0,1,0) tid=(159,0,0)
GPGPU-Sim uArch: cycles simulated: 117500  inst.: 2288960 (ipc=19.5) sim_rate=25432 (inst/sec) elapsed = 0:0:01:30 / Tue Mar 22 12:50:34 2016
GPGPU-Sim uArch: cycles simulated: 118500  inst.: 2307968 (ipc=19.5) sim_rate=25362 (inst/sec) elapsed = 0:0:01:31 / Tue Mar 22 12:50:35 2016
GPGPU-Sim uArch: cycles simulated: 120000  inst.: 2338208 (ipc=19.5) sim_rate=25415 (inst/sec) elapsed = 0:0:01:32 / Tue Mar 22 12:50:36 2016
GPGPU-Sim uArch: cycles simulated: 121500  inst.: 2362624 (ipc=19.4) sim_rate=25404 (inst/sec) elapsed = 0:0:01:33 / Tue Mar 22 12:50:37 2016
GPGPU-Sim PTX: 2400000 instructions simulated : ctaid=(6,1,0) tid=(159,0,0)
GPGPU-Sim uArch: cycles simulated: 123000  inst.: 2389216 (ipc=19.4) sim_rate=25417 (inst/sec) elapsed = 0:0:01:34 / Tue Mar 22 12:50:38 2016
GPGPU-Sim uArch: cycles simulated: 124500  inst.: 2414880 (ipc=19.4) sim_rate=25419 (inst/sec) elapsed = 0:0:01:35 / Tue Mar 22 12:50:39 2016
GPGPU-Sim uArch: cycles simulated: 126000  inst.: 2443904 (ipc=19.4) sim_rate=25457 (inst/sec) elapsed = 0:0:01:36 / Tue Mar 22 12:50:40 2016
GPGPU-Sim uArch: cycles simulated: 127500  inst.: 2470720 (ipc=19.4) sim_rate=25471 (inst/sec) elapsed = 0:0:01:37 / Tue Mar 22 12:50:41 2016
GPGPU-Sim PTX: 2500000 instructions simulated : ctaid=(5,2,0) tid=(95,0,0)
GPGPU-Sim uArch: cycles simulated: 129000  inst.: 2494304 (ipc=19.3) sim_rate=25452 (inst/sec) elapsed = 0:0:01:38 / Tue Mar 22 12:50:42 2016
GPGPU-Sim uArch: cycles simulated: 130500  inst.: 2524096 (ipc=19.3) sim_rate=25495 (inst/sec) elapsed = 0:0:01:39 / Tue Mar 22 12:50:43 2016
GPGPU-Sim uArch: cycles simulated: 132000  inst.: 2548448 (ipc=19.3) sim_rate=25484 (inst/sec) elapsed = 0:0:01:40 / Tue Mar 22 12:50:44 2016
GPGPU-Sim PTX: 2600000 instructions simulated : ctaid=(3,0,0) tid=(31,0,0)
GPGPU-Sim uArch: cycles simulated: 133500  inst.: 2573664 (ipc=19.3) sim_rate=25481 (inst/sec) elapsed = 0:0:01:41 / Tue Mar 22 12:50:45 2016
GPGPU-Sim uArch: cycles simulated: 135000  inst.: 2603584 (ipc=19.3) sim_rate=25525 (inst/sec) elapsed = 0:0:01:42 / Tue Mar 22 12:50:46 2016
GPGPU-Sim uArch: cycles simulated: 136500  inst.: 2628800 (ipc=19.3) sim_rate=25522 (inst/sec) elapsed = 0:0:01:43 / Tue Mar 22 12:50:47 2016
GPGPU-Sim uArch: cycles simulated: 138000  inst.: 2657120 (ipc=19.3) sim_rate=25549 (inst/sec) elapsed = 0:0:01:44 / Tue Mar 22 12:50:48 2016
GPGPU-Sim PTX: 2700000 instructions simulated : ctaid=(2,0,0) tid=(159,0,0)
GPGPU-Sim uArch: cycles simulated: 139500  inst.: 2674272 (ipc=19.2) sim_rate=25469 (inst/sec) elapsed = 0:0:01:45 / Tue Mar 22 12:50:49 2016
GPGPU-Sim uArch: cycles simulated: 141000  inst.: 2712640 (ipc=19.2) sim_rate=25590 (inst/sec) elapsed = 0:0:01:46 / Tue Mar 22 12:50:50 2016
GPGPU-Sim uArch: cycles simulated: 142500  inst.: 2736608 (ipc=19.2) sim_rate=25575 (inst/sec) elapsed = 0:0:01:47 / Tue Mar 22 12:50:51 2016
GPGPU-Sim uArch: cycles simulated: 144000  inst.: 2760608 (ipc=19.2) sim_rate=25561 (inst/sec) elapsed = 0:0:01:48 / Tue Mar 22 12:50:52 2016
GPGPU-Sim PTX: 2800000 instructions simulated : ctaid=(4,0,0) tid=(159,0,0)
GPGPU-Sim uArch: cycles simulated: 145500  inst.: 2784448 (ipc=19.1) sim_rate=25545 (inst/sec) elapsed = 0:0:01:49 / Tue Mar 22 12:50:53 2016
GPGPU-Sim uArch: cycles simulated: 147000  inst.: 2807232 (ipc=19.1) sim_rate=25520 (inst/sec) elapsed = 0:0:01:50 / Tue Mar 22 12:50:54 2016
GPGPU-Sim uArch: cycles simulated: 148500  inst.: 2835776 (ipc=19.1) sim_rate=25547 (inst/sec) elapsed = 0:0:01:51 / Tue Mar 22 12:50:55 2016
GPGPU-Sim uArch: cycles simulated: 150000  inst.: 2864608 (ipc=19.1) sim_rate=25576 (inst/sec) elapsed = 0:0:01:52 / Tue Mar 22 12:50:56 2016
GPGPU-Sim PTX: 2900000 instructions simulated : ctaid=(7,0,0) tid=(31,0,0)
GPGPU-Sim uArch: cycles simulated: 151500  inst.: 2894976 (ipc=19.1) sim_rate=25619 (inst/sec) elapsed = 0:0:01:53 / Tue Mar 22 12:50:57 2016
GPGPU-Sim uArch: cycles simulated: 153000  inst.: 2916640 (ipc=19.1) sim_rate=25584 (inst/sec) elapsed = 0:0:01:54 / Tue Mar 22 12:50:58 2016
GPGPU-Sim uArch: cycles simulated: 154500  inst.: 2950240 (ipc=19.1) sim_rate=25654 (inst/sec) elapsed = 0:0:01:55 / Tue Mar 22 12:50:59 2016
GPGPU-Sim uArch: cycles simulated: 155500  inst.: 2966080 (ipc=19.1) sim_rate=25569 (inst/sec) elapsed = 0:0:01:56 / Tue Mar 22 12:51:00 2016
GPGPU-Sim PTX: 3000000 instructions simulated : ctaid=(3,1,0) tid=(159,0,0)
GPGPU-Sim uArch: cycles simulated: 157000  inst.: 2985792 (ipc=19.0) sim_rate=25519 (inst/sec) elapsed = 0:0:01:57 / Tue Mar 22 12:51:01 2016
GPGPU-Sim uArch: cycles simulated: 158500  inst.: 3014592 (ipc=19.0) sim_rate=25547 (inst/sec) elapsed = 0:0:01:58 / Tue Mar 22 12:51:02 2016
GPGPU-Sim uArch: cycles simulated: 160000  inst.: 3038208 (ipc=19.0) sim_rate=25531 (inst/sec) elapsed = 0:0:01:59 / Tue Mar 22 12:51:03 2016
GPGPU-Sim uArch: cycles simulated: 161500  inst.: 3062560 (ipc=19.0) sim_rate=25521 (inst/sec) elapsed = 0:0:02:00 / Tue Mar 22 12:51:04 2016
GPGPU-Sim PTX: 3100000 instructions simulated : ctaid=(3,2,0) tid=(95,0,0)
GPGPU-Sim uArch: cycles simulated: 163000  inst.: 3090176 (ipc=19.0) sim_rate=25538 (inst/sec) elapsed = 0:0:02:01 / Tue Mar 22 12:51:05 2016
GPGPU-Sim uArch: cycles simulated: 165000  inst.: 3127392 (ipc=19.0) sim_rate=25634 (inst/sec) elapsed = 0:0:02:02 / Tue Mar 22 12:51:06 2016
GPGPU-Sim uArch: cycles simulated: 166500  inst.: 3149312 (ipc=18.9) sim_rate=25604 (inst/sec) elapsed = 0:0:02:03 / Tue Mar 22 12:51:07 2016
GPGPU-Sim PTX: 3200000 instructions simulated : ctaid=(5,0,0) tid=(159,0,0)
GPGPU-Sim uArch: cycles simulated: 168000  inst.: 3176704 (ipc=18.9) sim_rate=25618 (inst/sec) elapsed = 0:0:02:04 / Tue Mar 22 12:51:08 2016
GPGPU-Sim uArch: cycles simulated: 169500  inst.: 3207072 (ipc=18.9) sim_rate=25656 (inst/sec) elapsed = 0:0:02:05 / Tue Mar 22 12:51:09 2016
GPGPU-Sim uArch: cycles simulated: 170500  inst.: 3220384 (ipc=18.9) sim_rate=25558 (inst/sec) elapsed = 0:0:02:06 / Tue Mar 22 12:51:10 2016
GPGPU-Sim uArch: cycles simulated: 172000  inst.: 3242816 (ipc=18.9) sim_rate=25533 (inst/sec) elapsed = 0:0:02:07 / Tue Mar 22 12:51:11 2016
GPGPU-Sim uArch: cycles simulated: 173500  inst.: 3267616 (ipc=18.8) sim_rate=25528 (inst/sec) elapsed = 0:0:02:08 / Tue Mar 22 12:51:12 2016
GPGPU-Sim PTX: 3300000 instructions simulated : ctaid=(8,0,0) tid=(95,0,0)
GPGPU-Sim uArch: cycles simulated: 175000  inst.: 3296000 (ipc=18.8) sim_rate=25550 (inst/sec) elapsed = 0:0:02:09 / Tue Mar 22 12:51:13 2016
GPGPU-Sim uArch: cycles simulated: 176000  inst.: 3310944 (ipc=18.8) sim_rate=25468 (inst/sec) elapsed = 0:0:02:10 / Tue Mar 22 12:51:14 2016
GPGPU-Sim uArch: cycles simulated: 177500  inst.: 3343872 (ipc=18.8) sim_rate=25525 (inst/sec) elapsed = 0:0:02:11 / Tue Mar 22 12:51:15 2016
GPGPU-Sim uArch: cycles simulated: 178500  inst.: 3360416 (ipc=18.8) sim_rate=25457 (inst/sec) elapsed = 0:0:02:12 / Tue Mar 22 12:51:16 2016
GPGPU-Sim PTX: 3400000 instructions simulated : ctaid=(0,0,0) tid=(31,0,0)
GPGPU-Sim uArch: cycles simulated: 180000  inst.: 3384000 (ipc=18.8) sim_rate=25443 (inst/sec) elapsed = 0:0:02:13 / Tue Mar 22 12:51:17 2016
GPGPU-Sim uArch: cycles simulated: 181000  inst.: 3398624 (ipc=18.8) sim_rate=25362 (inst/sec) elapsed = 0:0:02:14 / Tue Mar 22 12:51:18 2016
GPGPU-Sim uArch: cycles simulated: 182500  inst.: 3426560 (ipc=18.8) sim_rate=25381 (inst/sec) elapsed = 0:0:02:15 / Tue Mar 22 12:51:19 2016
GPGPU-Sim uArch: cycles simulated: 183500  inst.: 3445568 (ipc=18.8) sim_rate=25335 (inst/sec) elapsed = 0:0:02:16 / Tue Mar 22 12:51:20 2016
GPGPU-Sim uArch: cycles simulated: 184500  inst.: 3462784 (ipc=18.8) sim_rate=25275 (inst/sec) elapsed = 0:0:02:17 / Tue Mar 22 12:51:21 2016
GPGPU-Sim PTX: 3500000 instructions simulated : ctaid=(7,2,0) tid=(95,0,0)
GPGPU-Sim uArch: cycles simulated: 186000  inst.: 3487648 (ipc=18.8) sim_rate=25272 (inst/sec) elapsed = 0:0:02:18 / Tue Mar 22 12:51:22 2016
GPGPU-Sim uArch: cycles simulated: 187000  inst.: 3503232 (ipc=18.7) sim_rate=25203 (inst/sec) elapsed = 0:0:02:19 / Tue Mar 22 12:51:23 2016
GPGPU-Sim uArch: cycles simulated: 188500  inst.: 3533472 (ipc=18.7) sim_rate=25239 (inst/sec) elapsed = 0:0:02:20 / Tue Mar 22 12:51:24 2016
GPGPU-Sim uArch: cycles simulated: 190000  inst.: 3556160 (ipc=18.7) sim_rate=25220 (inst/sec) elapsed = 0:0:02:21 / Tue Mar 22 12:51:25 2016
GPGPU-Sim PTX: 3600000 instructions simulated : ctaid=(6,0,0) tid=(159,0,0)
GPGPU-Sim uArch: cycles simulated: 191000  inst.: 3577920 (ipc=18.7) sim_rate=25196 (inst/sec) elapsed = 0:0:02:22 / Tue Mar 22 12:51:26 2016
GPGPU-Sim uArch: cycles simulated: 192500  inst.: 3604864 (ipc=18.7) sim_rate=25208 (inst/sec) elapsed = 0:0:02:23 / Tue Mar 22 12:51:27 2016
GPGPU-Sim uArch: cycles simulated: 193500  inst.: 3621248 (ipc=18.7) sim_rate=25147 (inst/sec) elapsed = 0:0:02:24 / Tue Mar 22 12:51:28 2016
GPGPU-Sim uArch: cycles simulated: 194500  inst.: 3639552 (ipc=18.7) sim_rate=25100 (inst/sec) elapsed = 0:0:02:25 / Tue Mar 22 12:51:29 2016
GPGPU-Sim uArch: cycles simulated: 196000  inst.: 3671712 (ipc=18.7) sim_rate=25148 (inst/sec) elapsed = 0:0:02:26 / Tue Mar 22 12:51:30 2016
GPGPU-Sim PTX: 3700000 instructions simulated : ctaid=(9,0,0) tid=(63,0,0)
GPGPU-Sim uArch: cycles simulated: 197500  inst.: 3696416 (ipc=18.7) sim_rate=25145 (inst/sec) elapsed = 0:0:02:27 / Tue Mar 22 12:51:31 2016
GPGPU-Sim uArch: cycles simulated: 199000  inst.: 3725728 (ipc=18.7) sim_rate=25173 (inst/sec) elapsed = 0:0:02:28 / Tue Mar 22 12:51:32 2016
GPGPU-Sim uArch: cycles simulated: 200500  inst.: 3750528 (ipc=18.7) sim_rate=25171 (inst/sec) elapsed = 0:0:02:29 / Tue Mar 22 12:51:33 2016
GPGPU-Sim uArch: cycles simulated: 201500  inst.: 3769472 (ipc=18.7) sim_rate=25129 (inst/sec) elapsed = 0:0:02:30 / Tue Mar 22 12:51:34 2016
GPGPU-Sim PTX: 3800000 instructions simulated : ctaid=(4,0,0) tid=(159,0,0)
GPGPU-Sim uArch: cycles simulated: 203000  inst.: 3800224 (ipc=18.7) sim_rate=25167 (inst/sec) elapsed = 0:0:02:31 / Tue Mar 22 12:51:35 2016
GPGPU-Sim uArch: cycles simulated: 204000  inst.: 3813664 (ipc=18.7) sim_rate=25089 (inst/sec) elapsed = 0:0:02:32 / Tue Mar 22 12:51:36 2016
GPGPU-Sim uArch: cycles simulated: 206000  inst.: 3849600 (ipc=18.7) sim_rate=25160 (inst/sec) elapsed = 0:0:02:33 / Tue Mar 22 12:51:37 2016
GPGPU-Sim PTX: 3900000 instructions simulated : ctaid=(7,0,0) tid=(159,0,0)
GPGPU-Sim uArch: cycles simulated: 207500  inst.: 3874944 (ipc=18.7) sim_rate=25161 (inst/sec) elapsed = 0:0:02:34 / Tue Mar 22 12:51:38 2016
GPGPU-Sim uArch: cycles simulated: 209000  inst.: 3903520 (ipc=18.7) sim_rate=25184 (inst/sec) elapsed = 0:0:02:35 / Tue Mar 22 12:51:39 2016
GPGPU-Sim uArch: cycles simulated: 210500  inst.: 3932512 (ipc=18.7) sim_rate=25208 (inst/sec) elapsed = 0:0:02:36 / Tue Mar 22 12:51:40 2016
GPGPU-Sim uArch: cycles simulated: 212000  inst.: 3956448 (ipc=18.7) sim_rate=25200 (inst/sec) elapsed = 0:0:02:37 / Tue Mar 22 12:51:41 2016
GPGPU-Sim PTX: 4000000 instructions simulated : ctaid=(7,0,0) tid=(159,0,0)
GPGPU-Sim uArch: cycles simulated: 213000  inst.: 3977472 (ipc=18.7) sim_rate=25173 (inst/sec) elapsed = 0:0:02:38 / Tue Mar 22 12:51:42 2016
GPGPU-Sim uArch: cycles simulated: 214500  inst.: 4002560 (ipc=18.7) sim_rate=25173 (inst/sec) elapsed = 0:0:02:39 / Tue Mar 22 12:51:43 2016
GPGPU-Sim uArch: cycles simulated: 215500  inst.: 4018624 (ipc=18.6) sim_rate=25116 (inst/sec) elapsed = 0:0:02:40 / Tue Mar 22 12:51:44 2016
GPGPU-Sim uArch: cycles simulated: 217000  inst.: 4051264 (ipc=18.7) sim_rate=25163 (inst/sec) elapsed = 0:0:02:41 / Tue Mar 22 12:51:45 2016
GPGPU-Sim uArch: cycles simulated: 218000  inst.: 4068608 (ipc=18.7) sim_rate=25114 (inst/sec) elapsed = 0:0:02:42 / Tue Mar 22 12:51:46 2016
GPGPU-Sim PTX: 4100000 instructions simulated : ctaid=(9,0,0) tid=(63,0,0)
GPGPU-Sim uArch: cycles simulated: 219500  inst.: 4094688 (ipc=18.7) sim_rate=25120 (inst/sec) elapsed = 0:0:02:43 / Tue Mar 22 12:51:47 2016
GPGPU-Sim uArch: cycles simulated: 220500  inst.: 4117664 (ipc=18.7) sim_rate=25107 (inst/sec) elapsed = 0:0:02:44 / Tue Mar 22 12:51:48 2016
GPGPU-Sim uArch: cycles simulated: 222000  inst.: 4141888 (ipc=18.7) sim_rate=25102 (inst/sec) elapsed = 0:0:02:45 / Tue Mar 22 12:51:49 2016
GPGPU-Sim PTX: 4200000 instructions simulated : ctaid=(3,0,0) tid=(223,0,0)
GPGPU-Sim uArch: cycles simulated: 224000  inst.: 4175520 (ipc=18.6) sim_rate=25153 (inst/sec) elapsed = 0:0:02:46 / Tue Mar 22 12:51:50 2016
GPGPU-Sim uArch: cycles simulated: 225500  inst.: 4207072 (ipc=18.7) sim_rate=25192 (inst/sec) elapsed = 0:0:02:47 / Tue Mar 22 12:51:51 2016
GPGPU-Sim uArch: cycles simulated: 227500  inst.: 4240480 (ipc=18.6) sim_rate=25240 (inst/sec) elapsed = 0:0:02:48 / Tue Mar 22 12:51:52 2016
GPGPU-Sim uArch: cycles simulated: 229000  inst.: 4265952 (ipc=18.6) sim_rate=25242 (inst/sec) elapsed = 0:0:02:49 / Tue Mar 22 12:51:53 2016
GPGPU-Sim PTX: 4300000 instructions simulated : ctaid=(1,2,0) tid=(31,0,0)
GPGPU-Sim uArch: cycles simulated: 231000  inst.: 4305312 (ipc=18.6) sim_rate=25325 (inst/sec) elapsed = 0:0:02:50 / Tue Mar 22 12:51:54 2016
GPGPU-Sim uArch: cycles simulated: 232500  inst.: 4331552 (ipc=18.6) sim_rate=25330 (inst/sec) elapsed = 0:0:02:51 / Tue Mar 22 12:51:55 2016
GPGPU-Sim uArch: cycles simulated: 234000  inst.: 4364096 (ipc=18.6) sim_rate=25372 (inst/sec) elapsed = 0:0:02:52 / Tue Mar 22 12:51:56 2016
GPGPU-Sim PTX: 4400000 instructions simulated : ctaid=(5,0,0) tid=(95,0,0)
GPGPU-Sim uArch: cycles simulated: 235500  inst.: 4393696 (ipc=18.7) sim_rate=25397 (inst/sec) elapsed = 0:0:02:53 / Tue Mar 22 12:51:57 2016
GPGPU-Sim uArch: cycles simulated: 237000  inst.: 4417344 (ipc=18.6) sim_rate=25387 (inst/sec) elapsed = 0:0:02:54 / Tue Mar 22 12:51:58 2016
GPGPU-Sim uArch: cycles simulated: 238500  inst.: 4443584 (ipc=18.6) sim_rate=25391 (inst/sec) elapsed = 0:0:02:55 / Tue Mar 22 12:51:59 2016
GPGPU-Sim uArch: cycles simulated: 239500  inst.: 4460768 (ipc=18.6) sim_rate=25345 (inst/sec) elapsed = 0:0:02:56 / Tue Mar 22 12:52:00 2016
GPGPU-Sim PTX: 4500000 instructions simulated : ctaid=(6,2,0) tid=(95,0,0)
GPGPU-Sim uArch: cycles simulated: 241000  inst.: 4488128 (ipc=18.6) sim_rate=25356 (inst/sec) elapsed = 0:0:02:57 / Tue Mar 22 12:52:01 2016
GPGPU-Sim uArch: cycles simulated: 242500  inst.: 4514240 (ipc=18.6) sim_rate=25360 (inst/sec) elapsed = 0:0:02:58 / Tue Mar 22 12:52:02 2016
GPGPU-Sim uArch: cycles simulated: 244000  inst.: 4540192 (ipc=18.6) sim_rate=25364 (inst/sec) elapsed = 0:0:02:59 / Tue Mar 22 12:52:03 2016
GPGPU-Sim uArch: cycles simulated: 245000  inst.: 4561504 (ipc=18.6) sim_rate=25341 (inst/sec) elapsed = 0:0:03:00 / Tue Mar 22 12:52:04 2016
GPGPU-Sim PTX: 4600000 instructions simulated : ctaid=(9,0,0) tid=(159,0,0)
GPGPU-Sim uArch: cycles simulated: 246500  inst.: 4583840 (ipc=18.6) sim_rate=25325 (inst/sec) elapsed = 0:0:03:01 / Tue Mar 22 12:52:05 2016
GPGPU-Sim uArch: cycles simulated: 248500  inst.: 4620576 (ipc=18.6) sim_rate=25387 (inst/sec) elapsed = 0:0:03:02 / Tue Mar 22 12:52:06 2016
GPGPU-Sim uArch: cycles simulated: 250000  inst.: 4642112 (ipc=18.6) sim_rate=25366 (inst/sec) elapsed = 0:0:03:03 / Tue Mar 22 12:52:07 2016
GPGPU-Sim PTX: 4700000 instructions simulated : ctaid=(6,2,0) tid=(31,0,0)
GPGPU-Sim uArch: cycles simulated: 252000  inst.: 4680352 (ipc=18.6) sim_rate=25436 (inst/sec) elapsed = 0:0:03:04 / Tue Mar 22 12:52:08 2016
GPGPU-Sim uArch: cycles simulated: 253500  inst.: 4709472 (ipc=18.6) sim_rate=25456 (inst/sec) elapsed = 0:0:03:05 / Tue Mar 22 12:52:09 2016
GPGPU-Sim uArch: cycles simulated: 254500  inst.: 4730944 (ipc=18.6) sim_rate=25435 (inst/sec) elapsed = 0:0:03:06 / Tue Mar 22 12:52:10 2016
GPGPU-Sim uArch: cycles simulated: 256000  inst.: 4755200 (ipc=18.6) sim_rate=25428 (inst/sec) elapsed = 0:0:03:07 / Tue Mar 22 12:52:11 2016
GPGPU-Sim PTX: 4800000 instructions simulated : ctaid=(7,2,0) tid=(31,0,0)
GPGPU-Sim uArch: cycles simulated: 257500  inst.: 4779904 (ipc=18.6) sim_rate=25425 (inst/sec) elapsed = 0:0:03:08 / Tue Mar 22 12:52:12 2016
GPGPU-Sim uArch: cycles simulated: 258500  inst.: 4795584 (ipc=18.6) sim_rate=25373 (inst/sec) elapsed = 0:0:03:09 / Tue Mar 22 12:52:13 2016
GPGPU-Sim uArch: cycles simulated: 260000  inst.: 4827072 (ipc=18.6) sim_rate=25405 (inst/sec) elapsed = 0:0:03:10 / Tue Mar 22 12:52:14 2016
GPGPU-Sim uArch: cycles simulated: 261000  inst.: 4843840 (ipc=18.6) sim_rate=25360 (inst/sec) elapsed = 0:0:03:11 / Tue Mar 22 12:52:15 2016
GPGPU-Sim PTX: 4900000 instructions simulated : ctaid=(3,1,0) tid=(63,0,0)
GPGPU-Sim uArch: cycles simulated: 262500  inst.: 4874592 (ipc=18.6) sim_rate=25388 (inst/sec) elapsed = 0:0:03:12 / Tue Mar 22 12:52:16 2016
GPGPU-Sim uArch: cycles simulated: 263500  inst.: 4892736 (ipc=18.6) sim_rate=25350 (inst/sec) elapsed = 0:0:03:13 / Tue Mar 22 12:52:17 2016
GPGPU-Sim uArch: cycles simulated: 265000  inst.: 4921024 (ipc=18.6) sim_rate=25366 (inst/sec) elapsed = 0:0:03:14 / Tue Mar 22 12:52:18 2016
GPGPU-Sim uArch: cycles simulated: 266000  inst.: 4936640 (ipc=18.6) sim_rate=25316 (inst/sec) elapsed = 0:0:03:15 / Tue Mar 22 12:52:19 2016
GPGPU-Sim uArch: cycles simulated: 267500  inst.: 4967552 (ipc=18.6) sim_rate=25344 (inst/sec) elapsed = 0:0:03:16 / Tue Mar 22 12:52:20 2016
GPGPU-Sim PTX: 5000000 instructions simulated : ctaid=(1,1,0) tid=(31,0,0)
GPGPU-Sim uArch: cycles simulated: 269000  inst.: 4995744 (ipc=18.6) sim_rate=25359 (inst/sec) elapsed = 0:0:03:17 / Tue Mar 22 12:52:21 2016
GPGPU-Sim uArch: cycles simulated: 270500  inst.: 5026880 (ipc=18.6) sim_rate=25388 (inst/sec) elapsed = 0:0:03:18 / Tue Mar 22 12:52:22 2016
GPGPU-Sim uArch: cycles simulated: 272000  inst.: 5051904 (ipc=18.6) sim_rate=25386 (inst/sec) elapsed = 0:0:03:19 / Tue Mar 22 12:52:23 2016
GPGPU-Sim PTX: 5100000 instructions simulated : ctaid=(6,2,0) tid=(31,0,0)
GPGPU-Sim uArch: cycles simulated: 273500  inst.: 5077024 (ipc=18.6) sim_rate=25385 (inst/sec) elapsed = 0:0:03:20 / Tue Mar 22 12:52:24 2016
GPGPU-Sim uArch: cycles simulated: 275000  inst.: 5096128 (ipc=18.5) sim_rate=25353 (inst/sec) elapsed = 0:0:03:21 / Tue Mar 22 12:52:25 2016
GPGPU-Sim uArch: cycles simulated: 276500  inst.: 5126016 (ipc=18.5) sim_rate=25376 (inst/sec) elapsed = 0:0:03:22 / Tue Mar 22 12:52:26 2016
GPGPU-Sim uArch: cycles simulated: 278000  inst.: 5150368 (ipc=18.5) sim_rate=25371 (inst/sec) elapsed = 0:0:03:23 / Tue Mar 22 12:52:27 2016
GPGPU-Sim uArch: cycles simulated: 279000  inst.: 5164768 (ipc=18.5) sim_rate=25317 (inst/sec) elapsed = 0:0:03:24 / Tue Mar 22 12:52:28 2016
GPGPU-Sim PTX: 5200000 instructions simulated : ctaid=(9,0,0) tid=(223,0,0)
GPGPU-Sim uArch: cycles simulated: 280500  inst.: 5193824 (ipc=18.5) sim_rate=25335 (inst/sec) elapsed = 0:0:03:25 / Tue Mar 22 12:52:29 2016
GPGPU-Sim uArch: cycles simulated: 282000  inst.: 5219360 (ipc=18.5) sim_rate=25336 (inst/sec) elapsed = 0:0:03:26 / Tue Mar 22 12:52:30 2016
GPGPU-Sim uArch: cycles simulated: 283500  inst.: 5247520 (ipc=18.5) sim_rate=25350 (inst/sec) elapsed = 0:0:03:27 / Tue Mar 22 12:52:31 2016
GPGPU-Sim PTX: 5300000 instructions simulated : ctaid=(2,1,0) tid=(223,0,0)
GPGPU-Sim uArch: cycles simulated: 285000  inst.: 5271520 (ipc=18.5) sim_rate=25343 (inst/sec) elapsed = 0:0:03:28 / Tue Mar 22 12:52:32 2016
GPGPU-Sim uArch: cycles simulated: 286500  inst.: 5296000 (ipc=18.5) sim_rate=25339 (inst/sec) elapsed = 0:0:03:29 / Tue Mar 22 12:52:33 2016
GPGPU-Sim uArch: cycles simulated: 288000  inst.: 5323232 (ipc=18.5) sim_rate=25348 (inst/sec) elapsed = 0:0:03:30 / Tue Mar 22 12:52:34 2016
GPGPU-Sim uArch: cycles simulated: 289500  inst.: 5353760 (ipc=18.5) sim_rate=25373 (inst/sec) elapsed = 0:0:03:31 / Tue Mar 22 12:52:35 2016
GPGPU-Sim PTX: 5400000 instructions simulated : ctaid=(5,2,0) tid=(95,0,0)
GPGPU-Sim uArch: cycles simulated: 290500  inst.: 5375296 (ipc=18.5) sim_rate=25355 (inst/sec) elapsed = 0:0:03:32 / Tue Mar 22 12:52:36 2016
GPGPU-Sim uArch: cycles simulated: 292000  inst.: 5395136 (ipc=18.5) sim_rate=25329 (inst/sec) elapsed = 0:0:03:33 / Tue Mar 22 12:52:37 2016
GPGPU-Sim uArch: cycles simulated: 293500  inst.: 5427072 (ipc=18.5) sim_rate=25360 (inst/sec) elapsed = 0:0:03:34 / Tue Mar 22 12:52:38 2016
GPGPU-Sim uArch: cycles simulated: 295000  inst.: 5453344 (ipc=18.5) sim_rate=25364 (inst/sec) elapsed = 0:0:03:35 / Tue Mar 22 12:52:39 2016
GPGPU-Sim PTX: 5500000 instructions simulated : ctaid=(6,0,0) tid=(31,0,0)
GPGPU-Sim uArch: cycles simulated: 296500  inst.: 5477312 (ipc=18.5) sim_rate=25357 (inst/sec) elapsed = 0:0:03:36 / Tue Mar 22 12:52:40 2016
GPGPU-Sim uArch: cycles simulated: 298000  inst.: 5510464 (ipc=18.5) sim_rate=25393 (inst/sec) elapsed = 0:0:03:37 / Tue Mar 22 12:52:41 2016
GPGPU-Sim uArch: cycles simulated: 299000  inst.: 5529664 (ipc=18.5) sim_rate=25365 (inst/sec) elapsed = 0:0:03:38 / Tue Mar 22 12:52:42 2016
GPGPU-Sim uArch: cycles simulated: 300500  inst.: 5555456 (ipc=18.5) sim_rate=25367 (inst/sec) elapsed = 0:0:03:39 / Tue Mar 22 12:52:43 2016
GPGPU-Sim PTX: 5600000 instructions simulated : ctaid=(2,1,0) tid=(223,0,0)
GPGPU-Sim uArch: cycles simulated: 302000  inst.: 5581440 (ipc=18.5) sim_rate=25370 (inst/sec) elapsed = 0:0:03:40 / Tue Mar 22 12:52:44 2016
GPGPU-Sim uArch: cycles simulated: 303500  inst.: 5606528 (ipc=18.5) sim_rate=25368 (inst/sec) elapsed = 0:0:03:41 / Tue Mar 22 12:52:45 2016
GPGPU-Sim uArch: cycles simulated: 305000  inst.: 5631424 (ipc=18.5) sim_rate=25366 (inst/sec) elapsed = 0:0:03:42 / Tue Mar 22 12:52:46 2016
GPGPU-Sim uArch: cycles simulated: 306500  inst.: 5661600 (ipc=18.5) sim_rate=25388 (inst/sec) elapsed = 0:0:03:43 / Tue Mar 22 12:52:47 2016
GPGPU-Sim PTX: 5700000 instructions simulated : ctaid=(8,0,0) tid=(31,0,0)
GPGPU-Sim uArch: cycles simulated: 308000  inst.: 5689728 (ipc=18.5) sim_rate=25400 (inst/sec) elapsed = 0:0:03:44 / Tue Mar 22 12:52:48 2016
GPGPU-Sim uArch: cycles simulated: 309500  inst.: 5713408 (ipc=18.5) sim_rate=25392 (inst/sec) elapsed = 0:0:03:45 / Tue Mar 22 12:52:49 2016
GPGPU-Sim uArch: cycles simulated: 311000  inst.: 5737440 (ipc=18.4) sim_rate=25386 (inst/sec) elapsed = 0:0:03:46 / Tue Mar 22 12:52:50 2016
GPGPU-Sim uArch: cycles simulated: 312500  inst.: 5761120 (ipc=18.4) sim_rate=25379 (inst/sec) elapsed = 0:0:03:47 / Tue Mar 22 12:52:51 2016
GPGPU-Sim PTX: 5800000 instructions simulated : ctaid=(3,1,0) tid=(95,0,0)
GPGPU-Sim uArch: cycles simulated: 314000  inst.: 5782944 (ipc=18.4) sim_rate=25363 (inst/sec) elapsed = 0:0:03:48 / Tue Mar 22 12:52:52 2016
GPGPU-Sim uArch: cycles simulated: 315500  inst.: 5808288 (ipc=18.4) sim_rate=25363 (inst/sec) elapsed = 0:0:03:49 / Tue Mar 22 12:52:53 2016
GPGPU-Sim uArch: cycles simulated: 317000  inst.: 5834848 (ipc=18.4) sim_rate=25368 (inst/sec) elapsed = 0:0:03:50 / Tue Mar 22 12:52:54 2016
GPGPU-Sim uArch: cycles simulated: 319000  inst.: 5866432 (ipc=18.4) sim_rate=25395 (inst/sec) elapsed = 0:0:03:51 / Tue Mar 22 12:52:55 2016
GPGPU-Sim PTX: 5900000 instructions simulated : ctaid=(0,0,0) tid=(159,0,0)
GPGPU-Sim uArch: cycles simulated: 320500  inst.: 5890656 (ipc=18.4) sim_rate=25390 (inst/sec) elapsed = 0:0:03:52 / Tue Mar 22 12:52:56 2016
GPGPU-Sim uArch: cycles simulated: 322000  inst.: 5914016 (ipc=18.4) sim_rate=25382 (inst/sec) elapsed = 0:0:03:53 / Tue Mar 22 12:52:57 2016
GPGPU-Sim uArch: cycles simulated: 323000  inst.: 5930496 (ipc=18.4) sim_rate=25344 (inst/sec) elapsed = 0:0:03:54 / Tue Mar 22 12:52:58 2016
GPGPU-Sim uArch: cycles simulated: 324500  inst.: 5955264 (ipc=18.4) sim_rate=25341 (inst/sec) elapsed = 0:0:03:55 / Tue Mar 22 12:52:59 2016
GPGPU-Sim PTX: 6000000 instructions simulated : ctaid=(4,0,0) tid=(95,0,0)
GPGPU-Sim uArch: cycles simulated: 326000  inst.: 5975136 (ipc=18.3) sim_rate=25318 (inst/sec) elapsed = 0:0:03:56 / Tue Mar 22 12:53:00 2016
GPGPU-Sim uArch: cycles simulated: 327500  inst.: 6009472 (ipc=18.3) sim_rate=25356 (inst/sec) elapsed = 0:0:03:57 / Tue Mar 22 12:53:01 2016
GPGPU-Sim uArch: cycles simulated: 329000  inst.: 6031168 (ipc=18.3) sim_rate=25341 (inst/sec) elapsed = 0:0:03:58 / Tue Mar 22 12:53:02 2016
GPGPU-Sim uArch: cycles simulated: 330000  inst.: 6048640 (ipc=18.3) sim_rate=25308 (inst/sec) elapsed = 0:0:03:59 / Tue Mar 22 12:53:03 2016
GPGPU-Sim PTX: 6100000 instructions simulated : ctaid=(7,1,0) tid=(159,0,0)
GPGPU-Sim uArch: cycles simulated: 331500  inst.: 6074752 (ipc=18.3) sim_rate=25311 (inst/sec) elapsed = 0:0:04:00 / Tue Mar 22 12:53:04 2016
GPGPU-Sim uArch: cycles simulated: 333000  inst.: 6098368 (ipc=18.3) sim_rate=25304 (inst/sec) elapsed = 0:0:04:01 / Tue Mar 22 12:53:05 2016
GPGPU-Sim uArch: cycles simulated: 334500  inst.: 6124448 (ipc=18.3) sim_rate=25307 (inst/sec) elapsed = 0:0:04:02 / Tue Mar 22 12:53:06 2016
GPGPU-Sim uArch: cycles simulated: 336000  inst.: 6148896 (ipc=18.3) sim_rate=25304 (inst/sec) elapsed = 0:0:04:03 / Tue Mar 22 12:53:07 2016
GPGPU-Sim PTX: 6200000 instructions simulated : ctaid=(0,0,0) tid=(95,0,0)
GPGPU-Sim uArch: cycles simulated: 337500  inst.: 6179456 (ipc=18.3) sim_rate=25325 (inst/sec) elapsed = 0:0:04:04 / Tue Mar 22 12:53:08 2016
GPGPU-Sim uArch: cycles simulated: 339000  inst.: 6202944 (ipc=18.3) sim_rate=25318 (inst/sec) elapsed = 0:0:04:05 / Tue Mar 22 12:53:09 2016
GPGPU-Sim uArch: cycles simulated: 340500  inst.: 6229280 (ipc=18.3) sim_rate=25322 (inst/sec) elapsed = 0:0:04:06 / Tue Mar 22 12:53:10 2016
GPGPU-Sim uArch: cycles simulated: 342000  inst.: 6252032 (ipc=18.3) sim_rate=25311 (inst/sec) elapsed = 0:0:04:07 / Tue Mar 22 12:53:11 2016
GPGPU-Sim PTX: 6300000 instructions simulated : ctaid=(5,0,0) tid=(31,0,0)
GPGPU-Sim uArch: cycles simulated: 344000  inst.: 6287008 (ipc=18.3) sim_rate=25350 (inst/sec) elapsed = 0:0:04:08 / Tue Mar 22 12:53:12 2016
GPGPU-Sim uArch: cycles simulated: 345500  inst.: 6312480 (ipc=18.3) sim_rate=25351 (inst/sec) elapsed = 0:0:04:09 / Tue Mar 22 12:53:13 2016
GPGPU-Sim uArch: cycles simulated: 347000  inst.: 6338176 (ipc=18.3) sim_rate=25352 (inst/sec) elapsed = 0:0:04:10 / Tue Mar 22 12:53:14 2016
GPGPU-Sim uArch: cycles simulated: 348500  inst.: 6366784 (ipc=18.3) sim_rate=25365 (inst/sec) elapsed = 0:0:04:11 / Tue Mar 22 12:53:15 2016
GPGPU-Sim PTX: 6400000 instructions simulated : ctaid=(5,0,0) tid=(159,0,0)
GPGPU-Sim uArch: cycles simulated: 350000  inst.: 6394080 (ipc=18.3) sim_rate=25373 (inst/sec) elapsed = 0:0:04:12 / Tue Mar 22 12:53:16 2016
GPGPU-Sim uArch: cycles simulated: 351500  inst.: 6422656 (ipc=18.3) sim_rate=25385 (inst/sec) elapsed = 0:0:04:13 / Tue Mar 22 12:53:17 2016
GPGPU-Sim uArch: cycles simulated: 353000  inst.: 6444160 (ipc=18.3) sim_rate=25370 (inst/sec) elapsed = 0:0:04:14 / Tue Mar 22 12:53:18 2016
GPGPU-Sim PTX: 6500000 instructions simulated : ctaid=(7,0,0) tid=(31,0,0)
GPGPU-Sim uArch: cycles simulated: 354500  inst.: 6472800 (ipc=18.3) sim_rate=25383 (inst/sec) elapsed = 0:0:04:15 / Tue Mar 22 12:53:19 2016
GPGPU-Sim uArch: cycles simulated: 355500  inst.: 6489760 (ipc=18.3) sim_rate=25350 (inst/sec) elapsed = 0:0:04:16 / Tue Mar 22 12:53:20 2016
GPGPU-Sim uArch: cycles simulated: 357000  inst.: 6519264 (ipc=18.3) sim_rate=25366 (inst/sec) elapsed = 0:0:04:17 / Tue Mar 22 12:53:21 2016
GPGPU-Sim uArch: cycles simulated: 358500  inst.: 6544352 (ipc=18.3) sim_rate=25365 (inst/sec) elapsed = 0:0:04:18 / Tue Mar 22 12:53:22 2016
GPGPU-Sim PTX: 6600000 instructions simulated : ctaid=(3,0,0) tid=(159,0,0)
GPGPU-Sim uArch: cycles simulated: 360000  inst.: 6569088 (ipc=18.2) sim_rate=25363 (inst/sec) elapsed = 0:0:04:19 / Tue Mar 22 12:53:23 2016
GPGPU-Sim uArch: cycles simulated: 361000  inst.: 6583200 (ipc=18.2) sim_rate=25320 (inst/sec) elapsed = 0:0:04:20 / Tue Mar 22 12:53:24 2016
GPGPU-Sim uArch: cycles simulated: 362500  inst.: 6610720 (ipc=18.2) sim_rate=25328 (inst/sec) elapsed = 0:0:04:21 / Tue Mar 22 12:53:25 2016
GPGPU-Sim uArch: cycles simulated: 363500  inst.: 6624320 (ipc=18.2) sim_rate=25283 (inst/sec) elapsed = 0:0:04:22 / Tue Mar 22 12:53:26 2016
GPGPU-Sim uArch: cycles simulated: 365000  inst.: 6650560 (ipc=18.2) sim_rate=25287 (inst/sec) elapsed = 0:0:04:23 / Tue Mar 22 12:53:27 2016
GPGPU-Sim PTX: 6700000 instructions simulated : ctaid=(10,0,0) tid=(159,0,0)
GPGPU-Sim uArch: cycles simulated: 366000  inst.: 6673600 (ipc=18.2) sim_rate=25278 (inst/sec) elapsed = 0:0:04:24 / Tue Mar 22 12:53:28 2016
GPGPU-Sim uArch: cycles simulated: 367500  inst.: 6693504 (ipc=18.2) sim_rate=25258 (inst/sec) elapsed = 0:0:04:25 / Tue Mar 22 12:53:29 2016
GPGPU-Sim uArch: cycles simulated: 369000  inst.: 6721024 (ipc=18.2) sim_rate=25267 (inst/sec) elapsed = 0:0:04:26 / Tue Mar 22 12:53:30 2016
GPGPU-Sim uArch: cycles simulated: 370500  inst.: 6753792 (ipc=18.2) sim_rate=25295 (inst/sec) elapsed = 0:0:04:27 / Tue Mar 22 12:53:31 2016
GPGPU-Sim PTX: 6800000 instructions simulated : ctaid=(4,0,0) tid=(159,0,0)
GPGPU-Sim uArch: cycles simulated: 372000  inst.: 6775776 (ipc=18.2) sim_rate=25282 (inst/sec) elapsed = 0:0:04:28 / Tue Mar 22 12:53:32 2016
GPGPU-Sim uArch: cycles simulated: 373500  inst.: 6806240 (ipc=18.2) sim_rate=25302 (inst/sec) elapsed = 0:0:04:29 / Tue Mar 22 12:53:33 2016
GPGPU-Sim uArch: cycles simulated: 375000  inst.: 6832320 (ipc=18.2) sim_rate=25304 (inst/sec) elapsed = 0:0:04:30 / Tue Mar 22 12:53:34 2016
GPGPU-Sim uArch: cycles simulated: 376000  inst.: 6848832 (ipc=18.2) sim_rate=25272 (inst/sec) elapsed = 0:0:04:31 / Tue Mar 22 12:53:35 2016
GPGPU-Sim PTX: 6900000 instructions simulated : ctaid=(2,2,0) tid=(31,0,0)
GPGPU-Sim uArch: cycles simulated: 377500  inst.: 6872864 (ipc=18.2) sim_rate=25267 (inst/sec) elapsed = 0:0:04:32 / Tue Mar 22 12:53:36 2016
GPGPU-Sim uArch: cycles simulated: 379000  inst.: 6900128 (ipc=18.2) sim_rate=25275 (inst/sec) elapsed = 0:0:04:33 / Tue Mar 22 12:53:37 2016
GPGPU-Sim uArch: cycles simulated: 380500  inst.: 6927264 (ipc=18.2) sim_rate=25281 (inst/sec) elapsed = 0:0:04:34 / Tue Mar 22 12:53:38 2016
GPGPU-Sim uArch: cycles simulated: 382000  inst.: 6958528 (ipc=18.2) sim_rate=25303 (inst/sec) elapsed = 0:0:04:35 / Tue Mar 22 12:53:39 2016
GPGPU-Sim PTX: 7000000 instructions simulated : ctaid=(5,0,0) tid=(31,0,0)
GPGPU-Sim uArch: cycles simulated: 383500  inst.: 6981216 (ipc=18.2) sim_rate=25294 (inst/sec) elapsed = 0:0:04:36 / Tue Mar 22 12:53:40 2016
GPGPU-Sim uArch: cycles simulated: 384500  inst.: 6996544 (ipc=18.2) sim_rate=25258 (inst/sec) elapsed = 0:0:04:37 / Tue Mar 22 12:53:41 2016
GPGPU-Sim uArch: cycles simulated: 386000  inst.: 7026304 (ipc=18.2) sim_rate=25274 (inst/sec) elapsed = 0:0:04:38 / Tue Mar 22 12:53:42 2016
GPGPU-Sim uArch: cycles simulated: 387500  inst.: 7051168 (ipc=18.2) sim_rate=25273 (inst/sec) elapsed = 0:0:04:39 / Tue Mar 22 12:53:43 2016
GPGPU-Sim PTX: 7100000 instructions simulated : ctaid=(9,0,0) tid=(223,0,0)
GPGPU-Sim uArch: cycles simulated: 389000  inst.: 7075776 (ipc=18.2) sim_rate=25270 (inst/sec) elapsed = 0:0:04:40 / Tue Mar 22 12:53:44 2016
GPGPU-Sim uArch: cycles simulated: 390000  inst.: 7092640 (ipc=18.2) sim_rate=25240 (inst/sec) elapsed = 0:0:04:41 / Tue Mar 22 12:53:45 2016
GPGPU-Sim uArch: cycles simulated: 391500  inst.: 7120512 (ipc=18.2) sim_rate=25250 (inst/sec) elapsed = 0:0:04:42 / Tue Mar 22 12:53:46 2016
GPGPU-Sim uArch: cycles simulated: 393000  inst.: 7140576 (ipc=18.2) sim_rate=25231 (inst/sec) elapsed = 0:0:04:43 / Tue Mar 22 12:53:47 2016
GPGPU-Sim PTX: 7200000 instructions simulated : ctaid=(9,0,0) tid=(223,0,0)
GPGPU-Sim uArch: cycles simulated: 394500  inst.: 7166432 (ipc=18.2) sim_rate=25233 (inst/sec) elapsed = 0:0:04:44 / Tue Mar 22 12:53:48 2016
GPGPU-Sim uArch: cycles simulated: 395500  inst.: 7186048 (ipc=18.2) sim_rate=25214 (inst/sec) elapsed = 0:0:04:45 / Tue Mar 22 12:53:49 2016
GPGPU-Sim uArch: cycles simulated: 397000  inst.: 7211456 (ipc=18.2) sim_rate=25214 (inst/sec) elapsed = 0:0:04:46 / Tue Mar 22 12:53:50 2016
GPGPU-Sim uArch: cycles simulated: 398000  inst.: 7227232 (ipc=18.2) sim_rate=25181 (inst/sec) elapsed = 0:0:04:47 / Tue Mar 22 12:53:51 2016
GPGPU-Sim uArch: cycles simulated: 399500  inst.: 7254624 (ipc=18.2) sim_rate=25189 (inst/sec) elapsed = 0:0:04:48 / Tue Mar 22 12:53:52 2016
GPGPU-Sim PTX: 7300000 instructions simulated : ctaid=(5,0,0) tid=(191,0,0)
GPGPU-Sim uArch: cycles simulated: 400500  inst.: 7274912 (ipc=18.2) sim_rate=25172 (inst/sec) elapsed = 0:0:04:49 / Tue Mar 22 12:53:53 2016
GPGPU-Sim uArch: cycles simulated: 402000  inst.: 7303520 (ipc=18.2) sim_rate=25184 (inst/sec) elapsed = 0:0:04:50 / Tue Mar 22 12:53:54 2016
GPGPU-Sim uArch: cycles simulated: 403000  inst.: 7317024 (ipc=18.2) sim_rate=25144 (inst/sec) elapsed = 0:0:04:51 / Tue Mar 22 12:53:55 2016
GPGPU-Sim uArch: cycles simulated: 404500  inst.: 7338176 (ipc=18.1) sim_rate=25130 (inst/sec) elapsed = 0:0:04:52 / Tue Mar 22 12:53:56 2016
GPGPU-Sim uArch: cycles simulated: 406000  inst.: 7363520 (ipc=18.1) sim_rate=25131 (inst/sec) elapsed = 0:0:04:53 / Tue Mar 22 12:53:57 2016
GPGPU-Sim PTX: 7400000 instructions simulated : ctaid=(4,0,0) tid=(31,0,0)
GPGPU-Sim uArch: cycles simulated: 407500  inst.: 7388384 (ipc=18.1) sim_rate=25130 (inst/sec) elapsed = 0:0:04:54 / Tue Mar 22 12:53:58 2016
GPGPU-Sim uArch: cycles simulated: 409500  inst.: 7424640 (ipc=18.1) sim_rate=25168 (inst/sec) elapsed = 0:0:04:55 / Tue Mar 22 12:53:59 2016
GPGPU-Sim uArch: cycles simulated: 411000  inst.: 7452288 (ipc=18.1) sim_rate=25176 (inst/sec) elapsed = 0:0:04:56 / Tue Mar 22 12:54:00 2016
GPGPU-Sim PTX: 7500000 instructions simulated : ctaid=(2,1,0) tid=(31,0,0)
GPGPU-Sim uArch: cycles simulated: 412500  inst.: 7471584 (ipc=18.1) sim_rate=25156 (inst/sec) elapsed = 0:0:04:57 / Tue Mar 22 12:54:01 2016
GPGPU-Sim uArch: cycles simulated: 414000  inst.: 7501312 (ipc=18.1) sim_rate=25172 (inst/sec) elapsed = 0:0:04:58 / Tue Mar 22 12:54:02 2016
GPGPU-Sim uArch: cycles simulated: 416000  inst.: 7528896 (ipc=18.1) sim_rate=25180 (inst/sec) elapsed = 0:0:04:59 / Tue Mar 22 12:54:03 2016
GPGPU-Sim uArch: cycles simulated: 417500  inst.: 7556192 (ipc=18.1) sim_rate=25187 (inst/sec) elapsed = 0:0:05:00 / Tue Mar 22 12:54:04 2016
GPGPU-Sim PTX: 7600000 instructions simulated : ctaid=(10,1,0) tid=(95,0,0)
GPGPU-Sim uArch: cycles simulated: 419000  inst.: 7581664 (ipc=18.1) sim_rate=25188 (inst/sec) elapsed = 0:0:05:01 / Tue Mar 22 12:54:05 2016
GPGPU-Sim uArch: cycles simulated: 420500  inst.: 7608096 (ipc=18.1) sim_rate=25192 (inst/sec) elapsed = 0:0:05:02 / Tue Mar 22 12:54:06 2016
GPGPU-Sim uArch: cycles simulated: 422500  inst.: 7642528 (ipc=18.1) sim_rate=25222 (inst/sec) elapsed = 0:0:05:03 / Tue Mar 22 12:54:07 2016
GPGPU-Sim PTX: 7700000 instructions simulated : ctaid=(4,0,0) tid=(31,0,0)
GPGPU-Sim uArch: cycles simulated: 424000  inst.: 7671328 (ipc=18.1) sim_rate=25234 (inst/sec) elapsed = 0:0:05:04 / Tue Mar 22 12:54:08 2016
GPGPU-Sim uArch: cycles simulated: 425500  inst.: 7696512 (ipc=18.1) sim_rate=25234 (inst/sec) elapsed = 0:0:05:05 / Tue Mar 22 12:54:09 2016
GPGPU-Sim uArch: cycles simulated: 427000  inst.: 7720864 (ipc=18.1) sim_rate=25231 (inst/sec) elapsed = 0:0:05:06 / Tue Mar 22 12:54:10 2016
GPGPU-Sim uArch: cycles simulated: 428500  inst.: 7742240 (ipc=18.1) sim_rate=25219 (inst/sec) elapsed = 0:0:05:07 / Tue Mar 22 12:54:11 2016
GPGPU-Sim uArch: cycles simulated: 430000  inst.: 7765344 (ipc=18.1) sim_rate=25212 (inst/sec) elapsed = 0:0:05:08 / Tue Mar 22 12:54:12 2016
GPGPU-Sim PTX: 7800000 instructions simulated : ctaid=(2,2,0) tid=(95,0,0)
GPGPU-Sim uArch: cycles simulated: 431500  inst.: 7789088 (ipc=18.1) sim_rate=25207 (inst/sec) elapsed = 0:0:05:09 / Tue Mar 22 12:54:13 2016
GPGPU-Sim uArch: cycles simulated: 433000  inst.: 7816480 (ipc=18.1) sim_rate=25214 (inst/sec) elapsed = 0:0:05:10 / Tue Mar 22 12:54:14 2016
GPGPU-Sim uArch: cycles simulated: 435000  inst.: 7847776 (ipc=18.0) sim_rate=25234 (inst/sec) elapsed = 0:0:05:11 / Tue Mar 22 12:54:15 2016
GPGPU-Sim uArch: cycles simulated: 436000  inst.: 7863904 (ipc=18.0) sim_rate=25204 (inst/sec) elapsed = 0:0:05:12 / Tue Mar 22 12:54:16 2016
GPGPU-Sim PTX: 7900000 instructions simulated : ctaid=(1,1,0) tid=(159,0,0)
GPGPU-Sim uArch: cycles simulated: 438000  inst.: 7896320 (ipc=18.0) sim_rate=25227 (inst/sec) elapsed = 0:0:05:13 / Tue Mar 22 12:54:17 2016
GPGPU-Sim uArch: cycles simulated: 439500  inst.: 7923744 (ipc=18.0) sim_rate=25234 (inst/sec) elapsed = 0:0:05:14 / Tue Mar 22 12:54:18 2016
GPGPU-Sim uArch: cycles simulated: 441500  inst.: 7956256 (ipc=18.0) sim_rate=25257 (inst/sec) elapsed = 0:0:05:15 / Tue Mar 22 12:54:19 2016
GPGPU-Sim PTX: 8000000 instructions simulated : ctaid=(3,1,0) tid=(223,0,0)
GPGPU-Sim uArch: cycles simulated: 443000  inst.: 7983744 (ipc=18.0) sim_rate=25265 (inst/sec) elapsed = 0:0:05:16 / Tue Mar 22 12:54:20 2016
GPGPU-Sim uArch: cycles simulated: 444500  inst.: 8009440 (ipc=18.0) sim_rate=25266 (inst/sec) elapsed = 0:0:05:17 / Tue Mar 22 12:54:21 2016
GPGPU-Sim uArch: cycles simulated: 445500  inst.: 8028224 (ipc=18.0) sim_rate=25245 (inst/sec) elapsed = 0:0:05:18 / Tue Mar 22 12:54:22 2016
GPGPU-Sim uArch: cycles simulated: 447000  inst.: 8051328 (ipc=18.0) sim_rate=25239 (inst/sec) elapsed = 0:0:05:19 / Tue Mar 22 12:54:23 2016
GPGPU-Sim PTX: 8100000 instructions simulated : ctaid=(0,0,0) tid=(223,0,0)
GPGPU-Sim uArch: cycles simulated: 448500  inst.: 8078784 (ipc=18.0) sim_rate=25246 (inst/sec) elapsed = 0:0:05:20 / Tue Mar 22 12:54:24 2016
[...]
GPGPU-Sim uArch: cycles simulated: 8396500  inst.: 150462097 (ipc=17.9) sim_rate=27292 (inst/sec) elapsed = 0:1:31:53 / Tue Mar 22 14:20:57 2016
GPGPU-Sim uArch: cycles simulated: 8398000  inst.: 150490609 (ipc=17.9) sim_rate=27292 (inst/sec) elapsed = 0:1:31:54 / Tue Mar 22 14:20:58 2016
GPGPU-Sim PTX: 150800000 instructions simulated : ctaid=(10,3,0) tid=(189,0,0)
GPGPU-Sim uArch: cycles simulated: 8399500  inst.: 150516433 (ipc=17.9) sim_rate=27292 (inst/sec) elapsed = 0:1:31:55 / Tue Mar 22 14:20:59 2016
GPGPU-Sim uArch: cycles simulated: 8401000  inst.: 150544113 (ipc=17.9) sim_rate=27292 (inst/sec) elapsed = 0:1:31:56 / Tue Mar 22 14:21:00 2016
GPGPU-Sim uArch: cycles simulated: 8402500  inst.: 150573201 (ipc=17.9) sim_rate=27292 (inst/sec) elapsed = 0:1:31:57 / Tue Mar 22 14:21:01 2016
GPGPU-Sim uArch: Shader 0 finished CTA #1 (8402941,0), 5 CTAs running
GPGPU-Sim uArch: core:  0, cta: 1 initialized @(8402942,0)
GPGPU-Sim uArch: cycles simulated: 8404000  inst.: 150599729 (ipc=17.9) sim_rate=27292 (inst/sec) elapsed = 0:1:31:58 / Tue Mar 22 14:21:02 2016
GPGPU-Sim PTX: 150900000 instructions simulated : ctaid=(3,3,0) tid=(189,0,0)
GPGPU-Sim uArch: cycles simulated: 8406000  inst.: 150636849 (ipc=17.9) sim_rate=27294 (inst/sec) elapsed = 0:1:31:59 / Tue Mar 22 14:21:03 2016
GPGPU-Sim uArch: cycles simulated: 8407500  inst.: 150665617 (ipc=17.9) sim_rate=27294 (inst/sec) elapsed = 0:1:32:00 / Tue Mar 22 14:21:04 2016
GPGPU-Sim uArch: cycles simulated: 8409000  inst.: 150690865 (ipc=17.9) sim_rate=27294 (inst/sec) elapsed = 0:1:32:01 / Tue Mar 22 14:21:05 2016
GPGPU-Sim PTX: 151000000 instructions simulated : ctaid=(3,3,0) tid=(253,0,0)
GPGPU-Sim uArch: cycles simulated: 8410500  inst.: 150718161 (ipc=17.9) sim_rate=27294 (inst/sec) elapsed = 0:1:32:02 / Tue Mar 22 14:21:06 2016
GPGPU-Sim uArch: cycles simulated: 8412000  inst.: 150749457 (ipc=17.9) sim_rate=27294 (inst/sec) elapsed = 0:1:32:03 / Tue Mar 22 14:21:07 2016
GPGPU-Sim uArch: cycles simulated: 8413500  inst.: 150773233 (ipc=17.9) sim_rate=27294 (inst/sec) elapsed = 0:1:32:04 / Tue Mar 22 14:21:08 2016
GPGPU-Sim PTX: 151100000 instructions simulated : ctaid=(5,1,0) tid=(253,0,0)
GPGPU-Sim uArch: cycles simulated: 8415500  inst.: 150811633 (ipc=17.9) sim_rate=27296 (inst/sec) elapsed = 0:1:32:05 / Tue Mar 22 14:21:09 2016
GPGPU-Sim uArch: cycles simulated: 8417000  inst.: 150835345 (ipc=17.9) sim_rate=27295 (inst/sec) elapsed = 0:1:32:06 / Tue Mar 22 14:21:10 2016
GPGPU-Sim uArch: cycles simulated: 8418500  inst.: 150863456 (ipc=17.9) sim_rate=27295 (inst/sec) elapsed = 0:1:32:07 / Tue Mar 22 14:21:11 2016
GPGPU-Sim uArch: Shader 8 finished CTA #1 (8419815,0), 5 CTAs running
GPGPU-Sim uArch: core:  8, cta: 1 initialized @(8419816,0)
GPGPU-Sim uArch: cycles simulated: 8420000  inst.: 150894368 (ipc=17.9) sim_rate=27296 (inst/sec) elapsed = 0:1:32:08 / Tue Mar 22 14:21:12 2016
GPGPU-Sim PTX: 151200000 instructions simulated : ctaid=(9,3,0) tid=(191,0,0)
GPGPU-Sim uArch: cycles simulated: 8421500  inst.: 150922816 (ipc=17.9) sim_rate=27296 (inst/sec) elapsed = 0:1:32:09 / Tue Mar 22 14:21:13 2016
GPGPU-Sim uArch: cycles simulated: 8423000  inst.: 150950599 (ipc=17.9) sim_rate=27296 (inst/sec) elapsed = 0:1:32:10 / Tue Mar 22 14:21:14 2016
GPGPU-Sim uArch: Shader 1 finished CTA #1 (8424134,0), 5 CTAs running
GPGPU-Sim uArch: core:  1, cta: 1 initialized @(8424135,0)
GPGPU-Sim uArch: cycles simulated: 8424500  inst.: 150982951 (ipc=17.9) sim_rate=27297 (inst/sec) elapsed = 0:1:32:11 / Tue Mar 22 14:21:15 2016
GPGPU-Sim PTX: 151300000 instructions simulated : ctaid=(9,3,0) tid=(49,0,0)
GPGPU-Sim uArch: cycles simulated: 8426000  inst.: 151014727 (ipc=17.9) sim_rate=27298 (inst/sec) elapsed = 0:1:32:12 / Tue Mar 22 14:21:16 2016
GPGPU-Sim uArch: cycles simulated: 8427500  inst.: 151040007 (ipc=17.9) sim_rate=27298 (inst/sec) elapsed = 0:1:32:13 / Tue Mar 22 14:21:17 2016
GPGPU-Sim uArch: cycles simulated: 8429000  inst.: 151072455 (ipc=17.9) sim_rate=27298 (inst/sec) elapsed = 0:1:32:14 / Tue Mar 22 14:21:18 2016
GPGPU-Sim uArch: cycles simulated: 8430500  inst.: 151097063 (ipc=17.9) sim_rate=27298 (inst/sec) elapsed = 0:1:32:15 / Tue Mar 22 14:21:19 2016
GPGPU-Sim PTX: 151400000 instructions simulated : ctaid=(10,3,0) tid=(49,0,0)
GPGPU-Sim uArch: cycles simulated: 8432000  inst.: 151121773 (ipc=17.9) sim_rate=27298 (inst/sec) elapsed = 0:1:32:16 / Tue Mar 22 14:21:20 2016
GPGPU-Sim uArch: Shader 6 finished CTA #1 (8433339,0), 5 CTAs running
GPGPU-Sim uArch: core:  6, cta: 1 initialized @(8433340,0)
GPGPU-Sim uArch: cycles simulated: 8433500  inst.: 151151725 (ipc=17.9) sim_rate=27298 (inst/sec) elapsed = 0:1:32:17 / Tue Mar 22 14:21:21 2016
GPGPU-Sim uArch: cycles simulated: 8435000  inst.: 151181613 (ipc=17.9) sim_rate=27298 (inst/sec) elapsed = 0:1:32:18 / Tue Mar 22 14:21:22 2016
GPGPU-Sim PTX: 151500000 instructions simulated : ctaid=(0,5,0) tid=(37,0,0)
GPGPU-Sim uArch: cycles simulated: 8436500  inst.: 151208621 (ipc=17.9) sim_rate=27298 (inst/sec) elapsed = 0:1:32:19 / Tue Mar 22 14:21:23 2016
GPGPU-Sim uArch: cycles simulated: 8438000  inst.: 151239917 (ipc=17.9) sim_rate=27299 (inst/sec) elapsed = 0:1:32:20 / Tue Mar 22 14:21:24 2016
GPGPU-Sim uArch: cycles simulated: 8439500  inst.: 151269037 (ipc=17.9) sim_rate=27299 (inst/sec) elapsed = 0:1:32:21 / Tue Mar 22 14:21:25 2016
GPGPU-Sim uArch: cycles simulated: 8441000  inst.: 151297201 (ipc=17.9) sim_rate=27300 (inst/sec) elapsed = 0:1:32:22 / Tue Mar 22 14:21:26 2016
GPGPU-Sim PTX: 151600000 instructions simulated : ctaid=(4,3,0) tid=(125,0,0)
GPGPU-Sim uArch: cycles simulated: 8442500  inst.: 151325105 (ipc=17.9) sim_rate=27300 (inst/sec) elapsed = 0:1:32:23 / Tue Mar 22 14:21:27 2016
GPGPU-Sim uArch: Shader 3 finished CTA #1 (8443332,0), 5 CTAs running
GPGPU-Sim uArch: core:  3, cta: 1 initialized @(8443333,0)
GPGPU-Sim uArch: cycles simulated: 8444000  inst.: 151352241 (ipc=17.9) sim_rate=27300 (inst/sec) elapsed = 0:1:32:24 / Tue Mar 22 14:21:28 2016
GPGPU-Sim uArch: cycles simulated: 8445500  inst.: 151380790 (ipc=17.9) sim_rate=27300 (inst/sec) elapsed = 0:1:32:25 / Tue Mar 22 14:21:29 2016
GPGPU-Sim uArch: Shader 2 finished CTA #1 (8446344,0), 5 CTAs running
GPGPU-Sim uArch: core:  2, cta: 1 initialized @(8446345,0)
GPGPU-Sim PTX: 151700000 instructions simulated : ctaid=(0,10,0) tid=(147,0,0)
GPGPU-Sim uArch: cycles simulated: 8447000  inst.: 151411286 (ipc=17.9) sim_rate=27300 (inst/sec) elapsed = 0:1:32:26 / Tue Mar 22 14:21:30 2016
GPGPU-Sim uArch: cycles simulated: 8448500  inst.: 151437110 (ipc=17.9) sim_rate=27300 (inst/sec) elapsed = 0:1:32:27 / Tue Mar 22 14:21:31 2016
GPGPU-Sim uArch: cycles simulated: 8450000  inst.: 151470614 (ipc=17.9) sim_rate=27301 (inst/sec) elapsed = 0:1:32:28 / Tue Mar 22 14:21:32 2016
GPGPU-Sim PTX: 151800000 instructions simulated : ctaid=(8,9,0) tid=(147,0,0)
GPGPU-Sim uArch: cycles simulated: 8451500  inst.: 151499510 (ipc=17.9) sim_rate=27302 (inst/sec) elapsed = 0:1:32:29 / Tue Mar 22 14:21:33 2016
GPGPU-Sim uArch: cycles simulated: 8453000  inst.: 151523958 (ipc=17.9) sim_rate=27301 (inst/sec) elapsed = 0:1:32:30 / Tue Mar 22 14:21:34 2016
GPGPU-Sim uArch: cycles simulated: 8454500  inst.: 151548854 (ipc=17.9) sim_rate=27301 (inst/sec) elapsed = 0:1:32:31 / Tue Mar 22 14:21:35 2016
GPGPU-Sim uArch: cycles simulated: 8456000  inst.: 151574710 (ipc=17.9) sim_rate=27300 (inst/sec) elapsed = 0:1:32:32 / Tue Mar 22 14:21:36 2016
GPGPU-Sim PTX: 151900000 instructions simulated : ctaid=(7,3,0) tid=(115,0,0)
GPGPU-Sim uArch: cycles simulated: 8457500  inst.: 151604374 (ipc=17.9) sim_rate=27301 (inst/sec) elapsed = 0:1:32:33 / Tue Mar 22 14:21:37 2016
GPGPU-Sim uArch: cycles simulated: 8459000  inst.: 151627382 (ipc=17.9) sim_rate=27300 (inst/sec) elapsed = 0:1:32:34 / Tue Mar 22 14:21:38 2016
GPGPU-Sim uArch: cycles simulated: 8460500  inst.: 151653494 (ipc=17.9) sim_rate=27300 (inst/sec) elapsed = 0:1:32:35 / Tue Mar 22 14:21:39 2016
GPGPU-Sim uArch: cycles simulated: 8462000  inst.: 151680598 (ipc=17.9) sim_rate=27300 (inst/sec) elapsed = 0:1:32:36 / Tue Mar 22 14:21:40 2016
GPGPU-Sim PTX: 152000000 instructions simulated : ctaid=(5,4,0) tid=(51,0,0)
GPGPU-Sim uArch: cycles simulated: 8463500  inst.: 151708086 (ipc=17.9) sim_rate=27300 (inst/sec) elapsed = 0:1:32:37 / Tue Mar 22 14:21:41 2016
GPGPU-Sim uArch: cycles simulated: 8465000  inst.: 151731062 (ipc=17.9) sim_rate=27299 (inst/sec) elapsed = 0:1:32:38 / Tue Mar 22 14:21:42 2016
GPGPU-Sim uArch: cycles simulated: 8466500  inst.: 151758550 (ipc=17.9) sim_rate=27299 (inst/sec) elapsed = 0:1:32:39 / Tue Mar 22 14:21:43 2016
GPGPU-Sim uArch: cycles simulated: 8468000  inst.: 151784822 (ipc=17.9) sim_rate=27299 (inst/sec) elapsed = 0:1:32:40 / Tue Mar 22 14:21:44 2016
GPGPU-Sim PTX: 152100000 instructions simulated : ctaid=(0,3,0) tid=(51,0,0)
GPGPU-Sim uArch: cycles simulated: 8470000  inst.: 151821526 (ipc=17.9) sim_rate=27301 (inst/sec) elapsed = 0:1:32:41 / Tue Mar 22 14:21:45 2016
GPGPU-Sim uArch: cycles simulated: 8471500  inst.: 151852918 (ipc=17.9) sim_rate=27301 (inst/sec) elapsed = 0:1:32:42 / Tue Mar 22 14:21:46 2016
GPGPU-Sim uArch: cycles simulated: 8473500  inst.: 151886934 (ipc=17.9) sim_rate=27303 (inst/sec) elapsed = 0:1:32:43 / Tue Mar 22 14:21:47 2016
GPGPU-Sim PTX: 152200000 instructions simulated : ctaid=(1,2,0) tid=(243,0,0)
GPGPU-Sim uArch: cycles simulated: 8475000  inst.: 151915862 (ipc=17.9) sim_rate=27303 (inst/sec) elapsed = 0:1:32:44 / Tue Mar 22 14:21:48 2016
GPGPU-Sim uArch: cycles simulated: 8477000  inst.: 151954966 (ipc=17.9) sim_rate=27305 (inst/sec) elapsed = 0:1:32:45 / Tue Mar 22 14:21:49 2016
GPGPU-Sim uArch: cycles simulated: 8478500  inst.: 151980118 (ipc=17.9) sim_rate=27305 (inst/sec) elapsed = 0:1:32:46 / Tue Mar 22 14:21:50 2016
GPGPU-Sim PTX: 152300000 instructions simulated : ctaid=(10,1,0) tid=(243,0,0)
GPGPU-Sim uArch: cycles simulated: 8480500  inst.: 152016758 (ipc=17.9) sim_rate=27306 (inst/sec) elapsed = 0:1:32:47 / Tue Mar 22 14:21:51 2016
GPGPU-Sim uArch: cycles simulated: 8482000  inst.: 152041985 (ipc=17.9) sim_rate=27306 (inst/sec) elapsed = 0:1:32:48 / Tue Mar 22 14:21:52 2016
GPGPU-Sim uArch: Shader 13 finished CTA #1 (8482624,0), 5 CTAs running
GPGPU-Sim uArch: core: 13, cta: 1 initialized @(8482625,0)
GPGPU-Sim uArch: cycles simulated: 8483500  inst.: 152072929 (ipc=17.9) sim_rate=27307 (inst/sec) elapsed = 0:1:32:49 / Tue Mar 22 14:21:53 2016
GPGPU-Sim uArch: cycles simulated: 8484500  inst.: 152090305 (ipc=17.9) sim_rate=27305 (inst/sec) elapsed = 0:1:32:50 / Tue Mar 22 14:21:54 2016
GPGPU-Sim PTX: 152400000 instructions simulated : ctaid=(6,3,0) tid=(189,0,0)
GPGPU-Sim uArch: cycles simulated: 8486000  inst.: 152123124 (ipc=17.9) sim_rate=27306 (inst/sec) elapsed = 0:1:32:51 / Tue Mar 22 14:21:55 2016
GPGPU-Sim uArch: Shader 9 finished CTA #1 (8486835,0), 5 CTAs running
GPGPU-Sim uArch: core:  9, cta: 1 initialized @(8486836,0)
GPGPU-Sim uArch: cycles simulated: 8487000  inst.: 152142100 (ipc=17.9) sim_rate=27304 (inst/sec) elapsed = 0:1:32:52 / Tue Mar 22 14:21:56 2016
GPGPU-Sim uArch: cycles simulated: 8488500  inst.: 152171319 (ipc=17.9) sim_rate=27305 (inst/sec) elapsed = 0:1:32:53 / Tue Mar 22 14:21:57 2016
GPGPU-Sim uArch: Shader 7 finished CTA #1 (8489215,0), 5 CTAs running
GPGPU-Sim uArch: core:  7, cta: 1 initialized @(8489216,0)
GPGPU-Sim PTX: 152500000 instructions simulated : ctaid=(3,10,0) tid=(209,0,0)
GPGPU-Sim uArch: cycles simulated: 8490000  inst.: 152204343 (ipc=17.9) sim_rate=27306 (inst/sec) elapsed = 0:1:32:54 / Tue Mar 22 14:21:58 2016
GPGPU-Sim uArch: cycles simulated: 8491500  inst.: 152232983 (ipc=17.9) sim_rate=27306 (inst/sec) elapsed = 0:1:32:55 / Tue Mar 22 14:21:59 2016
GPGPU-Sim uArch: cycles simulated: 8493000  inst.: 152262935 (ipc=17.9) sim_rate=27306 (inst/sec) elapsed = 0:1:32:56 / Tue Mar 22 14:22:00 2016
GPGPU-Sim uArch: cycles simulated: 8494500  inst.: 152287799 (ipc=17.9) sim_rate=27306 (inst/sec) elapsed = 0:1:32:57 / Tue Mar 22 14:22:01 2016
GPGPU-Sim PTX: 152600000 instructions simulated : ctaid=(10,3,0) tid=(113,0,0)
GPGPU-Sim uArch: cycles simulated: 8496000  inst.: 152313847 (ipc=17.9) sim_rate=27306 (inst/sec) elapsed = 0:1:32:58 / Tue Mar 22 14:22:02 2016
GPGPU-Sim uArch: cycles simulated: 8497500  inst.: 152344887 (ipc=17.9) sim_rate=27306 (inst/sec) elapsed = 0:1:32:59 / Tue Mar 22 14:22:03 2016
GPGPU-Sim uArch: cycles simulated: 8499000  inst.: 152372215 (ipc=17.9) sim_rate=27306 (inst/sec) elapsed = 0:1:33:00 / Tue Mar 22 14:22:04 2016
GPGPU-Sim PTX: 152700000 instructions simulated : ctaid=(1,3,0) tid=(241,0,0)
GPGPU-Sim uArch: cycles simulated: 8500500  inst.: 152397271 (ipc=17.9) sim_rate=27306 (inst/sec) elapsed = 0:1:33:01 / Tue Mar 22 14:22:05 2016
GPGPU-Sim uArch: cycles simulated: 8502000  inst.: 152422935 (ipc=17.9) sim_rate=27306 (inst/sec) elapsed = 0:1:33:02 / Tue Mar 22 14:22:06 2016
GPGPU-Sim uArch: cycles simulated: 8503000  inst.: 152442295 (ipc=17.9) sim_rate=27304 (inst/sec) elapsed = 0:1:33:03 / Tue Mar 22 14:22:07 2016
GPGPU-Sim uArch: cycles simulated: 8504500  inst.: 152469111 (ipc=17.9) sim_rate=27304 (inst/sec) elapsed = 0:1:33:04 / Tue Mar 22 14:22:08 2016
GPGPU-Sim uArch: cycles simulated: 8505500  inst.: 152490647 (ipc=17.9) sim_rate=27303 (inst/sec) elapsed = 0:1:33:05 / Tue Mar 22 14:22:09 2016
GPGPU-Sim PTX: 152800000 instructions simulated : ctaid=(1,3,0) tid=(241,0,0)
GPGPU-Sim uArch: Shader 14 finished CTA #1 (8506208,0), 5 CTAs running
GPGPU-Sim uArch: core: 14, cta: 1 initialized @(8506209,0)
GPGPU-Sim uArch: cycles simulated: 8507000  inst.: 152522967 (ipc=17.9) sim_rate=27304 (inst/sec) elapsed = 0:1:33:06 / Tue Mar 22 14:22:10 2016
GPGPU-Sim uArch: cycles simulated: 8508000  inst.: 152541847 (ipc=17.9) sim_rate=27302 (inst/sec) elapsed = 0:1:33:07 / Tue Mar 22 14:22:11 2016
GPGPU-Sim uArch: cycles simulated: 8509500  inst.: 152574743 (ipc=17.9) sim_rate=27303 (inst/sec) elapsed = 0:1:33:08 / Tue Mar 22 14:22:12 2016
GPGPU-Sim uArch: cycles simulated: 8510500  inst.: 152590807 (ipc=17.9) sim_rate=27301 (inst/sec) elapsed = 0:1:33:09 / Tue Mar 22 14:22:13 2016
GPGPU-Sim PTX: 152900000 instructions simulated : ctaid=(0,3,0) tid=(189,0,0)
GPGPU-Sim uArch: cycles simulated: 8512000  inst.: 152617601 (ipc=17.9) sim_rate=27301 (inst/sec) elapsed = 0:1:33:10 / Tue Mar 22 14:22:14 2016
GPGPU-Sim uArch: cycles simulated: 8513000  inst.: 152635681 (ipc=17.9) sim_rate=27300 (inst/sec) elapsed = 0:1:33:11 / Tue Mar 22 14:22:15 2016
GPGPU-Sim uArch: Shader 5 finished CTA #1 (8513431,0), 5 CTAs running
GPGPU-Sim uArch: core:  5, cta: 1 initialized @(8513432,0)
GPGPU-Sim uArch: cycles simulated: 8514500  inst.: 152668257 (ipc=17.9) sim_rate=27301 (inst/sec) elapsed = 0:1:33:12 / Tue Mar 22 14:22:16 2016
GPGPU-Sim uArch: cycles simulated: 8516000  inst.: 152696001 (ipc=17.9) sim_rate=27301 (inst/sec) elapsed = 0:1:33:13 / Tue Mar 22 14:22:17 2016
GPGPU-Sim PTX: 153000000 instructions simulated : ctaid=(0,4,0) tid=(61,0,0)
GPGPU-Sim uArch: cycles simulated: 8517500  inst.: 152722529 (ipc=17.9) sim_rate=27301 (inst/sec) elapsed = 0:1:33:14 / Tue Mar 22 14:22:18 2016
GPGPU-Sim uArch: cycles simulated: 8519000  inst.: 152752641 (ipc=17.9) sim_rate=27301 (inst/sec) elapsed = 0:1:33:15 / Tue Mar 22 14:22:19 2016
GPGPU-Sim uArch: cycles simulated: 8520500  inst.: 152781415 (ipc=17.9) sim_rate=27301 (inst/sec) elapsed = 0:1:33:16 / Tue Mar 22 14:22:20 2016
GPGPU-Sim PTX: 153100000 instructions simulated : ctaid=(8,9,0) tid=(17,0,0)
GPGPU-Sim uArch: cycles simulated: 8521500  inst.: 152799463 (ipc=17.9) sim_rate=27300 (inst/sec) elapsed = 0:1:33:17 / Tue Mar 22 14:22:21 2016
GPGPU-Sim uArch: Shader 10 finished CTA #1 (8522222,0), 5 CTAs running
GPGPU-Sim uArch: core: 10, cta: 1 initialized @(8522223,0)
GPGPU-Sim uArch: cycles simulated: 8523000  inst.: 152828622 (ipc=17.9) sim_rate=27300 (inst/sec) elapsed = 0:1:33:18 / Tue Mar 22 14:22:22 2016
GPGPU-Sim uArch: Shader 4 finished CTA #1 (8524232,0), 5 CTAs running
GPGPU-Sim uArch: core:  4, cta: 1 initialized @(8524233,0)
GPGPU-Sim uArch: cycles simulated: 8524500  inst.: 152862158 (ipc=17.9) sim_rate=27301 (inst/sec) elapsed = 0:1:33:19 / Tue Mar 22 14:22:23 2016
GPGPU-Sim uArch: cycles simulated: 8525500  inst.: 152878158 (ipc=17.9) sim_rate=27299 (inst/sec) elapsed = 0:1:33:20 / Tue Mar 22 14:22:24 2016
GPGPU-Sim PTX: 153200000 instructions simulated : ctaid=(3,3,0) tid=(35,0,0)
GPGPU-Sim uArch: cycles simulated: 8527000  inst.: 152905166 (ipc=17.9) sim_rate=27299 (inst/sec) elapsed = 0:1:33:21 / Tue Mar 22 14:22:25 2016
GPGPU-Sim uArch: cycles simulated: 8528000  inst.: 152923630 (ipc=17.9) sim_rate=27298 (inst/sec) elapsed = 0:1:33:22 / Tue Mar 22 14:22:26 2016
GPGPU-Sim uArch: cycles simulated: 8529500  inst.: 152951886 (ipc=17.9) sim_rate=27298 (inst/sec) elapsed = 0:1:33:23 / Tue Mar 22 14:22:27 2016
GPGPU-Sim uArch: cycles simulated: 8530500  inst.: 152970446 (ipc=17.9) sim_rate=27296 (inst/sec) elapsed = 0:1:33:24 / Tue Mar 22 14:22:28 2016
GPGPU-Sim uArch: cycles simulated: 8531500  inst.: 152991342 (ipc=17.9) sim_rate=27295 (inst/sec) elapsed = 0:1:33:25 / Tue Mar 22 14:22:29 2016
GPGPU-Sim PTX: 153300000 instructions simulated : ctaid=(10,3,0) tid=(163,0,0)
GPGPU-Sim uArch: cycles simulated: 8533000  inst.: 153017902 (ipc=17.9) sim_rate=27295 (inst/sec) elapsed = 0:1:33:26 / Tue Mar 22 14:22:30 2016
GPGPU-Sim uArch: cycles simulated: 8534000  inst.: 153036174 (ipc=17.9) sim_rate=27293 (inst/sec) elapsed = 0:1:33:27 / Tue Mar 22 14:22:31 2016
GPGPU-Sim uArch: cycles simulated: 8535500  inst.: 153063982 (ipc=17.9) sim_rate=27293 (inst/sec) elapsed = 0:1:33:28 / Tue Mar 22 14:22:32 2016
GPGPU-Sim uArch: cycles simulated: 8536500  inst.: 153082926 (ipc=17.9) sim_rate=27292 (inst/sec) elapsed = 0:1:33:29 / Tue Mar 22 14:22:33 2016
GPGPU-Sim PTX: 153400000 instructions simulated : ctaid=(7,9,0) tid=(131,0,0)
GPGPU-Sim uArch: cycles simulated: 8538000  inst.: 153114254 (ipc=17.9) sim_rate=27293 (inst/sec) elapsed = 0:1:33:30 / Tue Mar 22 14:22:34 2016
GPGPU-Sim uArch: Shader 11 finished CTA #1 (8538346,0), 5 CTAs running
GPGPU-Sim uArch: core: 11, cta: 1 initialized @(8538347,0)
GPGPU-Sim uArch: cycles simulated: 8539000  inst.: 153132494 (ipc=17.9) sim_rate=27291 (inst/sec) elapsed = 0:1:33:31 / Tue Mar 22 14:22:35 2016
GPGPU-Sim uArch: cycles simulated: 8540000  inst.: 153153390 (ipc=17.9) sim_rate=27290 (inst/sec) elapsed = 0:1:33:32 / Tue Mar 22 14:22:36 2016
GPGPU-Sim uArch: Shader 12 finished CTA #1 (8540523,0), 5 CTAs running
GPGPU-Sim uArch: core: 12, cta: 1 initialized @(8540524,0)
GPGPU-Sim uArch: cycles simulated: 8541500  inst.: 153179150 (ipc=17.9) sim_rate=27290 (inst/sec) elapsed = 0:1:33:33 / Tue Mar 22 14:22:37 2016
GPGPU-Sim PTX: 153500000 instructions simulated : ctaid=(0,3,0) tid=(35,0,0)
GPGPU-Sim uArch: cycles simulated: 8542500  inst.: 153202254 (ipc=17.9) sim_rate=27289 (inst/sec) elapsed = 0:1:33:34 / Tue Mar 22 14:22:38 2016
GPGPU-Sim uArch: cycles simulated: 8544000  inst.: 153232366 (ipc=17.9) sim_rate=27289 (inst/sec) elapsed = 0:1:33:35 / Tue Mar 22 14:22:39 2016
GPGPU-Sim uArch: cycles simulated: 8545000  inst.: 153251438 (ipc=17.9) sim_rate=27288 (inst/sec) elapsed = 0:1:33:36 / Tue Mar 22 14:22:40 2016
GPGPU-Sim uArch: cycles simulated: 8546500  inst.: 153279534 (ipc=17.9) sim_rate=27288 (inst/sec) elapsed = 0:1:33:37 / Tue Mar 22 14:22:41 2016
GPGPU-Sim PTX: 153600000 instructions simulated : ctaid=(0,10,0) tid=(3,0,0)
GPGPU-Sim uArch: cycles simulated: 8547500  inst.: 153298894 (ipc=17.9) sim_rate=27287 (inst/sec) elapsed = 0:1:33:38 / Tue Mar 22 14:22:42 2016
GPGPU-Sim uArch: cycles simulated: 8549000  inst.: 153327950 (ipc=17.9) sim_rate=27287 (inst/sec) elapsed = 0:1:33:39 / Tue Mar 22 14:22:43 2016
GPGPU-Sim uArch: cycles simulated: 8550000  inst.: 153346126 (ipc=17.9) sim_rate=27285 (inst/sec) elapsed = 0:1:33:40 / Tue Mar 22 14:22:44 2016
