

        *** GPGPU-Sim Simulator Version 3.2.2  [build 0] ***


GPGPU-Sim PTX: simulation mode 0 (can change with PTX_SIM_MODE_FUNC environment variable:
               1=functional simulation only, 0=detailed performance simulator)
GPGPU-Sim: Configuration options:

-network_mode                           1 # Interconnection network mode
-inter_config_file   config_fermi_islip.icnt # Interconnection network config file
-gpgpu_ptx_use_cuobjdump                    1 # Use cuobjdump to extract ptx and sass from binaries
-gpgpu_experimental_lib_support                    0 # Try to extract code from cuda libraries [Broken because of unknown cudaGetExportTable]
-gpgpu_ptx_convert_to_ptxplus                    0 # Convert SASS (native ISA) to ptxplus and run ptxplus
-gpgpu_ptx_force_max_capability                   20 # Force maximum compute capability
-gpgpu_ptx_inst_debug_to_file                    0 # Dump executed instructions' debug information to file
-gpgpu_ptx_inst_debug_file       inst_debug.txt # Executed instructions' debug output file
-gpgpu_ptx_inst_debug_thread_uid                    1 # Thread UID for executed instructions' debug output
-gpgpu_simd_model                       1 # 1 = post-dominator
-gpgpu_shader_core_pipeline              1536:32 # shader core pipeline config, i.e., {<nthread>:<warpsize>}
-gpgpu_tex_cache:l1  4:128:24,L:R:m:N:L,F:128:4,128:2 # per-shader L1 texture cache  (READ-ONLY) config  {<nsets>:<bsize>:<assoc>,<rep>:<wr>:<alloc>:<wr_alloc>,<mshr>:<N>:<merge>,<mq>:<rf>}
-gpgpu_const_cache:l1 64:64:2,L:R:f:N:L,A:2:32,4 # per-shader L1 constant memory cache  (READ-ONLY) config  {<nsets>:<bsize>:<assoc>,<rep>:<wr>:<alloc>:<wr_alloc>,<mshr>:<N>:<merge>,<mq>} 
-gpgpu_cache:il1     4:128:4,L:R:f:N:L,A:2:32,4 # shader L1 instruction cache config  {<nsets>:<bsize>:<assoc>,<rep>:<wr>:<alloc>:<wr_alloc>,<mshr>:<N>:<merge>,<mq>} 
-gpgpu_cache:dl1     32:128:4,L:L:m:N:H,A:32:8,8:2,0,1:0:1:1:0:1,1:4:8:16:32:64,/sciclone/data10/hwang07/GPU_RESEARCH/swl/swl_outputs/RESULTS/gto/ # per-shader L1 data cache config  {<nsets>:<bsize>:<assoc>,<rep>:<wr>:<alloc>:<wr_alloc>,<mshr>:<N>:<merge>,<mq> | none}
-gpgpu_cache:dl1PrefL1                 none # per-shader L1 data cache config  {<nsets>:<bsize>:<assoc>,<rep>:<wr>:<alloc>:<wr_alloc>,<mshr>:<N>:<merge>,<mq> | none}
-gpgpu_cache:dl1PreShared                 none # per-shader L1 data cache config  {<nsets>:<bsize>:<assoc>,<rep>:<wr>:<alloc>:<wr_alloc>,<mshr>:<N>:<merge>,<mq> | none}
-gmem_skip_L1D                          0 # global memory access skip L1D cache (implements -Xptxas -dlcm=cg, default=no skip)
-gpgpu_perfect_mem                      0 # enable perfect memory mode (no cache miss)
-n_regfile_gating_group                    4 # group of lanes that should be read/written together)
-gpgpu_clock_gated_reg_file                    0 # enable clock gated reg file for power calculations
-gpgpu_clock_gated_lanes                    0 # enable clock gated lanes for power calculations
-gpgpu_shader_registers                32768 # Number of registers per shader core. Limits number of concurrent CTAs. (default 8192)
-gpgpu_shader_cta                       8 # Maximum number of concurrent CTAs in shader (default 8)
-gpgpu_num_cta_barriers                   16 # Maximum number of named barriers per CTA (default 16)
-gpgpu_n_clusters                      15 # number of processing clusters
-gpgpu_n_cores_per_cluster                    1 # number of simd cores per cluster
-gpgpu_n_cluster_ejection_buffer_size                    8 # number of packets in ejection buffer
-gpgpu_n_ldst_response_buffer_size                    2 # number of response packets in ld/st unit ejection buffer
-gpgpu_shmem_size                   16384 # Size of shared memory per shader core (default 16kB)
-gpgpu_shmem_size                   49152 # Size of shared memory per shader core (default 16kB)
-gpgpu_shmem_size_PrefL1                16384 # Size of shared memory per shader core (default 16kB)
-gpgpu_shmem_size_PrefShared                16384 # Size of shared memory per shader core (default 16kB)
-gpgpu_shmem_num_banks                   32 # Number of banks in the shared memory in each shader core (default 16)
-gpgpu_shmem_limited_broadcast                    0 # Limit shared memory to do one broadcast per cycle (default on)
-gpgpu_shmem_warp_parts                    1 # Number of portions a warp is divided into for shared memory bank conflict check 
-gpgpu_warpdistro_shader                   -1 # Specify which shader core to collect the warp size distribution from
-gpgpu_warp_issue_shader                    0 # Specify which shader core to collect the warp issue distribution from
-gpgpu_local_mem_map                    1 # Mapping from local memory space address to simulated GPU physical address space (default = enabled)
-gpgpu_num_reg_banks                   16 # Number of register banks (default = 8)
-gpgpu_reg_bank_use_warp_id                    0 # Use warp ID in mapping registers to banks (default = off)
-gpgpu_operand_collector_num_units_sp                    6 # number of collector units (default = 4)
-gpgpu_operand_collector_num_units_sfu                    8 # number of collector units (default = 4)
-gpgpu_operand_collector_num_units_mem                    2 # number of collector units (default = 2)
-gpgpu_operand_collector_num_units_gen                    0 # number of collector units (default = 0)
-gpgpu_operand_collector_num_in_ports_sp                    2 # number of collector unit in ports (default = 1)
-gpgpu_operand_collector_num_in_ports_sfu                    1 # number of collector unit in ports (default = 1)
-gpgpu_operand_collector_num_in_ports_mem                    1 # number of collector unit in ports (default = 1)
-gpgpu_operand_collector_num_in_ports_gen                    0 # number of collector unit in ports (default = 0)
-gpgpu_operand_collector_num_out_ports_sp                    2 # number of collector unit in ports (default = 1)
-gpgpu_operand_collector_num_out_ports_sfu                    1 # number of collector unit in ports (default = 1)
-gpgpu_operand_collector_num_out_ports_mem                    1 # number of collector unit in ports (default = 1)
-gpgpu_operand_collector_num_out_ports_gen                    0 # number of collector unit in ports (default = 0)
-gpgpu_coalesce_arch                   13 # Coalescing arch (default = 13, anything else is off for now)
-gpgpu_num_sched_per_core                    2 # Number of warp schedulers per core
-gpgpu_max_insn_issue_per_warp                    1 # Max number of instructions that can be issued per warp in one cycle by scheduler
-gpgpu_simt_core_sim_order                    1 # Select the simulation order of cores in a cluster (0=Fix, 1=Round-Robin)
-gpgpu_pipeline_widths        2,1,1,2,1,1,2 # Pipeline widths ID_OC_SP,ID_OC_SFU,ID_OC_MEM,OC_EX_SP,OC_EX_SFU,OC_EX_MEM,EX_WB
-gpgpu_num_sp_units                     2 # Number of SP units (default=1)
-gpgpu_num_sfu_units                    1 # Number of SF units (default=1)
-gpgpu_num_mem_units                    1 # Number if ldst units (default=1) WARNING: not hooked up to anything
-gpgpu_scheduler                      gto # Scheduler configuration: < lrr | gto | two_level_active > If two_level_active:<num_active_warps>:<inner_prioritization>:<outer_prioritization>For complete list of prioritization values see shader.h enum scheduler_prioritization_typeDefault: gto
-gpgpu_dram_scheduler                    1 # 0 = fifo, 1 = FR-FCFS (defaul)
-gpgpu_dram_partition_queues              8:8:8:8 # i2$:$2d:d2$:$2i
-l2_ideal                               0 # Use a ideal L2 cache that always hit
-gpgpu_cache:dl2     64:128:8,L:B:m:W:L,A:32:4,4:0,32 # unified banked L2 data cache config  {<nsets>:<bsize>:<assoc>,<rep>:<wr>:<alloc>:<wr_alloc>,<mshr>:<N>:<merge>,<mq>}
-gpgpu_cache:dl2_texture_only                    0 # L2 cache used for texture only
-gpgpu_n_mem                            6 # number of memory modules (e.g. memory controllers) in gpu
-gpgpu_n_sub_partition_per_mchannel                    2 # number of memory subpartition in each memory module
-gpgpu_n_mem_per_ctrlr                    2 # number of memory chips per memory controller
-gpgpu_memlatency_stat                   14 # track and display latency statistics 0x2 enables MC, 0x4 enables queue logs
-gpgpu_frfcfs_dram_sched_queue_size                   16 # 0 = unlimited (default); # entries per chip
-gpgpu_dram_return_queue_size                  116 # 0 = unlimited (default); # entries per chip
-gpgpu_dram_buswidth                    4 # default = 4 bytes (8 bytes per cycle at DDR)
-gpgpu_dram_burst_length                    8 # Burst length of each DRAM request (default = 4 data bus cycle)
-dram_data_command_freq_ratio                    4 # Frequency ratio between DRAM data bus and command bus (default = 2 times, i.e. DDR)
-gpgpu_dram_timing_opt nbk=16:CCD=2:RRD=6:RCD=12:RAS=28:RP=12:RC=40: CL=12:WL=4:CDLR=5:WR=12:nbkgrp=4:CCDL=3:RTPL=2 # DRAM timing parameters = {nbk:tCCD:tRRD:tRCD:tRAS:tRP:tRC:CL:WL:tCDLR:tWR:nbkgrp:tCCDL:tRTPL}
-rop_latency                          120 # ROP queue latency (default 85)
-dram_latency                         100 # DRAM latency (default 30)
-gpgpu_mem_addr_mapping dramid@8;00000000.00000000.00000000.00000000.0000RRRR.RRRRRRRR.BBBCCCCB.CCSSSSSS # mapping memory address to dram model {dramid@<start bit>;<memory address map>}
-gpgpu_mem_addr_test                    0 # run sweep test to check address mapping for aliased address
-gpgpu_mem_address_mask                    1 # 0 = old addressing mask, 1 = new addressing mask, 2 = new add. mask + flipped bank sel and chip sel bits
-gpuwattch_xml_file  gpuwattch_gtx480.xml # GPUWattch XML file
-power_simulation_enabled                    0 # Turn on power simulator (1=On, 0=Off)
-power_per_cycle_dump                    0 # Dump detailed power output each cycle
-power_trace_enabled                    0 # produce a file for the power trace (1=On, 0=Off)
-power_trace_zlevel                     6 # Compression level of the power trace output log (0=no comp, 9=highest)
-steady_power_levels_enabled                    0 # produce a file for the steady power levels (1=On, 0=Off)
-steady_state_definition                  8:4 # allowed deviation:number of samples
-gpgpu_max_cycle                        0 # terminates gpu simulation early (0 = no limit)
-gpgpu_max_insn                         0 # terminates gpu simulation early (0 = no limit)
-gpgpu_max_cta                          0 # terminates gpu simulation early (0 = no limit)
-gpgpu_runtime_stat                   500 # display runtime statistics such as dram utilization {<freq>:<flag>}
-liveness_message_freq                    1 # Minimum number of seconds between simulation liveness messages (0 = always print)
-gpgpu_flush_l1_cache                    0 # Flush L1 cache at the end of each kernel call
-gpgpu_flush_l2_cache                    0 # Flush L2 cache at the end of each kernel call
-gpgpu_deadlock_detect                    1 # Stop the simulation at deadlock (1=on (default), 0=off)
-gpgpu_ptx_instruction_classification                    0 # if enabled will classify ptx instruction types per kernel (Max 255 kernels now)
-gpgpu_ptx_sim_mode                     0 # Select between Performance (default) or Functional simulation (1)
-gpgpu_clock_domains 700.0:700.0:700.0:924.0 # Clock Domain Frequencies in MhZ {<Core Clock>:<ICNT Clock>:<L2 Clock>:<DRAM Clock>}
-gpgpu_max_concurrent_kernel                    8 # maximum kernels that can run concurrently on GPU
-gpgpu_cflog_interval                    0 # Interval between each snapshot in control flow logger
-visualizer_enabled                     0 # Turn on visualizer output (1=On, 0=Off)
-visualizer_outputfile                 NULL # Specifies the output log file for visualizer
-visualizer_zlevel                      6 # Compression level of the visualizer output log (0=no comp, 9=highest)
-trace_enabled                          0 # Turn on traces
-trace_components                    none # comma seperated list of traces to enable. Complete list found in trace_streams.tup. Default none
-trace_sampling_core                    0 # The core which is printed using CORE_DPRINTF. Default 0
-trace_sampling_memory_partition                   -1 # The memory partition which is printed using MEMPART_DPRINTF. Default -1 (i.e. all)
-enable_ptx_file_line_stats                    1 # Turn on PTX source line statistic profiling. (1 = On)
-ptx_line_stats_filename gpgpu_inst_stats.txt # Output file for PTX source line statistics.
-save_embedded_ptx                      0 # saves ptx files embedded in binary as <n>.ptx
-keep                                   0 # keep intermediate files created by GPGPU-Sim when interfacing with external programs
-gpgpu_ptx_save_converted_ptxplus                    0 # Saved converted ptxplus to a file
-ptx_opcode_latency_int         4,13,4,5,145 # Opcode latencies for integers <ADD,MAX,MUL,MAD,DIV>Default 1,1,19,25,145
-ptx_opcode_latency_fp          4,13,4,5,39 # Opcode latencies for single precision floating points <ADD,MAX,MUL,MAD,DIV>Default 1,1,1,1,30
-ptx_opcode_latency_dp         8,19,8,8,330 # Opcode latencies for double precision floating points <ADD,MAX,MUL,MAD,DIV>Default 8,8,8,8,335
-ptx_opcode_initiation_int            1,2,2,1,8 # Opcode initiation intervals for integers <ADD,MAX,MUL,MAD,DIV>Default 1,1,4,4,32
-ptx_opcode_initiation_fp            1,2,1,1,4 # Opcode initiation intervals for single precision floating points <ADD,MAX,MUL,MAD,DIV>Default 1,1,1,1,5
-ptx_opcode_initiation_dp         8,16,8,8,130 # Opcode initiation intervals for double precision floating points <ADD,MAX,MUL,MAD,DIV>Default 8,8,8,8,130
DRAM Timing Options:
nbk                                    16 # number of banks
CCD                                     2 # column to column delay
RRD                                     6 # minimal delay between activation of rows in different banks
RCD                                    12 # row to column delay
RAS                                    28 # time needed to activate row
RP                                     12 # time needed to precharge (deactivate) row
RC                                     40 # row cycle time
CDLR                                    5 # switching from write to read (changes tWTR)
WR                                     12 # last data-in to row precharge
CL                                     12 # CAS latency
WL                                      4 # Write latency
nbkgrp                                  4 # number of bank groups
CCDL                                    3 # column to column delay between accesses to different bank groups
RTPL                                    2 # read to precharge delay between accesses to different bank groups
Total number of memory sub partition = 12
addr_dec_mask[CHIP]  = 0000000000000000 	high:64 low:0
addr_dec_mask[BK]    = 000000000000e100 	high:16 low:8
addr_dec_mask[ROW]   = 000000000fff0000 	high:28 low:16
addr_dec_mask[COL]   = 0000000000001eff 	high:13 low:0
addr_dec_mask[BURST] = 000000000000003f 	high:6 low:0
sub_partition_id_mask = 0000000000000100
GPGPU-Sim uArch: clock freqs: 700000000.000000:700000000.000000:700000000.000000:924000000.000000
GPGPU-Sim uArch: clock periods: 0.00000000142857142857:0.00000000142857142857:0.00000000142857142857:0.00000000108225108225
*** Initializing Memory Statistics ***
GPGPU-Sim uArch: interconnect node map (shaderID+MemID to icntID)
GPGPU-Sim uArch: Memory nodes ID start from index: 15
GPGPU-Sim uArch:    0   1   2   3   4
GPGPU-Sim uArch:    5   6   7   8   9
GPGPU-Sim uArch:   10  11  12  13  14
GPGPU-Sim uArch:   15  16  17  18  19
GPGPU-Sim uArch:   20  21  22  23  24
GPGPU-Sim uArch:   25  26
GPGPU-Sim uArch: interconnect node reverse map (icntID to shaderID+MemID)
GPGPU-Sim uArch: Memory nodes start from ID: 15
GPGPU-Sim uArch:    0   1   2   3   4
GPGPU-Sim uArch:    5   6   7   8   9
GPGPU-Sim uArch:   10  11  12  13  14
GPGPU-Sim uArch:   15  16  17  18  19
GPGPU-Sim uArch:   20  21  22  23  24
GPGPU-Sim uArch:   25  26
a694f6f961931330989587dbd586e872  /sciclone/data10/hwang07/adwait/applications/benchmarks/CUDA/KMN/gpgpu_ptx_sim__KMN
GPGPU-Sim uArch: performance model initialization complete.
GPGPU-Sim PTX: __cudaRegisterFatBinary, fat_cubin_handle = 1, filename=kmeans_cuda.cu
self exe links to: /sciclone/data10/hwang07/adwait/applications/benchmarks/CUDA/KMN/gpgpu_ptx_sim__KMN
Running md5sum using "md5sum /sciclone/data10/hwang07/adwait/applications/benchmarks/CUDA/KMN/gpgpu_ptx_sim__KMN "
Parsing file _cuobjdump_complete_output_UX86Yu
######### cuobjdump parser ########
## Adding new section ELF
Adding arch: sm_20
Adding identifier: kmeans_cuda.cu
## Adding new section PTX
Adding ptx filename: _cuobjdump_1.ptx
Adding arch: sm_20
Adding identifier: kmeans_cuda.cu
Done parsing!!!
GPGPU-Sim PTX: __cudaRegisterFunction _Z11kmeansPointPfiiiPiS_S_S0_ : hostFun 0x0x402a5e, fat_cubin_handle = 1
GPGPU-Sim PTX: instruction assembly for function '_Z14invert_mappingPfS_ii'...   done.
GPGPU-Sim PTX: finding reconvergence points for '_Z14invert_mappingPfS_ii'...
GPGPU-Sim PTX: Finding dominators for '_Z14invert_mappingPfS_ii'...
GPGPU-Sim PTX: Finding immediate dominators for '_Z14invert_mappingPfS_ii'...
GPGPU-Sim PTX: Finding postdominators for '_Z14invert_mappingPfS_ii'...
GPGPU-Sim PTX: Finding immediate postdominators for '_Z14invert_mappingPfS_ii'...
GPGPU-Sim PTX: pre-decoding instructions for '_Z14invert_mappingPfS_ii'...
GPGPU-Sim PTX: reconvergence points for _Z14invert_mappingPfS_ii...
GPGPU-Sim PTX:  1 (potential) branch divergence @  PC=0x038 (_1.ptx:70) @%p1 bra $Lt_0_2050;
GPGPU-Sim PTX:    immediate post dominator      @  PC=0x110 (_1.ptx:103) exit;
GPGPU-Sim PTX:  2 (potential) branch divergence @  PC=0x058 (_1.ptx:74) @%p2 bra $Lt_0_2562;
GPGPU-Sim PTX:    immediate post dominator      @  PC=0x110 (_1.ptx:103) exit;
GPGPU-Sim PTX:  3 (potential) branch divergence @  PC=0x108 (_1.ptx:99) @%p3 bra $Lt_0_3074;
GPGPU-Sim PTX:    immediate post dominator      @  PC=0x110 (_1.ptx:103) exit;
GPGPU-Sim PTX: ... end of reconvergence points for _Z14invert_mappingPfS_ii
GPGPU-Sim PTX: ... done pre-decoding instructions for '_Z14invert_mappingPfS_ii'.
GPGPU-Sim PTX: instruction assembly for function '_Z11kmeansPointPfiiiPiS_S_S0_'...   done.
GPGPU-Sim PTX: finding reconvergence points for '_Z11kmeansPointPfiiiPiS_S_S0_'...
GPGPU-Sim PTX: Finding dominators for '_Z11kmeansPointPfiiiPiS_S_S0_'...
GPGPU-Sim PTX: Finding immediate dominators for '_Z11kmeansPointPfiiiPiS_S_S0_'...
GPGPU-Sim PTX: Finding postdominators for '_Z11kmeansPointPfiiiPiS_S_S0_'...
GPGPU-Sim PTX: Finding immediate postdominators for '_Z11kmeansPointPfiiiPiS_S_S0_'...
GPGPU-Sim PTX: pre-decoding instructions for '_Z11kmeansPointPfiiiPiS_S_S0_'...
GPGPU-Sim PTX: reconvergence points for _Z11kmeansPointPfiiiPiS_S_S0_...
GPGPU-Sim PTX:  1 (potential) branch divergence @  PC=0x180 (_1.ptx:136) @!%p1 bra $Lt_1_4866;
GPGPU-Sim PTX:    immediate post dominator      @  PC=0x320 (_1.ptx:202) @!%p1 bra $Lt_1_7682;
GPGPU-Sim PTX:  2 (potential) branch divergence @  PC=0x1a0 (_1.ptx:140) @%p2 bra $Lt_1_8194;
GPGPU-Sim PTX:    immediate post dominator      @  PC=0x320 (_1.ptx:202) @!%p1 bra $Lt_1_7682;
GPGPU-Sim PTX:  3 (potential) branch divergence @  PC=0x1e8 (_1.ptx:151) @!%p3 bra $Lt_1_8450;
GPGPU-Sim PTX:    immediate post dominator      @  PC=0x2c8 (_1.ptx:185) setp.lt.f32 %p5, %f2, %f1;
GPGPU-Sim PTX:  4 (potential) branch divergence @  PC=0x2b0 (_1.ptx:180) @%p4 bra $Lt_1_6402;
GPGPU-Sim PTX:    immediate post dominator      @  PC=0x2b8 (_1.ptx:181) bra.uni $Lt_1_5890;
GPGPU-Sim PTX:  5 (potential) branch divergence @  PC=0x2b8 (_1.ptx:181) bra.uni $Lt_1_5890;
GPGPU-Sim PTX:    immediate post dominator      @  PC=0x2c8 (_1.ptx:185) setp.lt.f32 %p5, %f2, %f1;
GPGPU-Sim PTX:  6 (potential) branch divergence @  PC=0x2d0 (_1.ptx:186) @!%p5 bra $Lt_1_6914;
GPGPU-Sim PTX:    immediate post dominator      @  PC=0x2e8 (_1.ptx:192) add.s32 %r18, %r18, 1;
GPGPU-Sim PTX:  7 (potential) branch divergence @  PC=0x2f8 (_1.ptx:194) @%p6 bra $Lt_1_5634;
GPGPU-Sim PTX:    immediate post dominator      @  PC=0x300 (_1.ptx:195) bra.uni $Lt_1_4610;
GPGPU-Sim PTX:  8 (potential) branch divergence @  PC=0x300 (_1.ptx:195) bra.uni $Lt_1_4610;
GPGPU-Sim PTX:    immediate post dominator      @  PC=0x320 (_1.ptx:202) @!%p1 bra $Lt_1_7682;
GPGPU-Sim PTX:  9 (potential) branch divergence @  PC=0x310 (_1.ptx:198) bra.uni $Lt_1_4610;
GPGPU-Sim PTX:    immediate post dominator      @  PC=0x320 (_1.ptx:202) @!%p1 bra $Lt_1_7682;
GPGPU-Sim PTX: 10 (potential) branch divergence @  PC=0x320 (_1.ptx:202) @!%p1 bra $Lt_1_7682;
GPGPU-Sim PTX:    immediate post dominator      @  PC=0x350 (_1.ptx:211) exit;
GPGPU-Sim PTX: ... end of reconvergence points for _Z11kmeansPointPfiiiPiS_S_S0_
GPGPU-Sim PTX: ... done pre-decoding instructions for '_Z11kmeansPointPfiiiPiS_S_S0_'.
GPGPU-Sim PTX: allocating global region for "t_features" from 0x100 to 0x104 (global memory space)
GPGPU-Sim PTX: allocating global region for "t_features_flipped" from 0x104 to 0x108 (global memory space)
GPGPU-Sim PTX: allocating global region for "t_clusters" from 0x108 to 0x10c (global memory space)
GPGPU-Sim PTX: finished parsing EMBEDDED .ptx file _1.ptx
Adding _cuobjdump_1.ptx with cubin handle 1
GPGPU-Sim PTX: extracting embedded .ptx to temporary file "_ptx_ys7s6g"
Running: cat _ptx_ys7s6g | sed 's/.version 1.5/.version 1.4/' | sed 's/, texmode_independent//' | sed 's/\(\.extern \.const\[1\] .b8 \w\+\)\[\]/\1\[1\]/' | sed 's/const\[.\]/const\[0\]/g' > _ptx2_m2hRSa
GPGPU-Sim PTX: generating ptxinfo using "$CUDA_INSTALL_PATH/bin/ptxas --gpu-name=sm_20 -v _ptx2_m2hRSa --output-file  /dev/null 2> _ptx_ys7s6ginfo"
GPGPU-Sim PTX: Kernel '_Z11kmeansPointPfiiiPiS_S_S0_' : regs=15, lmem=0, smem=0, cmem=88
GPGPU-Sim PTX: Kernel '_Z14invert_mappingPfS_ii' : regs=10, lmem=0, smem=0, cmem=56
GPGPU-Sim PTX: removing ptxinfo using "rm -f _ptx_ys7s6g _ptx2_m2hRSa _ptx_ys7s6ginfo"
GPGPU-Sim PTX: loading globals with explicit initializers... 
GPGPU-Sim PTX: finished loading globals (0 bytes total).
GPGPU-Sim PTX: loading constants with explicit initializers...  done.
GPGPU-Sim PTX: __cudaRegisterFunction _Z14invert_mappingPfS_ii : hostFun 0x0x4028ce, fat_cubin_handle = 1
GPGPU-Sim PTX: in __cudaRegisterTexture:
GPGPU-Sim PTX:   int dim = 1
GPGPU-Sim PTX:   int norm = 0
GPGPU-Sim PTX:   int ext = 0
GPGPU-Sim PTX:   Execution warning: Not finished implementing "void __cudaRegisterTexture(void**, const textureReference*, const void**, const char*, int, int, int)"
GPGPU-Sim PTX: in __cudaRegisterTexture:
GPGPU-Sim PTX:   int dim = 1
GPGPU-Sim PTX:   int norm = 0
GPGPU-Sim PTX:   int ext = 0
GPGPU-Sim PTX:   Execution warning: Not finished implementing "void __cudaRegisterTexture(void**, const textureReference*, const void**, const char*, int, int, int)"
GPGPU-Sim PTX: in __cudaRegisterTexture:
GPGPU-Sim PTX:   int dim = 1
GPGPU-Sim PTX:   int norm = 0
GPGPU-Sim PTX:   int ext = 0
GPGPU-Sim PTX:   Execution warning: Not finished implementing "void __cudaRegisterTexture(void**, const textureReference*, const void**, const char*, int, int, int)"

I/O completed

Number of objects: 28672
Number of features: 138

GPGPU-Sim PTX: cudaLaunch for 0x0x402a5e (mode=performance simulation) on stream 0
GPGPU-Sim PTX: pushing kernel '_Z11kmeansPointPfiiiPiS_S_S0_' to stream 0, gridDim= (11,11,1) blockDim = (256,1,1) 
kernel '_Z11kmeansPointPfiiiPiS_S_S0_' transfer to GPU hardware scheduler
GPGPU-Sim uArch: Shader 1 bind to kernel 1 '_Z11kmeansPointPfiiiPiS_S_S0_'
GPGPU-Sim uArch: CTA/core = 6, limited by: threads
GPGPU-Sim uArch: core:  1, cta: 0 initialized @(1,0)
GPGPU-Sim uArch: Shader 2 bind to kernel 1 '_Z11kmeansPointPfiiiPiS_S_S0_'
GPGPU-Sim uArch: core:  2, cta: 0 initialized @(1,0)
GPGPU-Sim uArch: Shader 3 bind to kernel 1 '_Z11kmeansPointPfiiiPiS_S_S0_'
GPGPU-Sim uArch: core:  3, cta: 0 initialized @(1,0)
GPGPU-Sim uArch: Shader 4 bind to kernel 1 '_Z11kmeansPointPfiiiPiS_S_S0_'
GPGPU-Sim uArch: core:  4, cta: 0 initialized @(1,0)
GPGPU-Sim uArch: Shader 5 bind to kernel 1 '_Z11kmeansPointPfiiiPiS_S_S0_'
GPGPU-Sim uArch: core:  5, cta: 0 initialized @(1,0)
GPGPU-Sim uArch: Shader 6 bind to kernel 1 '_Z11kmeansPointPfiiiPiS_S_S0_'
GPGPU-Sim uArch: core:  6, cta: 0 initialized @(1,0)
GPGPU-Sim uArch: Shader 7 bind to kernel 1 '_Z11kmeansPointPfiiiPiS_S_S0_'
GPGPU-Sim uArch: core:  7, cta: 0 initialized @(1,0)
GPGPU-Sim uArch: Shader 8 bind to kernel 1 '_Z11kmeansPointPfiiiPiS_S_S0_'
GPGPU-Sim uArch: core:  8, cta: 0 initialized @(1,0)
GPGPU-Sim uArch: Shader 9 bind to kernel 1 '_Z11kmeansPointPfiiiPiS_S_S0_'
GPGPU-Sim uArch: core:  9, cta: 0 initialized @(1,0)
GPGPU-Sim uArch: Shader 10 bind to kernel 1 '_Z11kmeansPointPfiiiPiS_S_S0_'
GPGPU-Sim uArch: core: 10, cta: 0 initialized @(1,0)
GPGPU-Sim uArch: Shader 11 bind to kernel 1 '_Z11kmeansPointPfiiiPiS_S_S0_'
GPGPU-Sim uArch: core: 11, cta: 0 initialized @(1,0)
GPGPU-Sim uArch: Shader 12 bind to kernel 1 '_Z11kmeansPointPfiiiPiS_S_S0_'
GPGPU-Sim uArch: core: 12, cta: 0 initialized @(1,0)
GPGPU-Sim uArch: Shader 13 bind to kernel 1 '_Z11kmeansPointPfiiiPiS_S_S0_'
GPGPU-Sim uArch: core: 13, cta: 0 initialized @(1,0)
GPGPU-Sim uArch: Shader 14 bind to kernel 1 '_Z11kmeansPointPfiiiPiS_S_S0_'
GPGPU-Sim uArch: core: 14, cta: 0 initialized @(1,0)
GPGPU-Sim uArch: Shader 0 bind to kernel 1 '_Z11kmeansPointPfiiiPiS_S_S0_'
GPGPU-Sim uArch: core:  0, cta: 0 initialized @(1,0)
GPGPU-Sim uArch: core:  1, cta: 1 initialized @(2,0)
GPGPU-Sim uArch: core:  2, cta: 1 initialized @(2,0)
GPGPU-Sim uArch: core:  3, cta: 1 initialized @(2,0)
GPGPU-Sim uArch: core:  4, cta: 1 initialized @(2,0)
GPGPU-Sim uArch: core:  5, cta: 1 initialized @(2,0)
GPGPU-Sim uArch: core:  6, cta: 1 initialized @(2,0)
GPGPU-Sim uArch: core:  7, cta: 1 initialized @(2,0)
GPGPU-Sim uArch: core:  8, cta: 1 initialized @(2,0)
GPGPU-Sim uArch: core:  9, cta: 1 initialized @(2,0)
GPGPU-Sim uArch: core: 10, cta: 1 initialized @(2,0)
GPGPU-Sim uArch: core: 11, cta: 1 initialized @(2,0)
GPGPU-Sim uArch: core: 12, cta: 1 initialized @(2,0)
GPGPU-Sim uArch: core: 13, cta: 1 initialized @(2,0)
GPGPU-Sim uArch: core: 14, cta: 1 initialized @(2,0)
GPGPU-Sim uArch: core:  0, cta: 1 initialized @(2,0)
GPGPU-Sim uArch: core:  1, cta: 2 initialized @(3,0)
GPGPU-Sim uArch: core:  2, cta: 2 initialized @(3,0)
GPGPU-Sim uArch: core:  3, cta: 2 initialized @(3,0)
GPGPU-Sim uArch: core:  4, cta: 2 initialized @(3,0)
GPGPU-Sim uArch: core:  5, cta: 2 initialized @(3,0)
GPGPU-Sim uArch: core:  6, cta: 2 initialized @(3,0)
GPGPU-Sim uArch: core:  7, cta: 2 initialized @(3,0)
GPGPU-Sim uArch: core:  8, cta: 2 initialized @(3,0)
GPGPU-Sim uArch: core:  9, cta: 2 initialized @(3,0)
GPGPU-Sim uArch: core: 10, cta: 2 initialized @(3,0)
GPGPU-Sim uArch: core: 11, cta: 2 initialized @(3,0)
GPGPU-Sim uArch: core: 12, cta: 2 initialized @(3,0)
GPGPU-Sim uArch: core: 13, cta: 2 initialized @(3,0)
GPGPU-Sim uArch: core: 14, cta: 2 initialized @(3,0)
GPGPU-Sim uArch: core:  0, cta: 2 initialized @(3,0)
GPGPU-Sim uArch: core:  1, cta: 3 initialized @(4,0)
GPGPU-Sim uArch: core:  2, cta: 3 initialized @(4,0)
GPGPU-Sim uArch: core:  3, cta: 3 initialized @(4,0)
GPGPU-Sim uArch: core:  4, cta: 3 initialized @(4,0)
GPGPU-Sim uArch: core:  5, cta: 3 initialized @(4,0)
GPGPU-Sim uArch: core:  6, cta: 3 initialized @(4,0)
GPGPU-Sim uArch: core:  7, cta: 3 initialized @(4,0)
GPGPU-Sim uArch: core:  8, cta: 3 initialized @(4,0)
GPGPU-Sim uArch: core:  9, cta: 3 initialized @(4,0)
GPGPU-Sim uArch: core: 10, cta: 3 initialized @(4,0)
GPGPU-Sim uArch: core: 11, cta: 3 initialized @(4,0)
GPGPU-Sim uArch: core: 12, cta: 3 initialized @(4,0)
GPGPU-Sim uArch: core: 13, cta: 3 initialized @(4,0)
GPGPU-Sim uArch: core: 14, cta: 3 initialized @(4,0)
GPGPU-Sim uArch: core:  0, cta: 3 initialized @(4,0)
GPGPU-Sim uArch: core:  1, cta: 4 initialized @(5,0)
GPGPU-Sim uArch: core:  2, cta: 4 initialized @(5,0)
GPGPU-Sim uArch: core:  3, cta: 4 initialized @(5,0)
GPGPU-Sim uArch: core:  4, cta: 4 initialized @(5,0)
GPGPU-Sim uArch: core:  5, cta: 4 initialized @(5,0)
GPGPU-Sim uArch: core:  6, cta: 4 initialized @(5,0)
GPGPU-Sim uArch: core:  7, cta: 4 initialized @(5,0)
GPGPU-Sim uArch: core:  8, cta: 4 initialized @(5,0)
GPGPU-Sim uArch: core:  9, cta: 4 initialized @(5,0)
GPGPU-Sim uArch: core: 10, cta: 4 initialized @(5,0)
GPGPU-Sim uArch: core: 11, cta: 4 initialized @(5,0)
GPGPU-Sim uArch: core: 12, cta: 4 initialized @(5,0)
GPGPU-Sim uArch: core: 13, cta: 4 initialized @(5,0)
GPGPU-Sim uArch: core: 14, cta: 4 initialized @(5,0)
GPGPU-Sim uArch: core:  0, cta: 4 initialized @(5,0)
GPGPU-Sim uArch: core:  1, cta: 5 initialized @(6,0)
GPGPU-Sim uArch: core:  2, cta: 5 initialized @(6,0)
GPGPU-Sim uArch: core:  3, cta: 5 initialized @(6,0)
GPGPU-Sim uArch: core:  4, cta: 5 initialized @(6,0)
GPGPU-Sim uArch: core:  5, cta: 5 initialized @(6,0)
GPGPU-Sim uArch: core:  6, cta: 5 initialized @(6,0)
GPGPU-Sim uArch: core:  7, cta: 5 initialized @(6,0)
GPGPU-Sim uArch: core:  8, cta: 5 initialized @(6,0)
GPGPU-Sim uArch: core:  9, cta: 5 initialized @(6,0)
GPGPU-Sim uArch: core: 10, cta: 5 initialized @(6,0)
GPGPU-Sim uArch: core: 11, cta: 5 initialized @(6,0)
GPGPU-Sim uArch: core: 12, cta: 5 initialized @(6,0)
GPGPU-Sim uArch: core: 13, cta: 5 initialized @(6,0)
GPGPU-Sim uArch: core: 14, cta: 5 initialized @(6,0)
GPGPU-Sim uArch: core:  0, cta: 5 initialized @(6,0)
GPGPU-Sim PTX: 100000 instructions simulated : ctaid=(0,8,0) tid=(31,0,0)
GPGPU-Sim uArch: cycles simulated: 500  inst.: 149600 (ipc=299.2) sim_rate=11507 (inst/sec) elapsed = 0:0:00:13 / Tue Mar 22 07:37:03 2016
GPGPU-Sim PTX: 200000 instructions simulated : ctaid=(9,4,0) tid=(159,0,0)
GPGPU-Sim PTX: 300000 instructions simulated : ctaid=(9,0,0) tid=(31,0,0)
GPGPU-Sim PTX: 400000 instructions simulated : ctaid=(7,1,0) tid=(63,0,0)
GPGPU-Sim PTX: 500000 instructions simulated : ctaid=(4,4,0) tid=(63,0,0)
GPGPU-Sim PTX: 600000 instructions simulated : ctaid=(10,5,0) tid=(127,0,0)
GPGPU-Sim uArch: cycles simulated: 1500  inst.: 615712 (ipc=410.5) sim_rate=43979 (inst/sec) elapsed = 0:0:00:14 / Tue Mar 22 07:37:04 2016
GPGPU-Sim PTX: 700000 instructions simulated : ctaid=(5,4,0) tid=(223,0,0)
GPGPU-Sim PTX: 800000 instructions simulated : ctaid=(4,2,0) tid=(159,0,0)
GPGPU-Sim PTX: 900000 instructions simulated : ctaid=(10,4,0) tid=(63,0,0)
GPGPU-Sim uArch: cycles simulated: 2000  inst.: 855168 (ipc=427.6) sim_rate=38871 (inst/sec) elapsed = 0:0:00:22 / Tue Mar 22 07:37:12 2016
GPGPU-Sim uArch: cycles simulated: 3000  inst.: 857632 (ipc=285.9) sim_rate=37288 (inst/sec) elapsed = 0:0:00:23 / Tue Mar 22 07:37:13 2016
GPGPU-Sim uArch: cycles simulated: 4500  inst.: 863488 (ipc=191.9) sim_rate=35978 (inst/sec) elapsed = 0:0:00:24 / Tue Mar 22 07:37:14 2016
GPGPU-Sim uArch: cycles simulated: 6000  inst.: 896384 (ipc=149.4) sim_rate=35855 (inst/sec) elapsed = 0:0:00:25 / Tue Mar 22 07:37:15 2016
GPGPU-Sim uArch: cycles simulated: 6500  inst.: 901056 (ipc=138.6) sim_rate=34656 (inst/sec) elapsed = 0:0:00:26 / Tue Mar 22 07:37:16 2016
GPGPU-Sim uArch: cycles simulated: 7500  inst.: 910336 (ipc=121.4) sim_rate=33716 (inst/sec) elapsed = 0:0:00:27 / Tue Mar 22 07:37:17 2016
GPGPU-Sim uArch: cycles simulated: 8500  inst.: 923904 (ipc=108.7) sim_rate=32996 (inst/sec) elapsed = 0:0:00:28 / Tue Mar 22 07:37:18 2016
GPGPU-Sim PTX: 1000000 instructions simulated : ctaid=(7,2,0) tid=(159,0,0)
GPGPU-Sim uArch: cycles simulated: 9500  inst.: 938752 (ipc=98.8) sim_rate=32370 (inst/sec) elapsed = 0:0:00:29 / Tue Mar 22 07:37:19 2016
GPGPU-Sim uArch: cycles simulated: 10500  inst.: 950592 (ipc=90.5) sim_rate=31686 (inst/sec) elapsed = 0:0:00:30 / Tue Mar 22 07:37:20 2016
GPGPU-Sim uArch: cycles simulated: 11500  inst.: 963776 (ipc=83.8) sim_rate=31089 (inst/sec) elapsed = 0:0:00:31 / Tue Mar 22 07:37:21 2016
GPGPU-Sim uArch: cycles simulated: 12500  inst.: 984704 (ipc=78.8) sim_rate=30772 (inst/sec) elapsed = 0:0:00:32 / Tue Mar 22 07:37:22 2016
GPGPU-Sim uArch: cycles simulated: 14000  inst.: 1003808 (ipc=71.7) sim_rate=30418 (inst/sec) elapsed = 0:0:00:33 / Tue Mar 22 07:37:23 2016
GPGPU-Sim uArch: cycles simulated: 15000  inst.: 1018912 (ipc=67.9) sim_rate=29968 (inst/sec) elapsed = 0:0:00:34 / Tue Mar 22 07:37:24 2016
GPGPU-Sim PTX: 1100000 instructions simulated : ctaid=(0,0,0) tid=(159,0,0)
GPGPU-Sim uArch: cycles simulated: 16000  inst.: 1035328 (ipc=64.7) sim_rate=29580 (inst/sec) elapsed = 0:0:00:35 / Tue Mar 22 07:37:25 2016
GPGPU-Sim uArch: cycles simulated: 17000  inst.: 1052320 (ipc=61.9) sim_rate=29231 (inst/sec) elapsed = 0:0:00:36 / Tue Mar 22 07:37:26 2016
GPGPU-Sim uArch: cycles simulated: 18500  inst.: 1072704 (ipc=58.0) sim_rate=28992 (inst/sec) elapsed = 0:0:00:37 / Tue Mar 22 07:37:27 2016
GPGPU-Sim uArch: cycles simulated: 19500  inst.: 1089088 (ipc=55.9) sim_rate=28660 (inst/sec) elapsed = 0:0:00:38 / Tue Mar 22 07:37:28 2016
GPGPU-Sim uArch: cycles simulated: 20500  inst.: 1106272 (ipc=54.0) sim_rate=28365 (inst/sec) elapsed = 0:0:00:39 / Tue Mar 22 07:37:29 2016
GPGPU-Sim PTX: 1200000 instructions simulated : ctaid=(3,1,0) tid=(95,0,0)
GPGPU-Sim uArch: cycles simulated: 22000  inst.: 1129248 (ipc=51.3) sim_rate=28231 (inst/sec) elapsed = 0:0:00:40 / Tue Mar 22 07:37:30 2016
GPGPU-Sim uArch: cycles simulated: 23000  inst.: 1148608 (ipc=49.9) sim_rate=28014 (inst/sec) elapsed = 0:0:00:41 / Tue Mar 22 07:37:31 2016
GPGPU-Sim uArch: cycles simulated: 24500  inst.: 1173440 (ipc=47.9) sim_rate=27939 (inst/sec) elapsed = 0:0:00:42 / Tue Mar 22 07:37:32 2016
GPGPU-Sim uArch: cycles simulated: 25500  inst.: 1187488 (ipc=46.6) sim_rate=27616 (inst/sec) elapsed = 0:0:00:43 / Tue Mar 22 07:37:33 2016
GPGPU-Sim uArch: cycles simulated: 27000  inst.: 1220000 (ipc=45.2) sim_rate=27727 (inst/sec) elapsed = 0:0:00:44 / Tue Mar 22 07:37:34 2016
GPGPU-Sim PTX: 1300000 instructions simulated : ctaid=(8,0,0) tid=(95,0,0)
GPGPU-Sim uArch: cycles simulated: 28500  inst.: 1242464 (ipc=43.6) sim_rate=27610 (inst/sec) elapsed = 0:0:00:45 / Tue Mar 22 07:37:35 2016
GPGPU-Sim uArch: cycles simulated: 29500  inst.: 1256768 (ipc=42.6) sim_rate=27321 (inst/sec) elapsed = 0:0:00:46 / Tue Mar 22 07:37:36 2016
GPGPU-Sim uArch: cycles simulated: 30500  inst.: 1279808 (ipc=42.0) sim_rate=27229 (inst/sec) elapsed = 0:0:00:47 / Tue Mar 22 07:37:37 2016
GPGPU-Sim uArch: cycles simulated: 32000  inst.: 1304576 (ipc=40.8) sim_rate=27178 (inst/sec) elapsed = 0:0:00:48 / Tue Mar 22 07:37:38 2016
GPGPU-Sim uArch: cycles simulated: 33000  inst.: 1320448 (ipc=40.0) sim_rate=26947 (inst/sec) elapsed = 0:0:00:49 / Tue Mar 22 07:37:39 2016
GPGPU-Sim PTX: 1400000 instructions simulated : ctaid=(7,2,0) tid=(31,0,0)
GPGPU-Sim uArch: cycles simulated: 34500  inst.: 1351232 (ipc=39.2) sim_rate=27024 (inst/sec) elapsed = 0:0:00:50 / Tue Mar 22 07:37:40 2016
GPGPU-Sim uArch: cycles simulated: 35500  inst.: 1368320 (ipc=38.5) sim_rate=26829 (inst/sec) elapsed = 0:0:00:51 / Tue Mar 22 07:37:41 2016
GPGPU-Sim uArch: cycles simulated: 37000  inst.: 1392800 (ipc=37.6) sim_rate=26784 (inst/sec) elapsed = 0:0:00:52 / Tue Mar 22 07:37:42 2016
GPGPU-Sim uArch: cycles simulated: 38500  inst.: 1422016 (ipc=36.9) sim_rate=26830 (inst/sec) elapsed = 0:0:00:53 / Tue Mar 22 07:37:43 2016
GPGPU-Sim PTX: 1500000 instructions simulated : ctaid=(4,1,0) tid=(31,0,0)
GPGPU-Sim uArch: cycles simulated: 39500  inst.: 1443360 (ipc=36.5) sim_rate=26728 (inst/sec) elapsed = 0:0:00:54 / Tue Mar 22 07:37:44 2016
GPGPU-Sim uArch: cycles simulated: 40500  inst.: 1460384 (ipc=36.1) sim_rate=26552 (inst/sec) elapsed = 0:0:00:55 / Tue Mar 22 07:37:45 2016
GPGPU-Sim uArch: cycles simulated: 42000  inst.: 1484608 (ipc=35.3) sim_rate=26510 (inst/sec) elapsed = 0:0:00:56 / Tue Mar 22 07:37:46 2016
GPGPU-Sim uArch: cycles simulated: 43000  inst.: 1505120 (ipc=35.0) sim_rate=26405 (inst/sec) elapsed = 0:0:00:57 / Tue Mar 22 07:37:47 2016
GPGPU-Sim uArch: cycles simulated: 44000  inst.: 1522816 (ipc=34.6) sim_rate=26255 (inst/sec) elapsed = 0:0:00:58 / Tue Mar 22 07:37:48 2016
GPGPU-Sim PTX: 1600000 instructions simulated : ctaid=(0,2,0) tid=(95,0,0)
GPGPU-Sim uArch: cycles simulated: 45000  inst.: 1538880 (ipc=34.2) sim_rate=26082 (inst/sec) elapsed = 0:0:00:59 / Tue Mar 22 07:37:49 2016
GPGPU-Sim uArch: cycles simulated: 46000  inst.: 1554912 (ipc=33.8) sim_rate=25915 (inst/sec) elapsed = 0:0:01:00 / Tue Mar 22 07:37:50 2016
GPGPU-Sim uArch: cycles simulated: 47000  inst.: 1573696 (ipc=33.5) sim_rate=25798 (inst/sec) elapsed = 0:0:01:01 / Tue Mar 22 07:37:51 2016
GPGPU-Sim uArch: cycles simulated: 48000  inst.: 1587008 (ipc=33.1) sim_rate=25596 (inst/sec) elapsed = 0:0:01:02 / Tue Mar 22 07:37:52 2016
GPGPU-Sim uArch: cycles simulated: 49500  inst.: 1613248 (ipc=32.6) sim_rate=25607 (inst/sec) elapsed = 0:0:01:03 / Tue Mar 22 07:37:53 2016
GPGPU-Sim PTX: 1700000 instructions simulated : ctaid=(2,1,0) tid=(223,0,0)
GPGPU-Sim uArch: cycles simulated: 50500  inst.: 1629984 (ipc=32.3) sim_rate=25468 (inst/sec) elapsed = 0:0:01:04 / Tue Mar 22 07:37:54 2016
GPGPU-Sim uArch: cycles simulated: 51500  inst.: 1649120 (ipc=32.0) sim_rate=25371 (inst/sec) elapsed = 0:0:01:05 / Tue Mar 22 07:37:55 2016
GPGPU-Sim uArch: cycles simulated: 52500  inst.: 1664000 (ipc=31.7) sim_rate=25212 (inst/sec) elapsed = 0:0:01:06 / Tue Mar 22 07:37:56 2016
GPGPU-Sim uArch: cycles simulated: 53500  inst.: 1681056 (ipc=31.4) sim_rate=25090 (inst/sec) elapsed = 0:0:01:07 / Tue Mar 22 07:37:57 2016
GPGPU-Sim uArch: cycles simulated: 54500  inst.: 1700000 (ipc=31.2) sim_rate=25000 (inst/sec) elapsed = 0:0:01:08 / Tue Mar 22 07:37:58 2016
GPGPU-Sim uArch: cycles simulated: 55500  inst.: 1718688 (ipc=31.0) sim_rate=24908 (inst/sec) elapsed = 0:0:01:09 / Tue Mar 22 07:37:59 2016
GPGPU-Sim PTX: 1800000 instructions simulated : ctaid=(10,0,0) tid=(95,0,0)
GPGPU-Sim uArch: cycles simulated: 56500  inst.: 1739872 (ipc=30.8) sim_rate=24855 (inst/sec) elapsed = 0:0:01:10 / Tue Mar 22 07:38:00 2016
GPGPU-Sim uArch: cycles simulated: 57500  inst.: 1756192 (ipc=30.5) sim_rate=24735 (inst/sec) elapsed = 0:0:01:11 / Tue Mar 22 07:38:01 2016
GPGPU-Sim uArch: cycles simulated: 59000  inst.: 1781152 (ipc=30.2) sim_rate=24738 (inst/sec) elapsed = 0:0:01:12 / Tue Mar 22 07:38:02 2016
GPGPU-Sim uArch: cycles simulated: 60000  inst.: 1800768 (ipc=30.0) sim_rate=24668 (inst/sec) elapsed = 0:0:01:13 / Tue Mar 22 07:38:03 2016
GPGPU-Sim uArch: cycles simulated: 61000  inst.: 1819328 (ipc=29.8) sim_rate=24585 (inst/sec) elapsed = 0:0:01:14 / Tue Mar 22 07:38:04 2016
GPGPU-Sim PTX: 1900000 instructions simulated : ctaid=(1,0,0) tid=(223,0,0)
GPGPU-Sim uArch: cycles simulated: 62000  inst.: 1834944 (ipc=29.6) sim_rate=24465 (inst/sec) elapsed = 0:0:01:15 / Tue Mar 22 07:38:05 2016
GPGPU-Sim uArch: cycles simulated: 63000  inst.: 1850688 (ipc=29.4) sim_rate=24351 (inst/sec) elapsed = 0:0:01:16 / Tue Mar 22 07:38:06 2016
GPGPU-Sim uArch: cycles simulated: 64000  inst.: 1870336 (ipc=29.2) sim_rate=24290 (inst/sec) elapsed = 0:0:01:17 / Tue Mar 22 07:38:07 2016
GPGPU-Sim uArch: cycles simulated: 65000  inst.: 1890176 (ipc=29.1) sim_rate=24233 (inst/sec) elapsed = 0:0:01:18 / Tue Mar 22 07:38:08 2016
GPGPU-Sim uArch: cycles simulated: 66500  inst.: 1921984 (ipc=28.9) sim_rate=24328 (inst/sec) elapsed = 0:0:01:19 / Tue Mar 22 07:38:09 2016
GPGPU-Sim PTX: 2000000 instructions simulated : ctaid=(1,0,0) tid=(95,0,0)
GPGPU-Sim uArch: cycles simulated: 67500  inst.: 1937248 (ipc=28.7) sim_rate=24215 (inst/sec) elapsed = 0:0:01:20 / Tue Mar 22 07:38:10 2016
GPGPU-Sim uArch: cycles simulated: 68500  inst.: 1953696 (ipc=28.5) sim_rate=24119 (inst/sec) elapsed = 0:0:01:21 / Tue Mar 22 07:38:11 2016
GPGPU-Sim uArch: cycles simulated: 69500  inst.: 1969344 (ipc=28.3) sim_rate=24016 (inst/sec) elapsed = 0:0:01:22 / Tue Mar 22 07:38:12 2016
GPGPU-Sim uArch: cycles simulated: 70500  inst.: 1988000 (ipc=28.2) sim_rate=23951 (inst/sec) elapsed = 0:0:01:23 / Tue Mar 22 07:38:13 2016
GPGPU-Sim uArch: cycles simulated: 71500  inst.: 2002272 (ipc=28.0) sim_rate=23836 (inst/sec) elapsed = 0:0:01:24 / Tue Mar 22 07:38:14 2016
GPGPU-Sim uArch: cycles simulated: 72500  inst.: 2020064 (ipc=27.9) sim_rate=23765 (inst/sec) elapsed = 0:0:01:25 / Tue Mar 22 07:38:15 2016
GPGPU-Sim PTX: 2100000 instructions simulated : ctaid=(0,1,0) tid=(159,0,0)
GPGPU-Sim uArch: cycles simulated: 73500  inst.: 2039616 (ipc=27.7) sim_rate=23716 (inst/sec) elapsed = 0:0:01:26 / Tue Mar 22 07:38:16 2016
GPGPU-Sim uArch: cycles simulated: 75000  inst.: 2064608 (ipc=27.5) sim_rate=23731 (inst/sec) elapsed = 0:0:01:27 / Tue Mar 22 07:38:17 2016
GPGPU-Sim uArch: cycles simulated: 76000  inst.: 2087296 (ipc=27.5) sim_rate=23719 (inst/sec) elapsed = 0:0:01:28 / Tue Mar 22 07:38:18 2016
GPGPU-Sim uArch: cycles simulated: 77000  inst.: 2102784 (ipc=27.3) sim_rate=23626 (inst/sec) elapsed = 0:0:01:29 / Tue Mar 22 07:38:19 2016
GPGPU-Sim uArch: cycles simulated: 78000  inst.: 2122752 (ipc=27.2) sim_rate=23586 (inst/sec) elapsed = 0:0:01:30 / Tue Mar 22 07:38:20 2016
GPGPU-Sim PTX: 2200000 instructions simulated : ctaid=(8,0,0) tid=(95,0,0)
GPGPU-Sim uArch: cycles simulated: 79000  inst.: 2140480 (ipc=27.1) sim_rate=23521 (inst/sec) elapsed = 0:0:01:31 / Tue Mar 22 07:38:21 2016
GPGPU-Sim uArch: cycles simulated: 80500  inst.: 2166432 (ipc=26.9) sim_rate=23548 (inst/sec) elapsed = 0:0:01:32 / Tue Mar 22 07:38:22 2016
GPGPU-Sim uArch: cycles simulated: 81500  inst.: 2181568 (ipc=26.8) sim_rate=23457 (inst/sec) elapsed = 0:0:01:33 / Tue Mar 22 07:38:23 2016
GPGPU-Sim uArch: cycles simulated: 82500  inst.: 2199040 (ipc=26.7) sim_rate=23394 (inst/sec) elapsed = 0:0:01:34 / Tue Mar 22 07:38:24 2016
GPGPU-Sim uArch: cycles simulated: 83500  inst.: 2220960 (ipc=26.6) sim_rate=23378 (inst/sec) elapsed = 0:0:01:35 / Tue Mar 22 07:38:25 2016
GPGPU-Sim PTX: 2300000 instructions simulated : ctaid=(3,1,0) tid=(31,0,0)
GPGPU-Sim uArch: cycles simulated: 85000  inst.: 2246240 (ipc=26.4) sim_rate=23398 (inst/sec) elapsed = 0:0:01:36 / Tue Mar 22 07:38:26 2016
GPGPU-Sim uArch: cycles simulated: 86000  inst.: 2262912 (ipc=26.3) sim_rate=23328 (inst/sec) elapsed = 0:0:01:37 / Tue Mar 22 07:38:27 2016
GPGPU-Sim uArch: cycles simulated: 87000  inst.: 2282464 (ipc=26.2) sim_rate=23290 (inst/sec) elapsed = 0:0:01:38 / Tue Mar 22 07:38:28 2016
GPGPU-Sim uArch: cycles simulated: 88500  inst.: 2313056 (ipc=26.1) sim_rate=23364 (inst/sec) elapsed = 0:0:01:39 / Tue Mar 22 07:38:29 2016
GPGPU-Sim PTX: 2400000 instructions simulated : ctaid=(6,2,0) tid=(31,0,0)
GPGPU-Sim uArch: cycles simulated: 90000  inst.: 2334304 (ipc=25.9) sim_rate=23343 (inst/sec) elapsed = 0:0:01:40 / Tue Mar 22 07:38:30 2016
GPGPU-Sim uArch: cycles simulated: 91000  inst.: 2358336 (ipc=25.9) sim_rate=23349 (inst/sec) elapsed = 0:0:01:41 / Tue Mar 22 07:38:31 2016
GPGPU-Sim uArch: cycles simulated: 92500  inst.: 2381440 (ipc=25.7) sim_rate=23347 (inst/sec) elapsed = 0:0:01:42 / Tue Mar 22 07:38:32 2016
GPGPU-Sim uArch: cycles simulated: 93500  inst.: 2403008 (ipc=25.7) sim_rate=23330 (inst/sec) elapsed = 0:0:01:43 / Tue Mar 22 07:38:33 2016
GPGPU-Sim PTX: 2500000 instructions simulated : ctaid=(2,0,0) tid=(159,0,0)
GPGPU-Sim uArch: cycles simulated: 95000  inst.: 2430944 (ipc=25.6) sim_rate=23374 (inst/sec) elapsed = 0:0:01:44 / Tue Mar 22 07:38:34 2016
GPGPU-Sim uArch: cycles simulated: 96000  inst.: 2445792 (ipc=25.5) sim_rate=23293 (inst/sec) elapsed = 0:0:01:45 / Tue Mar 22 07:38:35 2016
GPGPU-Sim uArch: cycles simulated: 97500  inst.: 2474592 (ipc=25.4) sim_rate=23345 (inst/sec) elapsed = 0:0:01:46 / Tue Mar 22 07:38:36 2016
GPGPU-Sim uArch: cycles simulated: 98500  inst.: 2493216 (ipc=25.3) sim_rate=23301 (inst/sec) elapsed = 0:0:01:47 / Tue Mar 22 07:38:37 2016
GPGPU-Sim uArch: cycles simulated: 99500  inst.: 2510432 (ipc=25.2) sim_rate=23244 (inst/sec) elapsed = 0:0:01:48 / Tue Mar 22 07:38:38 2016
GPGPU-Sim uArch: cycles simulated: 100500  inst.: 2525568 (ipc=25.1) sim_rate=23170 (inst/sec) elapsed = 0:0:01:49 / Tue Mar 22 07:38:39 2016
GPGPU-Sim PTX: 2600000 instructions simulated : ctaid=(3,2,0) tid=(31,0,0)
GPGPU-Sim uArch: cycles simulated: 101500  inst.: 2550272 (ipc=25.1) sim_rate=23184 (inst/sec) elapsed = 0:0:01:50 / Tue Mar 22 07:38:40 2016
GPGPU-Sim uArch: cycles simulated: 102500  inst.: 2569440 (ipc=25.1) sim_rate=23148 (inst/sec) elapsed = 0:0:01:51 / Tue Mar 22 07:38:41 2016
GPGPU-Sim uArch: cycles simulated: 103500  inst.: 2582880 (ipc=25.0) sim_rate=23061 (inst/sec) elapsed = 0:0:01:52 / Tue Mar 22 07:38:42 2016
GPGPU-Sim uArch: cycles simulated: 105000  inst.: 2609760 (ipc=24.9) sim_rate=23095 (inst/sec) elapsed = 0:0:01:53 / Tue Mar 22 07:38:43 2016
GPGPU-Sim uArch: cycles simulated: 106000  inst.: 2623552 (ipc=24.8) sim_rate=23013 (inst/sec) elapsed = 0:0:01:54 / Tue Mar 22 07:38:44 2016
GPGPU-Sim PTX: 2700000 instructions simulated : ctaid=(5,0,0) tid=(95,0,0)
GPGPU-Sim uArch: cycles simulated: 107000  inst.: 2639552 (ipc=24.7) sim_rate=22952 (inst/sec) elapsed = 0:0:01:55 / Tue Mar 22 07:38:45 2016
GPGPU-Sim uArch: cycles simulated: 108500  inst.: 2670784 (ipc=24.6) sim_rate=23024 (inst/sec) elapsed = 0:0:01:56 / Tue Mar 22 07:38:46 2016
GPGPU-Sim uArch: cycles simulated: 110000  inst.: 2695136 (ipc=24.5) sim_rate=23035 (inst/sec) elapsed = 0:0:01:57 / Tue Mar 22 07:38:47 2016
GPGPU-Sim uArch: cycles simulated: 111000  inst.: 2712192 (ipc=24.4) sim_rate=22984 (inst/sec) elapsed = 0:0:01:58 / Tue Mar 22 07:38:48 2016
GPGPU-Sim PTX: 2800000 instructions simulated : ctaid=(6,0,0) tid=(95,0,0)
GPGPU-Sim uArch: cycles simulated: 112000  inst.: 2731200 (ipc=24.4) sim_rate=22951 (inst/sec) elapsed = 0:0:01:59 / Tue Mar 22 07:38:49 2016
GPGPU-Sim uArch: cycles simulated: 113000  inst.: 2745440 (ipc=24.3) sim_rate=22878 (inst/sec) elapsed = 0:0:02:00 / Tue Mar 22 07:38:50 2016
GPGPU-Sim uArch: cycles simulated: 114000  inst.: 2767200 (ipc=24.3) sim_rate=22869 (inst/sec) elapsed = 0:0:02:01 / Tue Mar 22 07:38:51 2016
GPGPU-Sim uArch: cycles simulated: 115000  inst.: 2784352 (ipc=24.2) sim_rate=22822 (inst/sec) elapsed = 0:0:02:02 / Tue Mar 22 07:38:52 2016
GPGPU-Sim uArch: cycles simulated: 116000  inst.: 2799072 (ipc=24.1) sim_rate=22756 (inst/sec) elapsed = 0:0:02:03 / Tue Mar 22 07:38:53 2016
GPGPU-Sim uArch: cycles simulated: 117000  inst.: 2816032 (ipc=24.1) sim_rate=22709 (inst/sec) elapsed = 0:0:02:04 / Tue Mar 22 07:38:54 2016
GPGPU-Sim PTX: 2900000 instructions simulated : ctaid=(2,0,0) tid=(63,0,0)
GPGPU-Sim uArch: cycles simulated: 118000  inst.: 2835712 (ipc=24.0) sim_rate=22685 (inst/sec) elapsed = 0:0:02:05 / Tue Mar 22 07:38:55 2016
GPGPU-Sim uArch: cycles simulated: 119000  inst.: 2853760 (ipc=24.0) sim_rate=22648 (inst/sec) elapsed = 0:0:02:06 / Tue Mar 22 07:38:56 2016
GPGPU-Sim uArch: cycles simulated: 120000  inst.: 2873088 (ipc=23.9) sim_rate=22622 (inst/sec) elapsed = 0:0:02:07 / Tue Mar 22 07:38:57 2016
GPGPU-Sim uArch: cycles simulated: 121000  inst.: 2889472 (ipc=23.9) sim_rate=22574 (inst/sec) elapsed = 0:0:02:08 / Tue Mar 22 07:38:58 2016
GPGPU-Sim uArch: cycles simulated: 121500  inst.: 2898368 (ipc=23.9) sim_rate=22467 (inst/sec) elapsed = 0:0:02:09 / Tue Mar 22 07:38:59 2016
GPGPU-Sim uArch: cycles simulated: 122500  inst.: 2916352 (ipc=23.8) sim_rate=22433 (inst/sec) elapsed = 0:0:02:10 / Tue Mar 22 07:39:00 2016
GPGPU-Sim PTX: 3000000 instructions simulated : ctaid=(6,0,0) tid=(95,0,0)
GPGPU-Sim uArch: cycles simulated: 123500  inst.: 2934016 (ipc=23.8) sim_rate=22397 (inst/sec) elapsed = 0:0:02:11 / Tue Mar 22 07:39:01 2016
GPGPU-Sim uArch: cycles simulated: 124500  inst.: 2952096 (ipc=23.7) sim_rate=22364 (inst/sec) elapsed = 0:0:02:12 / Tue Mar 22 07:39:02 2016
GPGPU-Sim uArch: cycles simulated: 125500  inst.: 2965248 (ipc=23.6) sim_rate=22295 (inst/sec) elapsed = 0:0:02:13 / Tue Mar 22 07:39:03 2016
GPGPU-Sim uArch: cycles simulated: 126500  inst.: 2984288 (ipc=23.6) sim_rate=22270 (inst/sec) elapsed = 0:0:02:14 / Tue Mar 22 07:39:04 2016
GPGPU-Sim uArch: cycles simulated: 127500  inst.: 2999584 (ipc=23.5) sim_rate=22219 (inst/sec) elapsed = 0:0:02:15 / Tue Mar 22 07:39:05 2016
GPGPU-Sim uArch: cycles simulated: 128500  inst.: 3018432 (ipc=23.5) sim_rate=22194 (inst/sec) elapsed = 0:0:02:16 / Tue Mar 22 07:39:06 2016
GPGPU-Sim PTX: 3100000 instructions simulated : ctaid=(0,1,0) tid=(223,0,0)
GPGPU-Sim uArch: cycles simulated: 129500  inst.: 3033888 (ipc=23.4) sim_rate=22145 (inst/sec) elapsed = 0:0:02:17 / Tue Mar 22 07:39:07 2016
GPGPU-Sim uArch: cycles simulated: 130500  inst.: 3049088 (ipc=23.4) sim_rate=22094 (inst/sec) elapsed = 0:0:02:18 / Tue Mar 22 07:39:08 2016
GPGPU-Sim uArch: cycles simulated: 131500  inst.: 3062976 (ipc=23.3) sim_rate=22035 (inst/sec) elapsed = 0:0:02:19 / Tue Mar 22 07:39:09 2016
GPGPU-Sim uArch: cycles simulated: 132500  inst.: 3086016 (ipc=23.3) sim_rate=22042 (inst/sec) elapsed = 0:0:02:20 / Tue Mar 22 07:39:10 2016
GPGPU-Sim uArch: cycles simulated: 133500  inst.: 3101888 (ipc=23.2) sim_rate=21999 (inst/sec) elapsed = 0:0:02:21 / Tue Mar 22 07:39:11 2016
GPGPU-Sim uArch: cycles simulated: 134500  inst.: 3120864 (ipc=23.2) sim_rate=21977 (inst/sec) elapsed = 0:0:02:22 / Tue Mar 22 07:39:12 2016
GPGPU-Sim PTX: 3200000 instructions simulated : ctaid=(2,1,0) tid=(31,0,0)
GPGPU-Sim uArch: cycles simulated: 135500  inst.: 3133664 (ipc=23.1) sim_rate=21913 (inst/sec) elapsed = 0:0:02:23 / Tue Mar 22 07:39:13 2016
GPGPU-Sim uArch: cycles simulated: 136500  inst.: 3150112 (ipc=23.1) sim_rate=21875 (inst/sec) elapsed = 0:0:02:24 / Tue Mar 22 07:39:14 2016
GPGPU-Sim uArch: cycles simulated: 137500  inst.: 3172128 (ipc=23.1) sim_rate=21876 (inst/sec) elapsed = 0:0:02:25 / Tue Mar 22 07:39:15 2016
GPGPU-Sim uArch: cycles simulated: 138500  inst.: 3188544 (ipc=23.0) sim_rate=21839 (inst/sec) elapsed = 0:0:02:26 / Tue Mar 22 07:39:16 2016
GPGPU-Sim uArch: cycles simulated: 139500  inst.: 3206400 (ipc=23.0) sim_rate=21812 (inst/sec) elapsed = 0:0:02:27 / Tue Mar 22 07:39:17 2016
GPGPU-Sim uArch: cycles simulated: 140500  inst.: 3223744 (ipc=22.9) sim_rate=21782 (inst/sec) elapsed = 0:0:02:28 / Tue Mar 22 07:39:18 2016
GPGPU-Sim PTX: 3300000 instructions simulated : ctaid=(3,1,0) tid=(223,0,0)
GPGPU-Sim uArch: cycles simulated: 141500  inst.: 3237632 (ipc=22.9) sim_rate=21729 (inst/sec) elapsed = 0:0:02:29 / Tue Mar 22 07:39:19 2016
GPGPU-Sim uArch: cycles simulated: 142500  inst.: 3250528 (ipc=22.8) sim_rate=21670 (inst/sec) elapsed = 0:0:02:30 / Tue Mar 22 07:39:20 2016
GPGPU-Sim uArch: cycles simulated: 143500  inst.: 3266784 (ipc=22.8) sim_rate=21634 (inst/sec) elapsed = 0:0:02:31 / Tue Mar 22 07:39:21 2016
GPGPU-Sim uArch: cycles simulated: 144500  inst.: 3284480 (ipc=22.7) sim_rate=21608 (inst/sec) elapsed = 0:0:02:32 / Tue Mar 22 07:39:22 2016
GPGPU-Sim uArch: cycles simulated: 145500  inst.: 3303552 (ipc=22.7) sim_rate=21591 (inst/sec) elapsed = 0:0:02:33 / Tue Mar 22 07:39:23 2016
GPGPU-Sim uArch: cycles simulated: 146500  inst.: 3323776 (ipc=22.7) sim_rate=21582 (inst/sec) elapsed = 0:0:02:34 / Tue Mar 22 07:39:24 2016
GPGPU-Sim PTX: 3400000 instructions simulated : ctaid=(9,1,0) tid=(31,0,0)
GPGPU-Sim uArch: cycles simulated: 147500  inst.: 3343680 (ipc=22.7) sim_rate=21572 (inst/sec) elapsed = 0:0:02:35 / Tue Mar 22 07:39:25 2016
GPGPU-Sim uArch: cycles simulated: 148500  inst.: 3359456 (ipc=22.6) sim_rate=21534 (inst/sec) elapsed = 0:0:02:36 / Tue Mar 22 07:39:26 2016
GPGPU-Sim uArch: cycles simulated: 149000  inst.: 3366048 (ipc=22.6) sim_rate=21439 (inst/sec) elapsed = 0:0:02:37 / Tue Mar 22 07:39:27 2016
GPGPU-Sim uArch: cycles simulated: 150000  inst.: 3381472 (ipc=22.5) sim_rate=21401 (inst/sec) elapsed = 0:0:02:38 / Tue Mar 22 07:39:28 2016
GPGPU-Sim uArch: cycles simulated: 151000  inst.: 3400576 (ipc=22.5) sim_rate=21387 (inst/sec) elapsed = 0:0:02:39 / Tue Mar 22 07:39:29 2016
GPGPU-Sim uArch: cycles simulated: 152000  inst.: 3416960 (ipc=22.5) sim_rate=21356 (inst/sec) elapsed = 0:0:02:40 / Tue Mar 22 07:39:30 2016
GPGPU-Sim PTX: 3500000 instructions simulated : ctaid=(8,1,0) tid=(95,0,0)
GPGPU-Sim uArch: cycles simulated: 153000  inst.: 3429120 (ipc=22.4) sim_rate=21298 (inst/sec) elapsed = 0:0:02:41 / Tue Mar 22 07:39:31 2016
GPGPU-Sim uArch: cycles simulated: 154000  inst.: 3448320 (ipc=22.4) sim_rate=21285 (inst/sec) elapsed = 0:0:02:42 / Tue Mar 22 07:39:32 2016
GPGPU-Sim uArch: cycles simulated: 155000  inst.: 3467552 (ipc=22.4) sim_rate=21273 (inst/sec) elapsed = 0:0:02:43 / Tue Mar 22 07:39:33 2016
GPGPU-Sim uArch: cycles simulated: 155500  inst.: 3475744 (ipc=22.4) sim_rate=21193 (inst/sec) elapsed = 0:0:02:44 / Tue Mar 22 07:39:34 2016
GPGPU-Sim uArch: cycles simulated: 156500  inst.: 3489440 (ipc=22.3) sim_rate=21148 (inst/sec) elapsed = 0:0:02:45 / Tue Mar 22 07:39:35 2016
GPGPU-Sim uArch: cycles simulated: 157500  inst.: 3507584 (ipc=22.3) sim_rate=21130 (inst/sec) elapsed = 0:0:02:46 / Tue Mar 22 07:39:36 2016
GPGPU-Sim PTX: 3600000 instructions simulated : ctaid=(1,0,0) tid=(31,0,0)
GPGPU-Sim uArch: cycles simulated: 158500  inst.: 3527232 (ipc=22.3) sim_rate=21121 (inst/sec) elapsed = 0:0:02:47 / Tue Mar 22 07:39:37 2016
GPGPU-Sim uArch: cycles simulated: 159500  inst.: 3543392 (ipc=22.2) sim_rate=21091 (inst/sec) elapsed = 0:0:02:48 / Tue Mar 22 07:39:38 2016
GPGPU-Sim uArch: cycles simulated: 160500  inst.: 3562432 (ipc=22.2) sim_rate=21079 (inst/sec) elapsed = 0:0:02:49 / Tue Mar 22 07:39:39 2016
GPGPU-Sim uArch: cycles simulated: 161500  inst.: 3576128 (ipc=22.1) sim_rate=21036 (inst/sec) elapsed = 0:0:02:50 / Tue Mar 22 07:39:40 2016
GPGPU-Sim uArch: cycles simulated: 162500  inst.: 3599744 (ipc=22.2) sim_rate=21051 (inst/sec) elapsed = 0:0:02:51 / Tue Mar 22 07:39:41 2016
GPGPU-Sim uArch: cycles simulated: 163500  inst.: 3610848 (ipc=22.1) sim_rate=20993 (inst/sec) elapsed = 0:0:02:52 / Tue Mar 22 07:39:42 2016
GPGPU-Sim PTX: 3700000 instructions simulated : ctaid=(5,2,0) tid=(31,0,0)
GPGPU-Sim uArch: cycles simulated: 164500  inst.: 3631456 (ipc=22.1) sim_rate=20991 (inst/sec) elapsed = 0:0:02:53 / Tue Mar 22 07:39:43 2016
GPGPU-Sim uArch: cycles simulated: 165500  inst.: 3648448 (ipc=22.0) sim_rate=20968 (inst/sec) elapsed = 0:0:02:54 / Tue Mar 22 07:39:44 2016
GPGPU-Sim uArch: cycles simulated: 166500  inst.: 3664512 (ipc=22.0) sim_rate=20940 (inst/sec) elapsed = 0:0:02:55 / Tue Mar 22 07:39:45 2016
GPGPU-Sim uArch: cycles simulated: 167500  inst.: 3684064 (ipc=22.0) sim_rate=20932 (inst/sec) elapsed = 0:0:02:56 / Tue Mar 22 07:39:46 2016
GPGPU-Sim uArch: cycles simulated: 168500  inst.: 3701280 (ipc=22.0) sim_rate=20911 (inst/sec) elapsed = 0:0:02:57 / Tue Mar 22 07:39:47 2016
GPGPU-Sim uArch: cycles simulated: 169500  inst.: 3715264 (ipc=21.9) sim_rate=20872 (inst/sec) elapsed = 0:0:02:58 / Tue Mar 22 07:39:48 2016
GPGPU-Sim uArch: cycles simulated: 170000  inst.: 3721984 (ipc=21.9) sim_rate=20793 (inst/sec) elapsed = 0:0:02:59 / Tue Mar 22 07:39:49 2016
GPGPU-Sim PTX: 3800000 instructions simulated : ctaid=(7,0,0) tid=(159,0,0)
GPGPU-Sim uArch: cycles simulated: 171000  inst.: 3741568 (ipc=21.9) sim_rate=20786 (inst/sec) elapsed = 0:0:03:00 / Tue Mar 22 07:39:50 2016
GPGPU-Sim uArch: cycles simulated: 172000  inst.: 3758496 (ipc=21.9) sim_rate=20765 (inst/sec) elapsed = 0:0:03:01 / Tue Mar 22 07:39:51 2016
GPGPU-Sim uArch: cycles simulated: 173000  inst.: 3773824 (ipc=21.8) sim_rate=20735 (inst/sec) elapsed = 0:0:03:02 / Tue Mar 22 07:39:52 2016
GPGPU-Sim uArch: cycles simulated: 174000  inst.: 3792320 (ipc=21.8) sim_rate=20723 (inst/sec) elapsed = 0:0:03:03 / Tue Mar 22 07:39:53 2016
GPGPU-Sim uArch: cycles simulated: 175000  inst.: 3814496 (ipc=21.8) sim_rate=20730 (inst/sec) elapsed = 0:0:03:04 / Tue Mar 22 07:39:54 2016
GPGPU-Sim uArch: cycles simulated: 175500  inst.: 3824608 (ipc=21.8) sim_rate=20673 (inst/sec) elapsed = 0:0:03:05 / Tue Mar 22 07:39:55 2016
GPGPU-Sim PTX: 3900000 instructions simulated : ctaid=(2,0,0) tid=(223,0,0)
GPGPU-Sim uArch: cycles simulated: 176500  inst.: 3837376 (ipc=21.7) sim_rate=20631 (inst/sec) elapsed = 0:0:03:06 / Tue Mar 22 07:39:56 2016
GPGPU-Sim uArch: cycles simulated: 177500  inst.: 3851008 (ipc=21.7) sim_rate=20593 (inst/sec) elapsed = 0:0:03:07 / Tue Mar 22 07:39:57 2016
GPGPU-Sim uArch: cycles simulated: 178500  inst.: 3875616 (ipc=21.7) sim_rate=20614 (inst/sec) elapsed = 0:0:03:08 / Tue Mar 22 07:39:58 2016
GPGPU-Sim uArch: cycles simulated: 179500  inst.: 3894944 (ipc=21.7) sim_rate=20608 (inst/sec) elapsed = 0:0:03:09 / Tue Mar 22 07:39:59 2016
GPGPU-Sim uArch: cycles simulated: 180500  inst.: 3911232 (ipc=21.7) sim_rate=20585 (inst/sec) elapsed = 0:0:03:10 / Tue Mar 22 07:40:00 2016
GPGPU-Sim uArch: cycles simulated: 181000  inst.: 3919584 (ipc=21.7) sim_rate=20521 (inst/sec) elapsed = 0:0:03:11 / Tue Mar 22 07:40:01 2016
GPGPU-Sim PTX: 4000000 instructions simulated : ctaid=(5,1,0) tid=(95,0,0)
GPGPU-Sim uArch: cycles simulated: 182000  inst.: 3935296 (ipc=21.6) sim_rate=20496 (inst/sec) elapsed = 0:0:03:12 / Tue Mar 22 07:40:02 2016
GPGPU-Sim uArch: cycles simulated: 183000  inst.: 3952736 (ipc=21.6) sim_rate=20480 (inst/sec) elapsed = 0:0:03:13 / Tue Mar 22 07:40:03 2016
GPGPU-Sim uArch: cycles simulated: 184000  inst.: 3973248 (ipc=21.6) sim_rate=20480 (inst/sec) elapsed = 0:0:03:14 / Tue Mar 22 07:40:04 2016
GPGPU-Sim uArch: cycles simulated: 185000  inst.: 3987712 (ipc=21.6) sim_rate=20449 (inst/sec) elapsed = 0:0:03:15 / Tue Mar 22 07:40:05 2016
GPGPU-Sim uArch: cycles simulated: 186000  inst.: 4002080 (ipc=21.5) sim_rate=20418 (inst/sec) elapsed = 0:0:03:16 / Tue Mar 22 07:40:06 2016
GPGPU-Sim uArch: cycles simulated: 187000  inst.: 4021696 (ipc=21.5) sim_rate=20414 (inst/sec) elapsed = 0:0:03:17 / Tue Mar 22 07:40:07 2016
GPGPU-Sim PTX: 4100000 instructions simulated : ctaid=(5,2,0) tid=(31,0,0)
GPGPU-Sim uArch: cycles simulated: 188000  inst.: 4035808 (ipc=21.5) sim_rate=20382 (inst/sec) elapsed = 0:0:03:18 / Tue Mar 22 07:40:08 2016
GPGPU-Sim uArch: cycles simulated: 189000  inst.: 4053120 (ipc=21.4) sim_rate=20367 (inst/sec) elapsed = 0:0:03:19 / Tue Mar 22 07:40:09 2016
GPGPU-Sim uArch: cycles simulated: 190000  inst.: 4069920 (ipc=21.4) sim_rate=20349 (inst/sec) elapsed = 0:0:03:20 / Tue Mar 22 07:40:10 2016
GPGPU-Sim uArch: cycles simulated: 191000  inst.: 4094624 (ipc=21.4) sim_rate=20371 (inst/sec) elapsed = 0:0:03:21 / Tue Mar 22 07:40:11 2016
GPGPU-Sim uArch: cycles simulated: 192000  inst.: 4110688 (ipc=21.4) sim_rate=20349 (inst/sec) elapsed = 0:0:03:22 / Tue Mar 22 07:40:12 2016
GPGPU-Sim uArch: cycles simulated: 192500  inst.: 4119392 (ipc=21.4) sim_rate=20292 (inst/sec) elapsed = 0:0:03:23 / Tue Mar 22 07:40:13 2016
GPGPU-Sim PTX: 4200000 instructions simulated : ctaid=(1,1,0) tid=(159,0,0)
GPGPU-Sim uArch: cycles simulated: 193500  inst.: 4138400 (ipc=21.4) sim_rate=20286 (inst/sec) elapsed = 0:0:03:24 / Tue Mar 22 07:40:14 2016
GPGPU-Sim uArch: cycles simulated: 194500  inst.: 4152032 (ipc=21.3) sim_rate=20253 (inst/sec) elapsed = 0:0:03:25 / Tue Mar 22 07:40:15 2016
GPGPU-Sim uArch: cycles simulated: 195500  inst.: 4172960 (ipc=21.3) sim_rate=20257 (inst/sec) elapsed = 0:0:03:26 / Tue Mar 22 07:40:16 2016
GPGPU-Sim uArch: cycles simulated: 196500  inst.: 4191840 (ipc=21.3) sim_rate=20250 (inst/sec) elapsed = 0:0:03:27 / Tue Mar 22 07:40:17 2016
GPGPU-Sim uArch: cycles simulated: 197500  inst.: 4202272 (ipc=21.3) sim_rate=20203 (inst/sec) elapsed = 0:0:03:28 / Tue Mar 22 07:40:18 2016
GPGPU-Sim uArch: cycles simulated: 198500  inst.: 4219328 (ipc=21.3) sim_rate=20188 (inst/sec) elapsed = 0:0:03:29 / Tue Mar 22 07:40:19 2016
GPGPU-Sim PTX: 4300000 instructions simulated : ctaid=(1,1,0) tid=(31,0,0)
GPGPU-Sim uArch: cycles simulated: 199500  inst.: 4242336 (ipc=21.3) sim_rate=20201 (inst/sec) elapsed = 0:0:03:30 / Tue Mar 22 07:40:20 2016
GPGPU-Sim uArch: cycles simulated: 200500  inst.: 4260192 (ipc=21.2) sim_rate=20190 (inst/sec) elapsed = 0:0:03:31 / Tue Mar 22 07:40:21 2016
GPGPU-Sim uArch: cycles simulated: 201500  inst.: 4274752 (ipc=21.2) sim_rate=20163 (inst/sec) elapsed = 0:0:03:32 / Tue Mar 22 07:40:22 2016
GPGPU-Sim uArch: cycles simulated: 202500  inst.: 4290336 (ipc=21.2) sim_rate=20142 (inst/sec) elapsed = 0:0:03:33 / Tue Mar 22 07:40:23 2016
GPGPU-Sim uArch: cycles simulated: 203500  inst.: 4306912 (ipc=21.2) sim_rate=20125 (inst/sec) elapsed = 0:0:03:34 / Tue Mar 22 07:40:24 2016
GPGPU-Sim PTX: 4400000 instructions simulated : ctaid=(5,0,0) tid=(223,0,0)
GPGPU-Sim uArch: cycles simulated: 204500  inst.: 4328192 (ipc=21.2) sim_rate=20131 (inst/sec) elapsed = 0:0:03:35 / Tue Mar 22 07:40:25 2016
GPGPU-Sim uArch: cycles simulated: 205500  inst.: 4342624 (ipc=21.1) sim_rate=20104 (inst/sec) elapsed = 0:0:03:36 / Tue Mar 22 07:40:26 2016
GPGPU-Sim uArch: cycles simulated: 206500  inst.: 4366336 (ipc=21.1) sim_rate=20121 (inst/sec) elapsed = 0:0:03:37 / Tue Mar 22 07:40:27 2016
GPGPU-Sim uArch: cycles simulated: 207500  inst.: 4383296 (ipc=21.1) sim_rate=20106 (inst/sec) elapsed = 0:0:03:38 / Tue Mar 22 07:40:28 2016
GPGPU-Sim uArch: cycles simulated: 208000  inst.: 4391296 (ipc=21.1) sim_rate=20051 (inst/sec) elapsed = 0:0:03:39 / Tue Mar 22 07:40:29 2016
GPGPU-Sim uArch: cycles simulated: 209000  inst.: 4410336 (ipc=21.1) sim_rate=20046 (inst/sec) elapsed = 0:0:03:40 / Tue Mar 22 07:40:30 2016
GPGPU-Sim PTX: 4500000 instructions simulated : ctaid=(5,2,0) tid=(223,0,0)
GPGPU-Sim uArch: cycles simulated: 210000  inst.: 4428000 (ipc=21.1) sim_rate=20036 (inst/sec) elapsed = 0:0:03:41 / Tue Mar 22 07:40:31 2016
GPGPU-Sim uArch: cycles simulated: 211000  inst.: 4443680 (ipc=21.1) sim_rate=20016 (inst/sec) elapsed = 0:0:03:42 / Tue Mar 22 07:40:32 2016
GPGPU-Sim uArch: cycles simulated: 212000  inst.: 4461536 (ipc=21.0) sim_rate=20006 (inst/sec) elapsed = 0:0:03:43 / Tue Mar 22 07:40:33 2016
GPGPU-Sim uArch: cycles simulated: 213000  inst.: 4480704 (ipc=21.0) sim_rate=20003 (inst/sec) elapsed = 0:0:03:44 / Tue Mar 22 07:40:34 2016
GPGPU-Sim uArch: cycles simulated: 214000  inst.: 4496096 (ipc=21.0) sim_rate=19982 (inst/sec) elapsed = 0:0:03:45 / Tue Mar 22 07:40:35 2016
GPGPU-Sim uArch: cycles simulated: 215000  inst.: 4522208 (ipc=21.0) sim_rate=20009 (inst/sec) elapsed = 0:0:03:46 / Tue Mar 22 07:40:36 2016
GPGPU-Sim PTX: 4600000 instructions simulated : ctaid=(3,1,0) tid=(95,0,0)
GPGPU-Sim uArch: cycles simulated: 216000  inst.: 4539040 (ipc=21.0) sim_rate=19995 (inst/sec) elapsed = 0:0:03:47 / Tue Mar 22 07:40:37 2016
GPGPU-Sim uArch: cycles simulated: 217000  inst.: 4551104 (ipc=21.0) sim_rate=19960 (inst/sec) elapsed = 0:0:03:48 / Tue Mar 22 07:40:38 2016
GPGPU-Sim uArch: cycles simulated: 218000  inst.: 4569408 (ipc=21.0) sim_rate=19953 (inst/sec) elapsed = 0:0:03:49 / Tue Mar 22 07:40:39 2016
GPGPU-Sim uArch: cycles simulated: 219000  inst.: 4587104 (ipc=20.9) sim_rate=19943 (inst/sec) elapsed = 0:0:03:50 / Tue Mar 22 07:40:40 2016
GPGPU-Sim uArch: cycles simulated: 220000  inst.: 4601280 (ipc=20.9) sim_rate=19918 (inst/sec) elapsed = 0:0:03:51 / Tue Mar 22 07:40:41 2016
GPGPU-Sim uArch: cycles simulated: 221000  inst.: 4623968 (ipc=20.9) sim_rate=19930 (inst/sec) elapsed = 0:0:03:52 / Tue Mar 22 07:40:42 2016
GPGPU-Sim PTX: 4700000 instructions simulated : ctaid=(6,1,0) tid=(31,0,0)
GPGPU-Sim uArch: cycles simulated: 222000  inst.: 4645184 (ipc=20.9) sim_rate=19936 (inst/sec) elapsed = 0:0:03:53 / Tue Mar 22 07:40:43 2016
GPGPU-Sim uArch: cycles simulated: 223000  inst.: 4663328 (ipc=20.9) sim_rate=19928 (inst/sec) elapsed = 0:0:03:54 / Tue Mar 22 07:40:44 2016
GPGPU-Sim uArch: cycles simulated: 224000  inst.: 4680256 (ipc=20.9) sim_rate=19915 (inst/sec) elapsed = 0:0:03:55 / Tue Mar 22 07:40:45 2016
GPGPU-Sim uArch: cycles simulated: 225000  inst.: 4699552 (ipc=20.9) sim_rate=19913 (inst/sec) elapsed = 0:0:03:56 / Tue Mar 22 07:40:46 2016
GPGPU-Sim uArch: cycles simulated: 226000  inst.: 4718624 (ipc=20.9) sim_rate=19909 (inst/sec) elapsed = 0:0:03:57 / Tue Mar 22 07:40:47 2016
GPGPU-Sim PTX: 4800000 instructions simulated : ctaid=(5,0,0) tid=(31,0,0)
GPGPU-Sim uArch: cycles simulated: 227000  inst.: 4733632 (ipc=20.9) sim_rate=19889 (inst/sec) elapsed = 0:0:03:58 / Tue Mar 22 07:40:48 2016
GPGPU-Sim uArch: cycles simulated: 227500  inst.: 4742144 (ipc=20.8) sim_rate=19841 (inst/sec) elapsed = 0:0:03:59 / Tue Mar 22 07:40:49 2016
GPGPU-Sim uArch: cycles simulated: 228500  inst.: 4761248 (ipc=20.8) sim_rate=19838 (inst/sec) elapsed = 0:0:04:00 / Tue Mar 22 07:40:50 2016
GPGPU-Sim uArch: cycles simulated: 229500  inst.: 4776608 (ipc=20.8) sim_rate=19819 (inst/sec) elapsed = 0:0:04:01 / Tue Mar 22 07:40:51 2016
GPGPU-Sim uArch: cycles simulated: 230500  inst.: 4793504 (ipc=20.8) sim_rate=19807 (inst/sec) elapsed = 0:0:04:02 / Tue Mar 22 07:40:52 2016
GPGPU-Sim uArch: cycles simulated: 231500  inst.: 4812480 (ipc=20.8) sim_rate=19804 (inst/sec) elapsed = 0:0:04:03 / Tue Mar 22 07:40:53 2016
GPGPU-Sim PTX: 4900000 instructions simulated : ctaid=(5,1,0) tid=(31,0,0)
GPGPU-Sim uArch: cycles simulated: 232500  inst.: 4832512 (ipc=20.8) sim_rate=19805 (inst/sec) elapsed = 0:0:04:04 / Tue Mar 22 07:40:54 2016
GPGPU-Sim uArch: cycles simulated: 233500  inst.: 4855104 (ipc=20.8) sim_rate=19816 (inst/sec) elapsed = 0:0:04:05 / Tue Mar 22 07:40:55 2016
GPGPU-Sim uArch: cycles simulated: 235000  inst.: 4884992 (ipc=20.8) sim_rate=19857 (inst/sec) elapsed = 0:0:04:06 / Tue Mar 22 07:40:56 2016
GPGPU-Sim uArch: cycles simulated: 236000  inst.: 4899712 (ipc=20.8) sim_rate=19836 (inst/sec) elapsed = 0:0:04:07 / Tue Mar 22 07:40:57 2016
GPGPU-Sim uArch: cycles simulated: 237500  inst.: 4923904 (ipc=20.7) sim_rate=19854 (inst/sec) elapsed = 0:0:04:08 / Tue Mar 22 07:40:58 2016
GPGPU-Sim PTX: 5000000 instructions simulated : ctaid=(3,1,0) tid=(31,0,0)
GPGPU-Sim uArch: cycles simulated: 238500  inst.: 4945120 (ipc=20.7) sim_rate=19859 (inst/sec) elapsed = 0:0:04:09 / Tue Mar 22 07:40:59 2016
GPGPU-Sim uArch: cycles simulated: 239500  inst.: 4965472 (ipc=20.7) sim_rate=19861 (inst/sec) elapsed = 0:0:04:10 / Tue Mar 22 07:41:00 2016
GPGPU-Sim uArch: cycles simulated: 241000  inst.: 4989408 (ipc=20.7) sim_rate=19878 (inst/sec) elapsed = 0:0:04:11 / Tue Mar 22 07:41:01 2016
GPGPU-Sim uArch: cycles simulated: 242000  inst.: 5005152 (ipc=20.7) sim_rate=19861 (inst/sec) elapsed = 0:0:04:12 / Tue Mar 22 07:41:02 2016
GPGPU-Sim uArch: cycles simulated: 243000  inst.: 5024736 (ipc=20.7) sim_rate=19860 (inst/sec) elapsed = 0:0:04:13 / Tue Mar 22 07:41:03 2016
GPGPU-Sim PTX: 5100000 instructions simulated : ctaid=(7,0,0) tid=(31,0,0)
GPGPU-Sim uArch: cycles simulated: 244500  inst.: 5053856 (ipc=20.7) sim_rate=19897 (inst/sec) elapsed = 0:0:04:14 / Tue Mar 22 07:41:04 2016
GPGPU-Sim uArch: cycles simulated: 246000  inst.: 5081088 (ipc=20.7) sim_rate=19925 (inst/sec) elapsed = 0:0:04:15 / Tue Mar 22 07:41:05 2016
GPGPU-Sim uArch: cycles simulated: 247000  inst.: 5096384 (ipc=20.6) sim_rate=19907 (inst/sec) elapsed = 0:0:04:16 / Tue Mar 22 07:41:06 2016
GPGPU-Sim uArch: cycles simulated: 248500  inst.: 5122624 (ipc=20.6) sim_rate=19932 (inst/sec) elapsed = 0:0:04:17 / Tue Mar 22 07:41:07 2016
GPGPU-Sim PTX: 5200000 instructions simulated : ctaid=(2,2,0) tid=(95,0,0)
GPGPU-Sim uArch: cycles simulated: 249500  inst.: 5139232 (ipc=20.6) sim_rate=19919 (inst/sec) elapsed = 0:0:04:18 / Tue Mar 22 07:41:08 2016
GPGPU-Sim uArch: cycles simulated: 250500  inst.: 5159232 (ipc=20.6) sim_rate=19919 (inst/sec) elapsed = 0:0:04:19 / Tue Mar 22 07:41:09 2016
GPGPU-Sim uArch: cycles simulated: 251500  inst.: 5173920 (ipc=20.6) sim_rate=19899 (inst/sec) elapsed = 0:0:04:20 / Tue Mar 22 07:41:10 2016
GPGPU-Sim uArch: cycles simulated: 252500  inst.: 5196480 (ipc=20.6) sim_rate=19909 (inst/sec) elapsed = 0:0:04:21 / Tue Mar 22 07:41:11 2016
GPGPU-Sim uArch: cycles simulated: 253500  inst.: 5214368 (ipc=20.6) sim_rate=19902 (inst/sec) elapsed = 0:0:04:22 / Tue Mar 22 07:41:12 2016
GPGPU-Sim PTX: 5300000 instructions simulated : ctaid=(5,2,0) tid=(95,0,0)
GPGPU-Sim uArch: cycles simulated: 254500  inst.: 5230240 (ipc=20.6) sim_rate=19886 (inst/sec) elapsed = 0:0:04:23 / Tue Mar 22 07:41:13 2016
GPGPU-Sim uArch: cycles simulated: 255500  inst.: 5243488 (ipc=20.5) sim_rate=19861 (inst/sec) elapsed = 0:0:04:24 / Tue Mar 22 07:41:14 2016
GPGPU-Sim uArch: cycles simulated: 257000  inst.: 5271904 (ipc=20.5) sim_rate=19893 (inst/sec) elapsed = 0:0:04:25 / Tue Mar 22 07:41:15 2016
GPGPU-Sim uArch: cycles simulated: 258000  inst.: 5288128 (ipc=20.5) sim_rate=19880 (inst/sec) elapsed = 0:0:04:26 / Tue Mar 22 07:41:16 2016
GPGPU-Sim uArch: cycles simulated: 259500  inst.: 5323168 (ipc=20.5) sim_rate=19936 (inst/sec) elapsed = 0:0:04:27 / Tue Mar 22 07:41:17 2016
GPGPU-Sim PTX: 5400000 instructions simulated : ctaid=(1,0,0) tid=(95,0,0)
GPGPU-Sim uArch: cycles simulated: 260500  inst.: 5341152 (ipc=20.5) sim_rate=19929 (inst/sec) elapsed = 0:0:04:28 / Tue Mar 22 07:41:18 2016
GPGPU-Sim uArch: cycles simulated: 262000  inst.: 5368576 (ipc=20.5) sim_rate=19957 (inst/sec) elapsed = 0:0:04:29 / Tue Mar 22 07:41:19 2016
GPGPU-Sim uArch: cycles simulated: 263000  inst.: 5386304 (ipc=20.5) sim_rate=19949 (inst/sec) elapsed = 0:0:04:30 / Tue Mar 22 07:41:20 2016
GPGPU-Sim uArch: cycles simulated: 264500  inst.: 5415040 (ipc=20.5) sim_rate=19981 (inst/sec) elapsed = 0:0:04:31 / Tue Mar 22 07:41:21 2016
GPGPU-Sim PTX: 5500000 instructions simulated : ctaid=(5,1,0) tid=(223,0,0)
GPGPU-Sim uArch: cycles simulated: 265500  inst.: 5437600 (ipc=20.5) sim_rate=19991 (inst/sec) elapsed = 0:0:04:32 / Tue Mar 22 07:41:22 2016
GPGPU-Sim uArch: cycles simulated: 266500  inst.: 5458208 (ipc=20.5) sim_rate=19993 (inst/sec) elapsed = 0:0:04:33 / Tue Mar 22 07:41:23 2016
GPGPU-Sim uArch: cycles simulated: 267500  inst.: 5472768 (ipc=20.5) sim_rate=19973 (inst/sec) elapsed = 0:0:04:34 / Tue Mar 22 07:41:24 2016
GPGPU-Sim uArch: cycles simulated: 268500  inst.: 5488704 (ipc=20.4) sim_rate=19958 (inst/sec) elapsed = 0:0:04:35 / Tue Mar 22 07:41:25 2016
GPGPU-Sim uArch: cycles simulated: 269500  inst.: 5511456 (ipc=20.5) sim_rate=19969 (inst/sec) elapsed = 0:0:04:36 / Tue Mar 22 07:41:26 2016
GPGPU-Sim PTX: 5600000 instructions simulated : ctaid=(0,1,0) tid=(223,0,0)
GPGPU-Sim uArch: cycles simulated: 270500  inst.: 5534880 (ipc=20.5) sim_rate=19981 (inst/sec) elapsed = 0:0:04:37 / Tue Mar 22 07:41:27 2016
GPGPU-Sim uArch: cycles simulated: 272000  inst.: 5561184 (ipc=20.4) sim_rate=20004 (inst/sec) elapsed = 0:0:04:38 / Tue Mar 22 07:41:28 2016
GPGPU-Sim uArch: cycles simulated: 273500  inst.: 5586976 (ipc=20.4) sim_rate=20025 (inst/sec) elapsed = 0:0:04:39 / Tue Mar 22 07:41:29 2016
GPGPU-Sim uArch: cycles simulated: 274500  inst.: 5604448 (ipc=20.4) sim_rate=20015 (inst/sec) elapsed = 0:0:04:40 / Tue Mar 22 07:41:30 2016
GPGPU-Sim uArch: cycles simulated: 275500  inst.: 5623328 (ipc=20.4) sim_rate=20011 (inst/sec) elapsed = 0:0:04:41 / Tue Mar 22 07:41:31 2016
GPGPU-Sim PTX: 5700000 instructions simulated : ctaid=(0,0,0) tid=(223,0,0)
GPGPU-Sim uArch: cycles simulated: 277000  inst.: 5654272 (ipc=20.4) sim_rate=20050 (inst/sec) elapsed = 0:0:04:42 / Tue Mar 22 07:41:32 2016
GPGPU-Sim uArch: cycles simulated: 278500  inst.: 5675488 (ipc=20.4) sim_rate=20054 (inst/sec) elapsed = 0:0:04:43 / Tue Mar 22 07:41:33 2016
GPGPU-Sim uArch: cycles simulated: 279500  inst.: 5692960 (ipc=20.4) sim_rate=20045 (inst/sec) elapsed = 0:0:04:44 / Tue Mar 22 07:41:34 2016
GPGPU-Sim uArch: cycles simulated: 280500  inst.: 5712928 (ipc=20.4) sim_rate=20045 (inst/sec) elapsed = 0:0:04:45 / Tue Mar 22 07:41:35 2016
GPGPU-Sim PTX: 5800000 instructions simulated : ctaid=(3,0,0) tid=(31,0,0)
GPGPU-Sim uArch: cycles simulated: 282000  inst.: 5737088 (ipc=20.3) sim_rate=20059 (inst/sec) elapsed = 0:0:04:46 / Tue Mar 22 07:41:36 2016
GPGPU-Sim uArch: cycles simulated: 283500  inst.: 5763968 (ipc=20.3) sim_rate=20083 (inst/sec) elapsed = 0:0:04:47 / Tue Mar 22 07:41:37 2016
GPGPU-Sim uArch: cycles simulated: 285000  inst.: 5788800 (ipc=20.3) sim_rate=20100 (inst/sec) elapsed = 0:0:04:48 / Tue Mar 22 07:41:38 2016
GPGPU-Sim uArch: cycles simulated: 286000  inst.: 5807744 (ipc=20.3) sim_rate=20096 (inst/sec) elapsed = 0:0:04:49 / Tue Mar 22 07:41:39 2016
GPGPU-Sim PTX: 5900000 instructions simulated : ctaid=(0,1,0) tid=(159,0,0)
GPGPU-Sim uArch: cycles simulated: 287500  inst.: 5836256 (ipc=20.3) sim_rate=20125 (inst/sec) elapsed = 0:0:04:50 / Tue Mar 22 07:41:40 2016
GPGPU-Sim uArch: cycles simulated: 288500  inst.: 5855232 (ipc=20.3) sim_rate=20121 (inst/sec) elapsed = 0:0:04:51 / Tue Mar 22 07:41:41 2016
GPGPU-Sim uArch: cycles simulated: 290000  inst.: 5875808 (ipc=20.3) sim_rate=20122 (inst/sec) elapsed = 0:0:04:52 / Tue Mar 22 07:41:42 2016
GPGPU-Sim uArch: cycles simulated: 291000  inst.: 5891424 (ipc=20.2) sim_rate=20107 (inst/sec) elapsed = 0:0:04:53 / Tue Mar 22 07:41:43 2016
GPGPU-Sim uArch: cycles simulated: 292500  inst.: 5922144 (ipc=20.2) sim_rate=20143 (inst/sec) elapsed = 0:0:04:54 / Tue Mar 22 07:41:44 2016
GPGPU-Sim PTX: 6000000 instructions simulated : ctaid=(1,1,0) tid=(223,0,0)
GPGPU-Sim uArch: cycles simulated: 294000  inst.: 5950976 (ipc=20.2) sim_rate=20172 (inst/sec) elapsed = 0:0:04:55 / Tue Mar 22 07:41:45 2016
GPGPU-Sim uArch: cycles simulated: 295000  inst.: 5967328 (ipc=20.2) sim_rate=20159 (inst/sec) elapsed = 0:0:04:56 / Tue Mar 22 07:41:46 2016
GPGPU-Sim uArch: cycles simulated: 296500  inst.: 5996320 (ipc=20.2) sim_rate=20189 (inst/sec) elapsed = 0:0:04:57 / Tue Mar 22 07:41:47 2016
GPGPU-Sim PTX: 6100000 instructions simulated : ctaid=(1,1,0) tid=(95,0,0)
GPGPU-Sim uArch: cycles simulated: 298000  inst.: 6024352 (ipc=20.2) sim_rate=20215 (inst/sec) elapsed = 0:0:04:58 / Tue Mar 22 07:41:48 2016
GPGPU-Sim uArch: cycles simulated: 299500  inst.: 6050400 (ipc=20.2) sim_rate=20235 (inst/sec) elapsed = 0:0:04:59 / Tue Mar 22 07:41:49 2016
GPGPU-Sim uArch: cycles simulated: 301000  inst.: 6080704 (ipc=20.2) sim_rate=20269 (inst/sec) elapsed = 0:0:05:00 / Tue Mar 22 07:41:50 2016
GPGPU-Sim uArch: cycles simulated: 302000  inst.: 6098112 (ipc=20.2) sim_rate=20259 (inst/sec) elapsed = 0:0:05:01 / Tue Mar 22 07:41:51 2016
GPGPU-Sim uArch: cycles simulated: 303500  inst.: 6117760 (ipc=20.2) sim_rate=20257 (inst/sec) elapsed = 0:0:05:02 / Tue Mar 22 07:41:52 2016
GPGPU-Sim PTX: 6200000 instructions simulated : ctaid=(6,0,0) tid=(159,0,0)
GPGPU-Sim uArch: cycles simulated: 305000  inst.: 6142240 (ipc=20.1) sim_rate=20271 (inst/sec) elapsed = 0:0:05:03 / Tue Mar 22 07:41:53 2016
GPGPU-Sim uArch: cycles simulated: 306500  inst.: 6169376 (ipc=20.1) sim_rate=20294 (inst/sec) elapsed = 0:0:05:04 / Tue Mar 22 07:41:54 2016
GPGPU-Sim uArch: cycles simulated: 307500  inst.: 6186848 (ipc=20.1) sim_rate=20284 (inst/sec) elapsed = 0:0:05:05 / Tue Mar 22 07:41:55 2016
GPGPU-Sim uArch: cycles simulated: 308500  inst.: 6202848 (ipc=20.1) sim_rate=20270 (inst/sec) elapsed = 0:0:05:06 / Tue Mar 22 07:41:56 2016
GPGPU-Sim uArch: cycles simulated: 309500  inst.: 6219488 (ipc=20.1) sim_rate=20258 (inst/sec) elapsed = 0:0:05:07 / Tue Mar 22 07:41:57 2016
GPGPU-Sim PTX: 6300000 instructions simulated : ctaid=(2,0,0) tid=(159,0,0)
GPGPU-Sim uArch: cycles simulated: 310500  inst.: 6237824 (ipc=20.1) sim_rate=20252 (inst/sec) elapsed = 0:0:05:08 / Tue Mar 22 07:41:58 2016
GPGPU-Sim uArch: cycles simulated: 311500  inst.: 6251328 (ipc=20.1) sim_rate=20230 (inst/sec) elapsed = 0:0:05:09 / Tue Mar 22 07:41:59 2016
GPGPU-Sim uArch: cycles simulated: 312500  inst.: 6268128 (ipc=20.1) sim_rate=20219 (inst/sec) elapsed = 0:0:05:10 / Tue Mar 22 07:42:00 2016
GPGPU-Sim uArch: cycles simulated: 313500  inst.: 6284416 (ipc=20.0) sim_rate=20207 (inst/sec) elapsed = 0:0:05:11 / Tue Mar 22 07:42:01 2016
GPGPU-Sim uArch: cycles simulated: 315000  inst.: 6306016 (ipc=20.0) sim_rate=20211 (inst/sec) elapsed = 0:0:05:12 / Tue Mar 22 07:42:02 2016
GPGPU-Sim uArch: cycles simulated: 316000  inst.: 6320576 (ipc=20.0) sim_rate=20193 (inst/sec) elapsed = 0:0:05:13 / Tue Mar 22 07:42:03 2016
GPGPU-Sim PTX: 6400000 instructions simulated : ctaid=(0,1,0) tid=(31,0,0)
GPGPU-Sim uArch: cycles simulated: 317000  inst.: 6334240 (ipc=20.0) sim_rate=20172 (inst/sec) elapsed = 0:0:05:14 / Tue Mar 22 07:42:04 2016
GPGPU-Sim uArch: cycles simulated: 318000  inst.: 6348416 (ipc=20.0) sim_rate=20153 (inst/sec) elapsed = 0:0:05:15 / Tue Mar 22 07:42:05 2016
GPGPU-Sim uArch: cycles simulated: 319000  inst.: 6367840 (ipc=20.0) sim_rate=20151 (inst/sec) elapsed = 0:0:05:16 / Tue Mar 22 07:42:06 2016
GPGPU-Sim uArch: cycles simulated: 320000  inst.: 6380512 (ipc=19.9) sim_rate=20127 (inst/sec) elapsed = 0:0:05:17 / Tue Mar 22 07:42:07 2016
GPGPU-Sim uArch: cycles simulated: 321000  inst.: 6394944 (ipc=19.9) sim_rate=20109 (inst/sec) elapsed = 0:0:05:18 / Tue Mar 22 07:42:08 2016
GPGPU-Sim uArch: cycles simulated: 322000  inst.: 6414912 (ipc=19.9) sim_rate=20109 (inst/sec) elapsed = 0:0:05:19 / Tue Mar 22 07:42:09 2016
GPGPU-Sim PTX: 6500000 instructions simulated : ctaid=(0,2,0) tid=(223,0,0)
GPGPU-Sim uArch: cycles simulated: 323000  inst.: 6431456 (ipc=19.9) sim_rate=20098 (inst/sec) elapsed = 0:0:05:20 / Tue Mar 22 07:42:10 2016
GPGPU-Sim uArch: cycles simulated: 324000  inst.: 6446176 (ipc=19.9) sim_rate=20081 (inst/sec) elapsed = 0:0:05:21 / Tue Mar 22 07:42:11 2016
GPGPU-Sim uArch: cycles simulated: 325000  inst.: 6465088 (ipc=19.9) sim_rate=20077 (inst/sec) elapsed = 0:0:05:22 / Tue Mar 22 07:42:12 2016
GPGPU-Sim uArch: cycles simulated: 326000  inst.: 6483104 (ipc=19.9) sim_rate=20071 (inst/sec) elapsed = 0:0:05:23 / Tue Mar 22 07:42:13 2016
GPGPU-Sim uArch: cycles simulated: 327000  inst.: 6496224 (ipc=19.9) sim_rate=20050 (inst/sec) elapsed = 0:0:05:24 / Tue Mar 22 07:42:14 2016
GPGPU-Sim uArch: cycles simulated: 328000  inst.: 6513504 (ipc=19.9) sim_rate=20041 (inst/sec) elapsed = 0:0:05:25 / Tue Mar 22 07:42:15 2016
GPGPU-Sim PTX: 6600000 instructions simulated : ctaid=(1,1,0) tid=(159,0,0)
GPGPU-Sim uArch: cycles simulated: 329000  inst.: 6527968 (ipc=19.8) sim_rate=20024 (inst/sec) elapsed = 0:0:05:26 / Tue Mar 22 07:42:16 2016
GPGPU-Sim uArch: cycles simulated: 330000  inst.: 6543424 (ipc=19.8) sim_rate=20010 (inst/sec) elapsed = 0:0:05:27 / Tue Mar 22 07:42:17 2016
GPGPU-Sim uArch: cycles simulated: 331500  inst.: 6570624 (ipc=19.8) sim_rate=20032 (inst/sec) elapsed = 0:0:05:28 / Tue Mar 22 07:42:18 2016
GPGPU-Sim uArch: cycles simulated: 332500  inst.: 6584480 (ipc=19.8) sim_rate=20013 (inst/sec) elapsed = 0:0:05:29 / Tue Mar 22 07:42:19 2016
GPGPU-Sim uArch: cycles simulated: 333500  inst.: 6603648 (ipc=19.8) sim_rate=20011 (inst/sec) elapsed = 0:0:05:30 / Tue Mar 22 07:42:20 2016
GPGPU-Sim uArch: cycles simulated: 334500  inst.: 6617760 (ipc=19.8) sim_rate=19993 (inst/sec) elapsed = 0:0:05:31 / Tue Mar 22 07:42:21 2016
GPGPU-Sim PTX: 6700000 instructions simulated : ctaid=(1,0,0) tid=(159,0,0)
GPGPU-Sim uArch: cycles simulated: 335500  inst.: 6634048 (ipc=19.8) sim_rate=19982 (inst/sec) elapsed = 0:0:05:32 / Tue Mar 22 07:42:22 2016
GPGPU-Sim uArch: cycles simulated: 336500  inst.: 6650784 (ipc=19.8) sim_rate=19972 (inst/sec) elapsed = 0:0:05:33 / Tue Mar 22 07:42:23 2016
GPGPU-Sim uArch: cycles simulated: 337500  inst.: 6668000 (ipc=19.8) sim_rate=19964 (inst/sec) elapsed = 0:0:05:34 / Tue Mar 22 07:42:24 2016
GPGPU-Sim uArch: cycles simulated: 338500  inst.: 6686816 (ipc=19.8) sim_rate=19960 (inst/sec) elapsed = 0:0:05:35 / Tue Mar 22 07:42:25 2016
GPGPU-Sim uArch: cycles simulated: 339500  inst.: 6704960 (ipc=19.7) sim_rate=19955 (inst/sec) elapsed = 0:0:05:36 / Tue Mar 22 07:42:26 2016
GPGPU-Sim uArch: cycles simulated: 340500  inst.: 6721376 (ipc=19.7) sim_rate=19944 (inst/sec) elapsed = 0:0:05:37 / Tue Mar 22 07:42:27 2016
GPGPU-Sim PTX: 6800000 instructions simulated : ctaid=(10,0,0) tid=(223,0,0)
GPGPU-Sim uArch: cycles simulated: 341500  inst.: 6739328 (ipc=19.7) sim_rate=19938 (inst/sec) elapsed = 0:0:05:38 / Tue Mar 22 07:42:28 2016
[...]
GPGPU-Sim uArch: cycles simulated: 15573469  inst.: 276319724 (ipc=17.8) sim_rate=29445 (inst/sec) elapsed = 0:2:36:24 / Tue Mar 22 10:13:14 2016
GPGPU-Sim PTX: 276900000 instructions simulated : ctaid=(8,1,0) tid=(199,0,0)
GPGPU-Sim uArch: cycles simulated: 15574969  inst.: 276345676 (ipc=17.8) sim_rate=29445 (inst/sec) elapsed = 0:2:36:25 / Tue Mar 22 10:13:15 2016
GPGPU-Sim uArch: cycles simulated: 15576469  inst.: 276374045 (ipc=17.8) sim_rate=29445 (inst/sec) elapsed = 0:2:36:26 / Tue Mar 22 10:13:16 2016
GPGPU-Sim uArch: cycles simulated: 15577969  inst.: 276400317 (ipc=17.8) sim_rate=29445 (inst/sec) elapsed = 0:2:36:27 / Tue Mar 22 10:13:17 2016
GPGPU-Sim uArch: cycles simulated: 15579469  inst.: 276426525 (ipc=17.8) sim_rate=29444 (inst/sec) elapsed = 0:2:36:28 / Tue Mar 22 10:13:18 2016
GPGPU-Sim PTX: 277000000 instructions simulated : ctaid=(1,3,0) tid=(5,0,0)
GPGPU-Sim uArch: cycles simulated: 15580969  inst.: 276453885 (ipc=17.8) sim_rate=29444 (inst/sec) elapsed = 0:2:36:29 / Tue Mar 22 10:13:19 2016
GPGPU-Sim uArch: cycles simulated: 15582469  inst.: 276481277 (ipc=17.8) sim_rate=29444 (inst/sec) elapsed = 0:2:36:30 / Tue Mar 22 10:13:20 2016
GPGPU-Sim uArch: cycles simulated: 15583969  inst.: 276512733 (ipc=17.8) sim_rate=29444 (inst/sec) elapsed = 0:2:36:31 / Tue Mar 22 10:13:21 2016
GPGPU-Sim uArch: cycles simulated: 15585469  inst.: 276539226 (ipc=17.8) sim_rate=29444 (inst/sec) elapsed = 0:2:36:32 / Tue Mar 22 10:13:22 2016
GPGPU-Sim PTX: 277100000 instructions simulated : ctaid=(9,1,0) tid=(139,0,0)
GPGPU-Sim uArch: cycles simulated: 15586469  inst.: 276556858 (ipc=17.8) sim_rate=29442 (inst/sec) elapsed = 0:2:36:33 / Tue Mar 22 10:13:23 2016
GPGPU-Sim uArch: cycles simulated: 15587969  inst.: 276584826 (ipc=17.8) sim_rate=29442 (inst/sec) elapsed = 0:2:36:34 / Tue Mar 22 10:13:24 2016
GPGPU-Sim uArch: cycles simulated: 15589469  inst.: 276610362 (ipc=17.8) sim_rate=29442 (inst/sec) elapsed = 0:2:36:35 / Tue Mar 22 10:13:25 2016
GPGPU-Sim uArch: cycles simulated: 15590969  inst.: 276636218 (ipc=17.8) sim_rate=29441 (inst/sec) elapsed = 0:2:36:36 / Tue Mar 22 10:13:26 2016
GPGPU-Sim PTX: 277200000 instructions simulated : ctaid=(6,2,0) tid=(139,0,0)
GPGPU-Sim uArch: cycles simulated: 15592469  inst.: 276665434 (ipc=17.8) sim_rate=29441 (inst/sec) elapsed = 0:2:36:37 / Tue Mar 22 10:13:27 2016
GPGPU-Sim uArch: cycles simulated: 15593969  inst.: 276691482 (ipc=17.8) sim_rate=29441 (inst/sec) elapsed = 0:2:36:38 / Tue Mar 22 10:13:28 2016
GPGPU-Sim uArch: cycles simulated: 15595469  inst.: 276716026 (ipc=17.8) sim_rate=29441 (inst/sec) elapsed = 0:2:36:39 / Tue Mar 22 10:13:29 2016
GPGPU-Sim PTX: 277300000 instructions simulated : ctaid=(5,1,0) tid=(139,0,0)
GPGPU-Sim uArch: cycles simulated: 15596969  inst.: 276742906 (ipc=17.8) sim_rate=29440 (inst/sec) elapsed = 0:2:36:40 / Tue Mar 22 10:13:30 2016
GPGPU-Sim uArch: cycles simulated: 15598469  inst.: 276770042 (ipc=17.8) sim_rate=29440 (inst/sec) elapsed = 0:2:36:41 / Tue Mar 22 10:13:31 2016
GPGPU-Sim uArch: cycles simulated: 15599969  inst.: 276796602 (ipc=17.8) sim_rate=29440 (inst/sec) elapsed = 0:2:36:42 / Tue Mar 22 10:13:32 2016
GPGPU-Sim uArch: cycles simulated: 15601469  inst.: 276826074 (ipc=17.8) sim_rate=29440 (inst/sec) elapsed = 0:2:36:43 / Tue Mar 22 10:13:33 2016
GPGPU-Sim PTX: 277400000 instructions simulated : ctaid=(0,3,0) tid=(139,0,0)
GPGPU-Sim uArch: cycles simulated: 15602969  inst.: 276851034 (ipc=17.8) sim_rate=29439 (inst/sec) elapsed = 0:2:36:44 / Tue Mar 22 10:13:34 2016
GPGPU-Sim uArch: cycles simulated: 15604469  inst.: 276877635 (ipc=17.8) sim_rate=29439 (inst/sec) elapsed = 0:2:36:45 / Tue Mar 22 10:13:35 2016
GPGPU-Sim uArch: cycles simulated: 15605969  inst.: 276907043 (ipc=17.8) sim_rate=29439 (inst/sec) elapsed = 0:2:36:46 / Tue Mar 22 10:13:36 2016
GPGPU-Sim uArch: cycles simulated: 15606969  inst.: 276925123 (ipc=17.8) sim_rate=29438 (inst/sec) elapsed = 0:2:36:47 / Tue Mar 22 10:13:37 2016
GPGPU-Sim PTX: 277500000 instructions simulated : ctaid=(1,4,0) tid=(89,0,0)
GPGPU-Sim uArch: cycles simulated: 15608469  inst.: 276952323 (ipc=17.8) sim_rate=29437 (inst/sec) elapsed = 0:2:36:48 / Tue Mar 22 10:13:38 2016
GPGPU-Sim uArch: cycles simulated: 15609969  inst.: 276978435 (ipc=17.8) sim_rate=29437 (inst/sec) elapsed = 0:2:36:49 / Tue Mar 22 10:13:39 2016
GPGPU-Sim uArch: cycles simulated: 15611469  inst.: 277005987 (ipc=17.8) sim_rate=29437 (inst/sec) elapsed = 0:2:36:50 / Tue Mar 22 10:13:40 2016
GPGPU-Sim uArch: cycles simulated: 15612969  inst.: 277032259 (ipc=17.8) sim_rate=29437 (inst/sec) elapsed = 0:2:36:51 / Tue Mar 22 10:13:41 2016
GPGPU-Sim PTX: 277600000 instructions simulated : ctaid=(2,2,0) tid=(217,0,0)
GPGPU-Sim uArch: cycles simulated: 15614469  inst.: 277059427 (ipc=17.8) sim_rate=29436 (inst/sec) elapsed = 0:2:36:52 / Tue Mar 22 10:13:42 2016
GPGPU-Sim uArch: cycles simulated: 15615969  inst.: 277085036 (ipc=17.8) sim_rate=29436 (inst/sec) elapsed = 0:2:36:53 / Tue Mar 22 10:13:43 2016
GPGPU-Sim uArch: cycles simulated: 15617469  inst.: 277110956 (ipc=17.8) sim_rate=29436 (inst/sec) elapsed = 0:2:36:54 / Tue Mar 22 10:13:44 2016
GPGPU-Sim PTX: 277700000 instructions simulated : ctaid=(3,2,0) tid=(199,0,0)
GPGPU-Sim uArch: cycles simulated: 15618969  inst.: 277140492 (ipc=17.8) sim_rate=29436 (inst/sec) elapsed = 0:2:36:55 / Tue Mar 22 10:13:45 2016
GPGPU-Sim uArch: cycles simulated: 15620469  inst.: 277173964 (ipc=17.8) sim_rate=29436 (inst/sec) elapsed = 0:2:36:56 / Tue Mar 22 10:13:46 2016
GPGPU-Sim uArch: cycles simulated: 15621969  inst.: 277196172 (ipc=17.8) sim_rate=29435 (inst/sec) elapsed = 0:2:36:57 / Tue Mar 22 10:13:47 2016
GPGPU-Sim uArch: cycles simulated: 15623469  inst.: 277223244 (ipc=17.8) sim_rate=29435 (inst/sec) elapsed = 0:2:36:58 / Tue Mar 22 10:13:48 2016
GPGPU-Sim PTX: 277800000 instructions simulated : ctaid=(10,2,0) tid=(199,0,0)
GPGPU-Sim uArch: cycles simulated: 15624969  inst.: 277248524 (ipc=17.8) sim_rate=29435 (inst/sec) elapsed = 0:2:36:59 / Tue Mar 22 10:13:49 2016
GPGPU-Sim uArch: cycles simulated: 15626469  inst.: 277280096 (ipc=17.8) sim_rate=29435 (inst/sec) elapsed = 0:2:37:00 / Tue Mar 22 10:13:50 2016
GPGPU-Sim uArch: cycles simulated: 15627969  inst.: 277301165 (ipc=17.8) sim_rate=29434 (inst/sec) elapsed = 0:2:37:01 / Tue Mar 22 10:13:51 2016
GPGPU-Sim uArch: cycles simulated: 15629469  inst.: 277328634 (ipc=17.8) sim_rate=29434 (inst/sec) elapsed = 0:2:37:02 / Tue Mar 22 10:13:52 2016
GPGPU-Sim PTX: 277900000 instructions simulated : ctaid=(7,3,0) tid=(75,0,0)
GPGPU-Sim uArch: cycles simulated: 15630969  inst.: 277356346 (ipc=17.8) sim_rate=29433 (inst/sec) elapsed = 0:2:37:03 / Tue Mar 22 10:13:53 2016
GPGPU-Sim uArch: cycles simulated: 15631969  inst.: 277373786 (ipc=17.8) sim_rate=29432 (inst/sec) elapsed = 0:2:37:04 / Tue Mar 22 10:13:54 2016
GPGPU-Sim uArch: cycles simulated: 15633469  inst.: 277398394 (ipc=17.8) sim_rate=29432 (inst/sec) elapsed = 0:2:37:05 / Tue Mar 22 10:13:55 2016
GPGPU-Sim uArch: cycles simulated: 15634969  inst.: 277431098 (ipc=17.8) sim_rate=29432 (inst/sec) elapsed = 0:2:37:06 / Tue Mar 22 10:13:56 2016
GPGPU-Sim PTX: 278000000 instructions simulated : ctaid=(0,3,0) tid=(75,0,0)
GPGPU-Sim uArch: cycles simulated: 15636469  inst.: 277454362 (ipc=17.8) sim_rate=29431 (inst/sec) elapsed = 0:2:37:07 / Tue Mar 22 10:13:57 2016
GPGPU-Sim uArch: cycles simulated: 15637969  inst.: 277486490 (ipc=17.8) sim_rate=29432 (inst/sec) elapsed = 0:2:37:08 / Tue Mar 22 10:13:58 2016
GPGPU-Sim uArch: cycles simulated: 15639469  inst.: 277512922 (ipc=17.8) sim_rate=29431 (inst/sec) elapsed = 0:2:37:09 / Tue Mar 22 10:13:59 2016
GPGPU-Sim PTX: 278100000 instructions simulated : ctaid=(6,3,0) tid=(75,0,0)
GPGPU-Sim uArch: cycles simulated: 15640969  inst.: 277539610 (ipc=17.8) sim_rate=29431 (inst/sec) elapsed = 0:2:37:10 / Tue Mar 22 10:14:00 2016
GPGPU-Sim uArch: cycles simulated: 15642469  inst.: 277566874 (ipc=17.8) sim_rate=29431 (inst/sec) elapsed = 0:2:37:11 / Tue Mar 22 10:14:01 2016
GPGPU-Sim uArch: cycles simulated: 15643969  inst.: 277588899 (ipc=17.8) sim_rate=29430 (inst/sec) elapsed = 0:2:37:12 / Tue Mar 22 10:14:02 2016
GPGPU-Sim uArch: cycles simulated: 15645469  inst.: 277614147 (ipc=17.8) sim_rate=29430 (inst/sec) elapsed = 0:2:37:13 / Tue Mar 22 10:14:03 2016
GPGPU-Sim PTX: 278200000 instructions simulated : ctaid=(10,2,0) tid=(25,0,0)
GPGPU-Sim uArch: cycles simulated: 15646969  inst.: 277644931 (ipc=17.8) sim_rate=29430 (inst/sec) elapsed = 0:2:37:14 / Tue Mar 22 10:14:04 2016
GPGPU-Sim uArch: cycles simulated: 15648469  inst.: 277671291 (ipc=17.8) sim_rate=29429 (inst/sec) elapsed = 0:2:37:15 / Tue Mar 22 10:14:05 2016
GPGPU-Sim uArch: cycles simulated: 15649969  inst.: 277696379 (ipc=17.8) sim_rate=29429 (inst/sec) elapsed = 0:2:37:16 / Tue Mar 22 10:14:06 2016
GPGPU-Sim uArch: cycles simulated: 15651469  inst.: 277726747 (ipc=17.8) sim_rate=29429 (inst/sec) elapsed = 0:2:37:17 / Tue Mar 22 10:14:07 2016
GPGPU-Sim PTX: 278300000 instructions simulated : ctaid=(0,4,0) tid=(73,0,0)
GPGPU-Sim uArch: cycles simulated: 15652969  inst.: 277760174 (ipc=17.8) sim_rate=29429 (inst/sec) elapsed = 0:2:37:18 / Tue Mar 22 10:14:08 2016
GPGPU-Sim uArch: cycles simulated: 15654469  inst.: 277783125 (ipc=17.8) sim_rate=29429 (inst/sec) elapsed = 0:2:37:19 / Tue Mar 22 10:14:09 2016
GPGPU-Sim uArch: cycles simulated: 15655969  inst.: 277808352 (ipc=17.8) sim_rate=29428 (inst/sec) elapsed = 0:2:37:20 / Tue Mar 22 10:14:10 2016
GPGPU-Sim uArch: cycles simulated: 15657469  inst.: 277837760 (ipc=17.8) sim_rate=29428 (inst/sec) elapsed = 0:2:37:21 / Tue Mar 22 10:14:11 2016
GPGPU-Sim PTX: 278400000 instructions simulated : ctaid=(6,2,0) tid=(223,0,0)
GPGPU-Sim uArch: cycles simulated: 15658469  inst.: 277854976 (ipc=17.8) sim_rate=29427 (inst/sec) elapsed = 0:2:37:22 / Tue Mar 22 10:14:12 2016
GPGPU-Sim uArch: cycles simulated: 15659969  inst.: 277881316 (ipc=17.8) sim_rate=29427 (inst/sec) elapsed = 0:2:37:23 / Tue Mar 22 10:14:13 2016
GPGPU-Sim uArch: cycles simulated: 15661469  inst.: 277911940 (ipc=17.8) sim_rate=29427 (inst/sec) elapsed = 0:2:37:24 / Tue Mar 22 10:14:14 2016
GPGPU-Sim uArch: cycles simulated: 15662969  inst.: 277934500 (ipc=17.8) sim_rate=29426 (inst/sec) elapsed = 0:2:37:25 / Tue Mar 22 10:14:15 2016
GPGPU-Sim PTX: 278500000 instructions simulated : ctaid=(6,3,0) tid=(87,0,0)
GPGPU-Sim uArch: cycles simulated: 15664469  inst.: 277964292 (ipc=17.8) sim_rate=29426 (inst/sec) elapsed = 0:2:37:26 / Tue Mar 22 10:14:16 2016
GPGPU-Sim uArch: cycles simulated: 15665969  inst.: 277990852 (ipc=17.8) sim_rate=29426 (inst/sec) elapsed = 0:2:37:27 / Tue Mar 22 10:14:17 2016
GPGPU-Sim uArch: cycles simulated: 15667469  inst.: 278019492 (ipc=17.8) sim_rate=29426 (inst/sec) elapsed = 0:2:37:28 / Tue Mar 22 10:14:18 2016
GPGPU-Sim PTX: 278600000 instructions simulated : ctaid=(5,3,0) tid=(87,0,0)
GPGPU-Sim uArch: cycles simulated: 15668969  inst.: 278046468 (ipc=17.8) sim_rate=29426 (inst/sec) elapsed = 0:2:37:29 / Tue Mar 22 10:14:19 2016
GPGPU-Sim uArch: cycles simulated: 15670469  inst.: 278071595 (ipc=17.8) sim_rate=29425 (inst/sec) elapsed = 0:2:37:30 / Tue Mar 22 10:14:20 2016
GPGPU-Sim uArch: cycles simulated: 15671969  inst.: 278097291 (ipc=17.8) sim_rate=29425 (inst/sec) elapsed = 0:2:37:31 / Tue Mar 22 10:14:21 2016
GPGPU-Sim uArch: cycles simulated: 15673469  inst.: 278126827 (ipc=17.8) sim_rate=29425 (inst/sec) elapsed = 0:2:37:32 / Tue Mar 22 10:14:22 2016
GPGPU-Sim PTX: 278700000 instructions simulated : ctaid=(9,3,0) tid=(5,0,0)
GPGPU-Sim uArch: cycles simulated: 15674969  inst.: 278153166 (ipc=17.8) sim_rate=29424 (inst/sec) elapsed = 0:2:37:33 / Tue Mar 22 10:14:23 2016
GPGPU-Sim uArch: cycles simulated: 15676469  inst.: 278179342 (ipc=17.8) sim_rate=29424 (inst/sec) elapsed = 0:2:37:34 / Tue Mar 22 10:14:24 2016
GPGPU-Sim uArch: cycles simulated: 15677969  inst.: 278201582 (ipc=17.8) sim_rate=29423 (inst/sec) elapsed = 0:2:37:35 / Tue Mar 22 10:14:25 2016
GPGPU-Sim PTX: 278800000 instructions simulated : ctaid=(9,3,0) tid=(3,0,0)
GPGPU-Sim uArch: cycles simulated: 15679469  inst.: 278238286 (ipc=17.8) sim_rate=29424 (inst/sec) elapsed = 0:2:37:36 / Tue Mar 22 10:14:26 2016
GPGPU-Sim uArch: cycles simulated: 15680969  inst.: 278258318 (ipc=17.8) sim_rate=29423 (inst/sec) elapsed = 0:2:37:37 / Tue Mar 22 10:14:27 2016
GPGPU-Sim uArch: cycles simulated: 15682469  inst.: 278285781 (ipc=17.8) sim_rate=29423 (inst/sec) elapsed = 0:2:37:38 / Tue Mar 22 10:14:28 2016
GPGPU-Sim uArch: cycles simulated: 15683969  inst.: 278313178 (ipc=17.8) sim_rate=29423 (inst/sec) elapsed = 0:2:37:39 / Tue Mar 22 10:14:29 2016
GPGPU-Sim PTX: 278900000 instructions simulated : ctaid=(1,2,0) tid=(139,0,0)
GPGPU-Sim uArch: cycles simulated: 15685469  inst.: 278336858 (ipc=17.8) sim_rate=29422 (inst/sec) elapsed = 0:2:37:40 / Tue Mar 22 10:14:30 2016
GPGPU-Sim uArch: cycles simulated: 15686969  inst.: 278363322 (ipc=17.8) sim_rate=29422 (inst/sec) elapsed = 0:2:37:41 / Tue Mar 22 10:14:31 2016
GPGPU-Sim uArch: cycles simulated: 15688469  inst.: 278391226 (ipc=17.8) sim_rate=29422 (inst/sec) elapsed = 0:2:37:42 / Tue Mar 22 10:14:32 2016
GPGPU-Sim uArch: cycles simulated: 15689969  inst.: 278416730 (ipc=17.8) sim_rate=29421 (inst/sec) elapsed = 0:2:37:43 / Tue Mar 22 10:14:33 2016
GPGPU-Sim PTX: 279000000 instructions simulated : ctaid=(4,5,0) tid=(139,0,0)
GPGPU-Sim uArch: cycles simulated: 15691469  inst.: 278449050 (ipc=17.8) sim_rate=29421 (inst/sec) elapsed = 0:2:37:44 / Tue Mar 22 10:14:34 2016
GPGPU-Sim uArch: cycles simulated: 15692969  inst.: 278471900 (ipc=17.8) sim_rate=29421 (inst/sec) elapsed = 0:2:37:45 / Tue Mar 22 10:14:35 2016
GPGPU-Sim uArch: cycles simulated: 15694469  inst.: 278499708 (ipc=17.8) sim_rate=29421 (inst/sec) elapsed = 0:2:37:46 / Tue Mar 22 10:14:36 2016
GPGPU-Sim uArch: cycles simulated: 15695469  inst.: 278515644 (ipc=17.8) sim_rate=29419 (inst/sec) elapsed = 0:2:37:47 / Tue Mar 22 10:14:37 2016
GPGPU-Sim PTX: 279100000 instructions simulated : ctaid=(2,2,0) tid=(199,0,0)
GPGPU-Sim uArch: cycles simulated: 15696969  inst.: 278540956 (ipc=17.8) sim_rate=29419 (inst/sec) elapsed = 0:2:37:48 / Tue Mar 22 10:14:38 2016
GPGPU-Sim uArch: cycles simulated: 15698469  inst.: 278571228 (ipc=17.8) sim_rate=29419 (inst/sec) elapsed = 0:2:37:49 / Tue Mar 22 10:14:39 2016
GPGPU-Sim uArch: cycles simulated: 15699969  inst.: 278595753 (ipc=17.8) sim_rate=29418 (inst/sec) elapsed = 0:2:37:50 / Tue Mar 22 10:14:40 2016
GPGPU-Sim uArch: cycles simulated: 15701469  inst.: 278620623 (ipc=17.8) sim_rate=29418 (inst/sec) elapsed = 0:2:37:51 / Tue Mar 22 10:14:41 2016
GPGPU-Sim PTX: 279200000 instructions simulated : ctaid=(4,0,0) tid=(39,0,0)
GPGPU-Sim uArch: cycles simulated: 15702969  inst.: 278651356 (ipc=17.8) sim_rate=29418 (inst/sec) elapsed = 0:2:37:52 / Tue Mar 22 10:14:42 2016
GPGPU-Sim uArch: cycles simulated: 15704469  inst.: 278676380 (ipc=17.8) sim_rate=29417 (inst/sec) elapsed = 0:2:37:53 / Tue Mar 22 10:14:43 2016
GPGPU-Sim uArch: cycles simulated: 15705969  inst.: 278702305 (ipc=17.8) sim_rate=29417 (inst/sec) elapsed = 0:2:37:54 / Tue Mar 22 10:14:44 2016
GPGPU-Sim uArch: cycles simulated: 15707469  inst.: 278726593 (ipc=17.8) sim_rate=29417 (inst/sec) elapsed = 0:2:37:55 / Tue Mar 22 10:14:45 2016
GPGPU-Sim PTX: 279300000 instructions simulated : ctaid=(0,4,0) tid=(157,0,0)
GPGPU-Sim uArch: cycles simulated: 15708969  inst.: 278750785 (ipc=17.8) sim_rate=29416 (inst/sec) elapsed = 0:2:37:56 / Tue Mar 22 10:14:46 2016
GPGPU-Sim uArch: cycles simulated: 15710469  inst.: 278776577 (ipc=17.8) sim_rate=29416 (inst/sec) elapsed = 0:2:37:57 / Tue Mar 22 10:14:47 2016
GPGPU-Sim uArch: cycles simulated: 15711969  inst.: 278804678 (ipc=17.8) sim_rate=29415 (inst/sec) elapsed = 0:2:37:58 / Tue Mar 22 10:14:48 2016
GPGPU-Sim uArch: cycles simulated: 15713469  inst.: 278832826 (ipc=17.8) sim_rate=29415 (inst/sec) elapsed = 0:2:37:59 / Tue Mar 22 10:14:49 2016
GPGPU-Sim PTX: 279400000 instructions simulated : ctaid=(4,3,0) tid=(75,0,0)
GPGPU-Sim uArch: cycles simulated: 15714969  inst.: 278860090 (ipc=17.8) sim_rate=29415 (inst/sec) elapsed = 0:2:38:00 / Tue Mar 22 10:14:50 2016
GPGPU-Sim uArch: cycles simulated: 15716469  inst.: 278888890 (ipc=17.8) sim_rate=29415 (inst/sec) elapsed = 0:2:38:01 / Tue Mar 22 10:14:51 2016
GPGPU-Sim uArch: cycles simulated: 15717969  inst.: 278908154 (ipc=17.8) sim_rate=29414 (inst/sec) elapsed = 0:2:38:02 / Tue Mar 22 10:14:52 2016
GPGPU-Sim PTX: 279500000 instructions simulated : ctaid=(0,5,0) tid=(11,0,0)
GPGPU-Sim uArch: cycles simulated: 15719469  inst.: 278936762 (ipc=17.8) sim_rate=29414 (inst/sec) elapsed = 0:2:38:03 / Tue Mar 22 10:14:53 2016
GPGPU-Sim uArch: cycles simulated: 15720969  inst.: 278960474 (ipc=17.8) sim_rate=29413 (inst/sec) elapsed = 0:2:38:04 / Tue Mar 22 10:14:54 2016
GPGPU-Sim uArch: cycles simulated: 15722469  inst.: 278989274 (ipc=17.8) sim_rate=29413 (inst/sec) elapsed = 0:2:38:05 / Tue Mar 22 10:14:55 2016
GPGPU-Sim uArch: cycles simulated: 15723969  inst.: 279017451 (ipc=17.8) sim_rate=29413 (inst/sec) elapsed = 0:2:38:06 / Tue Mar 22 10:14:56 2016
GPGPU-Sim PTX: 279600000 instructions simulated : ctaid=(2,3,0) tid=(9,0,0)
GPGPU-Sim uArch: cycles simulated: 15725469  inst.: 279037003 (ipc=17.8) sim_rate=29412 (inst/sec) elapsed = 0:2:38:07 / Tue Mar 22 10:14:57 2016
GPGPU-Sim uArch: cycles simulated: 15726969  inst.: 279067691 (ipc=17.8) sim_rate=29412 (inst/sec) elapsed = 0:2:38:08 / Tue Mar 22 10:14:58 2016
GPGPU-Sim uArch: cycles simulated: 15728469  inst.: 279088491 (ipc=17.8) sim_rate=29411 (inst/sec) elapsed = 0:2:38:09 / Tue Mar 22 10:14:59 2016
GPGPU-Sim uArch: cycles simulated: 15729969  inst.: 279112075 (ipc=17.8) sim_rate=29411 (inst/sec) elapsed = 0:2:38:10 / Tue Mar 22 10:15:00 2016
GPGPU-Sim PTX: 279700000 instructions simulated : ctaid=(8,3,0) tid=(137,0,0)
GPGPU-Sim uArch: cycles simulated: 15731469  inst.: 279140011 (ipc=17.8) sim_rate=29411 (inst/sec) elapsed = 0:2:38:11 / Tue Mar 22 10:15:01 2016
GPGPU-Sim uArch: cycles simulated: 15732969  inst.: 279162251 (ipc=17.8) sim_rate=29410 (inst/sec) elapsed = 0:2:38:12 / Tue Mar 22 10:15:02 2016
GPGPU-Sim uArch: cycles simulated: 15734469  inst.: 279190155 (ipc=17.8) sim_rate=29410 (inst/sec) elapsed = 0:2:38:13 / Tue Mar 22 10:15:03 2016
GPGPU-Sim uArch: cycles simulated: 15735969  inst.: 279217291 (ipc=17.8) sim_rate=29409 (inst/sec) elapsed = 0:2:38:14 / Tue Mar 22 10:15:04 2016
GPGPU-Sim PTX: 279800000 instructions simulated : ctaid=(2,3,0) tid=(137,0,0)
GPGPU-Sim uArch: cycles simulated: 15737469  inst.: 279245195 (ipc=17.8) sim_rate=29409 (inst/sec) elapsed = 0:2:38:15 / Tue Mar 22 10:15:05 2016
GPGPU-Sim uArch: cycles simulated: 15738969  inst.: 279274606 (ipc=17.8) sim_rate=29409 (inst/sec) elapsed = 0:2:38:16 / Tue Mar 22 10:15:06 2016
GPGPU-Sim uArch: cycles simulated: 15739969  inst.: 279292782 (ipc=17.8) sim_rate=29408 (inst/sec) elapsed = 0:2:38:17 / Tue Mar 22 10:15:07 2016
GPGPU-Sim uArch: cycles simulated: 15741469  inst.: 279315694 (ipc=17.8) sim_rate=29407 (inst/sec) elapsed = 0:2:38:18 / Tue Mar 22 10:15:08 2016
GPGPU-Sim PTX: 279900000 instructions simulated : ctaid=(2,3,0) tid=(3,0,0)
GPGPU-Sim uArch: cycles simulated: 15742969  inst.: 279347566 (ipc=17.8) sim_rate=29408 (inst/sec) elapsed = 0:2:38:19 / Tue Mar 22 10:15:09 2016
GPGPU-Sim uArch: cycles simulated: 15744469  inst.: 279368046 (ipc=17.8) sim_rate=29407 (inst/sec) elapsed = 0:2:38:20 / Tue Mar 22 10:15:10 2016
GPGPU-Sim uArch: cycles simulated: 15745969  inst.: 279400398 (ipc=17.8) sim_rate=29407 (inst/sec) elapsed = 0:2:38:21 / Tue Mar 22 10:15:11 2016
GPGPU-Sim uArch: cycles simulated: 15747469  inst.: 279427502 (ipc=17.8) sim_rate=29407 (inst/sec) elapsed = 0:2:38:22 / Tue Mar 22 10:15:12 2016
GPGPU-Sim PTX: 280000000 instructions simulated : ctaid=(1,1,0) tid=(35,0,0)
GPGPU-Sim uArch: cycles simulated: 15748969  inst.: 279455086 (ipc=17.8) sim_rate=29407 (inst/sec) elapsed = 0:2:38:23 / Tue Mar 22 10:15:13 2016
