

        *** GPGPU-Sim Simulator Version 3.2.2  [build 0] ***


GPGPU-Sim PTX: simulation mode 0 (can change with PTX_SIM_MODE_FUNC environment variable:
               1=functional simulation only, 0=detailed performance simulator)
GPGPU-Sim: Configuration options:

-network_mode                           1 # Interconnection network mode
-inter_config_file   config_fermi_islip.icnt # Interconnection network config file
-gpgpu_ptx_use_cuobjdump                    1 # Use cuobjdump to extract ptx and sass from binaries
-gpgpu_experimental_lib_support                    0 # Try to extract code from cuda libraries [Broken because of unknown cudaGetExportTable]
-gpgpu_ptx_convert_to_ptxplus                    0 # Convert SASS (native ISA) to ptxplus and run ptxplus
-gpgpu_ptx_force_max_capability                   20 # Force maximum compute capability
-gpgpu_ptx_inst_debug_to_file                    0 # Dump executed instructions' debug information to file
-gpgpu_ptx_inst_debug_file       inst_debug.txt # Executed instructions' debug output file
-gpgpu_ptx_inst_debug_thread_uid                    1 # Thread UID for executed instructions' debug output
-gpgpu_simd_model                       1 # 1 = post-dominator
-gpgpu_shader_core_pipeline              1536:32 # shader core pipeline config, i.e., {<nthread>:<warpsize>}
-gpgpu_tex_cache:l1  4:128:24,L:R:m:N:L,F:128:4,128:2 # per-shader L1 texture cache  (READ-ONLY) config  {<nsets>:<bsize>:<assoc>,<rep>:<wr>:<alloc>:<wr_alloc>,<mshr>:<N>:<merge>,<mq>:<rf>}
-gpgpu_const_cache:l1 64:64:2,L:R:f:N:L,A:2:32,4 # per-shader L1 constant memory cache  (READ-ONLY) config  {<nsets>:<bsize>:<assoc>,<rep>:<wr>:<alloc>:<wr_alloc>,<mshr>:<N>:<merge>,<mq>} 
-gpgpu_cache:il1     4:128:4,L:R:f:N:L,A:2:32,4 # shader L1 instruction cache config  {<nsets>:<bsize>:<assoc>,<rep>:<wr>:<alloc>:<wr_alloc>,<mshr>:<N>:<merge>,<mq>} 
-gpgpu_cache:dl1     32:128:4,L:L:m:N:H,A:32:8,8:2,0,1:0:1:1:0:1,1:4:8:16:32:64,/sciclone/data10/hwang07/GPU_RESEARCH/swl/swl_outputs/RESULTS/swl16/ # per-shader L1 data cache config  {<nsets>:<bsize>:<assoc>,<rep>:<wr>:<alloc>:<wr_alloc>,<mshr>:<N>:<merge>,<mq> | none}
-gpgpu_cache:dl1PrefL1                 none # per-shader L1 data cache config  {<nsets>:<bsize>:<assoc>,<rep>:<wr>:<alloc>:<wr_alloc>,<mshr>:<N>:<merge>,<mq> | none}
-gpgpu_cache:dl1PreShared                 none # per-shader L1 data cache config  {<nsets>:<bsize>:<assoc>,<rep>:<wr>:<alloc>:<wr_alloc>,<mshr>:<N>:<merge>,<mq> | none}
-gmem_skip_L1D                          0 # global memory access skip L1D cache (implements -Xptxas -dlcm=cg, default=no skip)
-gpgpu_perfect_mem                      0 # enable perfect memory mode (no cache miss)
-n_regfile_gating_group                    4 # group of lanes that should be read/written together)
-gpgpu_clock_gated_reg_file                    0 # enable clock gated reg file for power calculations
-gpgpu_clock_gated_lanes                    0 # enable clock gated lanes for power calculations
-gpgpu_shader_registers                32768 # Number of registers per shader core. Limits number of concurrent CTAs. (default 8192)
-gpgpu_shader_cta                       8 # Maximum number of concurrent CTAs in shader (default 8)
-gpgpu_num_cta_barriers                   16 # Maximum number of named barriers per CTA (default 16)
-gpgpu_n_clusters                      15 # number of processing clusters
-gpgpu_n_cores_per_cluster                    1 # number of simd cores per cluster
-gpgpu_n_cluster_ejection_buffer_size                    8 # number of packets in ejection buffer
-gpgpu_n_ldst_response_buffer_size                    2 # number of response packets in ld/st unit ejection buffer
-gpgpu_shmem_size                   16384 # Size of shared memory per shader core (default 16kB)
-gpgpu_shmem_size                   49152 # Size of shared memory per shader core (default 16kB)
-gpgpu_shmem_size_PrefL1                16384 # Size of shared memory per shader core (default 16kB)
-gpgpu_shmem_size_PrefShared                16384 # Size of shared memory per shader core (default 16kB)
-gpgpu_shmem_num_banks                   32 # Number of banks in the shared memory in each shader core (default 16)
-gpgpu_shmem_limited_broadcast                    0 # Limit shared memory to do one broadcast per cycle (default on)
-gpgpu_shmem_warp_parts                    1 # Number of portions a warp is divided into for shared memory bank conflict check 
-gpgpu_warpdistro_shader                   -1 # Specify which shader core to collect the warp size distribution from
-gpgpu_warp_issue_shader                    0 # Specify which shader core to collect the warp issue distribution from
-gpgpu_local_mem_map                    1 # Mapping from local memory space address to simulated GPU physical address space (default = enabled)
-gpgpu_num_reg_banks                   16 # Number of register banks (default = 8)
-gpgpu_reg_bank_use_warp_id                    0 # Use warp ID in mapping registers to banks (default = off)
-gpgpu_operand_collector_num_units_sp                    6 # number of collector units (default = 4)
-gpgpu_operand_collector_num_units_sfu                    8 # number of collector units (default = 4)
-gpgpu_operand_collector_num_units_mem                    2 # number of collector units (default = 2)
-gpgpu_operand_collector_num_units_gen                    0 # number of collector units (default = 0)
-gpgpu_operand_collector_num_in_ports_sp                    2 # number of collector unit in ports (default = 1)
-gpgpu_operand_collector_num_in_ports_sfu                    1 # number of collector unit in ports (default = 1)
-gpgpu_operand_collector_num_in_ports_mem                    1 # number of collector unit in ports (default = 1)
-gpgpu_operand_collector_num_in_ports_gen                    0 # number of collector unit in ports (default = 0)
-gpgpu_operand_collector_num_out_ports_sp                    2 # number of collector unit in ports (default = 1)
-gpgpu_operand_collector_num_out_ports_sfu                    1 # number of collector unit in ports (default = 1)
-gpgpu_operand_collector_num_out_ports_mem                    1 # number of collector unit in ports (default = 1)
-gpgpu_operand_collector_num_out_ports_gen                    0 # number of collector unit in ports (default = 0)
-gpgpu_coalesce_arch                   13 # Coalescing arch (default = 13, anything else is off for now)
-gpgpu_num_sched_per_core                    2 # Number of warp schedulers per core
-gpgpu_max_insn_issue_per_warp                    1 # Max number of instructions that can be issued per warp in one cycle by scheduler
-gpgpu_simt_core_sim_order                    1 # Select the simulation order of cores in a cluster (0=Fix, 1=Round-Robin)
-gpgpu_pipeline_widths        2,1,1,2,1,1,2 # Pipeline widths ID_OC_SP,ID_OC_SFU,ID_OC_MEM,OC_EX_SP,OC_EX_SFU,OC_EX_MEM,EX_WB
-gpgpu_num_sp_units                     2 # Number of SP units (default=1)
-gpgpu_num_sfu_units                    1 # Number of SF units (default=1)
-gpgpu_num_mem_units                    1 # Number if ldst units (default=1) WARNING: not hooked up to anything
-gpgpu_scheduler       warp_limiting:2:16 # Scheduler configuration: < lrr | gto | two_level_active > If two_level_active:<num_active_warps>:<inner_prioritization>:<outer_prioritization>For complete list of prioritization values see shader.h enum scheduler_prioritization_typeDefault: gto
-gpgpu_dram_scheduler                    1 # 0 = fifo, 1 = FR-FCFS (defaul)
-gpgpu_dram_partition_queues              8:8:8:8 # i2$:$2d:d2$:$2i
-l2_ideal                               0 # Use a ideal L2 cache that always hit
-gpgpu_cache:dl2     64:128:8,L:B:m:W:L,A:32:4,4:0,32 # unified banked L2 data cache config  {<nsets>:<bsize>:<assoc>,<rep>:<wr>:<alloc>:<wr_alloc>,<mshr>:<N>:<merge>,<mq>}
-gpgpu_cache:dl2_texture_only                    0 # L2 cache used for texture only
-gpgpu_n_mem                            6 # number of memory modules (e.g. memory controllers) in gpu
-gpgpu_n_sub_partition_per_mchannel                    2 # number of memory subpartition in each memory module
-gpgpu_n_mem_per_ctrlr                    2 # number of memory chips per memory controller
-gpgpu_memlatency_stat                   14 # track and display latency statistics 0x2 enables MC, 0x4 enables queue logs
-gpgpu_frfcfs_dram_sched_queue_size                   16 # 0 = unlimited (default); # entries per chip
-gpgpu_dram_return_queue_size                  116 # 0 = unlimited (default); # entries per chip
-gpgpu_dram_buswidth                    4 # default = 4 bytes (8 bytes per cycle at DDR)
-gpgpu_dram_burst_length                    8 # Burst length of each DRAM request (default = 4 data bus cycle)
-dram_data_command_freq_ratio                    4 # Frequency ratio between DRAM data bus and command bus (default = 2 times, i.e. DDR)
-gpgpu_dram_timing_opt nbk=16:CCD=2:RRD=6:RCD=12:RAS=28:RP=12:RC=40: CL=12:WL=4:CDLR=5:WR=12:nbkgrp=4:CCDL=3:RTPL=2 # DRAM timing parameters = {nbk:tCCD:tRRD:tRCD:tRAS:tRP:tRC:CL:WL:tCDLR:tWR:nbkgrp:tCCDL:tRTPL}
-rop_latency                          120 # ROP queue latency (default 85)
-dram_latency                         100 # DRAM latency (default 30)
-gpgpu_mem_addr_mapping dramid@8;00000000.00000000.00000000.00000000.0000RRRR.RRRRRRRR.BBBCCCCB.CCSSSSSS # mapping memory address to dram model {dramid@<start bit>;<memory address map>}
-gpgpu_mem_addr_test                    0 # run sweep test to check address mapping for aliased address
-gpgpu_mem_address_mask                    1 # 0 = old addressing mask, 1 = new addressing mask, 2 = new add. mask + flipped bank sel and chip sel bits
-gpuwattch_xml_file  gpuwattch_gtx480.xml # GPUWattch XML file
-power_simulation_enabled                    0 # Turn on power simulator (1=On, 0=Off)
-power_per_cycle_dump                    0 # Dump detailed power output each cycle
-power_trace_enabled                    0 # produce a file for the power trace (1=On, 0=Off)
-power_trace_zlevel                     6 # Compression level of the power trace output log (0=no comp, 9=highest)
-steady_power_levels_enabled                    0 # produce a file for the steady power levels (1=On, 0=Off)
-steady_state_definition                  8:4 # allowed deviation:number of samples
-gpgpu_max_cycle                        0 # terminates gpu simulation early (0 = no limit)
-gpgpu_max_insn                         0 # terminates gpu simulation early (0 = no limit)
-gpgpu_max_cta                          0 # terminates gpu simulation early (0 = no limit)
-gpgpu_runtime_stat                   500 # display runtime statistics such as dram utilization {<freq>:<flag>}
-liveness_message_freq                    1 # Minimum number of seconds between simulation liveness messages (0 = always print)
-gpgpu_flush_l1_cache                    0 # Flush L1 cache at the end of each kernel call
-gpgpu_flush_l2_cache                    0 # Flush L2 cache at the end of each kernel call
-gpgpu_deadlock_detect                    1 # Stop the simulation at deadlock (1=on (default), 0=off)
-gpgpu_ptx_instruction_classification                    0 # if enabled will classify ptx instruction types per kernel (Max 255 kernels now)
-gpgpu_ptx_sim_mode                     0 # Select between Performance (default) or Functional simulation (1)
-gpgpu_clock_domains 700.0:700.0:700.0:924.0 # Clock Domain Frequencies in MhZ {<Core Clock>:<ICNT Clock>:<L2 Clock>:<DRAM Clock>}
-gpgpu_max_concurrent_kernel                    8 # maximum kernels that can run concurrently on GPU
-gpgpu_cflog_interval                    0 # Interval between each snapshot in control flow logger
-visualizer_enabled                     0 # Turn on visualizer output (1=On, 0=Off)
-visualizer_outputfile                 NULL # Specifies the output log file for visualizer
-visualizer_zlevel                      6 # Compression level of the visualizer output log (0=no comp, 9=highest)
-trace_enabled                          0 # Turn on traces
-trace_components                    none # comma seperated list of traces to enable. Complete list found in trace_streams.tup. Default none
-trace_sampling_core                    0 # The core which is printed using CORE_DPRINTF. Default 0
-trace_sampling_memory_partition                   -1 # The memory partition which is printed using MEMPART_DPRINTF. Default -1 (i.e. all)
-enable_ptx_file_line_stats                    1 # Turn on PTX source line statistic profiling. (1 = On)
-ptx_line_stats_filename gpgpu_inst_stats.txt # Output file for PTX source line statistics.
-save_embedded_ptx                      0 # saves ptx files embedded in binary as <n>.ptx
-keep                                   0 # keep intermediate files created by GPGPU-Sim when interfacing with external programs
-gpgpu_ptx_save_converted_ptxplus                    0 # Saved converted ptxplus to a file
-ptx_opcode_latency_int         4,13,4,5,145 # Opcode latencies for integers <ADD,MAX,MUL,MAD,DIV>Default 1,1,19,25,145
-ptx_opcode_latency_fp          4,13,4,5,39 # Opcode latencies for single precision floating points <ADD,MAX,MUL,MAD,DIV>Default 1,1,1,1,30
-ptx_opcode_latency_dp         8,19,8,8,330 # Opcode latencies for double precision floating points <ADD,MAX,MUL,MAD,DIV>Default 8,8,8,8,335
-ptx_opcode_initiation_int            1,2,2,1,8 # Opcode initiation intervals for integers <ADD,MAX,MUL,MAD,DIV>Default 1,1,4,4,32
-ptx_opcode_initiation_fp            1,2,1,1,4 # Opcode initiation intervals for single precision floating points <ADD,MAX,MUL,MAD,DIV>Default 1,1,1,1,5
-ptx_opcode_initiation_dp         8,16,8,8,130 # Opcode initiation intervals for double precision floating points <ADD,MAX,MUL,MAD,DIV>Default 8,8,8,8,130
DRAM Timing Options:
nbk                                    16 # number of banks
CCD                                     2 # column to column delay
RRD                                     6 # minimal delay between activation of rows in different banks
RCD                                    12 # row to column delay
RAS                                    28 # time needed to activate row
RP                                     12 # time needed to precharge (deactivate) row
RC                                     40 # row cycle time
CDLR                                    5 # switching from write to read (changes tWTR)
WR                                     12 # last data-in to row precharge
CL                                     12 # CAS latency
WL                                      4 # Write latency
nbkgrp                                  4 # number of bank groups
CCDL                                    3 # column to column delay between accesses to different bank groups
RTPL                                    2 # read to precharge delay between accesses to different bank groups
Total number of memory sub partition = 12
addr_dec_mask[CHIP]  = 0000000000000000 	high:64 low:0
addr_dec_mask[BK]    = 000000000000e100 	high:16 low:8
addr_dec_mask[ROW]   = 000000000fff0000 	high:28 low:16
addr_dec_mask[COL]   = 0000000000001eff 	high:13 low:0
addr_dec_mask[BURST] = 000000000000003f 	high:6 low:0
sub_partition_id_mask = 0000000000000100
GPGPU-Sim uArch: clock freqs: 700000000.000000:700000000.000000:700000000.000000:924000000.000000
GPGPU-Sim uArch: clock periods: 0.00000000142857142857:0.00000000142857142857:0.00000000142857142857:0.00000000108225108225
*** Initializing Memory Statistics ***
GPGPU-Sim uArch: interconnect node map (shaderID+MemID to icntID)
GPGPU-Sim uArch: Memory nodes ID start from index: 15
GPGPU-Sim uArch:    0   1   2   3   4
GPGPU-Sim uArch:    5   6   7   8   9
GPGPU-Sim uArch:   10  11  12  13  14
GPGPU-Sim uArch:   15  16  17  18  19
GPGPU-Sim uArch:   20  21  22  23  24
GPGPU-Sim uArch:   25  26
GPGPU-Sim uArch: interconnect node reverse map (icntID to shaderID+MemID)
GPGPU-Sim uArch: Memory nodes start from ID: 15
GPGPU-Sim uArch:    0   1   2   3   4
GPGPU-Sim uArch:    5   6   7   8   9
GPGPU-Sim uArch:   10  11  12  13  14
GPGPU-Sim uArch:   15  16  17  18  19
GPGPU-Sim uArch:   20  21  22  23  24
GPGPU-Sim uArch:   25  26
a694f6f961931330989587dbd586e872  /sciclone/data10/hwang07/adwait/applications/benchmarks/CUDA/KMN/gpgpu_ptx_sim__KMN
GPGPU-Sim uArch: performance model initialization complete.
GPGPU-Sim PTX: __cudaRegisterFatBinary, fat_cubin_handle = 1, filename=kmeans_cuda.cu
self exe links to: /sciclone/data10/hwang07/adwait/applications/benchmarks/CUDA/KMN/gpgpu_ptx_sim__KMN
Running md5sum using "md5sum /sciclone/data10/hwang07/adwait/applications/benchmarks/CUDA/KMN/gpgpu_ptx_sim__KMN "
Parsing file _cuobjdump_complete_output_sBpp68
######### cuobjdump parser ########
## Adding new section ELF
Adding arch: sm_20
Adding identifier: kmeans_cuda.cu
## Adding new section PTX
Adding ptx filename: _cuobjdump_1.ptx
Adding arch: sm_20
Adding identifier: kmeans_cuda.cu
Done parsing!!!
GPGPU-Sim PTX: __cudaRegisterFunction _Z11kmeansPointPfiiiPiS_S_S0_ : hostFun 0x0x402a5e, fat_cubin_handle = 1
GPGPU-Sim PTX: instruction assembly for function '_Z14invert_mappingPfS_ii'...   done.
GPGPU-Sim PTX: finding reconvergence points for '_Z14invert_mappingPfS_ii'...
GPGPU-Sim PTX: Finding dominators for '_Z14invert_mappingPfS_ii'...
GPGPU-Sim PTX: Finding immediate dominators for '_Z14invert_mappingPfS_ii'...
GPGPU-Sim PTX: Finding postdominators for '_Z14invert_mappingPfS_ii'...
GPGPU-Sim PTX: Finding immediate postdominators for '_Z14invert_mappingPfS_ii'...
GPGPU-Sim PTX: pre-decoding instructions for '_Z14invert_mappingPfS_ii'...
GPGPU-Sim PTX: reconvergence points for _Z14invert_mappingPfS_ii...
GPGPU-Sim PTX:  1 (potential) branch divergence @  PC=0x038 (_1.ptx:70) @%p1 bra $Lt_0_2050;
GPGPU-Sim PTX:    immediate post dominator      @  PC=0x110 (_1.ptx:103) exit;
GPGPU-Sim PTX:  2 (potential) branch divergence @  PC=0x058 (_1.ptx:74) @%p2 bra $Lt_0_2562;
GPGPU-Sim PTX:    immediate post dominator      @  PC=0x110 (_1.ptx:103) exit;
GPGPU-Sim PTX:  3 (potential) branch divergence @  PC=0x108 (_1.ptx:99) @%p3 bra $Lt_0_3074;
GPGPU-Sim PTX:    immediate post dominator      @  PC=0x110 (_1.ptx:103) exit;
GPGPU-Sim PTX: ... end of reconvergence points for _Z14invert_mappingPfS_ii
GPGPU-Sim PTX: ... done pre-decoding instructions for '_Z14invert_mappingPfS_ii'.
GPGPU-Sim PTX: instruction assembly for function '_Z11kmeansPointPfiiiPiS_S_S0_'...   done.
GPGPU-Sim PTX: finding reconvergence points for '_Z11kmeansPointPfiiiPiS_S_S0_'...
GPGPU-Sim PTX: Finding dominators for '_Z11kmeansPointPfiiiPiS_S_S0_'...
GPGPU-Sim PTX: Finding immediate dominators for '_Z11kmeansPointPfiiiPiS_S_S0_'...
GPGPU-Sim PTX: Finding postdominators for '_Z11kmeansPointPfiiiPiS_S_S0_'...
GPGPU-Sim PTX: Finding immediate postdominators for '_Z11kmeansPointPfiiiPiS_S_S0_'...
GPGPU-Sim PTX: pre-decoding instructions for '_Z11kmeansPointPfiiiPiS_S_S0_'...
GPGPU-Sim PTX: reconvergence points for _Z11kmeansPointPfiiiPiS_S_S0_...
GPGPU-Sim PTX:  1 (potential) branch divergence @  PC=0x180 (_1.ptx:136) @!%p1 bra $Lt_1_4866;
GPGPU-Sim PTX:    immediate post dominator      @  PC=0x320 (_1.ptx:202) @!%p1 bra $Lt_1_7682;
GPGPU-Sim PTX:  2 (potential) branch divergence @  PC=0x1a0 (_1.ptx:140) @%p2 bra $Lt_1_8194;
GPGPU-Sim PTX:    immediate post dominator      @  PC=0x320 (_1.ptx:202) @!%p1 bra $Lt_1_7682;
GPGPU-Sim PTX:  3 (potential) branch divergence @  PC=0x1e8 (_1.ptx:151) @!%p3 bra $Lt_1_8450;
GPGPU-Sim PTX:    immediate post dominator      @  PC=0x2c8 (_1.ptx:185) setp.lt.f32 %p5, %f2, %f1;
GPGPU-Sim PTX:  4 (potential) branch divergence @  PC=0x2b0 (_1.ptx:180) @%p4 bra $Lt_1_6402;
GPGPU-Sim PTX:    immediate post dominator      @  PC=0x2b8 (_1.ptx:181) bra.uni $Lt_1_5890;
GPGPU-Sim PTX:  5 (potential) branch divergence @  PC=0x2b8 (_1.ptx:181) bra.uni $Lt_1_5890;
GPGPU-Sim PTX:    immediate post dominator      @  PC=0x2c8 (_1.ptx:185) setp.lt.f32 %p5, %f2, %f1;
GPGPU-Sim PTX:  6 (potential) branch divergence @  PC=0x2d0 (_1.ptx:186) @!%p5 bra $Lt_1_6914;
GPGPU-Sim PTX:    immediate post dominator      @  PC=0x2e8 (_1.ptx:192) add.s32 %r18, %r18, 1;
GPGPU-Sim PTX:  7 (potential) branch divergence @  PC=0x2f8 (_1.ptx:194) @%p6 bra $Lt_1_5634;
GPGPU-Sim PTX:    immediate post dominator      @  PC=0x300 (_1.ptx:195) bra.uni $Lt_1_4610;
GPGPU-Sim PTX:  8 (potential) branch divergence @  PC=0x300 (_1.ptx:195) bra.uni $Lt_1_4610;
GPGPU-Sim PTX:    immediate post dominator      @  PC=0x320 (_1.ptx:202) @!%p1 bra $Lt_1_7682;
GPGPU-Sim PTX:  9 (potential) branch divergence @  PC=0x310 (_1.ptx:198) bra.uni $Lt_1_4610;
GPGPU-Sim PTX:    immediate post dominator      @  PC=0x320 (_1.ptx:202) @!%p1 bra $Lt_1_7682;
GPGPU-Sim PTX: 10 (potential) branch divergence @  PC=0x320 (_1.ptx:202) @!%p1 bra $Lt_1_7682;
GPGPU-Sim PTX:    immediate post dominator      @  PC=0x350 (_1.ptx:211) exit;
GPGPU-Sim PTX: ... end of reconvergence points for _Z11kmeansPointPfiiiPiS_S_S0_
GPGPU-Sim PTX: ... done pre-decoding instructions for '_Z11kmeansPointPfiiiPiS_S_S0_'.
GPGPU-Sim PTX: allocating global region for "t_features" from 0x100 to 0x104 (global memory space)
GPGPU-Sim PTX: allocating global region for "t_features_flipped" from 0x104 to 0x108 (global memory space)
GPGPU-Sim PTX: allocating global region for "t_clusters" from 0x108 to 0x10c (global memory space)
GPGPU-Sim PTX: finished parsing EMBEDDED .ptx file _1.ptx
Adding _cuobjdump_1.ptx with cubin handle 1
GPGPU-Sim PTX: extracting embedded .ptx to temporary file "_ptx_IApLnO"
Running: cat _ptx_IApLnO | sed 's/.version 1.5/.version 1.4/' | sed 's/, texmode_independent//' | sed 's/\(\.extern \.const\[1\] .b8 \w\+\)\[\]/\1\[1\]/' | sed 's/const\[.\]/const\[0\]/g' > _ptx2_wno8jP
GPGPU-Sim PTX: generating ptxinfo using "$CUDA_INSTALL_PATH/bin/ptxas --gpu-name=sm_20 -v _ptx2_wno8jP --output-file  /dev/null 2> _ptx_IApLnOinfo"
GPGPU-Sim PTX: Kernel '_Z11kmeansPointPfiiiPiS_S_S0_' : regs=15, lmem=0, smem=0, cmem=88
GPGPU-Sim PTX: Kernel '_Z14invert_mappingPfS_ii' : regs=10, lmem=0, smem=0, cmem=56
GPGPU-Sim PTX: removing ptxinfo using "rm -f _ptx_IApLnO _ptx2_wno8jP _ptx_IApLnOinfo"
GPGPU-Sim PTX: loading globals with explicit initializers... 
GPGPU-Sim PTX: finished loading globals (0 bytes total).
GPGPU-Sim PTX: loading constants with explicit initializers...  done.
GPGPU-Sim PTX: __cudaRegisterFunction _Z14invert_mappingPfS_ii : hostFun 0x0x4028ce, fat_cubin_handle = 1
GPGPU-Sim PTX: in __cudaRegisterTexture:
GPGPU-Sim PTX:   int dim = 1
GPGPU-Sim PTX:   int norm = 0
GPGPU-Sim PTX:   int ext = 0
GPGPU-Sim PTX:   Execution warning: Not finished implementing "void __cudaRegisterTexture(void**, const textureReference*, const void**, const char*, int, int, int)"
GPGPU-Sim PTX: in __cudaRegisterTexture:
GPGPU-Sim PTX:   int dim = 1
GPGPU-Sim PTX:   int norm = 0
GPGPU-Sim PTX:   int ext = 0
GPGPU-Sim PTX:   Execution warning: Not finished implementing "void __cudaRegisterTexture(void**, const textureReference*, const void**, const char*, int, int, int)"
GPGPU-Sim PTX: in __cudaRegisterTexture:
GPGPU-Sim PTX:   int dim = 1
GPGPU-Sim PTX:   int norm = 0
GPGPU-Sim PTX:   int ext = 0
GPGPU-Sim PTX:   Execution warning: Not finished implementing "void __cudaRegisterTexture(void**, const textureReference*, const void**, const char*, int, int, int)"

I/O completed

Number of objects: 28672
Number of features: 138

GPGPU-Sim PTX: cudaLaunch for 0x0x402a5e (mode=performance simulation) on stream 0
GPGPU-Sim PTX: pushing kernel '_Z11kmeansPointPfiiiPiS_S_S0_' to stream 0, gridDim= (11,11,1) blockDim = (256,1,1) 
kernel '_Z11kmeansPointPfiiiPiS_S_S0_' transfer to GPU hardware scheduler
GPGPU-Sim uArch: Shader 1 bind to kernel 1 '_Z11kmeansPointPfiiiPiS_S_S0_'
GPGPU-Sim uArch: CTA/core = 6, limited by: threads
GPGPU-Sim uArch: core:  1, cta: 0 initialized @(1,0)
GPGPU-Sim uArch: Shader 2 bind to kernel 1 '_Z11kmeansPointPfiiiPiS_S_S0_'
GPGPU-Sim uArch: core:  2, cta: 0 initialized @(1,0)
GPGPU-Sim uArch: Shader 3 bind to kernel 1 '_Z11kmeansPointPfiiiPiS_S_S0_'
GPGPU-Sim uArch: core:  3, cta: 0 initialized @(1,0)
GPGPU-Sim uArch: Shader 4 bind to kernel 1 '_Z11kmeansPointPfiiiPiS_S_S0_'
GPGPU-Sim uArch: core:  4, cta: 0 initialized @(1,0)
GPGPU-Sim uArch: Shader 5 bind to kernel 1 '_Z11kmeansPointPfiiiPiS_S_S0_'
GPGPU-Sim uArch: core:  5, cta: 0 initialized @(1,0)
GPGPU-Sim uArch: Shader 6 bind to kernel 1 '_Z11kmeansPointPfiiiPiS_S_S0_'
GPGPU-Sim uArch: core:  6, cta: 0 initialized @(1,0)
GPGPU-Sim uArch: Shader 7 bind to kernel 1 '_Z11kmeansPointPfiiiPiS_S_S0_'
GPGPU-Sim uArch: core:  7, cta: 0 initialized @(1,0)
GPGPU-Sim uArch: Shader 8 bind to kernel 1 '_Z11kmeansPointPfiiiPiS_S_S0_'
GPGPU-Sim uArch: core:  8, cta: 0 initialized @(1,0)
GPGPU-Sim uArch: Shader 9 bind to kernel 1 '_Z11kmeansPointPfiiiPiS_S_S0_'
GPGPU-Sim uArch: core:  9, cta: 0 initialized @(1,0)
GPGPU-Sim uArch: Shader 10 bind to kernel 1 '_Z11kmeansPointPfiiiPiS_S_S0_'
GPGPU-Sim uArch: core: 10, cta: 0 initialized @(1,0)
GPGPU-Sim uArch: Shader 11 bind to kernel 1 '_Z11kmeansPointPfiiiPiS_S_S0_'
GPGPU-Sim uArch: core: 11, cta: 0 initialized @(1,0)
GPGPU-Sim uArch: Shader 12 bind to kernel 1 '_Z11kmeansPointPfiiiPiS_S_S0_'
GPGPU-Sim uArch: core: 12, cta: 0 initialized @(1,0)
GPGPU-Sim uArch: Shader 13 bind to kernel 1 '_Z11kmeansPointPfiiiPiS_S_S0_'
GPGPU-Sim uArch: core: 13, cta: 0 initialized @(1,0)
GPGPU-Sim uArch: Shader 14 bind to kernel 1 '_Z11kmeansPointPfiiiPiS_S_S0_'
GPGPU-Sim uArch: core: 14, cta: 0 initialized @(1,0)
GPGPU-Sim uArch: Shader 0 bind to kernel 1 '_Z11kmeansPointPfiiiPiS_S_S0_'
GPGPU-Sim uArch: core:  0, cta: 0 initialized @(1,0)
GPGPU-Sim uArch: core:  1, cta: 1 initialized @(2,0)
GPGPU-Sim uArch: core:  2, cta: 1 initialized @(2,0)
GPGPU-Sim uArch: core:  3, cta: 1 initialized @(2,0)
GPGPU-Sim uArch: core:  4, cta: 1 initialized @(2,0)
GPGPU-Sim uArch: core:  5, cta: 1 initialized @(2,0)
GPGPU-Sim uArch: core:  6, cta: 1 initialized @(2,0)
GPGPU-Sim uArch: core:  7, cta: 1 initialized @(2,0)
GPGPU-Sim uArch: core:  8, cta: 1 initialized @(2,0)
GPGPU-Sim uArch: core:  9, cta: 1 initialized @(2,0)
GPGPU-Sim uArch: core: 10, cta: 1 initialized @(2,0)
GPGPU-Sim uArch: core: 11, cta: 1 initialized @(2,0)
GPGPU-Sim uArch: core: 12, cta: 1 initialized @(2,0)
GPGPU-Sim uArch: core: 13, cta: 1 initialized @(2,0)
GPGPU-Sim uArch: core: 14, cta: 1 initialized @(2,0)
GPGPU-Sim uArch: core:  0, cta: 1 initialized @(2,0)
GPGPU-Sim uArch: core:  1, cta: 2 initialized @(3,0)
GPGPU-Sim uArch: core:  2, cta: 2 initialized @(3,0)
GPGPU-Sim uArch: core:  3, cta: 2 initialized @(3,0)
GPGPU-Sim uArch: core:  4, cta: 2 initialized @(3,0)
GPGPU-Sim uArch: core:  5, cta: 2 initialized @(3,0)
GPGPU-Sim uArch: core:  6, cta: 2 initialized @(3,0)
GPGPU-Sim uArch: core:  7, cta: 2 initialized @(3,0)
GPGPU-Sim uArch: core:  8, cta: 2 initialized @(3,0)
GPGPU-Sim uArch: core:  9, cta: 2 initialized @(3,0)
GPGPU-Sim uArch: core: 10, cta: 2 initialized @(3,0)
GPGPU-Sim uArch: core: 11, cta: 2 initialized @(3,0)
GPGPU-Sim uArch: core: 12, cta: 2 initialized @(3,0)
GPGPU-Sim uArch: core: 13, cta: 2 initialized @(3,0)
GPGPU-Sim uArch: core: 14, cta: 2 initialized @(3,0)
GPGPU-Sim uArch: core:  0, cta: 2 initialized @(3,0)
GPGPU-Sim uArch: core:  1, cta: 3 initialized @(4,0)
GPGPU-Sim uArch: core:  2, cta: 3 initialized @(4,0)
GPGPU-Sim uArch: core:  3, cta: 3 initialized @(4,0)
GPGPU-Sim uArch: core:  4, cta: 3 initialized @(4,0)
GPGPU-Sim uArch: core:  5, cta: 3 initialized @(4,0)
GPGPU-Sim uArch: core:  6, cta: 3 initialized @(4,0)
GPGPU-Sim uArch: core:  7, cta: 3 initialized @(4,0)
GPGPU-Sim uArch: core:  8, cta: 3 initialized @(4,0)
GPGPU-Sim uArch: core:  9, cta: 3 initialized @(4,0)
GPGPU-Sim uArch: core: 10, cta: 3 initialized @(4,0)
GPGPU-Sim uArch: core: 11, cta: 3 initialized @(4,0)
GPGPU-Sim uArch: core: 12, cta: 3 initialized @(4,0)
GPGPU-Sim uArch: core: 13, cta: 3 initialized @(4,0)
GPGPU-Sim uArch: core: 14, cta: 3 initialized @(4,0)
GPGPU-Sim uArch: core:  0, cta: 3 initialized @(4,0)
GPGPU-Sim uArch: core:  1, cta: 4 initialized @(5,0)
GPGPU-Sim uArch: core:  2, cta: 4 initialized @(5,0)
GPGPU-Sim uArch: core:  3, cta: 4 initialized @(5,0)
GPGPU-Sim uArch: core:  4, cta: 4 initialized @(5,0)
GPGPU-Sim uArch: core:  5, cta: 4 initialized @(5,0)
GPGPU-Sim uArch: core:  6, cta: 4 initialized @(5,0)
GPGPU-Sim uArch: core:  7, cta: 4 initialized @(5,0)
GPGPU-Sim uArch: core:  8, cta: 4 initialized @(5,0)
GPGPU-Sim uArch: core:  9, cta: 4 initialized @(5,0)
GPGPU-Sim uArch: core: 10, cta: 4 initialized @(5,0)
GPGPU-Sim uArch: core: 11, cta: 4 initialized @(5,0)
GPGPU-Sim uArch: core: 12, cta: 4 initialized @(5,0)
GPGPU-Sim uArch: core: 13, cta: 4 initialized @(5,0)
GPGPU-Sim uArch: core: 14, cta: 4 initialized @(5,0)
GPGPU-Sim uArch: core:  0, cta: 4 initialized @(5,0)
GPGPU-Sim uArch: core:  1, cta: 5 initialized @(6,0)
GPGPU-Sim uArch: core:  2, cta: 5 initialized @(6,0)
GPGPU-Sim uArch: core:  3, cta: 5 initialized @(6,0)
GPGPU-Sim uArch: core:  4, cta: 5 initialized @(6,0)
GPGPU-Sim uArch: core:  5, cta: 5 initialized @(6,0)
GPGPU-Sim uArch: core:  6, cta: 5 initialized @(6,0)
GPGPU-Sim uArch: core:  7, cta: 5 initialized @(6,0)
GPGPU-Sim uArch: core:  8, cta: 5 initialized @(6,0)
GPGPU-Sim uArch: core:  9, cta: 5 initialized @(6,0)
GPGPU-Sim uArch: core: 10, cta: 5 initialized @(6,0)
GPGPU-Sim uArch: core: 11, cta: 5 initialized @(6,0)
GPGPU-Sim uArch: core: 12, cta: 5 initialized @(6,0)
GPGPU-Sim uArch: core: 13, cta: 5 initialized @(6,0)
GPGPU-Sim uArch: core: 14, cta: 5 initialized @(6,0)
GPGPU-Sim uArch: core:  0, cta: 5 initialized @(6,0)
GPGPU-Sim PTX: 100000 instructions simulated : ctaid=(8,3,0) tid=(159,0,0)
GPGPU-Sim uArch: cycles simulated: 500  inst.: 131680 (ipc=263.4) sim_rate=3558 (inst/sec) elapsed = 0:0:00:37 / Tue Mar 22 12:58:11 2016
GPGPU-Sim PTX: 200000 instructions simulated : ctaid=(9,2,0) tid=(127,0,0)
GPGPU-Sim PTX: 300000 instructions simulated : ctaid=(9,2,0) tid=(223,0,0)
GPGPU-Sim PTX: 400000 instructions simulated : ctaid=(4,5,0) tid=(63,0,0)
GPGPU-Sim uArch: cycles simulated: 1500  inst.: 422144 (ipc=281.4) sim_rate=11109 (inst/sec) elapsed = 0:0:00:38 / Tue Mar 22 12:58:12 2016
GPGPU-Sim PTX: 500000 instructions simulated : ctaid=(5,3,0) tid=(255,0,0)
GPGPU-Sim PTX: 600000 instructions simulated : ctaid=(10,0,0) tid=(31,0,0)
GPGPU-Sim uArch: cycles simulated: 2000  inst.: 579136 (ipc=289.6) sim_rate=14125 (inst/sec) elapsed = 0:0:00:41 / Tue Mar 22 12:58:15 2016
GPGPU-Sim uArch: cycles simulated: 3000  inst.: 582496 (ipc=194.2) sim_rate=13868 (inst/sec) elapsed = 0:0:00:42 / Tue Mar 22 12:58:16 2016
GPGPU-Sim uArch: cycles simulated: 4500  inst.: 606560 (ipc=134.8) sim_rate=14106 (inst/sec) elapsed = 0:0:00:43 / Tue Mar 22 12:58:17 2016
GPGPU-Sim uArch: cycles simulated: 6500  inst.: 624160 (ipc=96.0) sim_rate=14185 (inst/sec) elapsed = 0:0:00:44 / Tue Mar 22 12:58:18 2016
GPGPU-Sim PTX: 700000 instructions simulated : ctaid=(9,1,0) tid=(95,0,0)
GPGPU-Sim uArch: cycles simulated: 8000  inst.: 655168 (ipc=81.9) sim_rate=14559 (inst/sec) elapsed = 0:0:00:45 / Tue Mar 22 12:58:19 2016
GPGPU-Sim uArch: cycles simulated: 9500  inst.: 676320 (ipc=71.2) sim_rate=14702 (inst/sec) elapsed = 0:0:00:46 / Tue Mar 22 12:58:20 2016
GPGPU-Sim uArch: cycles simulated: 11500  inst.: 695296 (ipc=60.5) sim_rate=14793 (inst/sec) elapsed = 0:0:00:47 / Tue Mar 22 12:58:21 2016
GPGPU-Sim uArch: cycles simulated: 13000  inst.: 715744 (ipc=55.1) sim_rate=14911 (inst/sec) elapsed = 0:0:00:48 / Tue Mar 22 12:58:22 2016
GPGPU-Sim uArch: cycles simulated: 15000  inst.: 747008 (ipc=49.8) sim_rate=15245 (inst/sec) elapsed = 0:0:00:49 / Tue Mar 22 12:58:23 2016
GPGPU-Sim PTX: 800000 instructions simulated : ctaid=(9,1,0) tid=(31,0,0)
GPGPU-Sim uArch: cycles simulated: 16500  inst.: 770688 (ipc=46.7) sim_rate=15413 (inst/sec) elapsed = 0:0:00:50 / Tue Mar 22 12:58:24 2016
GPGPU-Sim uArch: cycles simulated: 18000  inst.: 797536 (ipc=44.3) sim_rate=15637 (inst/sec) elapsed = 0:0:00:51 / Tue Mar 22 12:58:25 2016
GPGPU-Sim uArch: cycles simulated: 19500  inst.: 818304 (ipc=42.0) sim_rate=15736 (inst/sec) elapsed = 0:0:00:52 / Tue Mar 22 12:58:26 2016
GPGPU-Sim PTX: 900000 instructions simulated : ctaid=(4,0,0) tid=(159,0,0)
GPGPU-Sim uArch: cycles simulated: 21500  inst.: 854592 (ipc=39.7) sim_rate=16124 (inst/sec) elapsed = 0:0:00:53 / Tue Mar 22 12:58:27 2016
GPGPU-Sim uArch: cycles simulated: 23000  inst.: 878304 (ipc=38.2) sim_rate=16264 (inst/sec) elapsed = 0:0:00:54 / Tue Mar 22 12:58:28 2016
GPGPU-Sim uArch: cycles simulated: 24500  inst.: 905856 (ipc=37.0) sim_rate=16470 (inst/sec) elapsed = 0:0:00:55 / Tue Mar 22 12:58:29 2016
GPGPU-Sim uArch: cycles simulated: 26500  inst.: 938496 (ipc=35.4) sim_rate=16758 (inst/sec) elapsed = 0:0:00:56 / Tue Mar 22 12:58:30 2016
GPGPU-Sim PTX: 1000000 instructions simulated : ctaid=(2,1,0) tid=(223,0,0)
GPGPU-Sim uArch: cycles simulated: 28000  inst.: 961024 (ipc=34.3) sim_rate=16860 (inst/sec) elapsed = 0:0:00:57 / Tue Mar 22 12:58:31 2016
GPGPU-Sim uArch: cycles simulated: 29500  inst.: 989248 (ipc=33.5) sim_rate=17056 (inst/sec) elapsed = 0:0:00:58 / Tue Mar 22 12:58:32 2016
GPGPU-Sim uArch: cycles simulated: 31000  inst.: 1014752 (ipc=32.7) sim_rate=17199 (inst/sec) elapsed = 0:0:00:59 / Tue Mar 22 12:58:33 2016
GPGPU-Sim PTX: 1100000 instructions simulated : ctaid=(1,1,0) tid=(127,0,0)
GPGPU-Sim uArch: cycles simulated: 33000  inst.: 1051456 (ipc=31.9) sim_rate=17524 (inst/sec) elapsed = 0:0:01:00 / Tue Mar 22 12:58:34 2016
GPGPU-Sim uArch: cycles simulated: 34500  inst.: 1073024 (ipc=31.1) sim_rate=17590 (inst/sec) elapsed = 0:0:01:01 / Tue Mar 22 12:58:35 2016
GPGPU-Sim uArch: cycles simulated: 36000  inst.: 1100320 (ipc=30.6) sim_rate=17747 (inst/sec) elapsed = 0:0:01:02 / Tue Mar 22 12:58:36 2016
GPGPU-Sim uArch: cycles simulated: 37500  inst.: 1130016 (ipc=30.1) sim_rate=17936 (inst/sec) elapsed = 0:0:01:03 / Tue Mar 22 12:58:37 2016
GPGPU-Sim PTX: 1200000 instructions simulated : ctaid=(1,0,0) tid=(223,0,0)
GPGPU-Sim uArch: cycles simulated: 39500  inst.: 1162816 (ipc=29.4) sim_rate=18169 (inst/sec) elapsed = 0:0:01:04 / Tue Mar 22 12:58:38 2016
GPGPU-Sim uArch: cycles simulated: 41000  inst.: 1191040 (ipc=29.0) sim_rate=18323 (inst/sec) elapsed = 0:0:01:05 / Tue Mar 22 12:58:39 2016
GPGPU-Sim uArch: cycles simulated: 42500  inst.: 1215520 (ipc=28.6) sim_rate=18416 (inst/sec) elapsed = 0:0:01:06 / Tue Mar 22 12:58:40 2016
GPGPU-Sim uArch: cycles simulated: 44000  inst.: 1243200 (ipc=28.3) sim_rate=18555 (inst/sec) elapsed = 0:0:01:07 / Tue Mar 22 12:58:41 2016
GPGPU-Sim PTX: 1300000 instructions simulated : ctaid=(10,0,0) tid=(95,0,0)
GPGPU-Sim uArch: cycles simulated: 46000  inst.: 1277280 (ipc=27.8) sim_rate=18783 (inst/sec) elapsed = 0:0:01:08 / Tue Mar 22 12:58:42 2016
GPGPU-Sim uArch: cycles simulated: 47500  inst.: 1303872 (ipc=27.4) sim_rate=18896 (inst/sec) elapsed = 0:0:01:09 / Tue Mar 22 12:58:43 2016
GPGPU-Sim uArch: cycles simulated: 49000  inst.: 1334080 (ipc=27.2) sim_rate=19058 (inst/sec) elapsed = 0:0:01:10 / Tue Mar 22 12:58:44 2016
GPGPU-Sim PTX: 1400000 instructions simulated : ctaid=(6,0,0) tid=(223,0,0)
GPGPU-Sim uArch: cycles simulated: 50500  inst.: 1360480 (ipc=26.9) sim_rate=19161 (inst/sec) elapsed = 0:0:01:11 / Tue Mar 22 12:58:45 2016
GPGPU-Sim uArch: cycles simulated: 52500  inst.: 1392896 (ipc=26.5) sim_rate=19345 (inst/sec) elapsed = 0:0:01:12 / Tue Mar 22 12:58:46 2016
GPGPU-Sim uArch: cycles simulated: 54000  inst.: 1419168 (ipc=26.3) sim_rate=19440 (inst/sec) elapsed = 0:0:01:13 / Tue Mar 22 12:58:47 2016
GPGPU-Sim uArch: cycles simulated: 55500  inst.: 1447488 (ipc=26.1) sim_rate=19560 (inst/sec) elapsed = 0:0:01:14 / Tue Mar 22 12:58:48 2016
GPGPU-Sim PTX: 1500000 instructions simulated : ctaid=(2,0,0) tid=(31,0,0)
GPGPU-Sim uArch: cycles simulated: 57000  inst.: 1474240 (ipc=25.9) sim_rate=19656 (inst/sec) elapsed = 0:0:01:15 / Tue Mar 22 12:58:49 2016
GPGPU-Sim uArch: cycles simulated: 59000  inst.: 1505408 (ipc=25.5) sim_rate=19808 (inst/sec) elapsed = 0:0:01:16 / Tue Mar 22 12:58:50 2016
GPGPU-Sim uArch: cycles simulated: 60500  inst.: 1531808 (ipc=25.3) sim_rate=19893 (inst/sec) elapsed = 0:0:01:17 / Tue Mar 22 12:58:51 2016
GPGPU-Sim PTX: 1600000 instructions simulated : ctaid=(3,2,0) tid=(95,0,0)
GPGPU-Sim uArch: cycles simulated: 62000  inst.: 1560960 (ipc=25.2) sim_rate=20012 (inst/sec) elapsed = 0:0:01:18 / Tue Mar 22 12:58:52 2016
GPGPU-Sim uArch: cycles simulated: 63500  inst.: 1585504 (ipc=25.0) sim_rate=20069 (inst/sec) elapsed = 0:0:01:19 / Tue Mar 22 12:58:53 2016
GPGPU-Sim uArch: cycles simulated: 65500  inst.: 1615040 (ipc=24.7) sim_rate=20188 (inst/sec) elapsed = 0:0:01:20 / Tue Mar 22 12:58:54 2016
GPGPU-Sim uArch: cycles simulated: 67000  inst.: 1645696 (ipc=24.6) sim_rate=20317 (inst/sec) elapsed = 0:0:01:21 / Tue Mar 22 12:58:55 2016
GPGPU-Sim PTX: 1700000 instructions simulated : ctaid=(6,0,0) tid=(159,0,0)
GPGPU-Sim uArch: cycles simulated: 68500  inst.: 1676096 (ipc=24.5) sim_rate=20440 (inst/sec) elapsed = 0:0:01:22 / Tue Mar 22 12:58:56 2016
GPGPU-Sim uArch: cycles simulated: 70000  inst.: 1709728 (ipc=24.4) sim_rate=20599 (inst/sec) elapsed = 0:0:01:23 / Tue Mar 22 12:58:57 2016
GPGPU-Sim uArch: cycles simulated: 71500  inst.: 1735648 (ipc=24.3) sim_rate=20662 (inst/sec) elapsed = 0:0:01:24 / Tue Mar 22 12:58:58 2016
GPGPU-Sim PTX: 1800000 instructions simulated : ctaid=(7,2,0) tid=(31,0,0)
GPGPU-Sim uArch: cycles simulated: 73500  inst.: 1769728 (ipc=24.1) sim_rate=20820 (inst/sec) elapsed = 0:0:01:25 / Tue Mar 22 12:58:59 2016
GPGPU-Sim uArch: cycles simulated: 75000  inst.: 1793568 (ipc=23.9) sim_rate=20855 (inst/sec) elapsed = 0:0:01:26 / Tue Mar 22 12:59:00 2016
GPGPU-Sim uArch: cycles simulated: 76500  inst.: 1823072 (ipc=23.8) sim_rate=20954 (inst/sec) elapsed = 0:0:01:27 / Tue Mar 22 12:59:01 2016
GPGPU-Sim uArch: cycles simulated: 78000  inst.: 1846400 (ipc=23.7) sim_rate=20981 (inst/sec) elapsed = 0:0:01:28 / Tue Mar 22 12:59:02 2016
GPGPU-Sim PTX: 1900000 instructions simulated : ctaid=(10,0,0) tid=(159,0,0)
GPGPU-Sim uArch: cycles simulated: 80000  inst.: 1882784 (ipc=23.5) sim_rate=21154 (inst/sec) elapsed = 0:0:01:29 / Tue Mar 22 12:59:03 2016
GPGPU-Sim uArch: cycles simulated: 81500  inst.: 1905728 (ipc=23.4) sim_rate=21174 (inst/sec) elapsed = 0:0:01:30 / Tue Mar 22 12:59:04 2016
GPGPU-Sim uArch: cycles simulated: 83000  inst.: 1936896 (ipc=23.3) sim_rate=21284 (inst/sec) elapsed = 0:0:01:31 / Tue Mar 22 12:59:05 2016
GPGPU-Sim PTX: 2000000 instructions simulated : ctaid=(2,0,0) tid=(223,0,0)
GPGPU-Sim uArch: cycles simulated: 84500  inst.: 1963456 (ipc=23.2) sim_rate=21341 (inst/sec) elapsed = 0:0:01:32 / Tue Mar 22 12:59:06 2016
GPGPU-Sim uArch: cycles simulated: 86500  inst.: 1994432 (ipc=23.1) sim_rate=21445 (inst/sec) elapsed = 0:0:01:33 / Tue Mar 22 12:59:07 2016
GPGPU-Sim uArch: cycles simulated: 88000  inst.: 2029152 (ipc=23.1) sim_rate=21586 (inst/sec) elapsed = 0:0:01:34 / Tue Mar 22 12:59:08 2016
GPGPU-Sim PTX: 2100000 instructions simulated : ctaid=(3,0,0) tid=(63,0,0)
GPGPU-Sim uArch: cycles simulated: 89500  inst.: 2054240 (ipc=23.0) sim_rate=21623 (inst/sec) elapsed = 0:0:01:35 / Tue Mar 22 12:59:09 2016
GPGPU-Sim uArch: cycles simulated: 91000  inst.: 2081056 (ipc=22.9) sim_rate=21677 (inst/sec) elapsed = 0:0:01:36 / Tue Mar 22 12:59:10 2016
GPGPU-Sim uArch: cycles simulated: 93000  inst.: 2117952 (ipc=22.8) sim_rate=21834 (inst/sec) elapsed = 0:0:01:37 / Tue Mar 22 12:59:11 2016
GPGPU-Sim uArch: cycles simulated: 94500  inst.: 2145312 (ipc=22.7) sim_rate=21890 (inst/sec) elapsed = 0:0:01:38 / Tue Mar 22 12:59:12 2016
GPGPU-Sim PTX: 2200000 instructions simulated : ctaid=(2,1,0) tid=(31,0,0)
GPGPU-Sim uArch: cycles simulated: 96000  inst.: 2172032 (ipc=22.6) sim_rate=21939 (inst/sec) elapsed = 0:0:01:39 / Tue Mar 22 12:59:13 2016
GPGPU-Sim uArch: cycles simulated: 97500  inst.: 2205120 (ipc=22.6) sim_rate=22051 (inst/sec) elapsed = 0:0:01:40 / Tue Mar 22 12:59:14 2016
GPGPU-Sim uArch: cycles simulated: 99000  inst.: 2232640 (ipc=22.6) sim_rate=22105 (inst/sec) elapsed = 0:0:01:41 / Tue Mar 22 12:59:15 2016
GPGPU-Sim PTX: 2300000 instructions simulated : ctaid=(1,1,0) tid=(95,0,0)
GPGPU-Sim uArch: cycles simulated: 101000  inst.: 2263296 (ipc=22.4) sim_rate=22189 (inst/sec) elapsed = 0:0:01:42 / Tue Mar 22 12:59:16 2016
GPGPU-Sim uArch: cycles simulated: 102500  inst.: 2292224 (ipc=22.4) sim_rate=22254 (inst/sec) elapsed = 0:0:01:43 / Tue Mar 22 12:59:17 2016
GPGPU-Sim uArch: cycles simulated: 104000  inst.: 2316992 (ipc=22.3) sim_rate=22278 (inst/sec) elapsed = 0:0:01:44 / Tue Mar 22 12:59:18 2016
GPGPU-Sim uArch: cycles simulated: 105500  inst.: 2342784 (ipc=22.2) sim_rate=22312 (inst/sec) elapsed = 0:0:01:45 / Tue Mar 22 12:59:19 2016
GPGPU-Sim PTX: 2400000 instructions simulated : ctaid=(3,0,0) tid=(127,0,0)
GPGPU-Sim uArch: cycles simulated: 107500  inst.: 2377632 (ipc=22.1) sim_rate=22430 (inst/sec) elapsed = 0:0:01:46 / Tue Mar 22 12:59:20 2016
GPGPU-Sim uArch: cycles simulated: 109000  inst.: 2405376 (ipc=22.1) sim_rate=22480 (inst/sec) elapsed = 0:0:01:47 / Tue Mar 22 12:59:21 2016
GPGPU-Sim uArch: cycles simulated: 110500  inst.: 2431264 (ipc=22.0) sim_rate=22511 (inst/sec) elapsed = 0:0:01:48 / Tue Mar 22 12:59:22 2016
GPGPU-Sim PTX: 2500000 instructions simulated : ctaid=(1,1,0) tid=(63,0,0)
GPGPU-Sim uArch: cycles simulated: 112000  inst.: 2459712 (ipc=22.0) sim_rate=22566 (inst/sec) elapsed = 0:0:01:49 / Tue Mar 22 12:59:23 2016
GPGPU-Sim uArch: cycles simulated: 114000  inst.: 2496032 (ipc=21.9) sim_rate=22691 (inst/sec) elapsed = 0:0:01:50 / Tue Mar 22 12:59:24 2016
GPGPU-Sim uArch: cycles simulated: 115500  inst.: 2521600 (ipc=21.8) sim_rate=22717 (inst/sec) elapsed = 0:0:01:51 / Tue Mar 22 12:59:25 2016
GPGPU-Sim uArch: cycles simulated: 117000  inst.: 2546144 (ipc=21.8) sim_rate=22733 (inst/sec) elapsed = 0:0:01:52 / Tue Mar 22 12:59:26 2016
GPGPU-Sim PTX: 2600000 instructions simulated : ctaid=(2,0,0) tid=(31,0,0)
GPGPU-Sim uArch: cycles simulated: 118500  inst.: 2572960 (ipc=21.7) sim_rate=22769 (inst/sec) elapsed = 0:0:01:53 / Tue Mar 22 12:59:27 2016
GPGPU-Sim uArch: cycles simulated: 120500  inst.: 2606912 (ipc=21.6) sim_rate=22867 (inst/sec) elapsed = 0:0:01:54 / Tue Mar 22 12:59:28 2016
GPGPU-Sim uArch: cycles simulated: 122000  inst.: 2631424 (ipc=21.6) sim_rate=22881 (inst/sec) elapsed = 0:0:01:55 / Tue Mar 22 12:59:29 2016
GPGPU-Sim PTX: 2700000 instructions simulated : ctaid=(0,2,0) tid=(31,0,0)
GPGPU-Sim uArch: cycles simulated: 123500  inst.: 2659456 (ipc=21.5) sim_rate=22926 (inst/sec) elapsed = 0:0:01:56 / Tue Mar 22 12:59:30 2016
GPGPU-Sim uArch: cycles simulated: 125000  inst.: 2689760 (ipc=21.5) sim_rate=22989 (inst/sec) elapsed = 0:0:01:57 / Tue Mar 22 12:59:31 2016
GPGPU-Sim uArch: cycles simulated: 127000  inst.: 2720512 (ipc=21.4) sim_rate=23055 (inst/sec) elapsed = 0:0:01:58 / Tue Mar 22 12:59:32 2016
GPGPU-Sim uArch: cycles simulated: 128500  inst.: 2749376 (ipc=21.4) sim_rate=23104 (inst/sec) elapsed = 0:0:01:59 / Tue Mar 22 12:59:33 2016
GPGPU-Sim PTX: 2800000 instructions simulated : ctaid=(0,2,0) tid=(159,0,0)
GPGPU-Sim uArch: cycles simulated: 130000  inst.: 2772160 (ipc=21.3) sim_rate=23101 (inst/sec) elapsed = 0:0:02:00 / Tue Mar 22 12:59:34 2016
GPGPU-Sim uArch: cycles simulated: 132000  inst.: 2808544 (ipc=21.3) sim_rate=23211 (inst/sec) elapsed = 0:0:02:01 / Tue Mar 22 12:59:35 2016
GPGPU-Sim uArch: cycles simulated: 133500  inst.: 2836576 (ipc=21.2) sim_rate=23250 (inst/sec) elapsed = 0:0:02:02 / Tue Mar 22 12:59:36 2016
GPGPU-Sim PTX: 2900000 instructions simulated : ctaid=(10,0,0) tid=(31,0,0)
GPGPU-Sim uArch: cycles simulated: 135000  inst.: 2864736 (ipc=21.2) sim_rate=23290 (inst/sec) elapsed = 0:0:02:03 / Tue Mar 22 12:59:37 2016
GPGPU-Sim uArch: cycles simulated: 136500  inst.: 2891040 (ipc=21.2) sim_rate=23314 (inst/sec) elapsed = 0:0:02:04 / Tue Mar 22 12:59:38 2016
GPGPU-Sim uArch: cycles simulated: 138000  inst.: 2914784 (ipc=21.1) sim_rate=23318 (inst/sec) elapsed = 0:0:02:05 / Tue Mar 22 12:59:39 2016
GPGPU-Sim uArch: cycles simulated: 140000  inst.: 2949280 (ipc=21.1) sim_rate=23406 (inst/sec) elapsed = 0:0:02:06 / Tue Mar 22 12:59:40 2016
GPGPU-Sim PTX: 3000000 instructions simulated : ctaid=(3,1,0) tid=(63,0,0)
GPGPU-Sim uArch: cycles simulated: 141500  inst.: 2970496 (ipc=21.0) sim_rate=23389 (inst/sec) elapsed = 0:0:02:07 / Tue Mar 22 12:59:41 2016
GPGPU-Sim uArch: cycles simulated: 143000  inst.: 3002176 (ipc=21.0) sim_rate=23454 (inst/sec) elapsed = 0:0:02:08 / Tue Mar 22 12:59:42 2016
GPGPU-Sim uArch: cycles simulated: 144500  inst.: 3023904 (ipc=20.9) sim_rate=23441 (inst/sec) elapsed = 0:0:02:09 / Tue Mar 22 12:59:43 2016
GPGPU-Sim PTX: 3100000 instructions simulated : ctaid=(4,0,0) tid=(31,0,0)
GPGPU-Sim uArch: cycles simulated: 146500  inst.: 3057632 (ipc=20.9) sim_rate=23520 (inst/sec) elapsed = 0:0:02:10 / Tue Mar 22 12:59:44 2016
GPGPU-Sim uArch: cycles simulated: 148000  inst.: 3081568 (ipc=20.8) sim_rate=23523 (inst/sec) elapsed = 0:0:02:11 / Tue Mar 22 12:59:45 2016
GPGPU-Sim uArch: cycles simulated: 149500  inst.: 3112640 (ipc=20.8) sim_rate=23580 (inst/sec) elapsed = 0:0:02:12 / Tue Mar 22 12:59:46 2016
GPGPU-Sim uArch: cycles simulated: 151500  inst.: 3142240 (ipc=20.7) sim_rate=23625 (inst/sec) elapsed = 0:0:02:13 / Tue Mar 22 12:59:47 2016
GPGPU-Sim PTX: 3200000 instructions simulated : ctaid=(1,0,0) tid=(127,0,0)
GPGPU-Sim uArch: cycles simulated: 153000  inst.: 3167488 (ipc=20.7) sim_rate=23637 (inst/sec) elapsed = 0:0:02:14 / Tue Mar 22 12:59:48 2016
GPGPU-Sim uArch: cycles simulated: 154500  inst.: 3189632 (ipc=20.6) sim_rate=23626 (inst/sec) elapsed = 0:0:02:15 / Tue Mar 22 12:59:49 2016
GPGPU-Sim uArch: cycles simulated: 156000  inst.: 3216704 (ipc=20.6) sim_rate=23652 (inst/sec) elapsed = 0:0:02:16 / Tue Mar 22 12:59:50 2016
GPGPU-Sim PTX: 3300000 instructions simulated : ctaid=(8,1,0) tid=(31,0,0)
GPGPU-Sim uArch: cycles simulated: 158000  inst.: 3250368 (ipc=20.6) sim_rate=23725 (inst/sec) elapsed = 0:0:02:17 / Tue Mar 22 12:59:51 2016
GPGPU-Sim uArch: cycles simulated: 159500  inst.: 3276320 (ipc=20.5) sim_rate=23741 (inst/sec) elapsed = 0:0:02:18 / Tue Mar 22 12:59:52 2016
GPGPU-Sim uArch: cycles simulated: 161000  inst.: 3302688 (ipc=20.5) sim_rate=23760 (inst/sec) elapsed = 0:0:02:19 / Tue Mar 22 12:59:53 2016
GPGPU-Sim uArch: cycles simulated: 162500  inst.: 3330432 (ipc=20.5) sim_rate=23788 (inst/sec) elapsed = 0:0:02:20 / Tue Mar 22 12:59:54 2016
GPGPU-Sim PTX: 3400000 instructions simulated : ctaid=(10,0,0) tid=(95,0,0)
GPGPU-Sim uArch: cycles simulated: 164500  inst.: 3367744 (ipc=20.5) sim_rate=23884 (inst/sec) elapsed = 0:0:02:21 / Tue Mar 22 12:59:55 2016
GPGPU-Sim uArch: cycles simulated: 166000  inst.: 3390528 (ipc=20.4) sim_rate=23876 (inst/sec) elapsed = 0:0:02:22 / Tue Mar 22 12:59:56 2016
GPGPU-Sim uArch: cycles simulated: 167500  inst.: 3424032 (ipc=20.4) sim_rate=23944 (inst/sec) elapsed = 0:0:02:23 / Tue Mar 22 12:59:57 2016
GPGPU-Sim uArch: cycles simulated: 169000  inst.: 3449600 (ipc=20.4) sim_rate=23955 (inst/sec) elapsed = 0:0:02:24 / Tue Mar 22 12:59:58 2016
GPGPU-Sim PTX: 3500000 instructions simulated : ctaid=(6,1,0) tid=(95,0,0)
GPGPU-Sim uArch: cycles simulated: 171000  inst.: 3480480 (ipc=20.4) sim_rate=24003 (inst/sec) elapsed = 0:0:02:25 / Tue Mar 22 12:59:59 2016
GPGPU-Sim uArch: cycles simulated: 172500  inst.: 3506112 (ipc=20.3) sim_rate=24014 (inst/sec) elapsed = 0:0:02:26 / Tue Mar 22 13:00:00 2016
GPGPU-Sim uArch: cycles simulated: 174000  inst.: 3535488 (ipc=20.3) sim_rate=24050 (inst/sec) elapsed = 0:0:02:27 / Tue Mar 22 13:00:01 2016
GPGPU-Sim PTX: 3600000 instructions simulated : ctaid=(4,0,0) tid=(159,0,0)
GPGPU-Sim uArch: cycles simulated: 175500  inst.: 3557248 (ipc=20.3) sim_rate=24035 (inst/sec) elapsed = 0:0:02:28 / Tue Mar 22 13:00:02 2016
GPGPU-Sim uArch: cycles simulated: 177500  inst.: 3590464 (ipc=20.2) sim_rate=24097 (inst/sec) elapsed = 0:0:02:29 / Tue Mar 22 13:00:03 2016
GPGPU-Sim uArch: cycles simulated: 179000  inst.: 3614272 (ipc=20.2) sim_rate=24095 (inst/sec) elapsed = 0:0:02:30 / Tue Mar 22 13:00:04 2016
GPGPU-Sim uArch: cycles simulated: 180500  inst.: 3644608 (ipc=20.2) sim_rate=24136 (inst/sec) elapsed = 0:0:02:31 / Tue Mar 22 13:00:05 2016
GPGPU-Sim PTX: 3700000 instructions simulated : ctaid=(6,0,0) tid=(95,0,0)
GPGPU-Sim uArch: cycles simulated: 182000  inst.: 3669216 (ipc=20.2) sim_rate=24139 (inst/sec) elapsed = 0:0:02:32 / Tue Mar 22 13:00:06 2016
GPGPU-Sim uArch: cycles simulated: 184000  inst.: 3708416 (ipc=20.2) sim_rate=24238 (inst/sec) elapsed = 0:0:02:33 / Tue Mar 22 13:00:07 2016
GPGPU-Sim uArch: cycles simulated: 185500  inst.: 3727776 (ipc=20.1) sim_rate=24206 (inst/sec) elapsed = 0:0:02:34 / Tue Mar 22 13:00:08 2016
GPGPU-Sim PTX: 3800000 instructions simulated : ctaid=(2,1,0) tid=(127,0,0)
GPGPU-Sim uArch: cycles simulated: 187000  inst.: 3757056 (ipc=20.1) sim_rate=24239 (inst/sec) elapsed = 0:0:02:35 / Tue Mar 22 13:00:09 2016
GPGPU-Sim uArch: cycles simulated: 188500  inst.: 3786816 (ipc=20.1) sim_rate=24274 (inst/sec) elapsed = 0:0:02:36 / Tue Mar 22 13:00:10 2016
GPGPU-Sim uArch: cycles simulated: 190500  inst.: 3815168 (ipc=20.0) sim_rate=24300 (inst/sec) elapsed = 0:0:02:37 / Tue Mar 22 13:00:11 2016
GPGPU-Sim uArch: cycles simulated: 192000  inst.: 3837504 (ipc=20.0) sim_rate=24288 (inst/sec) elapsed = 0:0:02:38 / Tue Mar 22 13:00:12 2016
GPGPU-Sim PTX: 3900000 instructions simulated : ctaid=(4,1,0) tid=(31,0,0)
GPGPU-Sim uArch: cycles simulated: 193500  inst.: 3867904 (ipc=20.0) sim_rate=24326 (inst/sec) elapsed = 0:0:02:39 / Tue Mar 22 13:00:13 2016
GPGPU-Sim uArch: cycles simulated: 195000  inst.: 3886336 (ipc=19.9) sim_rate=24289 (inst/sec) elapsed = 0:0:02:40 / Tue Mar 22 13:00:14 2016
GPGPU-Sim uArch: cycles simulated: 196500  inst.: 3917184 (ipc=19.9) sim_rate=24330 (inst/sec) elapsed = 0:0:02:41 / Tue Mar 22 13:00:15 2016
GPGPU-Sim uArch: cycles simulated: 198500  inst.: 3947840 (ipc=19.9) sim_rate=24369 (inst/sec) elapsed = 0:0:02:42 / Tue Mar 22 13:00:16 2016
GPGPU-Sim PTX: 4000000 instructions simulated : ctaid=(2,1,0) tid=(159,0,0)
GPGPU-Sim uArch: cycles simulated: 200000  inst.: 3982976 (ipc=19.9) sim_rate=24435 (inst/sec) elapsed = 0:0:02:43 / Tue Mar 22 13:00:17 2016
GPGPU-Sim uArch: cycles simulated: 201500  inst.: 4010656 (ipc=19.9) sim_rate=24455 (inst/sec) elapsed = 0:0:02:44 / Tue Mar 22 13:00:18 2016
GPGPU-Sim uArch: cycles simulated: 203000  inst.: 4040096 (ipc=19.9) sim_rate=24485 (inst/sec) elapsed = 0:0:02:45 / Tue Mar 22 13:00:19 2016
GPGPU-Sim PTX: 4100000 instructions simulated : ctaid=(3,1,0) tid=(31,0,0)
GPGPU-Sim uArch: cycles simulated: 205000  inst.: 4073632 (ipc=19.9) sim_rate=24539 (inst/sec) elapsed = 0:0:02:46 / Tue Mar 22 13:00:20 2016
GPGPU-Sim uArch: cycles simulated: 206500  inst.: 4099456 (ipc=19.9) sim_rate=24547 (inst/sec) elapsed = 0:0:02:47 / Tue Mar 22 13:00:21 2016
GPGPU-Sim uArch: cycles simulated: 208000  inst.: 4129472 (ipc=19.9) sim_rate=24580 (inst/sec) elapsed = 0:0:02:48 / Tue Mar 22 13:00:22 2016
GPGPU-Sim PTX: 4200000 instructions simulated : ctaid=(1,0,0) tid=(223,0,0)
GPGPU-Sim uArch: cycles simulated: 209500  inst.: 4160224 (ipc=19.9) sim_rate=24616 (inst/sec) elapsed = 0:0:02:49 / Tue Mar 22 13:00:23 2016
GPGPU-Sim uArch: cycles simulated: 211500  inst.: 4190752 (ipc=19.8) sim_rate=24651 (inst/sec) elapsed = 0:0:02:50 / Tue Mar 22 13:00:24 2016
GPGPU-Sim uArch: cycles simulated: 213000  inst.: 4218880 (ipc=19.8) sim_rate=24671 (inst/sec) elapsed = 0:0:02:51 / Tue Mar 22 13:00:25 2016
GPGPU-Sim uArch: cycles simulated: 214500  inst.: 4247200 (ipc=19.8) sim_rate=24693 (inst/sec) elapsed = 0:0:02:52 / Tue Mar 22 13:00:26 2016
GPGPU-Sim PTX: 4300000 instructions simulated : ctaid=(3,0,0) tid=(95,0,0)
GPGPU-Sim uArch: cycles simulated: 216000  inst.: 4274944 (ipc=19.8) sim_rate=24710 (inst/sec) elapsed = 0:0:02:53 / Tue Mar 22 13:00:27 2016
GPGPU-Sim uArch: cycles simulated: 217500  inst.: 4302944 (ipc=19.8) sim_rate=24729 (inst/sec) elapsed = 0:0:02:54 / Tue Mar 22 13:00:28 2016
GPGPU-Sim uArch: cycles simulated: 219000  inst.: 4331264 (ipc=19.8) sim_rate=24750 (inst/sec) elapsed = 0:0:02:55 / Tue Mar 22 13:00:29 2016
GPGPU-Sim PTX: 4400000 instructions simulated : ctaid=(5,0,0) tid=(31,0,0)
GPGPU-Sim uArch: cycles simulated: 220500  inst.: 4358240 (ipc=19.8) sim_rate=24762 (inst/sec) elapsed = 0:0:02:56 / Tue Mar 22 13:00:30 2016
GPGPU-Sim uArch: cycles simulated: 222500  inst.: 4390912 (ipc=19.7) sim_rate=24807 (inst/sec) elapsed = 0:0:02:57 / Tue Mar 22 13:00:31 2016
GPGPU-Sim uArch: cycles simulated: 224000  inst.: 4419776 (ipc=19.7) sim_rate=24830 (inst/sec) elapsed = 0:0:02:58 / Tue Mar 22 13:00:32 2016
GPGPU-Sim uArch: cycles simulated: 225500  inst.: 4448704 (ipc=19.7) sim_rate=24853 (inst/sec) elapsed = 0:0:02:59 / Tue Mar 22 13:00:33 2016
GPGPU-Sim PTX: 4500000 instructions simulated : ctaid=(3,2,0) tid=(31,0,0)
GPGPU-Sim uArch: cycles simulated: 227000  inst.: 4474080 (ipc=19.7) sim_rate=24856 (inst/sec) elapsed = 0:0:03:00 / Tue Mar 22 13:00:34 2016
GPGPU-Sim uArch: cycles simulated: 229000  inst.: 4506240 (ipc=19.7) sim_rate=24896 (inst/sec) elapsed = 0:0:03:01 / Tue Mar 22 13:00:35 2016
GPGPU-Sim uArch: cycles simulated: 230500  inst.: 4535008 (ipc=19.7) sim_rate=24917 (inst/sec) elapsed = 0:0:03:02 / Tue Mar 22 13:00:36 2016
GPGPU-Sim PTX: 4600000 instructions simulated : ctaid=(4,0,0) tid=(159,0,0)
GPGPU-Sim uArch: cycles simulated: 232000  inst.: 4564512 (ipc=19.7) sim_rate=24942 (inst/sec) elapsed = 0:0:03:03 / Tue Mar 22 13:00:37 2016
GPGPU-Sim uArch: cycles simulated: 233500  inst.: 4591072 (ipc=19.7) sim_rate=24951 (inst/sec) elapsed = 0:0:03:04 / Tue Mar 22 13:00:38 2016
GPGPU-Sim uArch: cycles simulated: 235000  inst.: 4619776 (ipc=19.7) sim_rate=24971 (inst/sec) elapsed = 0:0:03:05 / Tue Mar 22 13:00:39 2016
GPGPU-Sim uArch: cycles simulated: 236500  inst.: 4650368 (ipc=19.7) sim_rate=25001 (inst/sec) elapsed = 0:0:03:06 / Tue Mar 22 13:00:40 2016
GPGPU-Sim PTX: 4700000 instructions simulated : ctaid=(7,0,0) tid=(159,0,0)
GPGPU-Sim uArch: cycles simulated: 238500  inst.: 4682688 (ipc=19.6) sim_rate=25041 (inst/sec) elapsed = 0:0:03:07 / Tue Mar 22 13:00:41 2016
GPGPU-Sim uArch: cycles simulated: 240000  inst.: 4706528 (ipc=19.6) sim_rate=25034 (inst/sec) elapsed = 0:0:03:08 / Tue Mar 22 13:00:42 2016
GPGPU-Sim uArch: cycles simulated: 241500  inst.: 4732128 (ipc=19.6) sim_rate=25037 (inst/sec) elapsed = 0:0:03:09 / Tue Mar 22 13:00:43 2016
GPGPU-Sim PTX: 4800000 instructions simulated : ctaid=(9,1,0) tid=(31,0,0)
GPGPU-Sim uArch: cycles simulated: 243000  inst.: 4757184 (ipc=19.6) sim_rate=25037 (inst/sec) elapsed = 0:0:03:10 / Tue Mar 22 13:00:44 2016
GPGPU-Sim uArch: cycles simulated: 245000  inst.: 4791520 (ipc=19.6) sim_rate=25086 (inst/sec) elapsed = 0:0:03:11 / Tue Mar 22 13:00:45 2016
GPGPU-Sim uArch: cycles simulated: 246500  inst.: 4817888 (ipc=19.5) sim_rate=25093 (inst/sec) elapsed = 0:0:03:12 / Tue Mar 22 13:00:46 2016
GPGPU-Sim uArch: cycles simulated: 248000  inst.: 4845888 (ipc=19.5) sim_rate=25108 (inst/sec) elapsed = 0:0:03:13 / Tue Mar 22 13:00:47 2016
GPGPU-Sim PTX: 4900000 instructions simulated : ctaid=(9,0,0) tid=(31,0,0)
GPGPU-Sim uArch: cycles simulated: 249500  inst.: 4867904 (ipc=19.5) sim_rate=25092 (inst/sec) elapsed = 0:0:03:14 / Tue Mar 22 13:00:48 2016
GPGPU-Sim uArch: cycles simulated: 251500  inst.: 4905728 (ipc=19.5) sim_rate=25157 (inst/sec) elapsed = 0:0:03:15 / Tue Mar 22 13:00:49 2016
GPGPU-Sim uArch: cycles simulated: 253000  inst.: 4927872 (ipc=19.5) sim_rate=25142 (inst/sec) elapsed = 0:0:03:16 / Tue Mar 22 13:00:50 2016
GPGPU-Sim PTX: 5000000 instructions simulated : ctaid=(5,0,0) tid=(159,0,0)
GPGPU-Sim uArch: cycles simulated: 254500  inst.: 4956256 (ipc=19.5) sim_rate=25158 (inst/sec) elapsed = 0:0:03:17 / Tue Mar 22 13:00:51 2016
GPGPU-Sim uArch: cycles simulated: 256000  inst.: 4987712 (ipc=19.5) sim_rate=25190 (inst/sec) elapsed = 0:0:03:18 / Tue Mar 22 13:00:52 2016
GPGPU-Sim uArch: cycles simulated: 258000  inst.: 5016928 (ipc=19.4) sim_rate=25210 (inst/sec) elapsed = 0:0:03:19 / Tue Mar 22 13:00:53 2016
GPGPU-Sim uArch: cycles simulated: 259500  inst.: 5048896 (ipc=19.5) sim_rate=25244 (inst/sec) elapsed = 0:0:03:20 / Tue Mar 22 13:00:54 2016
GPGPU-Sim PTX: 5100000 instructions simulated : ctaid=(8,0,0) tid=(95,0,0)
GPGPU-Sim uArch: cycles simulated: 261000  inst.: 5073984 (ipc=19.4) sim_rate=25243 (inst/sec) elapsed = 0:0:03:21 / Tue Mar 22 13:00:55 2016
GPGPU-Sim uArch: cycles simulated: 263000  inst.: 5114656 (ipc=19.4) sim_rate=25320 (inst/sec) elapsed = 0:0:03:22 / Tue Mar 22 13:00:56 2016
GPGPU-Sim uArch: cycles simulated: 264500  inst.: 5140768 (ipc=19.4) sim_rate=25323 (inst/sec) elapsed = 0:0:03:23 / Tue Mar 22 13:00:57 2016
GPGPU-Sim PTX: 5200000 instructions simulated : ctaid=(6,0,0) tid=(31,0,0)
GPGPU-Sim uArch: cycles simulated: 266000  inst.: 5165472 (ipc=19.4) sim_rate=25320 (inst/sec) elapsed = 0:0:03:24 / Tue Mar 22 13:00:58 2016
GPGPU-Sim uArch: cycles simulated: 267500  inst.: 5196096 (ipc=19.4) sim_rate=25346 (inst/sec) elapsed = 0:0:03:25 / Tue Mar 22 13:00:59 2016
GPGPU-Sim uArch: cycles simulated: 269500  inst.: 5230528 (ipc=19.4) sim_rate=25390 (inst/sec) elapsed = 0:0:03:26 / Tue Mar 22 13:01:00 2016
GPGPU-Sim PTX: 5300000 instructions simulated : ctaid=(6,2,0) tid=(223,0,0)
GPGPU-Sim uArch: cycles simulated: 271000  inst.: 5252160 (ipc=19.4) sim_rate=25372 (inst/sec) elapsed = 0:0:03:27 / Tue Mar 22 13:01:01 2016
GPGPU-Sim uArch: cycles simulated: 272500  inst.: 5278272 (ipc=19.4) sim_rate=25376 (inst/sec) elapsed = 0:0:03:28 / Tue Mar 22 13:01:02 2016
GPGPU-Sim uArch: cycles simulated: 274500  inst.: 5310464 (ipc=19.3) sim_rate=25408 (inst/sec) elapsed = 0:0:03:29 / Tue Mar 22 13:01:03 2016
GPGPU-Sim uArch: cycles simulated: 276000  inst.: 5336192 (ipc=19.3) sim_rate=25410 (inst/sec) elapsed = 0:0:03:30 / Tue Mar 22 13:01:04 2016
GPGPU-Sim PTX: 5400000 instructions simulated : ctaid=(7,0,0) tid=(95,0,0)
GPGPU-Sim uArch: cycles simulated: 277500  inst.: 5364800 (ipc=19.3) sim_rate=25425 (inst/sec) elapsed = 0:0:03:31 / Tue Mar 22 13:01:05 2016
GPGPU-Sim uArch: cycles simulated: 279000  inst.: 5393024 (ipc=19.3) sim_rate=25438 (inst/sec) elapsed = 0:0:03:32 / Tue Mar 22 13:01:06 2016
GPGPU-Sim uArch: cycles simulated: 281000  inst.: 5429024 (ipc=19.3) sim_rate=25488 (inst/sec) elapsed = 0:0:03:33 / Tue Mar 22 13:01:07 2016
GPGPU-Sim PTX: 5500000 instructions simulated : ctaid=(0,0,0) tid=(95,0,0)
GPGPU-Sim uArch: cycles simulated: 282500  inst.: 5454816 (ipc=19.3) sim_rate=25489 (inst/sec) elapsed = 0:0:03:34 / Tue Mar 22 13:01:08 2016
GPGPU-Sim uArch: cycles simulated: 284000  inst.: 5478688 (ipc=19.3) sim_rate=25482 (inst/sec) elapsed = 0:0:03:35 / Tue Mar 22 13:01:09 2016
GPGPU-Sim uArch: cycles simulated: 285500  inst.: 5509312 (ipc=19.3) sim_rate=25506 (inst/sec) elapsed = 0:0:03:36 / Tue Mar 22 13:01:10 2016
GPGPU-Sim uArch: cycles simulated: 287500  inst.: 5537696 (ipc=19.3) sim_rate=25519 (inst/sec) elapsed = 0:0:03:37 / Tue Mar 22 13:01:11 2016
GPGPU-Sim PTX: 5600000 instructions simulated : ctaid=(8,0,0) tid=(223,0,0)
GPGPU-Sim uArch: cycles simulated: 289000  inst.: 5568096 (ipc=19.3) sim_rate=25541 (inst/sec) elapsed = 0:0:03:38 / Tue Mar 22 13:01:12 2016
GPGPU-Sim uArch: cycles simulated: 290500  inst.: 5592992 (ipc=19.3) sim_rate=25538 (inst/sec) elapsed = 0:0:03:39 / Tue Mar 22 13:01:13 2016
GPGPU-Sim uArch: cycles simulated: 292000  inst.: 5621824 (ipc=19.3) sim_rate=25553 (inst/sec) elapsed = 0:0:03:40 / Tue Mar 22 13:01:14 2016
GPGPU-Sim PTX: 5700000 instructions simulated : ctaid=(6,0,0) tid=(127,0,0)
GPGPU-Sim uArch: cycles simulated: 294000  inst.: 5654816 (ipc=19.2) sim_rate=25587 (inst/sec) elapsed = 0:0:03:41 / Tue Mar 22 13:01:15 2016
GPGPU-Sim uArch: cycles simulated: 295500  inst.: 5686080 (ipc=19.2) sim_rate=25612 (inst/sec) elapsed = 0:0:03:42 / Tue Mar 22 13:01:16 2016
GPGPU-Sim uArch: cycles simulated: 297000  inst.: 5716800 (ipc=19.2) sim_rate=25635 (inst/sec) elapsed = 0:0:03:43 / Tue Mar 22 13:01:17 2016
GPGPU-Sim uArch: cycles simulated: 298500  inst.: 5741952 (ipc=19.2) sim_rate=25633 (inst/sec) elapsed = 0:0:03:44 / Tue Mar 22 13:01:18 2016
GPGPU-Sim PTX: 5800000 instructions simulated : ctaid=(6,0,0) tid=(95,0,0)
GPGPU-Sim uArch: cycles simulated: 300500  inst.: 5774912 (ipc=19.2) sim_rate=25666 (inst/sec) elapsed = 0:0:03:45 / Tue Mar 22 13:01:19 2016
GPGPU-Sim uArch: cycles simulated: 302000  inst.: 5802144 (ipc=19.2) sim_rate=25673 (inst/sec) elapsed = 0:0:03:46 / Tue Mar 22 13:01:20 2016
GPGPU-Sim uArch: cycles simulated: 303500  inst.: 5829728 (ipc=19.2) sim_rate=25681 (inst/sec) elapsed = 0:0:03:47 / Tue Mar 22 13:01:21 2016
GPGPU-Sim PTX: 5900000 instructions simulated : ctaid=(10,0,0) tid=(63,0,0)
GPGPU-Sim uArch: cycles simulated: 305000  inst.: 5859264 (ipc=19.2) sim_rate=25698 (inst/sec) elapsed = 0:0:03:48 / Tue Mar 22 13:01:22 2016
GPGPU-Sim uArch: cycles simulated: 307000  inst.: 5893920 (ipc=19.2) sim_rate=25737 (inst/sec) elapsed = 0:0:03:49 / Tue Mar 22 13:01:23 2016
GPGPU-Sim uArch: cycles simulated: 308500  inst.: 5919168 (ipc=19.2) sim_rate=25735 (inst/sec) elapsed = 0:0:03:50 / Tue Mar 22 13:01:24 2016
GPGPU-Sim uArch: cycles simulated: 310000  inst.: 5943424 (ipc=19.2) sim_rate=25729 (inst/sec) elapsed = 0:0:03:51 / Tue Mar 22 13:01:25 2016
GPGPU-Sim PTX: 6000000 instructions simulated : ctaid=(10,0,0) tid=(159,0,0)
GPGPU-Sim uArch: cycles simulated: 312000  inst.: 5977792 (ipc=19.2) sim_rate=25766 (inst/sec) elapsed = 0:0:03:52 / Tue Mar 22 13:01:26 2016
GPGPU-Sim uArch: cycles simulated: 313500  inst.: 6000384 (ipc=19.1) sim_rate=25752 (inst/sec) elapsed = 0:0:03:53 / Tue Mar 22 13:01:27 2016
GPGPU-Sim uArch: cycles simulated: 315000  inst.: 6030240 (ipc=19.1) sim_rate=25770 (inst/sec) elapsed = 0:0:03:54 / Tue Mar 22 13:01:28 2016
GPGPU-Sim PTX: 6100000 instructions simulated : ctaid=(1,1,0) tid=(31,0,0)
GPGPU-Sim uArch: cycles simulated: 316500  inst.: 6060000 (ipc=19.1) sim_rate=25787 (inst/sec) elapsed = 0:0:03:55 / Tue Mar 22 13:01:29 2016
GPGPU-Sim uArch: cycles simulated: 318500  inst.: 6088800 (ipc=19.1) sim_rate=25800 (inst/sec) elapsed = 0:0:03:56 / Tue Mar 22 13:01:30 2016
GPGPU-Sim uArch: cycles simulated: 320000  inst.: 6116800 (ipc=19.1) sim_rate=25809 (inst/sec) elapsed = 0:0:03:57 / Tue Mar 22 13:01:31 2016
GPGPU-Sim uArch: cycles simulated: 321500  inst.: 6138752 (ipc=19.1) sim_rate=25793 (inst/sec) elapsed = 0:0:03:58 / Tue Mar 22 13:01:32 2016
GPGPU-Sim PTX: 6200000 instructions simulated : ctaid=(2,1,0) tid=(31,0,0)
GPGPU-Sim uArch: cycles simulated: 323000  inst.: 6164000 (ipc=19.1) sim_rate=25790 (inst/sec) elapsed = 0:0:03:59 / Tue Mar 22 13:01:33 2016
GPGPU-Sim uArch: cycles simulated: 325000  inst.: 6201728 (ipc=19.1) sim_rate=25840 (inst/sec) elapsed = 0:0:04:00 / Tue Mar 22 13:01:34 2016
GPGPU-Sim uArch: cycles simulated: 326500  inst.: 6219744 (ipc=19.0) sim_rate=25808 (inst/sec) elapsed = 0:0:04:01 / Tue Mar 22 13:01:35 2016
GPGPU-Sim PTX: 6300000 instructions simulated : ctaid=(2,0,0) tid=(223,0,0)
GPGPU-Sim uArch: cycles simulated: 328000  inst.: 6245504 (ipc=19.0) sim_rate=25807 (inst/sec) elapsed = 0:0:04:02 / Tue Mar 22 13:01:36 2016
GPGPU-Sim uArch: cycles simulated: 330000  inst.: 6282144 (ipc=19.0) sim_rate=25852 (inst/sec) elapsed = 0:0:04:03 / Tue Mar 22 13:01:37 2016
GPGPU-Sim uArch: cycles simulated: 331500  inst.: 6302592 (ipc=19.0) sim_rate=25830 (inst/sec) elapsed = 0:0:04:04 / Tue Mar 22 13:01:38 2016
GPGPU-Sim uArch: cycles simulated: 333000  inst.: 6325472 (ipc=19.0) sim_rate=25818 (inst/sec) elapsed = 0:0:04:05 / Tue Mar 22 13:01:39 2016
GPGPU-Sim PTX: 6400000 instructions simulated : ctaid=(4,0,0) tid=(95,0,0)
GPGPU-Sim uArch: cycles simulated: 335000  inst.: 6361280 (ipc=19.0) sim_rate=25858 (inst/sec) elapsed = 0:0:04:06 / Tue Mar 22 13:01:40 2016
GPGPU-Sim uArch: cycles simulated: 336500  inst.: 6386144 (ipc=19.0) sim_rate=25854 (inst/sec) elapsed = 0:0:04:07 / Tue Mar 22 13:01:41 2016
GPGPU-Sim uArch: cycles simulated: 338000  inst.: 6412480 (ipc=19.0) sim_rate=25856 (inst/sec) elapsed = 0:0:04:08 / Tue Mar 22 13:01:42 2016
GPGPU-Sim uArch: cycles simulated: 339500  inst.: 6441728 (ipc=19.0) sim_rate=25870 (inst/sec) elapsed = 0:0:04:09 / Tue Mar 22 13:01:43 2016
GPGPU-Sim PTX: 6500000 instructions simulated : ctaid=(6,2,0) tid=(159,0,0)
GPGPU-Sim uArch: cycles simulated: 341500  inst.: 6469824 (ipc=18.9) sim_rate=25879 (inst/sec) elapsed = 0:0:04:10 / Tue Mar 22 13:01:44 2016
GPGPU-Sim uArch: cycles simulated: 343000  inst.: 6497952 (ipc=18.9) sim_rate=25888 (inst/sec) elapsed = 0:0:04:11 / Tue Mar 22 13:01:45 2016
GPGPU-Sim uArch: cycles simulated: 344500  inst.: 6523360 (ipc=18.9) sim_rate=25886 (inst/sec) elapsed = 0:0:04:12 / Tue Mar 22 13:01:46 2016
GPGPU-Sim PTX: 6600000 instructions simulated : ctaid=(3,2,0) tid=(223,0,0)
GPGPU-Sim uArch: cycles simulated: 346000  inst.: 6547392 (ipc=18.9) sim_rate=25879 (inst/sec) elapsed = 0:0:04:13 / Tue Mar 22 13:01:47 2016
GPGPU-Sim uArch: cycles simulated: 348000  inst.: 6579840 (ipc=18.9) sim_rate=25904 (inst/sec) elapsed = 0:0:04:14 / Tue Mar 22 13:01:48 2016
GPGPU-Sim uArch: cycles simulated: 349500  inst.: 6603328 (ipc=18.9) sim_rate=25895 (inst/sec) elapsed = 0:0:04:15 / Tue Mar 22 13:01:49 2016
GPGPU-Sim uArch: cycles simulated: 351000  inst.: 6633632 (ipc=18.9) sim_rate=25912 (inst/sec) elapsed = 0:0:04:16 / Tue Mar 22 13:01:50 2016
GPGPU-Sim PTX: 6700000 instructions simulated : ctaid=(4,0,0) tid=(223,0,0)
GPGPU-Sim uArch: cycles simulated: 352500  inst.: 6657632 (ipc=18.9) sim_rate=25905 (inst/sec) elapsed = 0:0:04:17 / Tue Mar 22 13:01:51 2016
GPGPU-Sim uArch: cycles simulated: 354500  inst.: 6695104 (ipc=18.9) sim_rate=25950 (inst/sec) elapsed = 0:0:04:18 / Tue Mar 22 13:01:52 2016
GPGPU-Sim uArch: cycles simulated: 356000  inst.: 6718880 (ipc=18.9) sim_rate=25941 (inst/sec) elapsed = 0:0:04:19 / Tue Mar 22 13:01:53 2016
GPGPU-Sim PTX: 6800000 instructions simulated : ctaid=(5,2,0) tid=(95,0,0)
GPGPU-Sim uArch: cycles simulated: 357500  inst.: 6745536 (ipc=18.9) sim_rate=25944 (inst/sec) elapsed = 0:0:04:20 / Tue Mar 22 13:01:54 2016
GPGPU-Sim uArch: cycles simulated: 359000  inst.: 6773568 (ipc=18.9) sim_rate=25952 (inst/sec) elapsed = 0:0:04:21 / Tue Mar 22 13:01:55 2016
GPGPU-Sim uArch: cycles simulated: 361000  inst.: 6806208 (ipc=18.9) sim_rate=25977 (inst/sec) elapsed = 0:0:04:22 / Tue Mar 22 13:01:56 2016
GPGPU-Sim uArch: cycles simulated: 362500  inst.: 6834560 (ipc=18.9) sim_rate=25986 (inst/sec) elapsed = 0:0:04:23 / Tue Mar 22 13:01:57 2016
GPGPU-Sim PTX: 6900000 instructions simulated : ctaid=(10,0,0) tid=(31,0,0)
GPGPU-Sim uArch: cycles simulated: 364000  inst.: 6859008 (ipc=18.8) sim_rate=25981 (inst/sec) elapsed = 0:0:04:24 / Tue Mar 22 13:01:58 2016
GPGPU-Sim uArch: cycles simulated: 365500  inst.: 6884864 (ipc=18.8) sim_rate=25980 (inst/sec) elapsed = 0:0:04:25 / Tue Mar 22 13:01:59 2016
GPGPU-Sim uArch: cycles simulated: 367500  inst.: 6923328 (ipc=18.8) sim_rate=26027 (inst/sec) elapsed = 0:0:04:26 / Tue Mar 22 13:02:00 2016
GPGPU-Sim PTX: 7000000 instructions simulated : ctaid=(1,3,0) tid=(31,0,0)
GPGPU-Sim uArch: cycles simulated: 369000  inst.: 6950144 (ipc=18.8) sim_rate=26030 (inst/sec) elapsed = 0:0:04:27 / Tue Mar 22 13:02:01 2016
GPGPU-Sim uArch: cycles simulated: 370500  inst.: 6978336 (ipc=18.8) sim_rate=26038 (inst/sec) elapsed = 0:0:04:28 / Tue Mar 22 13:02:02 2016
GPGPU-Sim uArch: cycles simulated: 372000  inst.: 7003488 (ipc=18.8) sim_rate=26035 (inst/sec) elapsed = 0:0:04:29 / Tue Mar 22 13:02:03 2016
GPGPU-Sim uArch: cycles simulated: 374000  inst.: 7037792 (ipc=18.8) sim_rate=26065 (inst/sec) elapsed = 0:0:04:30 / Tue Mar 22 13:02:04 2016
GPGPU-Sim PTX: 7100000 instructions simulated : ctaid=(1,1,0) tid=(223,0,0)
GPGPU-Sim uArch: cycles simulated: 375500  inst.: 7067712 (ipc=18.8) sim_rate=26080 (inst/sec) elapsed = 0:0:04:31 / Tue Mar 22 13:02:05 2016
GPGPU-Sim uArch: cycles simulated: 377000  inst.: 7095200 (ipc=18.8) sim_rate=26085 (inst/sec) elapsed = 0:0:04:32 / Tue Mar 22 13:02:06 2016
GPGPU-Sim uArch: cycles simulated: 378500  inst.: 7117088 (ipc=18.8) sim_rate=26069 (inst/sec) elapsed = 0:0:04:33 / Tue Mar 22 13:02:07 2016
GPGPU-Sim PTX: 7200000 instructions simulated : ctaid=(4,1,0) tid=(223,0,0)
GPGPU-Sim uArch: cycles simulated: 380500  inst.: 7152384 (ipc=18.8) sim_rate=26103 (inst/sec) elapsed = 0:0:04:34 / Tue Mar 22 13:02:08 2016
GPGPU-Sim uArch: cycles simulated: 382000  inst.: 7169952 (ipc=18.8) sim_rate=26072 (inst/sec) elapsed = 0:0:04:35 / Tue Mar 22 13:02:09 2016
GPGPU-Sim uArch: cycles simulated: 383500  inst.: 7205952 (ipc=18.8) sim_rate=26108 (inst/sec) elapsed = 0:0:04:36 / Tue Mar 22 13:02:10 2016
GPGPU-Sim uArch: cycles simulated: 385000  inst.: 7229504 (ipc=18.8) sim_rate=26099 (inst/sec) elapsed = 0:0:04:37 / Tue Mar 22 13:02:11 2016
GPGPU-Sim PTX: 7300000 instructions simulated : ctaid=(3,2,0) tid=(95,0,0)
GPGPU-Sim uArch: cycles simulated: 387000  inst.: 7265248 (ipc=18.8) sim_rate=26133 (inst/sec) elapsed = 0:0:04:38 / Tue Mar 22 13:02:12 2016
GPGPU-Sim uArch: cycles simulated: 388500  inst.: 7289952 (ipc=18.8) sim_rate=26128 (inst/sec) elapsed = 0:0:04:39 / Tue Mar 22 13:02:13 2016
GPGPU-Sim uArch: cycles simulated: 390000  inst.: 7313472 (ipc=18.8) sim_rate=26119 (inst/sec) elapsed = 0:0:04:40 / Tue Mar 22 13:02:14 2016
GPGPU-Sim PTX: 7400000 instructions simulated : ctaid=(3,2,0) tid=(223,0,0)
GPGPU-Sim uArch: cycles simulated: 392000  inst.: 7356608 (ipc=18.8) sim_rate=26180 (inst/sec) elapsed = 0:0:04:41 / Tue Mar 22 13:02:15 2016
GPGPU-Sim uArch: cycles simulated: 393500  inst.: 7381376 (ipc=18.8) sim_rate=26175 (inst/sec) elapsed = 0:0:04:42 / Tue Mar 22 13:02:16 2016
GPGPU-Sim uArch: cycles simulated: 395000  inst.: 7409536 (ipc=18.8) sim_rate=26182 (inst/sec) elapsed = 0:0:04:43 / Tue Mar 22 13:02:17 2016
GPGPU-Sim uArch: cycles simulated: 396500  inst.: 7433408 (ipc=18.7) sim_rate=26173 (inst/sec) elapsed = 0:0:04:44 / Tue Mar 22 13:02:18 2016
GPGPU-Sim PTX: 7500000 instructions simulated : ctaid=(5,1,0) tid=(95,0,0)
GPGPU-Sim uArch: cycles simulated: 398500  inst.: 7466720 (ipc=18.7) sim_rate=26199 (inst/sec) elapsed = 0:0:04:45 / Tue Mar 22 13:02:19 2016
GPGPU-Sim uArch: cycles simulated: 400000  inst.: 7493280 (ipc=18.7) sim_rate=26200 (inst/sec) elapsed = 0:0:04:46 / Tue Mar 22 13:02:20 2016
GPGPU-Sim uArch: cycles simulated: 401500  inst.: 7515200 (ipc=18.7) sim_rate=26185 (inst/sec) elapsed = 0:0:04:47 / Tue Mar 22 13:02:21 2016
GPGPU-Sim PTX: 7600000 instructions simulated : ctaid=(3,1,0) tid=(95,0,0)
GPGPU-Sim uArch: cycles simulated: 403500  inst.: 7553632 (ipc=18.7) sim_rate=26227 (inst/sec) elapsed = 0:0:04:48 / Tue Mar 22 13:02:22 2016
GPGPU-Sim uArch: cycles simulated: 405000  inst.: 7580160 (ipc=18.7) sim_rate=26228 (inst/sec) elapsed = 0:0:04:49 / Tue Mar 22 13:02:23 2016
GPGPU-Sim uArch: cycles simulated: 406500  inst.: 7608384 (ipc=18.7) sim_rate=26235 (inst/sec) elapsed = 0:0:04:50 / Tue Mar 22 13:02:24 2016
GPGPU-Sim uArch: cycles simulated: 408000  inst.: 7626816 (ipc=18.7) sim_rate=26208 (inst/sec) elapsed = 0:0:04:51 / Tue Mar 22 13:02:25 2016
GPGPU-Sim PTX: 7700000 instructions simulated : ctaid=(4,2,0) tid=(95,0,0)
GPGPU-Sim uArch: cycles simulated: 410000  inst.: 7663040 (ipc=18.7) sim_rate=26243 (inst/sec) elapsed = 0:0:04:52 / Tue Mar 22 13:02:26 2016
GPGPU-Sim uArch: cycles simulated: 411500  inst.: 7693664 (ipc=18.7) sim_rate=26258 (inst/sec) elapsed = 0:0:04:53 / Tue Mar 22 13:02:27 2016
GPGPU-Sim uArch: cycles simulated: 413000  inst.: 7719360 (ipc=18.7) sim_rate=26256 (inst/sec) elapsed = 0:0:04:54 / Tue Mar 22 13:02:28 2016
GPGPU-Sim PTX: 7800000 instructions simulated : ctaid=(6,2,0) tid=(95,0,0)
GPGPU-Sim uArch: cycles simulated: 415000  inst.: 7756256 (ipc=18.7) sim_rate=26292 (inst/sec) elapsed = 0:0:04:55 / Tue Mar 22 13:02:29 2016
GPGPU-Sim uArch: cycles simulated: 416500  inst.: 7783808 (ipc=18.7) sim_rate=26296 (inst/sec) elapsed = 0:0:04:56 / Tue Mar 22 13:02:30 2016
GPGPU-Sim uArch: cycles simulated: 418000  inst.: 7809280 (ipc=18.7) sim_rate=26293 (inst/sec) elapsed = 0:0:04:57 / Tue Mar 22 13:02:31 2016
GPGPU-Sim uArch: cycles simulated: 419500  inst.: 7836384 (ipc=18.7) sim_rate=26296 (inst/sec) elapsed = 0:0:04:58 / Tue Mar 22 13:02:32 2016
GPGPU-Sim PTX: 7900000 instructions simulated : ctaid=(8,0,0) tid=(159,0,0)
GPGPU-Sim uArch: cycles simulated: 421500  inst.: 7875936 (ipc=18.7) sim_rate=26340 (inst/sec) elapsed = 0:0:04:59 / Tue Mar 22 13:02:33 2016
GPGPU-Sim uArch: cycles simulated: 423000  inst.: 7905792 (ipc=18.7) sim_rate=26352 (inst/sec) elapsed = 0:0:05:00 / Tue Mar 22 13:02:34 2016
GPGPU-Sim uArch: cycles simulated: 424500  inst.: 7931584 (ipc=18.7) sim_rate=26350 (inst/sec) elapsed = 0:0:05:01 / Tue Mar 22 13:02:35 2016
GPGPU-Sim PTX: 8000000 instructions simulated : ctaid=(1,1,0) tid=(31,0,0)
GPGPU-Sim uArch: cycles simulated: 426000  inst.: 7954496 (ipc=18.7) sim_rate=26339 (inst/sec) elapsed = 0:0:05:02 / Tue Mar 22 13:02:36 2016
GPGPU-Sim uArch: cycles simulated: 428000  inst.: 7989600 (ipc=18.7) sim_rate=26368 (inst/sec) elapsed = 0:0:05:03 / Tue Mar 22 13:02:37 2016
GPGPU-Sim uArch: cycles simulated: 429500  inst.: 8014528 (ipc=18.7) sim_rate=26363 (inst/sec) elapsed = 0:0:05:04 / Tue Mar 22 13:02:38 2016
GPGPU-Sim PTX: 8100000 instructions simulated : ctaid=(6,0,0) tid=(63,0,0)
GPGPU-Sim uArch: cycles simulated: 431000  inst.: 8043552 (ipc=18.7) sim_rate=26372 (inst/sec) elapsed = 0:0:05:05 / Tue Mar 22 13:02:39 2016
GPGPU-Sim uArch: cycles simulated: 432500  inst.: 8070880 (ipc=18.7) sim_rate=26375 (inst/sec) elapsed = 0:0:05:06 / Tue Mar 22 13:02:40 2016
GPGPU-Sim uArch: cycles simulated: 434500  inst.: 8102560 (ipc=18.6) sim_rate=26392 (inst/sec) elapsed = 0:0:05:07 / Tue Mar 22 13:02:41 2016
GPGPU-Sim uArch: cycles simulated: 436000  inst.: 8126016 (ipc=18.6) sim_rate=26383 (inst/sec) elapsed = 0:0:05:08 / Tue Mar 22 13:02:42 2016
GPGPU-Sim PTX: 8200000 instructions simulated : ctaid=(9,0,0) tid=(31,0,0)
GPGPU-Sim uArch: cycles simulated: 437500  inst.: 8150144 (ipc=18.6) sim_rate=26375 (inst/sec) elapsed = 0:0:05:09 / Tue Mar 22 13:02:43 2016
GPGPU-Sim uArch: cycles simulated: 439500  inst.: 8183808 (ipc=18.6) sim_rate=26399 (inst/sec) elapsed = 0:0:05:10 / Tue Mar 22 13:02:44 2016
GPGPU-Sim uArch: cycles simulated: 441000  inst.: 8209216 (ipc=18.6) sim_rate=26396 (inst/sec) elapsed = 0:0:05:11 / Tue Mar 22 13:02:45 2016
GPGPU-Sim uArch: cycles simulated: 442500  inst.: 8234496 (ipc=18.6) sim_rate=26392 (inst/sec) elapsed = 0:0:05:12 / Tue Mar 22 13:02:46 2016
GPGPU-Sim PTX: 8300000 instructions simulated : ctaid=(7,2,0) tid=(31,0,0)
GPGPU-Sim uArch: cycles simulated: 444500  inst.: 8267200 (ipc=18.6) sim_rate=26412 (inst/sec) elapsed = 0:0:05:13 / Tue Mar 22 13:02:47 2016
GPGPU-Sim uArch: cycles simulated: 446000  inst.: 8294336 (ipc=18.6) sim_rate=26415 (inst/sec) elapsed = 0:0:05:14 / Tue Mar 22 13:02:48 2016
GPGPU-Sim uArch: cycles simulated: 447500  inst.: 8316128 (ipc=18.6) sim_rate=26400 (inst/sec) elapsed = 0:0:05:15 / Tue Mar 22 13:02:49 2016
GPGPU-Sim PTX: 8400000 instructions simulated : ctaid=(3,1,0) tid=(159,0,0)
GPGPU-Sim uArch: cycles simulated: 449000  inst.: 8347008 (ipc=18.6) sim_rate=26414 (inst/sec) elapsed = 0:0:05:16 / Tue Mar 22 13:02:50 2016
GPGPU-Sim uArch: cycles simulated: 451000  inst.: 8384704 (ipc=18.6) sim_rate=26450 (inst/sec) elapsed = 0:0:05:17 / Tue Mar 22 13:02:51 2016
GPGPU-Sim uArch: cycles simulated: 452500  inst.: 8404832 (ipc=18.6) sim_rate=26430 (inst/sec) elapsed = 0:0:05:18 / Tue Mar 22 13:02:52 2016
GPGPU-Sim uArch: cycles simulated: 454000  inst.: 8427648 (ipc=18.6) sim_rate=26418 (inst/sec) elapsed = 0:0:05:19 / Tue Mar 22 13:02:53 2016
GPGPU-Sim PTX: 8500000 instructions simulated : ctaid=(2,1,0) tid=(223,0,0)
GPGPU-Sim uArch: cycles simulated: 456000  inst.: 8458784 (ipc=18.5) sim_rate=26433 (inst/sec) elapsed = 0:0:05:20 / Tue Mar 22 13:02:54 2016
GPGPU-Sim uArch: cycles simulated: 457500  inst.: 8484160 (ipc=18.5) sim_rate=26430 (inst/sec) elapsed = 0:0:05:21 / Tue Mar 22 13:02:55 2016
GPGPU-Sim uArch: cycles simulated: 459000  inst.: 8504320 (ipc=18.5) sim_rate=26410 (inst/sec) elapsed = 0:0:05:22 / Tue Mar 22 13:02:56 2016
GPGPU-Sim uArch: cycles simulated: 460500  inst.: 8529376 (ipc=18.5) sim_rate=26406 (inst/sec) elapsed = 0:0:05:23 / Tue Mar 22 13:02:57 2016
GPGPU-Sim PTX: 8600000 instructions simulated : ctaid=(4,2,0) tid=(31,0,0)
GPGPU-Sim uArch: cycles simulated: 462500  inst.: 8565728 (ipc=18.5) sim_rate=26437 (inst/sec) elapsed = 0:0:05:24 / Tue Mar 22 13:02:58 2016
GPGPU-Sim uArch: cycles simulated: 464000  inst.: 8589952 (ipc=18.5) sim_rate=26430 (inst/sec) elapsed = 0:0:05:25 / Tue Mar 22 13:02:59 2016
GPGPU-Sim uArch: cycles simulated: 465500  inst.: 8613344 (ipc=18.5) sim_rate=26421 (inst/sec) elapsed = 0:0:05:26 / Tue Mar 22 13:03:00 2016
GPGPU-Sim PTX: 8700000 instructions simulated : ctaid=(7,1,0) tid=(95,0,0)
GPGPU-Sim uArch: cycles simulated: 467500  inst.: 8652928 (ipc=18.5) sim_rate=26461 (inst/sec) elapsed = 0:0:05:27 / Tue Mar 22 13:03:01 2016
GPGPU-Sim uArch: cycles simulated: 469000  inst.: 8673216 (ipc=18.5) sim_rate=26442 (inst/sec) elapsed = 0:0:05:28 / Tue Mar 22 13:03:02 2016
GPGPU-Sim uArch: cycles simulated: 470500  inst.: 8697280 (ipc=18.5) sim_rate=26435 (inst/sec) elapsed = 0:0:05:29 / Tue Mar 22 13:03:03 2016
GPGPU-Sim uArch: cycles simulated: 472500  inst.: 8726624 (ipc=18.5) sim_rate=26444 (inst/sec) elapsed = 0:0:05:30 / Tue Mar 22 13:03:04 2016
GPGPU-Sim PTX: 8800000 instructions simulated : ctaid=(0,0,0) tid=(95,0,0)
GPGPU-Sim uArch: cycles simulated: 474000  inst.: 8754912 (ipc=18.5) sim_rate=26449 (inst/sec) elapsed = 0:0:05:31 / Tue Mar 22 13:03:05 2016
GPGPU-Sim uArch: cycles simulated: 475500  inst.: 8776864 (ipc=18.5) sim_rate=26436 (inst/sec) elapsed = 0:0:05:32 / Tue Mar 22 13:03:06 2016
GPGPU-Sim uArch: cycles simulated: 477000  inst.: 8802400 (ipc=18.5) sim_rate=26433 (inst/sec) elapsed = 0:0:05:33 / Tue Mar 22 13:03:07 2016
GPGPU-Sim uArch: cycles simulated: 479000  inst.: 8837760 (ipc=18.5) sim_rate=26460 (inst/sec) elapsed = 0:0:05:34 / Tue Mar 22 13:03:08 2016
GPGPU-Sim PTX: 8900000 instructions simulated : ctaid=(7,2,0) tid=(159,0,0)
GPGPU-Sim uArch: cycles simulated: 480500  inst.: 8858304 (ipc=18.4) sim_rate=26442 (inst/sec) elapsed = 0:0:05:35 / Tue Mar 22 13:03:09 2016
GPGPU-Sim uArch: cycles simulated: 482000  inst.: 8884128 (ipc=18.4) sim_rate=26440 (inst/sec) elapsed = 0:0:05:36 / Tue Mar 22 13:03:10 2016
GPGPU-Sim uArch: cycles simulated: 484000  inst.: 8916736 (ipc=18.4) sim_rate=26459 (inst/sec) elapsed = 0:0:05:37 / Tue Mar 22 13:03:11 2016
GPGPU-Sim uArch: cycles simulated: 485500  inst.: 8938944 (ipc=18.4) sim_rate=26446 (inst/sec) elapsed = 0:0:05:38 / Tue Mar 22 13:03:12 2016
GPGPU-Sim PTX: 9000000 instructions simulated : ctaid=(1,0,0) tid=(223,0,0)
GPGPU-Sim uArch: cycles simulated: 487000  inst.: 8966112 (ipc=18.4) sim_rate=26448 (inst/sec) elapsed = 0:0:05:39 / Tue Mar 22 13:03:13 2016
GPGPU-Sim uArch: cycles simulated: 488500  inst.: 8989888 (ipc=18.4) sim_rate=26440 (inst/sec) elapsed = 0:0:05:40 / Tue Mar 22 13:03:14 2016
GPGPU-Sim uArch: cycles simulated: 490500  inst.: 9026432 (ipc=18.4) sim_rate=26470 (inst/sec) elapsed = 0:0:05:41 / Tue Mar 22 13:03:15 2016
GPGPU-Sim PTX: 9100000 instructions simulated : ctaid=(6,2,0) tid=(159,0,0)
GPGPU-Sim uArch: cycles simulated: 492000  inst.: 9054240 (ipc=18.4) sim_rate=26474 (inst/sec) elapsed = 0:0:05:42 / Tue Mar 22 13:03:16 2016
GPGPU-Sim uArch: cycles simulated: 493500  inst.: 9074944 (ipc=18.4) sim_rate=26457 (inst/sec) elapsed = 0:0:05:43 / Tue Mar 22 13:03:17 2016
GPGPU-Sim uArch: cycles simulated: 495500  inst.: 9110304 (ipc=18.4) sim_rate=26483 (inst/sec) elapsed = 0:0:05:44 / Tue Mar 22 13:03:18 2016
GPGPU-Sim uArch: cycles simulated: 497000  inst.: 9134208 (ipc=18.4) sim_rate=26475 (inst/sec) elapsed = 0:0:05:45 / Tue Mar 22 13:03:19 2016
[...]
GPGPU-Sim uArch: cycles simulated: 6906500  inst.: 123073565 (ipc=17.8) sim_rate=29226 (inst/sec) elapsed = 0:1:10:11 / Tue Mar 22 14:07:45 2016
GPGPU-Sim uArch: cycles simulated: 6908500  inst.: 123111440 (ipc=17.8) sim_rate=29228 (inst/sec) elapsed = 0:1:10:12 / Tue Mar 22 14:07:46 2016
GPGPU-Sim uArch: cycles simulated: 6910000  inst.: 123142352 (ipc=17.8) sim_rate=29229 (inst/sec) elapsed = 0:1:10:13 / Tue Mar 22 14:07:47 2016
GPGPU-Sim PTX: 123400000 instructions simulated : ctaid=(1,0,0) tid=(255,0,0)
GPGPU-Sim uArch: cycles simulated: 6912000  inst.: 123172272 (ipc=17.8) sim_rate=29229 (inst/sec) elapsed = 0:1:10:14 / Tue Mar 22 14:07:48 2016
GPGPU-Sim uArch: cycles simulated: 6913500  inst.: 123199336 (ipc=17.8) sim_rate=29228 (inst/sec) elapsed = 0:1:10:15 / Tue Mar 22 14:07:49 2016
GPGPU-Sim uArch: cycles simulated: 6915500  inst.: 123237000 (ipc=17.8) sim_rate=29230 (inst/sec) elapsed = 0:1:10:16 / Tue Mar 22 14:07:50 2016
GPGPU-Sim PTX: 123500000 instructions simulated : ctaid=(5,3,0) tid=(111,0,0)
GPGPU-Sim uArch: cycles simulated: 6917500  inst.: 123271048 (ipc=17.8) sim_rate=29231 (inst/sec) elapsed = 0:1:10:17 / Tue Mar 22 14:07:51 2016
GPGPU-Sim uArch: cycles simulated: 6919000  inst.: 123296680 (ipc=17.8) sim_rate=29231 (inst/sec) elapsed = 0:1:10:18 / Tue Mar 22 14:07:52 2016
GPGPU-Sim uArch: cycles simulated: 6921000  inst.: 123333865 (ipc=17.8) sim_rate=29232 (inst/sec) elapsed = 0:1:10:19 / Tue Mar 22 14:07:53 2016
GPGPU-Sim PTX: 123600000 instructions simulated : ctaid=(7,2,0) tid=(109,0,0)
GPGPU-Sim uArch: cycles simulated: 6922500  inst.: 123362377 (ipc=17.8) sim_rate=29232 (inst/sec) elapsed = 0:1:10:20 / Tue Mar 22 14:07:54 2016
GPGPU-Sim uArch: cycles simulated: 6924500  inst.: 123402249 (ipc=17.8) sim_rate=29235 (inst/sec) elapsed = 0:1:10:21 / Tue Mar 22 14:07:55 2016
GPGPU-Sim uArch: cycles simulated: 6926000  inst.: 123430089 (ipc=17.8) sim_rate=29234 (inst/sec) elapsed = 0:1:10:22 / Tue Mar 22 14:07:56 2016
GPGPU-Sim PTX: 123700000 instructions simulated : ctaid=(0,2,0) tid=(237,0,0)
GPGPU-Sim uArch: cycles simulated: 6928000  inst.: 123467433 (ipc=17.8) sim_rate=29236 (inst/sec) elapsed = 0:1:10:23 / Tue Mar 22 14:07:57 2016
GPGPU-Sim uArch: cycles simulated: 6929500  inst.: 123497417 (ipc=17.8) sim_rate=29237 (inst/sec) elapsed = 0:1:10:24 / Tue Mar 22 14:07:58 2016
GPGPU-Sim uArch: cycles simulated: 6931500  inst.: 123532809 (ipc=17.8) sim_rate=29238 (inst/sec) elapsed = 0:1:10:25 / Tue Mar 22 14:07:59 2016
GPGPU-Sim PTX: 123800000 instructions simulated : ctaid=(5,2,0) tid=(45,0,0)
GPGPU-Sim uArch: cycles simulated: 6933500  inst.: 123570050 (ipc=17.8) sim_rate=29240 (inst/sec) elapsed = 0:1:10:26 / Tue Mar 22 14:08:00 2016
GPGPU-Sim uArch: cycles simulated: 6935000  inst.: 123596162 (ipc=17.8) sim_rate=29239 (inst/sec) elapsed = 0:1:10:27 / Tue Mar 22 14:08:01 2016
GPGPU-Sim uArch: cycles simulated: 6937000  inst.: 123631138 (ipc=17.8) sim_rate=29241 (inst/sec) elapsed = 0:1:10:28 / Tue Mar 22 14:08:02 2016
GPGPU-Sim PTX: 123900000 instructions simulated : ctaid=(9,2,0) tid=(59,0,0)
GPGPU-Sim uArch: cycles simulated: 6938500  inst.: 123659074 (ipc=17.8) sim_rate=29240 (inst/sec) elapsed = 0:1:10:29 / Tue Mar 22 14:08:03 2016
GPGPU-Sim uArch: cycles simulated: 6940500  inst.: 123696418 (ipc=17.8) sim_rate=29242 (inst/sec) elapsed = 0:1:10:30 / Tue Mar 22 14:08:04 2016
GPGPU-Sim uArch: cycles simulated: 6942500  inst.: 123736158 (ipc=17.8) sim_rate=29245 (inst/sec) elapsed = 0:1:10:31 / Tue Mar 22 14:08:05 2016
GPGPU-Sim PTX: 124000000 instructions simulated : ctaid=(1,3,0) tid=(35,0,0)
GPGPU-Sim uArch: cycles simulated: 6944000  inst.: 123765758 (ipc=17.8) sim_rate=29245 (inst/sec) elapsed = 0:1:10:32 / Tue Mar 22 14:08:06 2016
GPGPU-Sim uArch: cycles simulated: 6946000  inst.: 123796254 (ipc=17.8) sim_rate=29245 (inst/sec) elapsed = 0:1:10:33 / Tue Mar 22 14:08:07 2016
GPGPU-Sim uArch: cycles simulated: 6947500  inst.: 123831250 (ipc=17.8) sim_rate=29246 (inst/sec) elapsed = 0:1:10:34 / Tue Mar 22 14:08:08 2016
GPGPU-Sim PTX: 124100000 instructions simulated : ctaid=(6,1,0) tid=(187,0,0)
GPGPU-Sim uArch: cycles simulated: 6949500  inst.: 123868210 (ipc=17.8) sim_rate=29248 (inst/sec) elapsed = 0:1:10:35 / Tue Mar 22 14:08:09 2016
GPGPU-Sim uArch: cycles simulated: 6951000  inst.: 123895346 (ipc=17.8) sim_rate=29248 (inst/sec) elapsed = 0:1:10:36 / Tue Mar 22 14:08:10 2016
GPGPU-Sim uArch: cycles simulated: 6953000  inst.: 123932434 (ipc=17.8) sim_rate=29250 (inst/sec) elapsed = 0:1:10:37 / Tue Mar 22 14:08:11 2016
GPGPU-Sim PTX: 124200000 instructions simulated : ctaid=(10,1,0) tid=(123,0,0)
GPGPU-Sim uArch: cycles simulated: 6954500  inst.: 123963762 (ipc=17.8) sim_rate=29250 (inst/sec) elapsed = 0:1:10:38 / Tue Mar 22 14:08:12 2016
GPGPU-Sim uArch: cycles simulated: 6956500  inst.: 124000760 (ipc=17.8) sim_rate=29252 (inst/sec) elapsed = 0:1:10:39 / Tue Mar 22 14:08:13 2016
GPGPU-Sim uArch: cycles simulated: 6958000  inst.: 124027320 (ipc=17.8) sim_rate=29251 (inst/sec) elapsed = 0:1:10:40 / Tue Mar 22 14:08:14 2016
GPGPU-Sim PTX: 124300000 instructions simulated : ctaid=(0,1,0) tid=(239,0,0)
GPGPU-Sim uArch: cycles simulated: 6960000  inst.: 124061368 (ipc=17.8) sim_rate=29252 (inst/sec) elapsed = 0:1:10:41 / Tue Mar 22 14:08:15 2016
GPGPU-Sim uArch: cycles simulated: 6962000  inst.: 124101400 (ipc=17.8) sim_rate=29255 (inst/sec) elapsed = 0:1:10:42 / Tue Mar 22 14:08:16 2016
GPGPU-Sim uArch: cycles simulated: 6963500  inst.: 124126488 (ipc=17.8) sim_rate=29254 (inst/sec) elapsed = 0:1:10:43 / Tue Mar 22 14:08:17 2016
GPGPU-Sim PTX: 124400000 instructions simulated : ctaid=(2,0,0) tid=(239,0,0)
GPGPU-Sim uArch: cycles simulated: 6965500  inst.: 124162904 (ipc=17.8) sim_rate=29256 (inst/sec) elapsed = 0:1:10:44 / Tue Mar 22 14:08:18 2016
GPGPU-Sim uArch: cycles simulated: 6967000  inst.: 124193400 (ipc=17.8) sim_rate=29256 (inst/sec) elapsed = 0:1:10:45 / Tue Mar 22 14:08:19 2016
GPGPU-Sim uArch: cycles simulated: 6969000  inst.: 124228667 (ipc=17.8) sim_rate=29257 (inst/sec) elapsed = 0:1:10:46 / Tue Mar 22 14:08:20 2016
GPGPU-Sim PTX: 124500000 instructions simulated : ctaid=(8,1,0) tid=(105,0,0)
GPGPU-Sim uArch: cycles simulated: 6970500  inst.: 124251387 (ipc=17.8) sim_rate=29256 (inst/sec) elapsed = 0:1:10:47 / Tue Mar 22 14:08:21 2016
GPGPU-Sim uArch: cycles simulated: 6972500  inst.: 124288293 (ipc=17.8) sim_rate=29258 (inst/sec) elapsed = 0:1:10:48 / Tue Mar 22 14:08:22 2016
GPGPU-Sim uArch: cycles simulated: 6974000  inst.: 124320101 (ipc=17.8) sim_rate=29258 (inst/sec) elapsed = 0:1:10:49 / Tue Mar 22 14:08:23 2016
GPGPU-Sim PTX: 124600000 instructions simulated : ctaid=(5,3,0) tid=(117,0,0)
GPGPU-Sim uArch: cycles simulated: 6976000  inst.: 124350789 (ipc=17.8) sim_rate=29259 (inst/sec) elapsed = 0:1:10:50 / Tue Mar 22 14:08:24 2016
GPGPU-Sim uArch: cycles simulated: 6977500  inst.: 124380165 (ipc=17.8) sim_rate=29259 (inst/sec) elapsed = 0:1:10:51 / Tue Mar 22 14:08:25 2016
GPGPU-Sim uArch: cycles simulated: 6979500  inst.: 124413829 (ipc=17.8) sim_rate=29260 (inst/sec) elapsed = 0:1:10:52 / Tue Mar 22 14:08:26 2016
GPGPU-Sim PTX: 124700000 instructions simulated : ctaid=(10,1,0) tid=(181,0,0)
GPGPU-Sim uArch: cycles simulated: 6981500  inst.: 124449445 (ipc=17.8) sim_rate=29261 (inst/sec) elapsed = 0:1:10:53 / Tue Mar 22 14:08:27 2016
GPGPU-Sim uArch: cycles simulated: 6983000  inst.: 124474117 (ipc=17.8) sim_rate=29260 (inst/sec) elapsed = 0:1:10:54 / Tue Mar 22 14:08:28 2016
GPGPU-Sim uArch: cycles simulated: 6985000  inst.: 124510988 (ipc=17.8) sim_rate=29262 (inst/sec) elapsed = 0:1:10:55 / Tue Mar 22 14:08:29 2016
GPGPU-Sim uArch: cycles simulated: 6986500  inst.: 124534316 (ipc=17.8) sim_rate=29260 (inst/sec) elapsed = 0:1:10:56 / Tue Mar 22 14:08:30 2016
GPGPU-Sim PTX: 124800000 instructions simulated : ctaid=(9,1,0) tid=(39,0,0)
GPGPU-Sim uArch: cycles simulated: 6988500  inst.: 124571340 (ipc=17.8) sim_rate=29262 (inst/sec) elapsed = 0:1:10:57 / Tue Mar 22 14:08:31 2016
GPGPU-Sim uArch: cycles simulated: 6990000  inst.: 124597612 (ipc=17.8) sim_rate=29262 (inst/sec) elapsed = 0:1:10:58 / Tue Mar 22 14:08:32 2016
GPGPU-Sim uArch: cycles simulated: 6992000  inst.: 124628780 (ipc=17.8) sim_rate=29262 (inst/sec) elapsed = 0:1:10:59 / Tue Mar 22 14:08:33 2016
GPGPU-Sim PTX: 124900000 instructions simulated : ctaid=(6,2,0) tid=(39,0,0)
GPGPU-Sim uArch: cycles simulated: 6994000  inst.: 124666924 (ipc=17.8) sim_rate=29264 (inst/sec) elapsed = 0:1:11:00 / Tue Mar 22 14:08:34 2016
GPGPU-Sim uArch: cycles simulated: 6995500  inst.: 124691730 (ipc=17.8) sim_rate=29263 (inst/sec) elapsed = 0:1:11:01 / Tue Mar 22 14:08:35 2016
GPGPU-Sim uArch: cycles simulated: 6997500  inst.: 124727250 (ipc=17.8) sim_rate=29264 (inst/sec) elapsed = 0:1:11:02 / Tue Mar 22 14:08:36 2016
GPGPU-Sim PTX: 125000000 instructions simulated : ctaid=(0,4,0) tid=(59,0,0)
GPGPU-Sim uArch: cycles simulated: 6999000  inst.: 124753362 (ipc=17.8) sim_rate=29264 (inst/sec) elapsed = 0:1:11:03 / Tue Mar 22 14:08:37 2016
GPGPU-Sim uArch: cycles simulated: 7001000  inst.: 124785970 (ipc=17.8) sim_rate=29265 (inst/sec) elapsed = 0:1:11:04 / Tue Mar 22 14:08:38 2016
GPGPU-Sim uArch: cycles simulated: 7002500  inst.: 124814782 (ipc=17.8) sim_rate=29264 (inst/sec) elapsed = 0:1:11:05 / Tue Mar 22 14:08:39 2016
GPGPU-Sim PTX: 125100000 instructions simulated : ctaid=(5,2,0) tid=(227,0,0)
GPGPU-Sim uArch: cycles simulated: 7004500  inst.: 124849694 (ipc=17.8) sim_rate=29266 (inst/sec) elapsed = 0:1:11:06 / Tue Mar 22 14:08:40 2016
GPGPU-Sim uArch: cycles simulated: 7006000  inst.: 124882110 (ipc=17.8) sim_rate=29266 (inst/sec) elapsed = 0:1:11:07 / Tue Mar 22 14:08:41 2016
GPGPU-Sim uArch: cycles simulated: 7008000  inst.: 124919138 (ipc=17.8) sim_rate=29268 (inst/sec) elapsed = 0:1:11:08 / Tue Mar 22 14:08:42 2016
GPGPU-Sim PTX: 125200000 instructions simulated : ctaid=(0,3,0) tid=(251,0,0)
GPGPU-Sim uArch: Shader 10 finished CTA #0 (7009992,0), 5 CTAs running
GPGPU-Sim uArch: core: 10, cta: 0 initialized @(7009993,0)
GPGPU-Sim uArch: cycles simulated: 7010000  inst.: 124952994 (ipc=17.8) sim_rate=29269 (inst/sec) elapsed = 0:1:11:09 / Tue Mar 22 14:08:43 2016
GPGPU-Sim uArch: cycles simulated: 7011500  inst.: 124984194 (ipc=17.8) sim_rate=29270 (inst/sec) elapsed = 0:1:11:10 / Tue Mar 22 14:08:44 2016
GPGPU-Sim uArch: cycles simulated: 7013000  inst.: 125011426 (ipc=17.8) sim_rate=29269 (inst/sec) elapsed = 0:1:11:11 / Tue Mar 22 14:08:45 2016
GPGPU-Sim PTX: 125300000 instructions simulated : ctaid=(10,1,0) tid=(187,0,0)
GPGPU-Sim uArch: cycles simulated: 7015000  inst.: 125051842 (ipc=17.8) sim_rate=29272 (inst/sec) elapsed = 0:1:11:12 / Tue Mar 22 14:08:46 2016
GPGPU-Sim uArch: cycles simulated: 7016500  inst.: 125075394 (ipc=17.8) sim_rate=29271 (inst/sec) elapsed = 0:1:11:13 / Tue Mar 22 14:08:47 2016
GPGPU-Sim uArch: cycles simulated: 7018500  inst.: 125112076 (ipc=17.8) sim_rate=29272 (inst/sec) elapsed = 0:1:11:14 / Tue Mar 22 14:08:48 2016
GPGPU-Sim uArch: cycles simulated: 7020000  inst.: 125139116 (ipc=17.8) sim_rate=29272 (inst/sec) elapsed = 0:1:11:15 / Tue Mar 22 14:08:49 2016
GPGPU-Sim PTX: 125400000 instructions simulated : ctaid=(2,8,0) tid=(7,0,0)
GPGPU-Sim uArch: cycles simulated: 7022000  inst.: 125173424 (ipc=17.8) sim_rate=29273 (inst/sec) elapsed = 0:1:11:16 / Tue Mar 22 14:08:50 2016
GPGPU-Sim uArch: Shader 13 finished CTA #0 (7022777,0), 5 CTAs running
GPGPU-Sim uArch: core: 13, cta: 0 initialized @(7022778,0)
GPGPU-Sim uArch: cycles simulated: 7023500  inst.: 125204690 (ipc=17.8) sim_rate=29273 (inst/sec) elapsed = 0:1:11:17 / Tue Mar 22 14:08:51 2016
GPGPU-Sim PTX: 125500000 instructions simulated : ctaid=(0,2,0) tid=(43,0,0)
GPGPU-Sim uArch: cycles simulated: 7025500  inst.: 125248906 (ipc=17.8) sim_rate=29277 (inst/sec) elapsed = 0:1:11:18 / Tue Mar 22 14:08:52 2016
GPGPU-Sim uArch: cycles simulated: 7027000  inst.: 125276554 (ipc=17.8) sim_rate=29277 (inst/sec) elapsed = 0:1:11:19 / Tue Mar 22 14:08:53 2016
GPGPU-Sim uArch: cycles simulated: 7029000  inst.: 125312042 (ipc=17.8) sim_rate=29278 (inst/sec) elapsed = 0:1:11:20 / Tue Mar 22 14:08:54 2016
GPGPU-Sim uArch: cycles simulated: 7030500  inst.: 125344356 (ipc=17.8) sim_rate=29279 (inst/sec) elapsed = 0:1:11:21 / Tue Mar 22 14:08:55 2016
GPGPU-Sim PTX: 125600000 instructions simulated : ctaid=(7,2,0) tid=(183,0,0)
GPGPU-Sim uArch: cycles simulated: 7032500  inst.: 125380133 (ipc=17.8) sim_rate=29280 (inst/sec) elapsed = 0:1:11:22 / Tue Mar 22 14:08:56 2016
GPGPU-Sim uArch: Shader 11 finished CTA #0 (7032734,0), 5 CTAs running
GPGPU-Sim uArch: core: 11, cta: 0 initialized @(7032735,0)
GPGPU-Sim uArch: cycles simulated: 7034000  inst.: 125411029 (ipc=17.8) sim_rate=29281 (inst/sec) elapsed = 0:1:11:23 / Tue Mar 22 14:08:57 2016
GPGPU-Sim uArch: cycles simulated: 7035500  inst.: 125438773 (ipc=17.8) sim_rate=29280 (inst/sec) elapsed = 0:1:11:24 / Tue Mar 22 14:08:58 2016
GPGPU-Sim PTX: 125700000 instructions simulated : ctaid=(0,3,0) tid=(53,0,0)
GPGPU-Sim uArch: cycles simulated: 7037500  inst.: 125476437 (ipc=17.8) sim_rate=29282 (inst/sec) elapsed = 0:1:11:25 / Tue Mar 22 14:08:59 2016
GPGPU-Sim uArch: cycles simulated: 7039000  inst.: 125501109 (ipc=17.8) sim_rate=29281 (inst/sec) elapsed = 0:1:11:26 / Tue Mar 22 14:09:00 2016
GPGPU-Sim PTX: 125800000 instructions simulated : ctaid=(0,1,0) tid=(251,0,0)
GPGPU-Sim uArch: cycles simulated: 7041000  inst.: 125544674 (ipc=17.8) sim_rate=29284 (inst/sec) elapsed = 0:1:11:27 / Tue Mar 22 14:09:01 2016
GPGPU-Sim uArch: cycles simulated: 7042500  inst.: 125573122 (ipc=17.8) sim_rate=29284 (inst/sec) elapsed = 0:1:11:28 / Tue Mar 22 14:09:02 2016
GPGPU-Sim uArch: cycles simulated: 7044500  inst.: 125607047 (ipc=17.8) sim_rate=29285 (inst/sec) elapsed = 0:1:11:29 / Tue Mar 22 14:09:03 2016
GPGPU-Sim uArch: Shader 0 finished CTA #0 (7045101,0), 5 CTAs running
GPGPU-Sim uArch: core:  0, cta: 0 initialized @(7045102,0)
GPGPU-Sim uArch: cycles simulated: 7046000  inst.: 125636548 (ipc=17.8) sim_rate=29285 (inst/sec) elapsed = 0:1:11:30 / Tue Mar 22 14:09:04 2016
GPGPU-Sim PTX: 125900000 instructions simulated : ctaid=(1,2,0) tid=(55,0,0)
GPGPU-Sim uArch: cycles simulated: 7048000  inst.: 125680420 (ipc=17.8) sim_rate=29289 (inst/sec) elapsed = 0:1:11:31 / Tue Mar 22 14:09:05 2016
GPGPU-Sim uArch: cycles simulated: 7049500  inst.: 125705732 (ipc=17.8) sim_rate=29288 (inst/sec) elapsed = 0:1:11:32 / Tue Mar 22 14:09:06 2016
GPGPU-Sim uArch: cycles simulated: 7051000  inst.: 125735588 (ipc=17.8) sim_rate=29288 (inst/sec) elapsed = 0:1:11:33 / Tue Mar 22 14:09:07 2016
GPGPU-Sim PTX: 126000000 instructions simulated : ctaid=(8,1,0) tid=(59,0,0)
GPGPU-Sim uArch: cycles simulated: 7053000  inst.: 125769874 (ipc=17.8) sim_rate=29289 (inst/sec) elapsed = 0:1:11:34 / Tue Mar 22 14:09:08 2016
GPGPU-Sim uArch: cycles simulated: 7054500  inst.: 125796114 (ipc=17.8) sim_rate=29288 (inst/sec) elapsed = 0:1:11:35 / Tue Mar 22 14:09:09 2016
GPGPU-Sim uArch: cycles simulated: 7056500  inst.: 125831794 (ipc=17.8) sim_rate=29290 (inst/sec) elapsed = 0:1:11:36 / Tue Mar 22 14:09:10 2016
GPGPU-Sim PTX: 126100000 instructions simulated : ctaid=(4,8,0) tid=(27,0,0)
GPGPU-Sim uArch: cycles simulated: 7058000  inst.: 125859922 (ipc=17.8) sim_rate=29290 (inst/sec) elapsed = 0:1:11:37 / Tue Mar 22 14:09:11 2016
GPGPU-Sim uArch: cycles simulated: 7060000  inst.: 125897746 (ipc=17.8) sim_rate=29292 (inst/sec) elapsed = 0:1:11:38 / Tue Mar 22 14:09:12 2016
GPGPU-Sim uArch: cycles simulated: 7061500  inst.: 125929266 (ipc=17.8) sim_rate=29292 (inst/sec) elapsed = 0:1:11:39 / Tue Mar 22 14:09:13 2016
GPGPU-Sim PTX: 126200000 instructions simulated : ctaid=(2,2,0) tid=(187,0,0)
GPGPU-Sim uArch: cycles simulated: 7063500  inst.: 125967250 (ipc=17.8) sim_rate=29294 (inst/sec) elapsed = 0:1:11:40 / Tue Mar 22 14:09:14 2016
GPGPU-Sim uArch: cycles simulated: 7065000  inst.: 125994546 (ipc=17.8) sim_rate=29294 (inst/sec) elapsed = 0:1:11:41 / Tue Mar 22 14:09:15 2016
GPGPU-Sim uArch: cycles simulated: 7066500  inst.: 126022034 (ipc=17.8) sim_rate=29293 (inst/sec) elapsed = 0:1:11:42 / Tue Mar 22 14:09:16 2016
GPGPU-Sim PTX: 126300000 instructions simulated : ctaid=(3,0,0) tid=(251,0,0)
GPGPU-Sim uArch: cycles simulated: 7068500  inst.: 126058290 (ipc=17.8) sim_rate=29295 (inst/sec) elapsed = 0:1:11:43 / Tue Mar 22 14:09:17 2016
GPGPU-Sim uArch: cycles simulated: 7070000  inst.: 126085109 (ipc=17.8) sim_rate=29294 (inst/sec) elapsed = 0:1:11:44 / Tue Mar 22 14:09:18 2016
GPGPU-Sim uArch: cycles simulated: 7072000  inst.: 126127421 (ipc=17.8) sim_rate=29297 (inst/sec) elapsed = 0:1:11:45 / Tue Mar 22 14:09:19 2016
GPGPU-Sim PTX: 126400000 instructions simulated : ctaid=(2,2,0) tid=(101,0,0)
GPGPU-Sim uArch: cycles simulated: 7073500  inst.: 126154301 (ipc=17.8) sim_rate=29297 (inst/sec) elapsed = 0:1:11:46 / Tue Mar 22 14:09:20 2016
GPGPU-Sim uArch: cycles simulated: 7075500  inst.: 126193853 (ipc=17.8) sim_rate=29299 (inst/sec) elapsed = 0:1:11:47 / Tue Mar 22 14:09:21 2016
GPGPU-Sim uArch: cycles simulated: 7077000  inst.: 126219526 (ipc=17.8) sim_rate=29298 (inst/sec) elapsed = 0:1:11:48 / Tue Mar 22 14:09:22 2016
GPGPU-Sim uArch: Shader 5 finished CTA #0 (7078278,0), 5 CTAs running
GPGPU-Sim uArch: core:  5, cta: 0 initialized @(7078279,0)
GPGPU-Sim PTX: 126500000 instructions simulated : ctaid=(9,2,0) tid=(43,0,0)
GPGPU-Sim uArch: cycles simulated: 7078500  inst.: 126246122 (ipc=17.8) sim_rate=29298 (inst/sec) elapsed = 0:1:11:49 / Tue Mar 22 14:09:23 2016
GPGPU-Sim uArch: Shader 14 finished CTA #0 (7079846,0), 5 CTAs running
GPGPU-Sim uArch: core: 14, cta: 0 initialized @(7079847,0)
GPGPU-Sim uArch: cycles simulated: 7080500  inst.: 126284714 (ipc=17.8) sim_rate=29300 (inst/sec) elapsed = 0:1:11:50 / Tue Mar 22 14:09:24 2016
GPGPU-Sim uArch: cycles simulated: 7082000  inst.: 126311331 (ipc=17.8) sim_rate=29299 (inst/sec) elapsed = 0:1:11:51 / Tue Mar 22 14:09:25 2016
GPGPU-Sim uArch: Shader 4 finished CTA #0 (7083157,0), 5 CTAs running
GPGPU-Sim uArch: core:  4, cta: 0 initialized @(7083158,0)
GPGPU-Sim PTX: 126600000 instructions simulated : ctaid=(5,2,0) tid=(119,0,0)
GPGPU-Sim uArch: cycles simulated: 7084000  inst.: 126354468 (ipc=17.8) sim_rate=29302 (inst/sec) elapsed = 0:1:11:52 / Tue Mar 22 14:09:26 2016
GPGPU-Sim uArch: Shader 8 finished CTA #0 (7084952,0), 5 CTAs running
GPGPU-Sim uArch: core:  8, cta: 0 initialized @(7084953,0)
GPGPU-Sim uArch: cycles simulated: 7085500  inst.: 126385476 (ipc=17.8) sim_rate=29303 (inst/sec) elapsed = 0:1:11:53 / Tue Mar 22 14:09:27 2016
GPGPU-Sim uArch: cycles simulated: 7087000  inst.: 126418468 (ipc=17.8) sim_rate=29304 (inst/sec) elapsed = 0:1:11:54 / Tue Mar 22 14:09:28 2016
GPGPU-Sim uArch: Shader 7 finished CTA #0 (7087685,0), 5 CTAs running
GPGPU-Sim uArch: core:  7, cta: 0 initialized @(7087686,0)
GPGPU-Sim PTX: 126700000 instructions simulated : ctaid=(0,2,0) tid=(119,0,0)
GPGPU-Sim uArch: cycles simulated: 7089000  inst.: 126456772 (ipc=17.8) sim_rate=29306 (inst/sec) elapsed = 0:1:11:55 / Tue Mar 22 14:09:29 2016
GPGPU-Sim uArch: cycles simulated: 7090500  inst.: 126488356 (ipc=17.8) sim_rate=29306 (inst/sec) elapsed = 0:1:11:56 / Tue Mar 22 14:09:30 2016
GPGPU-Sim uArch: cycles simulated: 7092000  inst.: 126517453 (ipc=17.8) sim_rate=29306 (inst/sec) elapsed = 0:1:11:57 / Tue Mar 22 14:09:31 2016
GPGPU-Sim uArch: Shader 9 finished CTA #0 (7092793,0), 5 CTAs running
GPGPU-Sim uArch: core:  9, cta: 0 initialized @(7092794,0)
GPGPU-Sim PTX: 126800000 instructions simulated : ctaid=(9,1,0) tid=(165,0,0)
GPGPU-Sim uArch: cycles simulated: 7094000  inst.: 126553997 (ipc=17.8) sim_rate=29308 (inst/sec) elapsed = 0:1:11:58 / Tue Mar 22 14:09:32 2016
GPGPU-Sim uArch: cycles simulated: 7095500  inst.: 126587085 (ipc=17.8) sim_rate=29309 (inst/sec) elapsed = 0:1:11:59 / Tue Mar 22 14:09:33 2016
GPGPU-Sim uArch: cycles simulated: 7097000  inst.: 126615949 (ipc=17.8) sim_rate=29309 (inst/sec) elapsed = 0:1:12:00 / Tue Mar 22 14:09:34 2016
