

        *** GPGPU-Sim Simulator Version 3.2.2  [build 0] ***


GPGPU-Sim PTX: simulation mode 0 (can change with PTX_SIM_MODE_FUNC environment variable:
               1=functional simulation only, 0=detailed performance simulator)
GPGPU-Sim: Configuration options:

-network_mode                           1 # Interconnection network mode
-inter_config_file   config_fermi_islip.icnt # Interconnection network config file
-gpgpu_ptx_use_cuobjdump                    1 # Use cuobjdump to extract ptx and sass from binaries
-gpgpu_experimental_lib_support                    0 # Try to extract code from cuda libraries [Broken because of unknown cudaGetExportTable]
-gpgpu_ptx_convert_to_ptxplus                    0 # Convert SASS (native ISA) to ptxplus and run ptxplus
-gpgpu_ptx_force_max_capability                   20 # Force maximum compute capability
-gpgpu_ptx_inst_debug_to_file                    0 # Dump executed instructions' debug information to file
-gpgpu_ptx_inst_debug_file       inst_debug.txt # Executed instructions' debug output file
-gpgpu_ptx_inst_debug_thread_uid                    1 # Thread UID for executed instructions' debug output
-gpgpu_simd_model                       1 # 1 = post-dominator
-gpgpu_shader_core_pipeline              1536:32 # shader core pipeline config, i.e., {<nthread>:<warpsize>}
-gpgpu_tex_cache:l1  4:128:24,L:R:m:N:L,F:128:4,128:2 # per-shader L1 texture cache  (READ-ONLY) config  {<nsets>:<bsize>:<assoc>,<rep>:<wr>:<alloc>:<wr_alloc>,<mshr>:<N>:<merge>,<mq>:<rf>}
-gpgpu_const_cache:l1 64:64:2,L:R:f:N:L,A:2:32,4 # per-shader L1 constant memory cache  (READ-ONLY) config  {<nsets>:<bsize>:<assoc>,<rep>:<wr>:<alloc>:<wr_alloc>,<mshr>:<N>:<merge>,<mq>} 
-gpgpu_cache:il1     4:128:4,L:R:f:N:L,A:2:32,4 # shader L1 instruction cache config  {<nsets>:<bsize>:<assoc>,<rep>:<wr>:<alloc>:<wr_alloc>,<mshr>:<N>:<merge>,<mq>} 
-gpgpu_cache:dl1     32:128:4,L:L:m:N:H,A:32:8,8:2,0,0:0:1:1:0:1,1:4:8:16:32:64,/sciclone/data10/hwang07/GPU_RESEARCH/swl/swl_outputs/RESULTS/ # per-shader L1 data cache config  {<nsets>:<bsize>:<assoc>,<rep>:<wr>:<alloc>:<wr_alloc>,<mshr>:<N>:<merge>,<mq> | none}
-gpgpu_cache:dl1PrefL1                 none # per-shader L1 data cache config  {<nsets>:<bsize>:<assoc>,<rep>:<wr>:<alloc>:<wr_alloc>,<mshr>:<N>:<merge>,<mq> | none}
-gpgpu_cache:dl1PreShared                 none # per-shader L1 data cache config  {<nsets>:<bsize>:<assoc>,<rep>:<wr>:<alloc>:<wr_alloc>,<mshr>:<N>:<merge>,<mq> | none}
-gmem_skip_L1D                          0 # global memory access skip L1D cache (implements -Xptxas -dlcm=cg, default=no skip)
-gpgpu_perfect_mem                      0 # enable perfect memory mode (no cache miss)
-n_regfile_gating_group                    4 # group of lanes that should be read/written together)
-gpgpu_clock_gated_reg_file                    0 # enable clock gated reg file for power calculations
-gpgpu_clock_gated_lanes                    0 # enable clock gated lanes for power calculations
-gpgpu_shader_registers                32768 # Number of registers per shader core. Limits number of concurrent CTAs. (default 8192)
-gpgpu_shader_cta                       8 # Maximum number of concurrent CTAs in shader (default 8)
-gpgpu_num_cta_barriers                   16 # Maximum number of named barriers per CTA (default 16)
-gpgpu_n_clusters                      15 # number of processing clusters
-gpgpu_n_cores_per_cluster                    1 # number of simd cores per cluster
-gpgpu_n_cluster_ejection_buffer_size                    8 # number of packets in ejection buffer
-gpgpu_n_ldst_response_buffer_size                    2 # number of response packets in ld/st unit ejection buffer
-gpgpu_shmem_size                   16384 # Size of shared memory per shader core (default 16kB)
-gpgpu_shmem_size                   49152 # Size of shared memory per shader core (default 16kB)
-gpgpu_shmem_size_PrefL1                16384 # Size of shared memory per shader core (default 16kB)
-gpgpu_shmem_size_PrefShared                16384 # Size of shared memory per shader core (default 16kB)
-gpgpu_shmem_num_banks                   32 # Number of banks in the shared memory in each shader core (default 16)
-gpgpu_shmem_limited_broadcast                    0 # Limit shared memory to do one broadcast per cycle (default on)
-gpgpu_shmem_warp_parts                    1 # Number of portions a warp is divided into for shared memory bank conflict check 
-gpgpu_warpdistro_shader                   -1 # Specify which shader core to collect the warp size distribution from
-gpgpu_warp_issue_shader                    0 # Specify which shader core to collect the warp issue distribution from
-gpgpu_local_mem_map                    1 # Mapping from local memory space address to simulated GPU physical address space (default = enabled)
-gpgpu_num_reg_banks                   16 # Number of register banks (default = 8)
-gpgpu_reg_bank_use_warp_id                    0 # Use warp ID in mapping registers to banks (default = off)
-gpgpu_operand_collector_num_units_sp                    6 # number of collector units (default = 4)
-gpgpu_operand_collector_num_units_sfu                    8 # number of collector units (default = 4)
-gpgpu_operand_collector_num_units_mem                    2 # number of collector units (default = 2)
-gpgpu_operand_collector_num_units_gen                    0 # number of collector units (default = 0)
-gpgpu_operand_collector_num_in_ports_sp                    2 # number of collector unit in ports (default = 1)
-gpgpu_operand_collector_num_in_ports_sfu                    1 # number of collector unit in ports (default = 1)
-gpgpu_operand_collector_num_in_ports_mem                    1 # number of collector unit in ports (default = 1)
-gpgpu_operand_collector_num_in_ports_gen                    0 # number of collector unit in ports (default = 0)
-gpgpu_operand_collector_num_out_ports_sp                    2 # number of collector unit in ports (default = 1)
-gpgpu_operand_collector_num_out_ports_sfu                    1 # number of collector unit in ports (default = 1)
-gpgpu_operand_collector_num_out_ports_mem                    1 # number of collector unit in ports (default = 1)
-gpgpu_operand_collector_num_out_ports_gen                    0 # number of collector unit in ports (default = 0)
-gpgpu_coalesce_arch                   13 # Coalescing arch (default = 13, anything else is off for now)
-gpgpu_num_sched_per_core                    2 # Number of warp schedulers per core
-gpgpu_max_insn_issue_per_warp                    1 # Max number of instructions that can be issued per warp in one cycle by scheduler
-gpgpu_simt_core_sim_order                    1 # Select the simulation order of cores in a cluster (0=Fix, 1=Round-Robin)
-gpgpu_pipeline_widths        2,1,1,2,1,1,2 # Pipeline widths ID_OC_SP,ID_OC_SFU,ID_OC_MEM,OC_EX_SP,OC_EX_SFU,OC_EX_MEM,EX_WB
-gpgpu_num_sp_units                     2 # Number of SP units (default=1)
-gpgpu_num_sfu_units                    1 # Number of SF units (default=1)
-gpgpu_num_mem_units                    1 # Number if ldst units (default=1) WARNING: not hooked up to anything
-gpgpu_scheduler     warp_limiting:2:16:0 # Scheduler configuration: < lrr | gto | two_level_active > If two_level_active:<num_active_warps>:<inner_prioritization>:<outer_prioritization>For complete list of prioritization values see shader.h enum scheduler_prioritization_typeDefault: gto
-gpgpu_dram_scheduler                    1 # 0 = fifo, 1 = FR-FCFS (defaul)
-gpgpu_dram_partition_queues              8:8:8:8 # i2$:$2d:d2$:$2i
-l2_ideal                               0 # Use a ideal L2 cache that always hit
-gpgpu_cache:dl2     64:128:8,L:B:m:W:L,A:32:4,4:0,32 # unified banked L2 data cache config  {<nsets>:<bsize>:<assoc>,<rep>:<wr>:<alloc>:<wr_alloc>,<mshr>:<N>:<merge>,<mq>}
-gpgpu_cache:dl2_texture_only                    0 # L2 cache used for texture only
-gpgpu_n_mem                            6 # number of memory modules (e.g. memory controllers) in gpu
-gpgpu_n_sub_partition_per_mchannel                    2 # number of memory subpartition in each memory module
-gpgpu_n_mem_per_ctrlr                    2 # number of memory chips per memory controller
-gpgpu_memlatency_stat                   14 # track and display latency statistics 0x2 enables MC, 0x4 enables queue logs
-gpgpu_frfcfs_dram_sched_queue_size                   16 # 0 = unlimited (default); # entries per chip
-gpgpu_dram_return_queue_size                  116 # 0 = unlimited (default); # entries per chip
-gpgpu_dram_buswidth                    4 # default = 4 bytes (8 bytes per cycle at DDR)
-gpgpu_dram_burst_length                    8 # Burst length of each DRAM request (default = 4 data bus cycle)
-dram_data_command_freq_ratio                    4 # Frequency ratio between DRAM data bus and command bus (default = 2 times, i.e. DDR)
-gpgpu_dram_timing_opt nbk=16:CCD=2:RRD=6:RCD=12:RAS=28:RP=12:RC=40: CL=12:WL=4:CDLR=5:WR=12:nbkgrp=4:CCDL=3:RTPL=2 # DRAM timing parameters = {nbk:tCCD:tRRD:tRCD:tRAS:tRP:tRC:CL:WL:tCDLR:tWR:nbkgrp:tCCDL:tRTPL}
-rop_latency                          120 # ROP queue latency (default 85)
-dram_latency                         100 # DRAM latency (default 30)
-gpgpu_mem_addr_mapping dramid@8;00000000.00000000.00000000.00000000.0000RRRR.RRRRRRRR.BBBCCCCB.CCSSSSSS # mapping memory address to dram model {dramid@<start bit>;<memory address map>}
-gpgpu_mem_addr_test                    0 # run sweep test to check address mapping for aliased address
-gpgpu_mem_address_mask                    1 # 0 = old addressing mask, 1 = new addressing mask, 2 = new add. mask + flipped bank sel and chip sel bits
-gpuwattch_xml_file  gpuwattch_gtx480.xml # GPUWattch XML file
-power_simulation_enabled                    0 # Turn on power simulator (1=On, 0=Off)
-power_per_cycle_dump                    0 # Dump detailed power output each cycle
-power_trace_enabled                    0 # produce a file for the power trace (1=On, 0=Off)
-power_trace_zlevel                     6 # Compression level of the power trace output log (0=no comp, 9=highest)
-steady_power_levels_enabled                    0 # produce a file for the steady power levels (1=On, 0=Off)
-steady_state_definition                  8:4 # allowed deviation:number of samples
-gpgpu_max_cycle                        0 # terminates gpu simulation early (0 = no limit)
-gpgpu_max_insn                         0 # terminates gpu simulation early (0 = no limit)
-gpgpu_max_cta                          0 # terminates gpu simulation early (0 = no limit)
-gpgpu_runtime_stat                   500 # display runtime statistics such as dram utilization {<freq>:<flag>}
-liveness_message_freq                    1 # Minimum number of seconds between simulation liveness messages (0 = always print)
-gpgpu_flush_l1_cache                    0 # Flush L1 cache at the end of each kernel call
-gpgpu_flush_l2_cache                    0 # Flush L2 cache at the end of each kernel call
-gpgpu_deadlock_detect                    1 # Stop the simulation at deadlock (1=on (default), 0=off)
-gpgpu_ptx_instruction_classification                    0 # if enabled will classify ptx instruction types per kernel (Max 255 kernels now)
-gpgpu_ptx_sim_mode                     0 # Select between Performance (default) or Functional simulation (1)
-gpgpu_clock_domains 700.0:700.0:700.0:924.0 # Clock Domain Frequencies in MhZ {<Core Clock>:<ICNT Clock>:<L2 Clock>:<DRAM Clock>}
-gpgpu_max_concurrent_kernel                    8 # maximum kernels that can run concurrently on GPU
-gpgpu_cflog_interval                    0 # Interval between each snapshot in control flow logger
-visualizer_enabled                     0 # Turn on visualizer output (1=On, 0=Off)
-visualizer_outputfile                 NULL # Specifies the output log file for visualizer
-visualizer_zlevel                      6 # Compression level of the visualizer output log (0=no comp, 9=highest)
-trace_enabled                          0 # Turn on traces
-trace_components                    none # comma seperated list of traces to enable. Complete list found in trace_streams.tup. Default none
-trace_sampling_core                    0 # The core which is printed using CORE_DPRINTF. Default 0
-trace_sampling_memory_partition                   -1 # The memory partition which is printed using MEMPART_DPRINTF. Default -1 (i.e. all)
-enable_ptx_file_line_stats                    1 # Turn on PTX source line statistic profiling. (1 = On)
-ptx_line_stats_filename gpgpu_inst_stats.txt # Output file for PTX source line statistics.
-save_embedded_ptx                      0 # saves ptx files embedded in binary as <n>.ptx
-keep                                   0 # keep intermediate files created by GPGPU-Sim when interfacing with external programs
-gpgpu_ptx_save_converted_ptxplus                    0 # Saved converted ptxplus to a file
-ptx_opcode_latency_int         4,13,4,5,145 # Opcode latencies for integers <ADD,MAX,MUL,MAD,DIV>Default 1,1,19,25,145
-ptx_opcode_latency_fp          4,13,4,5,39 # Opcode latencies for single precision floating points <ADD,MAX,MUL,MAD,DIV>Default 1,1,1,1,30
-ptx_opcode_latency_dp         8,19,8,8,330 # Opcode latencies for double precision floating points <ADD,MAX,MUL,MAD,DIV>Default 8,8,8,8,335
-ptx_opcode_initiation_int            1,2,2,1,8 # Opcode initiation intervals for integers <ADD,MAX,MUL,MAD,DIV>Default 1,1,4,4,32
-ptx_opcode_initiation_fp            1,2,1,1,4 # Opcode initiation intervals for single precision floating points <ADD,MAX,MUL,MAD,DIV>Default 1,1,1,1,5
-ptx_opcode_initiation_dp         8,16,8,8,130 # Opcode initiation intervals for double precision floating points <ADD,MAX,MUL,MAD,DIV>Default 8,8,8,8,130
DRAM Timing Options:
nbk                                    16 # number of banks
CCD                                     2 # column to column delay
RRD                                     6 # minimal delay between activation of rows in different banks
RCD                                    12 # row to column delay
RAS                                    28 # time needed to activate row
RP                                     12 # time needed to precharge (deactivate) row
RC                                     40 # row cycle time
CDLR                                    5 # switching from write to read (changes tWTR)
WR                                     12 # last data-in to row precharge
CL                                     12 # CAS latency
WL                                      4 # Write latency
nbkgrp                                  4 # number of bank groups
CCDL                                    3 # column to column delay between accesses to different bank groups
RTPL                                    2 # read to precharge delay between accesses to different bank groups
Total number of memory sub partition = 12
addr_dec_mask[CHIP]  = 0000000000000000 	high:64 low:0
addr_dec_mask[BK]    = 000000000000e100 	high:16 low:8
addr_dec_mask[ROW]   = 000000000fff0000 	high:28 low:16
addr_dec_mask[COL]   = 0000000000001eff 	high:13 low:0
addr_dec_mask[BURST] = 000000000000003f 	high:6 low:0
sub_partition_id_mask = 0000000000000100
GPGPU-Sim uArch: clock freqs: 700000000.000000:700000000.000000:700000000.000000:924000000.000000
GPGPU-Sim uArch: clock periods: 0.00000000142857142857:0.00000000142857142857:0.00000000142857142857:0.00000000108225108225
*** Initializing Memory Statistics ***
GPGPU-Sim uArch: interconnect node map (shaderID+MemID to icntID)
GPGPU-Sim uArch: Memory nodes ID start from index: 15
GPGPU-Sim uArch:    0   1   2   3   4
GPGPU-Sim uArch:    5   6   7   8   9
GPGPU-Sim uArch:   10  11  12  13  14
GPGPU-Sim uArch:   15  16  17  18  19
GPGPU-Sim uArch:   20  21  22  23  24
GPGPU-Sim uArch:   25  26
GPGPU-Sim uArch: interconnect node reverse map (icntID to shaderID+MemID)
GPGPU-Sim uArch: Memory nodes start from ID: 15
GPGPU-Sim uArch:    0   1   2   3   4
GPGPU-Sim uArch:    5   6   7   8   9
GPGPU-Sim uArch:   10  11  12  13  14
GPGPU-Sim uArch:   15  16  17  18  19
GPGPU-Sim uArch:   20  21  22  23  24
GPGPU-Sim uArch:   25  26
a694f6f961931330989587dbd586e872  /sciclone/data10/hwang07/adwait/applications/benchmarks/CUDA/KMN/gpgpu_ptx_sim__KMN
GPGPU-Sim uArch: performance model initialization complete.
GPGPU-Sim PTX: __cudaRegisterFatBinary, fat_cubin_handle = 1, filename=kmeans_cuda.cu
self exe links to: /sciclone/data10/hwang07/adwait/applications/benchmarks/CUDA/KMN/gpgpu_ptx_sim__KMN
Running md5sum using "md5sum /sciclone/data10/hwang07/adwait/applications/benchmarks/CUDA/KMN/gpgpu_ptx_sim__KMN "
Parsing file _cuobjdump_complete_output_q59Eo1
######### cuobjdump parser ########
## Adding new section ELF
Adding arch: sm_20
Adding identifier: kmeans_cuda.cu
## Adding new section PTX
Adding ptx filename: _cuobjdump_1.ptx
Adding arch: sm_20
Adding identifier: kmeans_cuda.cu
Done parsing!!!
GPGPU-Sim PTX: __cudaRegisterFunction _Z11kmeansPointPfiiiPiS_S_S0_ : hostFun 0x0x402a5e, fat_cubin_handle = 1
GPGPU-Sim PTX: instruction assembly for function '_Z14invert_mappingPfS_ii'...   done.
GPGPU-Sim PTX: finding reconvergence points for '_Z14invert_mappingPfS_ii'...
GPGPU-Sim PTX: Finding dominators for '_Z14invert_mappingPfS_ii'...
GPGPU-Sim PTX: Finding immediate dominators for '_Z14invert_mappingPfS_ii'...
GPGPU-Sim PTX: Finding postdominators for '_Z14invert_mappingPfS_ii'...
GPGPU-Sim PTX: Finding immediate postdominators for '_Z14invert_mappingPfS_ii'...
GPGPU-Sim PTX: pre-decoding instructions for '_Z14invert_mappingPfS_ii'...
GPGPU-Sim PTX: reconvergence points for _Z14invert_mappingPfS_ii...
GPGPU-Sim PTX:  1 (potential) branch divergence @  PC=0x038 (_1.ptx:70) @%p1 bra $Lt_0_2050;
GPGPU-Sim PTX:    immediate post dominator      @  PC=0x110 (_1.ptx:103) exit;
GPGPU-Sim PTX:  2 (potential) branch divergence @  PC=0x058 (_1.ptx:74) @%p2 bra $Lt_0_2562;
GPGPU-Sim PTX:    immediate post dominator      @  PC=0x110 (_1.ptx:103) exit;
GPGPU-Sim PTX:  3 (potential) branch divergence @  PC=0x108 (_1.ptx:99) @%p3 bra $Lt_0_3074;
GPGPU-Sim PTX:    immediate post dominator      @  PC=0x110 (_1.ptx:103) exit;
GPGPU-Sim PTX: ... end of reconvergence points for _Z14invert_mappingPfS_ii
GPGPU-Sim PTX: ... done pre-decoding instructions for '_Z14invert_mappingPfS_ii'.
GPGPU-Sim PTX: instruction assembly for function '_Z11kmeansPointPfiiiPiS_S_S0_'...   done.
GPGPU-Sim PTX: finding reconvergence points for '_Z11kmeansPointPfiiiPiS_S_S0_'...
GPGPU-Sim PTX: Finding dominators for '_Z11kmeansPointPfiiiPiS_S_S0_'...
GPGPU-Sim PTX: Finding immediate dominators for '_Z11kmeansPointPfiiiPiS_S_S0_'...
GPGPU-Sim PTX: Finding postdominators for '_Z11kmeansPointPfiiiPiS_S_S0_'...
GPGPU-Sim PTX: Finding immediate postdominators for '_Z11kmeansPointPfiiiPiS_S_S0_'...
GPGPU-Sim PTX: pre-decoding instructions for '_Z11kmeansPointPfiiiPiS_S_S0_'...
GPGPU-Sim PTX: reconvergence points for _Z11kmeansPointPfiiiPiS_S_S0_...
GPGPU-Sim PTX:  1 (potential) branch divergence @  PC=0x180 (_1.ptx:136) @!%p1 bra $Lt_1_4866;
GPGPU-Sim PTX:    immediate post dominator      @  PC=0x320 (_1.ptx:202) @!%p1 bra $Lt_1_7682;
GPGPU-Sim PTX:  2 (potential) branch divergence @  PC=0x1a0 (_1.ptx:140) @%p2 bra $Lt_1_8194;
GPGPU-Sim PTX:    immediate post dominator      @  PC=0x320 (_1.ptx:202) @!%p1 bra $Lt_1_7682;
GPGPU-Sim PTX:  3 (potential) branch divergence @  PC=0x1e8 (_1.ptx:151) @!%p3 bra $Lt_1_8450;
GPGPU-Sim PTX:    immediate post dominator      @  PC=0x2c8 (_1.ptx:185) setp.lt.f32 %p5, %f2, %f1;
GPGPU-Sim PTX:  4 (potential) branch divergence @  PC=0x2b0 (_1.ptx:180) @%p4 bra $Lt_1_6402;
GPGPU-Sim PTX:    immediate post dominator      @  PC=0x2b8 (_1.ptx:181) bra.uni $Lt_1_5890;
GPGPU-Sim PTX:  5 (potential) branch divergence @  PC=0x2b8 (_1.ptx:181) bra.uni $Lt_1_5890;
GPGPU-Sim PTX:    immediate post dominator      @  PC=0x2c8 (_1.ptx:185) setp.lt.f32 %p5, %f2, %f1;
GPGPU-Sim PTX:  6 (potential) branch divergence @  PC=0x2d0 (_1.ptx:186) @!%p5 bra $Lt_1_6914;
GPGPU-Sim PTX:    immediate post dominator      @  PC=0x2e8 (_1.ptx:192) add.s32 %r18, %r18, 1;
GPGPU-Sim PTX:  7 (potential) branch divergence @  PC=0x2f8 (_1.ptx:194) @%p6 bra $Lt_1_5634;
GPGPU-Sim PTX:    immediate post dominator      @  PC=0x300 (_1.ptx:195) bra.uni $Lt_1_4610;
GPGPU-Sim PTX:  8 (potential) branch divergence @  PC=0x300 (_1.ptx:195) bra.uni $Lt_1_4610;
GPGPU-Sim PTX:    immediate post dominator      @  PC=0x320 (_1.ptx:202) @!%p1 bra $Lt_1_7682;
GPGPU-Sim PTX:  9 (potential) branch divergence @  PC=0x310 (_1.ptx:198) bra.uni $Lt_1_4610;
GPGPU-Sim PTX:    immediate post dominator      @  PC=0x320 (_1.ptx:202) @!%p1 bra $Lt_1_7682;
GPGPU-Sim PTX: 10 (potential) branch divergence @  PC=0x320 (_1.ptx:202) @!%p1 bra $Lt_1_7682;
GPGPU-Sim PTX:    immediate post dominator      @  PC=0x350 (_1.ptx:211) exit;
GPGPU-Sim PTX: ... end of reconvergence points for _Z11kmeansPointPfiiiPiS_S_S0_
GPGPU-Sim PTX: ... done pre-decoding instructions for '_Z11kmeansPointPfiiiPiS_S_S0_'.
GPGPU-Sim PTX: allocating global region for "t_features" from 0x100 to 0x104 (global memory space)
GPGPU-Sim PTX: allocating global region for "t_features_flipped" from 0x104 to 0x108 (global memory space)
GPGPU-Sim PTX: allocating global region for "t_clusters" from 0x108 to 0x10c (global memory space)
GPGPU-Sim PTX: finished parsing EMBEDDED .ptx file _1.ptx
Adding _cuobjdump_1.ptx with cubin handle 1
GPGPU-Sim PTX: extracting embedded .ptx to temporary file "_ptx_nhDryL"
Running: cat _ptx_nhDryL | sed 's/.version 1.5/.version 1.4/' | sed 's/, texmode_independent//' | sed 's/\(\.extern \.const\[1\] .b8 \w\+\)\[\]/\1\[1\]/' | sed 's/const\[.\]/const\[0\]/g' > _ptx2_gXK93v
GPGPU-Sim PTX: generating ptxinfo using "$CUDA_INSTALL_PATH/bin/ptxas --gpu-name=sm_20 -v _ptx2_gXK93v --output-file  /dev/null 2> _ptx_nhDryLinfo"
GPGPU-Sim PTX: Kernel '_Z11kmeansPointPfiiiPiS_S_S0_' : regs=15, lmem=0, smem=0, cmem=88
GPGPU-Sim PTX: Kernel '_Z14invert_mappingPfS_ii' : regs=10, lmem=0, smem=0, cmem=56
GPGPU-Sim PTX: removing ptxinfo using "rm -f _ptx_nhDryL _ptx2_gXK93v _ptx_nhDryLinfo"
GPGPU-Sim PTX: loading globals with explicit initializers... 
GPGPU-Sim PTX: finished loading globals (0 bytes total).
GPGPU-Sim PTX: loading constants with explicit initializers...  done.
GPGPU-Sim PTX: __cudaRegisterFunction _Z14invert_mappingPfS_ii : hostFun 0x0x4028ce, fat_cubin_handle = 1
GPGPU-Sim PTX: in __cudaRegisterTexture:
GPGPU-Sim PTX:   int dim = 1
GPGPU-Sim PTX:   int norm = 0
GPGPU-Sim PTX:   int ext = 0
GPGPU-Sim PTX:   Execution warning: Not finished implementing "void __cudaRegisterTexture(void**, const textureReference*, const void**, const char*, int, int, int)"
GPGPU-Sim PTX: in __cudaRegisterTexture:
GPGPU-Sim PTX:   int dim = 1
GPGPU-Sim PTX:   int norm = 0
GPGPU-Sim PTX:   int ext = 0
GPGPU-Sim PTX:   Execution warning: Not finished implementing "void __cudaRegisterTexture(void**, const textureReference*, const void**, const char*, int, int, int)"
GPGPU-Sim PTX: in __cudaRegisterTexture:
GPGPU-Sim PTX:   int dim = 1
GPGPU-Sim PTX:   int norm = 0
GPGPU-Sim PTX:   int ext = 0
GPGPU-Sim PTX:   Execution warning: Not finished implementing "void __cudaRegisterTexture(void**, const textureReference*, const void**, const char*, int, int, int)"

I/O completed

Number of objects: 28672
Number of features: 138

GPGPU-Sim PTX: cudaLaunch for 0x0x402a5e (mode=performance simulation) on stream 0
GPGPU-Sim PTX: pushing kernel '_Z11kmeansPointPfiiiPiS_S_S0_' to stream 0, gridDim= (11,11,1) blockDim = (256,1,1) 
kernel '_Z11kmeansPointPfiiiPiS_S_S0_' transfer to GPU hardware scheduler
GPGPU-Sim uArch: Shader 1 bind to kernel 1 '_Z11kmeansPointPfiiiPiS_S_S0_'
GPGPU-Sim uArch: CTA/core = 6, limited by: threads
GPGPU-Sim uArch: core:  1, cta: 0 initialized @(1,0)
GPGPU-Sim uArch: Shader 2 bind to kernel 1 '_Z11kmeansPointPfiiiPiS_S_S0_'
GPGPU-Sim uArch: core:  2, cta: 0 initialized @(1,0)
GPGPU-Sim uArch: Shader 3 bind to kernel 1 '_Z11kmeansPointPfiiiPiS_S_S0_'
GPGPU-Sim uArch: core:  3, cta: 0 initialized @(1,0)
GPGPU-Sim uArch: Shader 4 bind to kernel 1 '_Z11kmeansPointPfiiiPiS_S_S0_'
GPGPU-Sim uArch: core:  4, cta: 0 initialized @(1,0)
GPGPU-Sim uArch: Shader 5 bind to kernel 1 '_Z11kmeansPointPfiiiPiS_S_S0_'
GPGPU-Sim uArch: core:  5, cta: 0 initialized @(1,0)
GPGPU-Sim uArch: Shader 6 bind to kernel 1 '_Z11kmeansPointPfiiiPiS_S_S0_'
GPGPU-Sim uArch: core:  6, cta: 0 initialized @(1,0)
GPGPU-Sim uArch: Shader 7 bind to kernel 1 '_Z11kmeansPointPfiiiPiS_S_S0_'
GPGPU-Sim uArch: core:  7, cta: 0 initialized @(1,0)
GPGPU-Sim uArch: Shader 8 bind to kernel 1 '_Z11kmeansPointPfiiiPiS_S_S0_'
GPGPU-Sim uArch: core:  8, cta: 0 initialized @(1,0)
GPGPU-Sim uArch: Shader 9 bind to kernel 1 '_Z11kmeansPointPfiiiPiS_S_S0_'
GPGPU-Sim uArch: core:  9, cta: 0 initialized @(1,0)
GPGPU-Sim uArch: Shader 10 bind to kernel 1 '_Z11kmeansPointPfiiiPiS_S_S0_'
GPGPU-Sim uArch: core: 10, cta: 0 initialized @(1,0)
GPGPU-Sim uArch: Shader 11 bind to kernel 1 '_Z11kmeansPointPfiiiPiS_S_S0_'
GPGPU-Sim uArch: core: 11, cta: 0 initialized @(1,0)
GPGPU-Sim uArch: Shader 12 bind to kernel 1 '_Z11kmeansPointPfiiiPiS_S_S0_'
GPGPU-Sim uArch: core: 12, cta: 0 initialized @(1,0)
GPGPU-Sim uArch: Shader 13 bind to kernel 1 '_Z11kmeansPointPfiiiPiS_S_S0_'
GPGPU-Sim uArch: core: 13, cta: 0 initialized @(1,0)
GPGPU-Sim uArch: Shader 14 bind to kernel 1 '_Z11kmeansPointPfiiiPiS_S_S0_'
GPGPU-Sim uArch: core: 14, cta: 0 initialized @(1,0)
GPGPU-Sim uArch: Shader 0 bind to kernel 1 '_Z11kmeansPointPfiiiPiS_S_S0_'
GPGPU-Sim uArch: core:  0, cta: 0 initialized @(1,0)
GPGPU-Sim uArch: core:  1, cta: 1 initialized @(2,0)
GPGPU-Sim uArch: core:  2, cta: 1 initialized @(2,0)
GPGPU-Sim uArch: core:  3, cta: 1 initialized @(2,0)
GPGPU-Sim uArch: core:  4, cta: 1 initialized @(2,0)
GPGPU-Sim uArch: core:  5, cta: 1 initialized @(2,0)
GPGPU-Sim uArch: core:  6, cta: 1 initialized @(2,0)
GPGPU-Sim uArch: core:  7, cta: 1 initialized @(2,0)
GPGPU-Sim uArch: core:  8, cta: 1 initialized @(2,0)
GPGPU-Sim uArch: core:  9, cta: 1 initialized @(2,0)
GPGPU-Sim uArch: core: 10, cta: 1 initialized @(2,0)
GPGPU-Sim uArch: core: 11, cta: 1 initialized @(2,0)
GPGPU-Sim uArch: core: 12, cta: 1 initialized @(2,0)
GPGPU-Sim uArch: core: 13, cta: 1 initialized @(2,0)
GPGPU-Sim uArch: core: 14, cta: 1 initialized @(2,0)
GPGPU-Sim uArch: core:  0, cta: 1 initialized @(2,0)
GPGPU-Sim uArch: core:  1, cta: 2 initialized @(3,0)
GPGPU-Sim uArch: core:  2, cta: 2 initialized @(3,0)
GPGPU-Sim uArch: core:  3, cta: 2 initialized @(3,0)
GPGPU-Sim uArch: core:  4, cta: 2 initialized @(3,0)
GPGPU-Sim uArch: core:  5, cta: 2 initialized @(3,0)
GPGPU-Sim uArch: core:  6, cta: 2 initialized @(3,0)
GPGPU-Sim uArch: core:  7, cta: 2 initialized @(3,0)
GPGPU-Sim uArch: core:  8, cta: 2 initialized @(3,0)
GPGPU-Sim uArch: core:  9, cta: 2 initialized @(3,0)
GPGPU-Sim uArch: core: 10, cta: 2 initialized @(3,0)
GPGPU-Sim uArch: core: 11, cta: 2 initialized @(3,0)
GPGPU-Sim uArch: core: 12, cta: 2 initialized @(3,0)
GPGPU-Sim uArch: core: 13, cta: 2 initialized @(3,0)
GPGPU-Sim uArch: core: 14, cta: 2 initialized @(3,0)
GPGPU-Sim uArch: core:  0, cta: 2 initialized @(3,0)
GPGPU-Sim uArch: core:  1, cta: 3 initialized @(4,0)
GPGPU-Sim uArch: core:  2, cta: 3 initialized @(4,0)
GPGPU-Sim uArch: core:  3, cta: 3 initialized @(4,0)
GPGPU-Sim uArch: core:  4, cta: 3 initialized @(4,0)
GPGPU-Sim uArch: core:  5, cta: 3 initialized @(4,0)
GPGPU-Sim uArch: core:  6, cta: 3 initialized @(4,0)
GPGPU-Sim uArch: core:  7, cta: 3 initialized @(4,0)
GPGPU-Sim uArch: core:  8, cta: 3 initialized @(4,0)
GPGPU-Sim uArch: core:  9, cta: 3 initialized @(4,0)
GPGPU-Sim uArch: core: 10, cta: 3 initialized @(4,0)
GPGPU-Sim uArch: core: 11, cta: 3 initialized @(4,0)
GPGPU-Sim uArch: core: 12, cta: 3 initialized @(4,0)
GPGPU-Sim uArch: core: 13, cta: 3 initialized @(4,0)
GPGPU-Sim uArch: core: 14, cta: 3 initialized @(4,0)
GPGPU-Sim uArch: core:  0, cta: 3 initialized @(4,0)
GPGPU-Sim uArch: core:  1, cta: 4 initialized @(5,0)
GPGPU-Sim uArch: core:  2, cta: 4 initialized @(5,0)
GPGPU-Sim uArch: core:  3, cta: 4 initialized @(5,0)
GPGPU-Sim uArch: core:  4, cta: 4 initialized @(5,0)
GPGPU-Sim uArch: core:  5, cta: 4 initialized @(5,0)
GPGPU-Sim uArch: core:  6, cta: 4 initialized @(5,0)
GPGPU-Sim uArch: core:  7, cta: 4 initialized @(5,0)
GPGPU-Sim uArch: core:  8, cta: 4 initialized @(5,0)
GPGPU-Sim uArch: core:  9, cta: 4 initialized @(5,0)
GPGPU-Sim uArch: core: 10, cta: 4 initialized @(5,0)
GPGPU-Sim uArch: core: 11, cta: 4 initialized @(5,0)
GPGPU-Sim uArch: core: 12, cta: 4 initialized @(5,0)
GPGPU-Sim uArch: core: 13, cta: 4 initialized @(5,0)
GPGPU-Sim uArch: core: 14, cta: 4 initialized @(5,0)
GPGPU-Sim uArch: core:  0, cta: 4 initialized @(5,0)
GPGPU-Sim uArch: core:  1, cta: 5 initialized @(6,0)
GPGPU-Sim uArch: core:  2, cta: 5 initialized @(6,0)
GPGPU-Sim uArch: core:  3, cta: 5 initialized @(6,0)
GPGPU-Sim uArch: core:  4, cta: 5 initialized @(6,0)
GPGPU-Sim uArch: core:  5, cta: 5 initialized @(6,0)
GPGPU-Sim uArch: core:  6, cta: 5 initialized @(6,0)
GPGPU-Sim uArch: core:  7, cta: 5 initialized @(6,0)
GPGPU-Sim uArch: core:  8, cta: 5 initialized @(6,0)
GPGPU-Sim uArch: core:  9, cta: 5 initialized @(6,0)
GPGPU-Sim uArch: core: 10, cta: 5 initialized @(6,0)
GPGPU-Sim uArch: core: 11, cta: 5 initialized @(6,0)
GPGPU-Sim uArch: core: 12, cta: 5 initialized @(6,0)
GPGPU-Sim uArch: core: 13, cta: 5 initialized @(6,0)
GPGPU-Sim uArch: core: 14, cta: 5 initialized @(6,0)
GPGPU-Sim uArch: core:  0, cta: 5 initialized @(6,0)
GPGPU-Sim PTX: 100000 instructions simulated : ctaid=(8,3,0) tid=(159,0,0)
GPGPU-Sim uArch: cycles simulated: 500  inst.: 131680 (ipc=263.4) sim_rate=65840 (inst/sec) elapsed = 0:0:00:02 / Tue Mar 22 07:01:23 2016
GPGPU-Sim PTX: 200000 instructions simulated : ctaid=(9,2,0) tid=(127,0,0)
GPGPU-Sim PTX: 300000 instructions simulated : ctaid=(9,2,0) tid=(223,0,0)
GPGPU-Sim PTX: 400000 instructions simulated : ctaid=(4,5,0) tid=(63,0,0)
GPGPU-Sim uArch: cycles simulated: 1500  inst.: 422144 (ipc=281.4) sim_rate=140714 (inst/sec) elapsed = 0:0:00:03 / Tue Mar 22 07:01:24 2016
GPGPU-Sim PTX: 500000 instructions simulated : ctaid=(5,3,0) tid=(255,0,0)
GPGPU-Sim PTX: 600000 instructions simulated : ctaid=(10,0,0) tid=(31,0,0)
GPGPU-Sim uArch: cycles simulated: 3000  inst.: 582496 (ipc=194.2) sim_rate=145624 (inst/sec) elapsed = 0:0:00:04 / Tue Mar 22 07:01:25 2016
GPGPU-Sim uArch: cycles simulated: 5000  inst.: 614400 (ipc=122.9) sim_rate=122880 (inst/sec) elapsed = 0:0:00:05 / Tue Mar 22 07:01:26 2016
GPGPU-Sim uArch: cycles simulated: 7000  inst.: 627264 (ipc=89.6) sim_rate=104544 (inst/sec) elapsed = 0:0:00:06 / Tue Mar 22 07:01:27 2016
GPGPU-Sim PTX: 700000 instructions simulated : ctaid=(9,1,0) tid=(95,0,0)
GPGPU-Sim uArch: cycles simulated: 9000  inst.: 668960 (ipc=74.3) sim_rate=95565 (inst/sec) elapsed = 0:0:00:07 / Tue Mar 22 07:01:28 2016
GPGPU-Sim uArch: cycles simulated: 10500  inst.: 683488 (ipc=65.1) sim_rate=85436 (inst/sec) elapsed = 0:0:00:08 / Tue Mar 22 07:01:29 2016
GPGPU-Sim uArch: cycles simulated: 12500  inst.: 710528 (ipc=56.8) sim_rate=78947 (inst/sec) elapsed = 0:0:00:09 / Tue Mar 22 07:01:30 2016
GPGPU-Sim uArch: cycles simulated: 14500  inst.: 738496 (ipc=50.9) sim_rate=73849 (inst/sec) elapsed = 0:0:00:10 / Tue Mar 22 07:01:31 2016
GPGPU-Sim PTX: 800000 instructions simulated : ctaid=(9,1,0) tid=(31,0,0)
GPGPU-Sim uArch: cycles simulated: 16500  inst.: 770688 (ipc=46.7) sim_rate=70062 (inst/sec) elapsed = 0:0:00:11 / Tue Mar 22 07:01:32 2016
GPGPU-Sim uArch: cycles simulated: 18500  inst.: 804832 (ipc=43.5) sim_rate=67069 (inst/sec) elapsed = 0:0:00:12 / Tue Mar 22 07:01:33 2016
GPGPU-Sim uArch: cycles simulated: 20500  inst.: 838784 (ipc=40.9) sim_rate=64521 (inst/sec) elapsed = 0:0:00:13 / Tue Mar 22 07:01:34 2016
GPGPU-Sim PTX: 900000 instructions simulated : ctaid=(4,0,0) tid=(159,0,0)
GPGPU-Sim uArch: cycles simulated: 22000  inst.: 860576 (ipc=39.1) sim_rate=61469 (inst/sec) elapsed = 0:0:00:14 / Tue Mar 22 07:01:35 2016
GPGPU-Sim uArch: cycles simulated: 24000  inst.: 896224 (ipc=37.3) sim_rate=59748 (inst/sec) elapsed = 0:0:00:15 / Tue Mar 22 07:01:36 2016
GPGPU-Sim uArch: cycles simulated: 26000  inst.: 931904 (ipc=35.8) sim_rate=58244 (inst/sec) elapsed = 0:0:00:16 / Tue Mar 22 07:01:37 2016
GPGPU-Sim PTX: 1000000 instructions simulated : ctaid=(2,1,0) tid=(223,0,0)
GPGPU-Sim uArch: cycles simulated: 28000  inst.: 961024 (ipc=34.3) sim_rate=56530 (inst/sec) elapsed = 0:0:00:17 / Tue Mar 22 07:01:38 2016
GPGPU-Sim uArch: cycles simulated: 29500  inst.: 989248 (ipc=33.5) sim_rate=54958 (inst/sec) elapsed = 0:0:00:18 / Tue Mar 22 07:01:39 2016
GPGPU-Sim uArch: cycles simulated: 31500  inst.: 1024000 (ipc=32.5) sim_rate=53894 (inst/sec) elapsed = 0:0:00:19 / Tue Mar 22 07:01:40 2016
GPGPU-Sim PTX: 1100000 instructions simulated : ctaid=(1,1,0) tid=(127,0,0)
GPGPU-Sim uArch: cycles simulated: 33500  inst.: 1058848 (ipc=31.6) sim_rate=52942 (inst/sec) elapsed = 0:0:00:20 / Tue Mar 22 07:01:41 2016
GPGPU-Sim uArch: cycles simulated: 35000  inst.: 1080704 (ipc=30.9) sim_rate=51462 (inst/sec) elapsed = 0:0:00:21 / Tue Mar 22 07:01:42 2016
GPGPU-Sim uArch: cycles simulated: 37000  inst.: 1120032 (ipc=30.3) sim_rate=50910 (inst/sec) elapsed = 0:0:00:22 / Tue Mar 22 07:01:43 2016
GPGPU-Sim PTX: 1200000 instructions simulated : ctaid=(1,0,0) tid=(223,0,0)
GPGPU-Sim uArch: cycles simulated: 39000  inst.: 1153728 (ipc=29.6) sim_rate=50162 (inst/sec) elapsed = 0:0:00:23 / Tue Mar 22 07:01:44 2016
GPGPU-Sim uArch: cycles simulated: 41000  inst.: 1191040 (ipc=29.0) sim_rate=49626 (inst/sec) elapsed = 0:0:00:24 / Tue Mar 22 07:01:45 2016
GPGPU-Sim uArch: cycles simulated: 42500  inst.: 1215520 (ipc=28.6) sim_rate=48620 (inst/sec) elapsed = 0:0:00:25 / Tue Mar 22 07:01:46 2016
GPGPU-Sim PTX: 1300000 instructions simulated : ctaid=(10,0,0) tid=(95,0,0)
GPGPU-Sim uArch: cycles simulated: 44500  inst.: 1251104 (ipc=28.1) sim_rate=48119 (inst/sec) elapsed = 0:0:00:26 / Tue Mar 22 07:01:47 2016
GPGPU-Sim uArch: cycles simulated: 46500  inst.: 1286496 (ipc=27.7) sim_rate=47648 (inst/sec) elapsed = 0:0:00:27 / Tue Mar 22 07:01:48 2016
GPGPU-Sim uArch: cycles simulated: 48000  inst.: 1311840 (ipc=27.3) sim_rate=46851 (inst/sec) elapsed = 0:0:00:28 / Tue Mar 22 07:01:49 2016
GPGPU-Sim uArch: cycles simulated: 50000  inst.: 1349120 (ipc=27.0) sim_rate=46521 (inst/sec) elapsed = 0:0:00:29 / Tue Mar 22 07:01:50 2016
GPGPU-Sim PTX: 1400000 instructions simulated : ctaid=(6,0,0) tid=(223,0,0)
GPGPU-Sim uArch: cycles simulated: 52000  inst.: 1385088 (ipc=26.6) sim_rate=46169 (inst/sec) elapsed = 0:0:00:30 / Tue Mar 22 07:01:51 2016
GPGPU-Sim uArch: cycles simulated: 54000  inst.: 1419168 (ipc=26.3) sim_rate=45779 (inst/sec) elapsed = 0:0:00:31 / Tue Mar 22 07:01:52 2016
GPGPU-Sim uArch: cycles simulated: 55500  inst.: 1447488 (ipc=26.1) sim_rate=45234 (inst/sec) elapsed = 0:0:00:32 / Tue Mar 22 07:01:53 2016
GPGPU-Sim PTX: 1500000 instructions simulated : ctaid=(2,0,0) tid=(31,0,0)
GPGPU-Sim uArch: cycles simulated: 57500  inst.: 1482080 (ipc=25.8) sim_rate=44911 (inst/sec) elapsed = 0:0:00:33 / Tue Mar 22 07:01:54 2016
GPGPU-Sim uArch: cycles simulated: 59500  inst.: 1513856 (ipc=25.4) sim_rate=44525 (inst/sec) elapsed = 0:0:00:34 / Tue Mar 22 07:01:55 2016
GPGPU-Sim uArch: cycles simulated: 61000  inst.: 1541568 (ipc=25.3) sim_rate=44044 (inst/sec) elapsed = 0:0:00:35 / Tue Mar 22 07:01:56 2016
GPGPU-Sim PTX: 1600000 instructions simulated : ctaid=(3,2,0) tid=(95,0,0)
GPGPU-Sim uArch: cycles simulated: 63000  inst.: 1576512 (ipc=25.0) sim_rate=43792 (inst/sec) elapsed = 0:0:00:36 / Tue Mar 22 07:01:57 2016
GPGPU-Sim uArch: cycles simulated: 65000  inst.: 1605984 (ipc=24.7) sim_rate=43404 (inst/sec) elapsed = 0:0:00:37 / Tue Mar 22 07:01:58 2016
GPGPU-Sim uArch: cycles simulated: 67000  inst.: 1645696 (ipc=24.6) sim_rate=43307 (inst/sec) elapsed = 0:0:00:38 / Tue Mar 22 07:01:59 2016
GPGPU-Sim PTX: 1700000 instructions simulated : ctaid=(6,0,0) tid=(159,0,0)
GPGPU-Sim uArch: cycles simulated: 68500  inst.: 1676096 (ipc=24.5) sim_rate=42976 (inst/sec) elapsed = 0:0:00:39 / Tue Mar 22 07:02:00 2016
GPGPU-Sim uArch: cycles simulated: 70500  inst.: 1718176 (ipc=24.4) sim_rate=42954 (inst/sec) elapsed = 0:0:00:40 / Tue Mar 22 07:02:01 2016
GPGPU-Sim PTX: 1800000 instructions simulated : ctaid=(7,2,0) tid=(31,0,0)
GPGPU-Sim uArch: cycles simulated: 72500  inst.: 1752160 (ipc=24.2) sim_rate=42735 (inst/sec) elapsed = 0:0:00:41 / Tue Mar 22 07:02:02 2016
GPGPU-Sim uArch: cycles simulated: 74000  inst.: 1777760 (ipc=24.0) sim_rate=42327 (inst/sec) elapsed = 0:0:00:42 / Tue Mar 22 07:02:03 2016
GPGPU-Sim uArch: cycles simulated: 76000  inst.: 1814624 (ipc=23.9) sim_rate=42200 (inst/sec) elapsed = 0:0:00:43 / Tue Mar 22 07:02:04 2016
GPGPU-Sim uArch: cycles simulated: 78000  inst.: 1846400 (ipc=23.7) sim_rate=41963 (inst/sec) elapsed = 0:0:00:44 / Tue Mar 22 07:02:05 2016
GPGPU-Sim PTX: 1900000 instructions simulated : ctaid=(10,0,0) tid=(159,0,0)
GPGPU-Sim uArch: cycles simulated: 79500  inst.: 1875840 (ipc=23.6) sim_rate=41685 (inst/sec) elapsed = 0:0:00:45 / Tue Mar 22 07:02:06 2016
GPGPU-Sim uArch: cycles simulated: 81500  inst.: 1905728 (ipc=23.4) sim_rate=41428 (inst/sec) elapsed = 0:0:00:46 / Tue Mar 22 07:02:07 2016
GPGPU-Sim uArch: cycles simulated: 83500  inst.: 1944384 (ipc=23.3) sim_rate=41369 (inst/sec) elapsed = 0:0:00:47 / Tue Mar 22 07:02:08 2016
GPGPU-Sim PTX: 2000000 instructions simulated : ctaid=(2,0,0) tid=(223,0,0)
GPGPU-Sim uArch: cycles simulated: 85500  inst.: 1982976 (ipc=23.2) sim_rate=41312 (inst/sec) elapsed = 0:0:00:48 / Tue Mar 22 07:02:09 2016
GPGPU-Sim uArch: cycles simulated: 87000  inst.: 2003616 (ipc=23.0) sim_rate=40890 (inst/sec) elapsed = 0:0:00:49 / Tue Mar 22 07:02:10 2016
GPGPU-Sim uArch: cycles simulated: 89000  inst.: 2044576 (ipc=23.0) sim_rate=40891 (inst/sec) elapsed = 0:0:00:50 / Tue Mar 22 07:02:11 2016
GPGPU-Sim PTX: 2100000 instructions simulated : ctaid=(3,0,0) tid=(63,0,0)
GPGPU-Sim uArch: cycles simulated: 91000  inst.: 2081056 (ipc=22.9) sim_rate=40805 (inst/sec) elapsed = 0:0:00:51 / Tue Mar 22 07:02:12 2016
GPGPU-Sim uArch: cycles simulated: 92500  inst.: 2111648 (ipc=22.8) sim_rate=40608 (inst/sec) elapsed = 0:0:00:52 / Tue Mar 22 07:02:13 2016
GPGPU-Sim uArch: cycles simulated: 94500  inst.: 2145312 (ipc=22.7) sim_rate=40477 (inst/sec) elapsed = 0:0:00:53 / Tue Mar 22 07:02:14 2016
GPGPU-Sim PTX: 2200000 instructions simulated : ctaid=(2,1,0) tid=(31,0,0)
GPGPU-Sim uArch: cycles simulated: 96500  inst.: 2182048 (ipc=22.6) sim_rate=40408 (inst/sec) elapsed = 0:0:00:54 / Tue Mar 22 07:02:15 2016
GPGPU-Sim uArch: cycles simulated: 98000  inst.: 2213440 (ipc=22.6) sim_rate=40244 (inst/sec) elapsed = 0:0:00:55 / Tue Mar 22 07:02:16 2016
GPGPU-Sim uArch: cycles simulated: 100000  inst.: 2250464 (ipc=22.5) sim_rate=40186 (inst/sec) elapsed = 0:0:00:56 / Tue Mar 22 07:02:17 2016
GPGPU-Sim PTX: 2300000 instructions simulated : ctaid=(1,1,0) tid=(95,0,0)
GPGPU-Sim uArch: cycles simulated: 102000  inst.: 2283264 (ipc=22.4) sim_rate=40057 (inst/sec) elapsed = 0:0:00:57 / Tue Mar 22 07:02:18 2016
GPGPU-Sim uArch: cycles simulated: 104000  inst.: 2316992 (ipc=22.3) sim_rate=39948 (inst/sec) elapsed = 0:0:00:58 / Tue Mar 22 07:02:19 2016
GPGPU-Sim uArch: cycles simulated: 105500  inst.: 2342784 (ipc=22.2) sim_rate=39708 (inst/sec) elapsed = 0:0:00:59 / Tue Mar 22 07:02:20 2016
GPGPU-Sim PTX: 2400000 instructions simulated : ctaid=(3,0,0) tid=(127,0,0)
GPGPU-Sim uArch: cycles simulated: 107500  inst.: 2377632 (ipc=22.1) sim_rate=39627 (inst/sec) elapsed = 0:0:01:00 / Tue Mar 22 07:02:21 2016
GPGPU-Sim uArch: cycles simulated: 109500  inst.: 2412928 (ipc=22.0) sim_rate=39556 (inst/sec) elapsed = 0:0:01:01 / Tue Mar 22 07:02:22 2016
GPGPU-Sim uArch: cycles simulated: 111000  inst.: 2441504 (ipc=22.0) sim_rate=39379 (inst/sec) elapsed = 0:0:01:02 / Tue Mar 22 07:02:23 2016
GPGPU-Sim PTX: 2500000 instructions simulated : ctaid=(1,1,0) tid=(63,0,0)
GPGPU-Sim uArch: cycles simulated: 113000  inst.: 2474240 (ipc=21.9) sim_rate=39273 (inst/sec) elapsed = 0:0:01:03 / Tue Mar 22 07:02:24 2016
GPGPU-Sim uArch: cycles simulated: 115000  inst.: 2511232 (ipc=21.8) sim_rate=39238 (inst/sec) elapsed = 0:0:01:04 / Tue Mar 22 07:02:25 2016
GPGPU-Sim uArch: cycles simulated: 116500  inst.: 2538560 (ipc=21.8) sim_rate=39054 (inst/sec) elapsed = 0:0:01:05 / Tue Mar 22 07:02:26 2016
GPGPU-Sim PTX: 2600000 instructions simulated : ctaid=(2,0,0) tid=(31,0,0)
GPGPU-Sim uArch: cycles simulated: 118500  inst.: 2572960 (ipc=21.7) sim_rate=38984 (inst/sec) elapsed = 0:0:01:06 / Tue Mar 22 07:02:27 2016
GPGPU-Sim uArch: cycles simulated: 120500  inst.: 2606912 (ipc=21.6) sim_rate=38909 (inst/sec) elapsed = 0:0:01:07 / Tue Mar 22 07:02:28 2016
GPGPU-Sim uArch: cycles simulated: 122500  inst.: 2640896 (ipc=21.6) sim_rate=38836 (inst/sec) elapsed = 0:0:01:08 / Tue Mar 22 07:02:29 2016
GPGPU-Sim PTX: 2700000 instructions simulated : ctaid=(0,2,0) tid=(31,0,0)
GPGPU-Sim uArch: cycles simulated: 124500  inst.: 2680096 (ipc=21.5) sim_rate=38841 (inst/sec) elapsed = 0:0:01:09 / Tue Mar 22 07:02:30 2016
GPGPU-Sim uArch: cycles simulated: 126000  inst.: 2704288 (ipc=21.5) sim_rate=38632 (inst/sec) elapsed = 0:0:01:10 / Tue Mar 22 07:02:31 2016
GPGPU-Sim uArch: cycles simulated: 128000  inst.: 2741088 (ipc=21.4) sim_rate=38606 (inst/sec) elapsed = 0:0:01:11 / Tue Mar 22 07:02:32 2016
GPGPU-Sim PTX: 2800000 instructions simulated : ctaid=(0,2,0) tid=(159,0,0)
GPGPU-Sim uArch: cycles simulated: 130000  inst.: 2772160 (ipc=21.3) sim_rate=38502 (inst/sec) elapsed = 0:0:01:12 / Tue Mar 22 07:02:33 2016
GPGPU-Sim uArch: cycles simulated: 131500  inst.: 2799488 (ipc=21.3) sim_rate=38349 (inst/sec) elapsed = 0:0:01:13 / Tue Mar 22 07:02:34 2016
GPGPU-Sim uArch: cycles simulated: 133500  inst.: 2836576 (ipc=21.2) sim_rate=38332 (inst/sec) elapsed = 0:0:01:14 / Tue Mar 22 07:02:35 2016
GPGPU-Sim PTX: 2900000 instructions simulated : ctaid=(10,0,0) tid=(31,0,0)
GPGPU-Sim uArch: cycles simulated: 135500  inst.: 2874048 (ipc=21.2) sim_rate=38320 (inst/sec) elapsed = 0:0:01:15 / Tue Mar 22 07:02:36 2016
GPGPU-Sim uArch: cycles simulated: 137000  inst.: 2902272 (ipc=21.2) sim_rate=38187 (inst/sec) elapsed = 0:0:01:16 / Tue Mar 22 07:02:37 2016
GPGPU-Sim uArch: cycles simulated: 139000  inst.: 2935456 (ipc=21.1) sim_rate=38122 (inst/sec) elapsed = 0:0:01:17 / Tue Mar 22 07:02:38 2016
GPGPU-Sim PTX: 3000000 instructions simulated : ctaid=(3,1,0) tid=(63,0,0)
GPGPU-Sim uArch: cycles simulated: 141000  inst.: 2963936 (ipc=21.0) sim_rate=37999 (inst/sec) elapsed = 0:0:01:18 / Tue Mar 22 07:02:39 2016
GPGPU-Sim uArch: cycles simulated: 143000  inst.: 3002176 (ipc=21.0) sim_rate=38002 (inst/sec) elapsed = 0:0:01:19 / Tue Mar 22 07:02:40 2016
GPGPU-Sim uArch: cycles simulated: 144500  inst.: 3023904 (ipc=20.9) sim_rate=37798 (inst/sec) elapsed = 0:0:01:20 / Tue Mar 22 07:02:41 2016
GPGPU-Sim PTX: 3100000 instructions simulated : ctaid=(4,0,0) tid=(31,0,0)
GPGPU-Sim uArch: cycles simulated: 146500  inst.: 3057632 (ipc=20.9) sim_rate=37748 (inst/sec) elapsed = 0:0:01:21 / Tue Mar 22 07:02:42 2016
GPGPU-Sim uArch: cycles simulated: 148500  inst.: 3092160 (ipc=20.8) sim_rate=37709 (inst/sec) elapsed = 0:0:01:22 / Tue Mar 22 07:02:43 2016
GPGPU-Sim uArch: cycles simulated: 150000  inst.: 3118112 (ipc=20.8) sim_rate=37567 (inst/sec) elapsed = 0:0:01:23 / Tue Mar 22 07:02:44 2016
GPGPU-Sim PTX: 3200000 instructions simulated : ctaid=(1,0,0) tid=(127,0,0)
GPGPU-Sim uArch: cycles simulated: 152000  inst.: 3151360 (ipc=20.7) sim_rate=37516 (inst/sec) elapsed = 0:0:01:24 / Tue Mar 22 07:02:45 2016
GPGPU-Sim uArch: cycles simulated: 154000  inst.: 3181536 (ipc=20.7) sim_rate=37429 (inst/sec) elapsed = 0:0:01:25 / Tue Mar 22 07:02:46 2016
GPGPU-Sim uArch: cycles simulated: 155500  inst.: 3210688 (ipc=20.6) sim_rate=37333 (inst/sec) elapsed = 0:0:01:26 / Tue Mar 22 07:02:47 2016
GPGPU-Sim uArch: cycles simulated: 157500  inst.: 3239488 (ipc=20.6) sim_rate=37235 (inst/sec) elapsed = 0:0:01:27 / Tue Mar 22 07:02:48 2016
GPGPU-Sim PTX: 3300000 instructions simulated : ctaid=(8,1,0) tid=(31,0,0)
GPGPU-Sim uArch: cycles simulated: 159500  inst.: 3276320 (ipc=20.5) sim_rate=37230 (inst/sec) elapsed = 0:0:01:28 / Tue Mar 22 07:02:49 2016
GPGPU-Sim uArch: cycles simulated: 161500  inst.: 3312352 (ipc=20.5) sim_rate=37217 (inst/sec) elapsed = 0:0:01:29 / Tue Mar 22 07:02:50 2016
GPGPU-Sim uArch: cycles simulated: 163000  inst.: 3337312 (ipc=20.5) sim_rate=37081 (inst/sec) elapsed = 0:0:01:30 / Tue Mar 22 07:02:51 2016
GPGPU-Sim PTX: 3400000 instructions simulated : ctaid=(10,0,0) tid=(95,0,0)
GPGPU-Sim uArch: cycles simulated: 165000  inst.: 3375168 (ipc=20.5) sim_rate=37089 (inst/sec) elapsed = 0:0:01:31 / Tue Mar 22 07:02:52 2016
GPGPU-Sim uArch: cycles simulated: 167000  inst.: 3414368 (ipc=20.4) sim_rate=37112 (inst/sec) elapsed = 0:0:01:32 / Tue Mar 22 07:02:53 2016
GPGPU-Sim uArch: cycles simulated: 168500  inst.: 3441376 (ipc=20.4) sim_rate=37004 (inst/sec) elapsed = 0:0:01:33 / Tue Mar 22 07:02:54 2016
GPGPU-Sim PTX: 3500000 instructions simulated : ctaid=(6,1,0) tid=(95,0,0)
GPGPU-Sim uArch: cycles simulated: 170500  inst.: 3471136 (ipc=20.4) sim_rate=36926 (inst/sec) elapsed = 0:0:01:34 / Tue Mar 22 07:02:55 2016
GPGPU-Sim uArch: cycles simulated: 172500  inst.: 3506112 (ipc=20.3) sim_rate=36906 (inst/sec) elapsed = 0:0:01:35 / Tue Mar 22 07:02:56 2016
GPGPU-Sim uArch: cycles simulated: 174000  inst.: 3535488 (ipc=20.3) sim_rate=36828 (inst/sec) elapsed = 0:0:01:36 / Tue Mar 22 07:02:57 2016
GPGPU-Sim PTX: 3600000 instructions simulated : ctaid=(4,0,0) tid=(159,0,0)
GPGPU-Sim uArch: cycles simulated: 176000  inst.: 3566336 (ipc=20.3) sim_rate=36766 (inst/sec) elapsed = 0:0:01:37 / Tue Mar 22 07:02:58 2016
GPGPU-Sim uArch: cycles simulated: 178000  inst.: 3598176 (ipc=20.2) sim_rate=36716 (inst/sec) elapsed = 0:0:01:38 / Tue Mar 22 07:02:59 2016
GPGPU-Sim uArch: cycles simulated: 180000  inst.: 3634048 (ipc=20.2) sim_rate=36707 (inst/sec) elapsed = 0:0:01:39 / Tue Mar 22 07:03:00 2016
GPGPU-Sim PTX: 3700000 instructions simulated : ctaid=(6,0,0) tid=(95,0,0)
GPGPU-Sim uArch: cycles simulated: 181500  inst.: 3661376 (ipc=20.2) sim_rate=36613 (inst/sec) elapsed = 0:0:01:40 / Tue Mar 22 07:03:01 2016
GPGPU-Sim uArch: cycles simulated: 183500  inst.: 3698016 (ipc=20.2) sim_rate=36614 (inst/sec) elapsed = 0:0:01:41 / Tue Mar 22 07:03:02 2016
GPGPU-Sim uArch: cycles simulated: 185000  inst.: 3722272 (ipc=20.1) sim_rate=36492 (inst/sec) elapsed = 0:0:01:42 / Tue Mar 22 07:03:03 2016
GPGPU-Sim PTX: 3800000 instructions simulated : ctaid=(2,1,0) tid=(127,0,0)
GPGPU-Sim uArch: cycles simulated: 187000  inst.: 3757056 (ipc=20.1) sim_rate=36476 (inst/sec) elapsed = 0:0:01:43 / Tue Mar 22 07:03:04 2016
GPGPU-Sim uArch: cycles simulated: 188500  inst.: 3786816 (ipc=20.1) sim_rate=36411 (inst/sec) elapsed = 0:0:01:44 / Tue Mar 22 07:03:05 2016
GPGPU-Sim uArch: cycles simulated: 190500  inst.: 3815168 (ipc=20.0) sim_rate=36334 (inst/sec) elapsed = 0:0:01:45 / Tue Mar 22 07:03:06 2016
GPGPU-Sim uArch: cycles simulated: 192500  inst.: 3848064 (ipc=20.0) sim_rate=36302 (inst/sec) elapsed = 0:0:01:46 / Tue Mar 22 07:03:07 2016
GPGPU-Sim PTX: 3900000 instructions simulated : ctaid=(4,1,0) tid=(31,0,0)
GPGPU-Sim uArch: cycles simulated: 194000  inst.: 3873792 (ipc=20.0) sim_rate=36203 (inst/sec) elapsed = 0:0:01:47 / Tue Mar 22 07:03:08 2016
GPGPU-Sim uArch: cycles simulated: 196000  inst.: 3907072 (ipc=19.9) sim_rate=36176 (inst/sec) elapsed = 0:0:01:48 / Tue Mar 22 07:03:09 2016
GPGPU-Sim uArch: cycles simulated: 197500  inst.: 3936128 (ipc=19.9) sim_rate=36111 (inst/sec) elapsed = 0:0:01:49 / Tue Mar 22 07:03:10 2016
GPGPU-Sim PTX: 4000000 instructions simulated : ctaid=(2,1,0) tid=(159,0,0)
GPGPU-Sim uArch: cycles simulated: 199500  inst.: 3972448 (ipc=19.9) sim_rate=36113 (inst/sec) elapsed = 0:0:01:50 / Tue Mar 22 07:03:11 2016
GPGPU-Sim uArch: cycles simulated: 201000  inst.: 4000992 (ipc=19.9) sim_rate=36044 (inst/sec) elapsed = 0:0:01:51 / Tue Mar 22 07:03:12 2016
GPGPU-Sim uArch: cycles simulated: 203000  inst.: 4040096 (ipc=19.9) sim_rate=36072 (inst/sec) elapsed = 0:0:01:52 / Tue Mar 22 07:03:13 2016
GPGPU-Sim PTX: 4100000 instructions simulated : ctaid=(3,1,0) tid=(31,0,0)
GPGPU-Sim uArch: cycles simulated: 205000  inst.: 4073632 (ipc=19.9) sim_rate=36049 (inst/sec) elapsed = 0:0:01:53 / Tue Mar 22 07:03:14 2016
GPGPU-Sim uArch: cycles simulated: 206500  inst.: 4099456 (ipc=19.9) sim_rate=35960 (inst/sec) elapsed = 0:0:01:54 / Tue Mar 22 07:03:15 2016
GPGPU-Sim uArch: cycles simulated: 208500  inst.: 4139520 (ipc=19.9) sim_rate=35995 (inst/sec) elapsed = 0:0:01:55 / Tue Mar 22 07:03:16 2016
GPGPU-Sim PTX: 4200000 instructions simulated : ctaid=(1,0,0) tid=(223,0,0)
GPGPU-Sim uArch: cycles simulated: 210000  inst.: 4168576 (ipc=19.9) sim_rate=35936 (inst/sec) elapsed = 0:0:01:56 / Tue Mar 22 07:03:17 2016
GPGPU-Sim uArch: cycles simulated: 212000  inst.: 4198560 (ipc=19.8) sim_rate=35885 (inst/sec) elapsed = 0:0:01:57 / Tue Mar 22 07:03:18 2016
GPGPU-Sim uArch: cycles simulated: 213500  inst.: 4229728 (ipc=19.8) sim_rate=35845 (inst/sec) elapsed = 0:0:01:58 / Tue Mar 22 07:03:19 2016
GPGPU-Sim PTX: 4300000 instructions simulated : ctaid=(3,0,0) tid=(95,0,0)
GPGPU-Sim uArch: cycles simulated: 215500  inst.: 4265856 (ipc=19.8) sim_rate=35847 (inst/sec) elapsed = 0:0:01:59 / Tue Mar 22 07:03:20 2016
GPGPU-Sim uArch: cycles simulated: 217000  inst.: 4294496 (ipc=19.8) sim_rate=35787 (inst/sec) elapsed = 0:0:02:00 / Tue Mar 22 07:03:21 2016
GPGPU-Sim uArch: cycles simulated: 219000  inst.: 4331264 (ipc=19.8) sim_rate=35795 (inst/sec) elapsed = 0:0:02:01 / Tue Mar 22 07:03:22 2016
GPGPU-Sim PTX: 4400000 instructions simulated : ctaid=(5,0,0) tid=(31,0,0)
GPGPU-Sim uArch: cycles simulated: 220500  inst.: 4358240 (ipc=19.8) sim_rate=35723 (inst/sec) elapsed = 0:0:02:02 / Tue Mar 22 07:03:23 2016
GPGPU-Sim uArch: cycles simulated: 222500  inst.: 4390912 (ipc=19.7) sim_rate=35698 (inst/sec) elapsed = 0:0:02:03 / Tue Mar 22 07:03:24 2016
GPGPU-Sim uArch: cycles simulated: 224000  inst.: 4419776 (ipc=19.7) sim_rate=35643 (inst/sec) elapsed = 0:0:02:04 / Tue Mar 22 07:03:25 2016
GPGPU-Sim PTX: 4500000 instructions simulated : ctaid=(3,2,0) tid=(31,0,0)
GPGPU-Sim uArch: cycles simulated: 226000  inst.: 4456320 (ipc=19.7) sim_rate=35650 (inst/sec) elapsed = 0:0:02:05 / Tue Mar 22 07:03:26 2016
GPGPU-Sim uArch: cycles simulated: 228000  inst.: 4488256 (ipc=19.7) sim_rate=35621 (inst/sec) elapsed = 0:0:02:06 / Tue Mar 22 07:03:27 2016
GPGPU-Sim uArch: cycles simulated: 229500  inst.: 4519008 (ipc=19.7) sim_rate=35582 (inst/sec) elapsed = 0:0:02:07 / Tue Mar 22 07:03:28 2016
GPGPU-Sim PTX: 4600000 instructions simulated : ctaid=(4,0,0) tid=(159,0,0)
GPGPU-Sim uArch: cycles simulated: 231500  inst.: 4553952 (ipc=19.7) sim_rate=35577 (inst/sec) elapsed = 0:0:02:08 / Tue Mar 22 07:03:29 2016
GPGPU-Sim uArch: cycles simulated: 233500  inst.: 4591072 (ipc=19.7) sim_rate=35589 (inst/sec) elapsed = 0:0:02:09 / Tue Mar 22 07:03:30 2016
GPGPU-Sim uArch: cycles simulated: 235000  inst.: 4619776 (ipc=19.7) sim_rate=35536 (inst/sec) elapsed = 0:0:02:10 / Tue Mar 22 07:03:31 2016
GPGPU-Sim PTX: 4700000 instructions simulated : ctaid=(7,0,0) tid=(159,0,0)
GPGPU-Sim uArch: cycles simulated: 237000  inst.: 4656800 (ipc=19.6) sim_rate=35548 (inst/sec) elapsed = 0:0:02:11 / Tue Mar 22 07:03:32 2016
GPGPU-Sim uArch: cycles simulated: 239000  inst.: 4692352 (ipc=19.6) sim_rate=35548 (inst/sec) elapsed = 0:0:02:12 / Tue Mar 22 07:03:33 2016
GPGPU-Sim uArch: cycles simulated: 241000  inst.: 4725216 (ipc=19.6) sim_rate=35527 (inst/sec) elapsed = 0:0:02:13 / Tue Mar 22 07:03:34 2016
GPGPU-Sim uArch: cycles simulated: 242500  inst.: 4748416 (ipc=19.6) sim_rate=35435 (inst/sec) elapsed = 0:0:02:14 / Tue Mar 22 07:03:35 2016
GPGPU-Sim PTX: 4800000 instructions simulated : ctaid=(9,1,0) tid=(31,0,0)
GPGPU-Sim uArch: cycles simulated: 244500  inst.: 4783296 (ipc=19.6) sim_rate=35431 (inst/sec) elapsed = 0:0:02:15 / Tue Mar 22 07:03:36 2016
GPGPU-Sim uArch: cycles simulated: 246500  inst.: 4817888 (ipc=19.5) sim_rate=35425 (inst/sec) elapsed = 0:0:02:16 / Tue Mar 22 07:03:37 2016
GPGPU-Sim uArch: cycles simulated: 248000  inst.: 4845888 (ipc=19.5) sim_rate=35371 (inst/sec) elapsed = 0:0:02:17 / Tue Mar 22 07:03:38 2016
GPGPU-Sim PTX: 4900000 instructions simulated : ctaid=(9,0,0) tid=(31,0,0)
GPGPU-Sim uArch: cycles simulated: 250000  inst.: 4877952 (ipc=19.5) sim_rate=35347 (inst/sec) elapsed = 0:0:02:18 / Tue Mar 22 07:03:39 2016
GPGPU-Sim uArch: cycles simulated: 252000  inst.: 4912608 (ipc=19.5) sim_rate=35342 (inst/sec) elapsed = 0:0:02:19 / Tue Mar 22 07:03:40 2016
GPGPU-Sim uArch: cycles simulated: 253500  inst.: 4937664 (ipc=19.5) sim_rate=35269 (inst/sec) elapsed = 0:0:02:20 / Tue Mar 22 07:03:41 2016
GPGPU-Sim PTX: 5000000 instructions simulated : ctaid=(5,0,0) tid=(159,0,0)
GPGPU-Sim uArch: cycles simulated: 255500  inst.: 4977152 (ipc=19.5) sim_rate=35298 (inst/sec) elapsed = 0:0:02:21 / Tue Mar 22 07:03:42 2016
GPGPU-Sim uArch: cycles simulated: 257500  inst.: 5007904 (ipc=19.4) sim_rate=35266 (inst/sec) elapsed = 0:0:02:22 / Tue Mar 22 07:03:43 2016
GPGPU-Sim uArch: cycles simulated: 259000  inst.: 5036384 (ipc=19.4) sim_rate=35219 (inst/sec) elapsed = 0:0:02:23 / Tue Mar 22 07:03:44 2016
GPGPU-Sim PTX: 5100000 instructions simulated : ctaid=(8,0,0) tid=(95,0,0)
GPGPU-Sim uArch: cycles simulated: 261000  inst.: 5073984 (ipc=19.4) sim_rate=35236 (inst/sec) elapsed = 0:0:02:24 / Tue Mar 22 07:03:45 2016
GPGPU-Sim uArch: cycles simulated: 263000  inst.: 5114656 (ipc=19.4) sim_rate=35273 (inst/sec) elapsed = 0:0:02:25 / Tue Mar 22 07:03:46 2016
GPGPU-Sim uArch: cycles simulated: 264500  inst.: 5140768 (ipc=19.4) sim_rate=35210 (inst/sec) elapsed = 0:0:02:26 / Tue Mar 22 07:03:47 2016
GPGPU-Sim PTX: 5200000 instructions simulated : ctaid=(6,0,0) tid=(31,0,0)
GPGPU-Sim uArch: cycles simulated: 266500  inst.: 5177280 (ipc=19.4) sim_rate=35219 (inst/sec) elapsed = 0:0:02:27 / Tue Mar 22 07:03:48 2016
GPGPU-Sim uArch: cycles simulated: 268500  inst.: 5213248 (ipc=19.4) sim_rate=35224 (inst/sec) elapsed = 0:0:02:28 / Tue Mar 22 07:03:49 2016
GPGPU-Sim uArch: cycles simulated: 270500  inst.: 5245312 (ipc=19.4) sim_rate=35203 (inst/sec) elapsed = 0:0:02:29 / Tue Mar 22 07:03:50 2016
GPGPU-Sim PTX: 5300000 instructions simulated : ctaid=(6,2,0) tid=(223,0,0)
GPGPU-Sim uArch: cycles simulated: 272000  inst.: 5269312 (ipc=19.4) sim_rate=35128 (inst/sec) elapsed = 0:0:02:30 / Tue Mar 22 07:03:51 2016
GPGPU-Sim uArch: cycles simulated: 274000  inst.: 5301632 (ipc=19.3) sim_rate=35110 (inst/sec) elapsed = 0:0:02:31 / Tue Mar 22 07:03:52 2016
GPGPU-Sim uArch: cycles simulated: 276000  inst.: 5336192 (ipc=19.3) sim_rate=35106 (inst/sec) elapsed = 0:0:02:32 / Tue Mar 22 07:03:53 2016
GPGPU-Sim PTX: 5400000 instructions simulated : ctaid=(7,0,0) tid=(95,0,0)
GPGPU-Sim uArch: cycles simulated: 277500  inst.: 5364800 (ipc=19.3) sim_rate=35064 (inst/sec) elapsed = 0:0:02:33 / Tue Mar 22 07:03:54 2016
GPGPU-Sim uArch: cycles simulated: 279500  inst.: 5399488 (ipc=19.3) sim_rate=35061 (inst/sec) elapsed = 0:0:02:34 / Tue Mar 22 07:03:55 2016
GPGPU-Sim uArch: cycles simulated: 281500  inst.: 5439840 (ipc=19.3) sim_rate=35095 (inst/sec) elapsed = 0:0:02:35 / Tue Mar 22 07:03:56 2016
GPGPU-Sim PTX: 5500000 instructions simulated : ctaid=(0,0,0) tid=(95,0,0)
GPGPU-Sim uArch: cycles simulated: 283000  inst.: 5463360 (ipc=19.3) sim_rate=35021 (inst/sec) elapsed = 0:0:02:36 / Tue Mar 22 07:03:57 2016
GPGPU-Sim uArch: cycles simulated: 285000  inst.: 5499616 (ipc=19.3) sim_rate=35029 (inst/sec) elapsed = 0:0:02:37 / Tue Mar 22 07:03:58 2016
GPGPU-Sim uArch: cycles simulated: 287000  inst.: 5531392 (ipc=19.3) sim_rate=35008 (inst/sec) elapsed = 0:0:02:38 / Tue Mar 22 07:03:59 2016
GPGPU-Sim PTX: 5600000 instructions simulated : ctaid=(8,0,0) tid=(223,0,0)
GPGPU-Sim uArch: cycles simulated: 288500  inst.: 5559808 (ipc=19.3) sim_rate=34967 (inst/sec) elapsed = 0:0:02:39 / Tue Mar 22 07:04:00 2016
GPGPU-Sim uArch: cycles simulated: 290500  inst.: 5592992 (ipc=19.3) sim_rate=34956 (inst/sec) elapsed = 0:0:02:40 / Tue Mar 22 07:04:01 2016
GPGPU-Sim uArch: cycles simulated: 292500  inst.: 5627808 (ipc=19.2) sim_rate=34955 (inst/sec) elapsed = 0:0:02:41 / Tue Mar 22 07:04:02 2016
GPGPU-Sim PTX: 5700000 instructions simulated : ctaid=(6,0,0) tid=(127,0,0)
GPGPU-Sim uArch: cycles simulated: 294500  inst.: 5667648 (ipc=19.2) sim_rate=34985 (inst/sec) elapsed = 0:0:02:42 / Tue Mar 22 07:04:03 2016
GPGPU-Sim uArch: cycles simulated: 296000  inst.: 5697024 (ipc=19.2) sim_rate=34951 (inst/sec) elapsed = 0:0:02:43 / Tue Mar 22 07:04:04 2016
GPGPU-Sim uArch: cycles simulated: 298000  inst.: 5732544 (ipc=19.2) sim_rate=34954 (inst/sec) elapsed = 0:0:02:44 / Tue Mar 22 07:04:05 2016
GPGPU-Sim PTX: 5800000 instructions simulated : ctaid=(6,0,0) tid=(95,0,0)
GPGPU-Sim uArch: cycles simulated: 300000  inst.: 5765696 (ipc=19.2) sim_rate=34943 (inst/sec) elapsed = 0:0:02:45 / Tue Mar 22 07:04:06 2016
GPGPU-Sim uArch: cycles simulated: 301500  inst.: 5792672 (ipc=19.2) sim_rate=34895 (inst/sec) elapsed = 0:0:02:46 / Tue Mar 22 07:04:07 2016
GPGPU-Sim uArch: cycles simulated: 303500  inst.: 5829728 (ipc=19.2) sim_rate=34908 (inst/sec) elapsed = 0:0:02:47 / Tue Mar 22 07:04:08 2016
GPGPU-Sim PTX: 5900000 instructions simulated : ctaid=(10,0,0) tid=(63,0,0)
GPGPU-Sim uArch: cycles simulated: 305500  inst.: 5867776 (ipc=19.2) sim_rate=34927 (inst/sec) elapsed = 0:0:02:48 / Tue Mar 22 07:04:09 2016
GPGPU-Sim uArch: cycles simulated: 307000  inst.: 5893920 (ipc=19.2) sim_rate=34875 (inst/sec) elapsed = 0:0:02:49 / Tue Mar 22 07:04:10 2016
GPGPU-Sim uArch: cycles simulated: 309000  inst.: 5929472 (ipc=19.2) sim_rate=34879 (inst/sec) elapsed = 0:0:02:50 / Tue Mar 22 07:04:11 2016
GPGPU-Sim PTX: 6000000 instructions simulated : ctaid=(10,0,0) tid=(159,0,0)
GPGPU-Sim uArch: cycles simulated: 311000  inst.: 5961536 (ipc=19.2) sim_rate=34862 (inst/sec) elapsed = 0:0:02:51 / Tue Mar 22 07:04:12 2016
GPGPU-Sim uArch: cycles simulated: 312500  inst.: 5985312 (ipc=19.2) sim_rate=34798 (inst/sec) elapsed = 0:0:02:52 / Tue Mar 22 07:04:13 2016
GPGPU-Sim uArch: cycles simulated: 314500  inst.: 6022784 (ipc=19.2) sim_rate=34813 (inst/sec) elapsed = 0:0:02:53 / Tue Mar 22 07:04:14 2016
GPGPU-Sim PTX: 6100000 instructions simulated : ctaid=(1,1,0) tid=(31,0,0)
GPGPU-Sim uArch: cycles simulated: 316500  inst.: 6060000 (ipc=19.1) sim_rate=34827 (inst/sec) elapsed = 0:0:02:54 / Tue Mar 22 07:04:15 2016
GPGPU-Sim uArch: cycles simulated: 318000  inst.: 6081440 (ipc=19.1) sim_rate=34751 (inst/sec) elapsed = 0:0:02:55 / Tue Mar 22 07:04:16 2016
GPGPU-Sim uArch: cycles simulated: 320000  inst.: 6116800 (ipc=19.1) sim_rate=34754 (inst/sec) elapsed = 0:0:02:56 / Tue Mar 22 07:04:17 2016
GPGPU-Sim PTX: 6200000 instructions simulated : ctaid=(2,1,0) tid=(31,0,0)
GPGPU-Sim uArch: cycles simulated: 322000  inst.: 6149120 (ipc=19.1) sim_rate=34740 (inst/sec) elapsed = 0:0:02:57 / Tue Mar 22 07:04:18 2016
GPGPU-Sim uArch: cycles simulated: 323500  inst.: 6173344 (ipc=19.1) sim_rate=34681 (inst/sec) elapsed = 0:0:02:58 / Tue Mar 22 07:04:19 2016
GPGPU-Sim uArch: cycles simulated: 325500  inst.: 6206464 (ipc=19.1) sim_rate=34672 (inst/sec) elapsed = 0:0:02:59 / Tue Mar 22 07:04:20 2016
GPGPU-Sim uArch: cycles simulated: 327500  inst.: 6238528 (ipc=19.0) sim_rate=34658 (inst/sec) elapsed = 0:0:03:00 / Tue Mar 22 07:04:21 2016
GPGPU-Sim PTX: 6300000 instructions simulated : ctaid=(2,0,0) tid=(223,0,0)
GPGPU-Sim uArch: cycles simulated: 329500  inst.: 6272192 (ipc=19.0) sim_rate=34652 (inst/sec) elapsed = 0:0:03:01 / Tue Mar 22 07:04:22 2016
GPGPU-Sim uArch: cycles simulated: 331000  inst.: 6297024 (ipc=19.0) sim_rate=34599 (inst/sec) elapsed = 0:0:03:02 / Tue Mar 22 07:04:23 2016
GPGPU-Sim uArch: cycles simulated: 333000  inst.: 6325472 (ipc=19.0) sim_rate=34565 (inst/sec) elapsed = 0:0:03:03 / Tue Mar 22 07:04:24 2016
GPGPU-Sim PTX: 6400000 instructions simulated : ctaid=(4,0,0) tid=(95,0,0)
GPGPU-Sim uArch: cycles simulated: 335000  inst.: 6361280 (ipc=19.0) sim_rate=34572 (inst/sec) elapsed = 0:0:03:04 / Tue Mar 22 07:04:25 2016
GPGPU-Sim uArch: cycles simulated: 336500  inst.: 6386144 (ipc=19.0) sim_rate=34519 (inst/sec) elapsed = 0:0:03:05 / Tue Mar 22 07:04:26 2016
GPGPU-Sim uArch: cycles simulated: 338500  inst.: 6423232 (ipc=19.0) sim_rate=34533 (inst/sec) elapsed = 0:0:03:06 / Tue Mar 22 07:04:27 2016
GPGPU-Sim PTX: 6500000 instructions simulated : ctaid=(6,2,0) tid=(159,0,0)
GPGPU-Sim uArch: cycles simulated: 340500  inst.: 6457600 (ipc=19.0) sim_rate=34532 (inst/sec) elapsed = 0:0:03:07 / Tue Mar 22 07:04:28 2016
GPGPU-Sim uArch: cycles simulated: 342000  inst.: 6477824 (ipc=18.9) sim_rate=34456 (inst/sec) elapsed = 0:0:03:08 / Tue Mar 22 07:04:29 2016
GPGPU-Sim uArch: cycles simulated: 344000  inst.: 6515360 (ipc=18.9) sim_rate=34472 (inst/sec) elapsed = 0:0:03:09 / Tue Mar 22 07:04:30 2016
GPGPU-Sim PTX: 6600000 instructions simulated : ctaid=(3,2,0) tid=(223,0,0)
GPGPU-Sim uArch: cycles simulated: 346000  inst.: 6547392 (ipc=18.9) sim_rate=34459 (inst/sec) elapsed = 0:0:03:10 / Tue Mar 22 07:04:31 2016
GPGPU-Sim uArch: cycles simulated: 348000  inst.: 6579840 (ipc=18.9) sim_rate=34449 (inst/sec) elapsed = 0:0:03:11 / Tue Mar 22 07:04:32 2016
GPGPU-Sim uArch: cycles simulated: 349500  inst.: 6603328 (ipc=18.9) sim_rate=34392 (inst/sec) elapsed = 0:0:03:12 / Tue Mar 22 07:04:33 2016
GPGPU-Sim uArch: cycles simulated: 351500  inst.: 6641504 (ipc=18.9) sim_rate=34411 (inst/sec) elapsed = 0:0:03:13 / Tue Mar 22 07:04:34 2016
GPGPU-Sim PTX: 6700000 instructions simulated : ctaid=(4,0,0) tid=(223,0,0)
GPGPU-Sim uArch: cycles simulated: 353500  inst.: 6673664 (ipc=18.9) sim_rate=34400 (inst/sec) elapsed = 0:0:03:14 / Tue Mar 22 07:04:35 2016
GPGPU-Sim uArch: cycles simulated: 355000  inst.: 6702816 (ipc=18.9) sim_rate=34373 (inst/sec) elapsed = 0:0:03:15 / Tue Mar 22 07:04:36 2016
GPGPU-Sim uArch: cycles simulated: 357000  inst.: 6738560 (ipc=18.9) sim_rate=34380 (inst/sec) elapsed = 0:0:03:16 / Tue Mar 22 07:04:37 2016
GPGPU-Sim PTX: 6800000 instructions simulated : ctaid=(5,2,0) tid=(95,0,0)
GPGPU-Sim uArch: cycles simulated: 359000  inst.: 6773568 (ipc=18.9) sim_rate=34383 (inst/sec) elapsed = 0:0:03:17 / Tue Mar 22 07:04:38 2016
GPGPU-Sim uArch: cycles simulated: 360500  inst.: 6796800 (ipc=18.9) sim_rate=34327 (inst/sec) elapsed = 0:0:03:18 / Tue Mar 22 07:04:39 2016
GPGPU-Sim uArch: cycles simulated: 362500  inst.: 6834560 (ipc=18.9) sim_rate=34344 (inst/sec) elapsed = 0:0:03:19 / Tue Mar 22 07:04:40 2016
GPGPU-Sim PTX: 6900000 instructions simulated : ctaid=(10,0,0) tid=(31,0,0)
GPGPU-Sim uArch: cycles simulated: 364500  inst.: 6868000 (ipc=18.8) sim_rate=34340 (inst/sec) elapsed = 0:0:03:20 / Tue Mar 22 07:04:41 2016
GPGPU-Sim uArch: cycles simulated: 366000  inst.: 6892416 (ipc=18.8) sim_rate=34290 (inst/sec) elapsed = 0:0:03:21 / Tue Mar 22 07:04:42 2016
GPGPU-Sim uArch: cycles simulated: 368000  inst.: 6934368 (ipc=18.8) sim_rate=34328 (inst/sec) elapsed = 0:0:03:22 / Tue Mar 22 07:04:43 2016
GPGPU-Sim PTX: 7000000 instructions simulated : ctaid=(1,3,0) tid=(31,0,0)
GPGPU-Sim uArch: cycles simulated: 370000  inst.: 6966432 (ipc=18.8) sim_rate=34317 (inst/sec) elapsed = 0:0:03:23 / Tue Mar 22 07:04:44 2016
GPGPU-Sim uArch: cycles simulated: 371500  inst.: 6996544 (ipc=18.8) sim_rate=34296 (inst/sec) elapsed = 0:0:03:24 / Tue Mar 22 07:04:45 2016
GPGPU-Sim uArch: cycles simulated: 373500  inst.: 7026400 (ipc=18.8) sim_rate=34275 (inst/sec) elapsed = 0:0:03:25 / Tue Mar 22 07:04:46 2016
GPGPU-Sim PTX: 7100000 instructions simulated : ctaid=(1,1,0) tid=(223,0,0)
GPGPU-Sim uArch: cycles simulated: 375500  inst.: 7067712 (ipc=18.8) sim_rate=34309 (inst/sec) elapsed = 0:0:03:26 / Tue Mar 22 07:04:47 2016
GPGPU-Sim uArch: cycles simulated: 377000  inst.: 7095200 (ipc=18.8) sim_rate=34276 (inst/sec) elapsed = 0:0:03:27 / Tue Mar 22 07:04:48 2016
GPGPU-Sim uArch: cycles simulated: 379000  inst.: 7127488 (ipc=18.8) sim_rate=34266 (inst/sec) elapsed = 0:0:03:28 / Tue Mar 22 07:04:49 2016
GPGPU-Sim PTX: 7200000 instructions simulated : ctaid=(4,1,0) tid=(223,0,0)
GPGPU-Sim uArch: cycles simulated: 381000  inst.: 7158976 (ipc=18.8) sim_rate=34253 (inst/sec) elapsed = 0:0:03:29 / Tue Mar 22 07:04:50 2016
GPGPU-Sim uArch: cycles simulated: 382500  inst.: 7181120 (ipc=18.8) sim_rate=34195 (inst/sec) elapsed = 0:0:03:30 / Tue Mar 22 07:04:51 2016
GPGPU-Sim uArch: cycles simulated: 384500  inst.: 7223104 (ipc=18.8) sim_rate=34232 (inst/sec) elapsed = 0:0:03:31 / Tue Mar 22 07:04:52 2016
GPGPU-Sim PTX: 7300000 instructions simulated : ctaid=(3,2,0) tid=(95,0,0)
GPGPU-Sim uArch: cycles simulated: 386500  inst.: 7254048 (ipc=18.8) sim_rate=34217 (inst/sec) elapsed = 0:0:03:32 / Tue Mar 22 07:04:53 2016
GPGPU-Sim uArch: cycles simulated: 388000  inst.: 7280800 (ipc=18.8) sim_rate=34182 (inst/sec) elapsed = 0:0:03:33 / Tue Mar 22 07:04:54 2016
GPGPU-Sim uArch: cycles simulated: 390000  inst.: 7313472 (ipc=18.8) sim_rate=34175 (inst/sec) elapsed = 0:0:03:34 / Tue Mar 22 07:04:55 2016
GPGPU-Sim PTX: 7400000 instructions simulated : ctaid=(3,2,0) tid=(223,0,0)
GPGPU-Sim uArch: cycles simulated: 392000  inst.: 7356608 (ipc=18.8) sim_rate=34216 (inst/sec) elapsed = 0:0:03:35 / Tue Mar 22 07:04:56 2016
GPGPU-Sim uArch: cycles simulated: 393500  inst.: 7381376 (ipc=18.8) sim_rate=34173 (inst/sec) elapsed = 0:0:03:36 / Tue Mar 22 07:04:57 2016
GPGPU-Sim uArch: cycles simulated: 395500  inst.: 7419136 (ipc=18.8) sim_rate=34189 (inst/sec) elapsed = 0:0:03:37 / Tue Mar 22 07:04:58 2016
GPGPU-Sim PTX: 7500000 instructions simulated : ctaid=(5,1,0) tid=(95,0,0)
GPGPU-Sim uArch: cycles simulated: 397500  inst.: 7449760 (ipc=18.7) sim_rate=34173 (inst/sec) elapsed = 0:0:03:38 / Tue Mar 22 07:04:59 2016
GPGPU-Sim uArch: cycles simulated: 399000  inst.: 7474720 (ipc=18.7) sim_rate=34131 (inst/sec) elapsed = 0:0:03:39 / Tue Mar 22 07:05:00 2016
GPGPU-Sim uArch: cycles simulated: 401000  inst.: 7507584 (ipc=18.7) sim_rate=34125 (inst/sec) elapsed = 0:0:03:40 / Tue Mar 22 07:05:01 2016
GPGPU-Sim PTX: 7600000 instructions simulated : ctaid=(3,1,0) tid=(95,0,0)
GPGPU-Sim uArch: cycles simulated: 403000  inst.: 7546176 (ipc=18.7) sim_rate=34145 (inst/sec) elapsed = 0:0:03:41 / Tue Mar 22 07:05:02 2016
GPGPU-Sim uArch: cycles simulated: 404500  inst.: 7570560 (ipc=18.7) sim_rate=34101 (inst/sec) elapsed = 0:0:03:42 / Tue Mar 22 07:05:03 2016
GPGPU-Sim uArch: cycles simulated: 406500  inst.: 7608384 (ipc=18.7) sim_rate=34118 (inst/sec) elapsed = 0:0:03:43 / Tue Mar 22 07:05:04 2016
GPGPU-Sim uArch: cycles simulated: 408500  inst.: 7638848 (ipc=18.7) sim_rate=34102 (inst/sec) elapsed = 0:0:03:44 / Tue Mar 22 07:05:05 2016
GPGPU-Sim PTX: 7700000 instructions simulated : ctaid=(4,2,0) tid=(95,0,0)
GPGPU-Sim uArch: cycles simulated: 410000  inst.: 7663040 (ipc=18.7) sim_rate=34057 (inst/sec) elapsed = 0:0:03:45 / Tue Mar 22 07:05:06 2016
GPGPU-Sim uArch: cycles simulated: 412000  inst.: 7703328 (ipc=18.7) sim_rate=34085 (inst/sec) elapsed = 0:0:03:46 / Tue Mar 22 07:05:07 2016
GPGPU-Sim uArch: cycles simulated: 414000  inst.: 7737632 (ipc=18.7) sim_rate=34086 (inst/sec) elapsed = 0:0:03:47 / Tue Mar 22 07:05:08 2016
GPGPU-Sim PTX: 7800000 instructions simulated : ctaid=(6,2,0) tid=(95,0,0)
GPGPU-Sim uArch: cycles simulated: 415500  inst.: 7768704 (ipc=18.7) sim_rate=34073 (inst/sec) elapsed = 0:0:03:48 / Tue Mar 22 07:05:09 2016
GPGPU-Sim uArch: cycles simulated: 417500  inst.: 7800576 (ipc=18.7) sim_rate=34063 (inst/sec) elapsed = 0:0:03:49 / Tue Mar 22 07:05:10 2016
GPGPU-Sim uArch: cycles simulated: 419500  inst.: 7836384 (ipc=18.7) sim_rate=34071 (inst/sec) elapsed = 0:0:03:50 / Tue Mar 22 07:05:11 2016
GPGPU-Sim PTX: 7900000 instructions simulated : ctaid=(8,0,0) tid=(159,0,0)
GPGPU-Sim uArch: cycles simulated: 421000  inst.: 7865568 (ipc=18.7) sim_rate=34050 (inst/sec) elapsed = 0:0:03:51 / Tue Mar 22 07:05:12 2016
GPGPU-Sim uArch: cycles simulated: 423000  inst.: 7905792 (ipc=18.7) sim_rate=34076 (inst/sec) elapsed = 0:0:03:52 / Tue Mar 22 07:05:13 2016
GPGPU-Sim uArch: cycles simulated: 425000  inst.: 7939456 (ipc=18.7) sim_rate=34074 (inst/sec) elapsed = 0:0:03:53 / Tue Mar 22 07:05:14 2016
GPGPU-Sim PTX: 8000000 instructions simulated : ctaid=(1,1,0) tid=(31,0,0)
GPGPU-Sim uArch: cycles simulated: 426500  inst.: 7962752 (ipc=18.7) sim_rate=34028 (inst/sec) elapsed = 0:0:03:54 / Tue Mar 22 07:05:15 2016
GPGPU-Sim uArch: cycles simulated: 428500  inst.: 7998336 (ipc=18.7) sim_rate=34035 (inst/sec) elapsed = 0:0:03:55 / Tue Mar 22 07:05:16 2016
GPGPU-Sim uArch: cycles simulated: 430500  inst.: 8034112 (ipc=18.7) sim_rate=34042 (inst/sec) elapsed = 0:0:03:56 / Tue Mar 22 07:05:17 2016
GPGPU-Sim PTX: 8100000 instructions simulated : ctaid=(6,0,0) tid=(63,0,0)
GPGPU-Sim uArch: cycles simulated: 432000  inst.: 8061248 (ipc=18.7) sim_rate=34013 (inst/sec) elapsed = 0:0:03:57 / Tue Mar 22 07:05:18 2016
GPGPU-Sim uArch: cycles simulated: 434000  inst.: 8092992 (ipc=18.6) sim_rate=34004 (inst/sec) elapsed = 0:0:03:58 / Tue Mar 22 07:05:19 2016
GPGPU-Sim uArch: cycles simulated: 436000  inst.: 8126016 (ipc=18.6) sim_rate=34000 (inst/sec) elapsed = 0:0:03:59 / Tue Mar 22 07:05:20 2016
GPGPU-Sim PTX: 8200000 instructions simulated : ctaid=(9,0,0) tid=(31,0,0)
GPGPU-Sim uArch: cycles simulated: 437500  inst.: 8150144 (ipc=18.6) sim_rate=33958 (inst/sec) elapsed = 0:0:04:00 / Tue Mar 22 07:05:21 2016
GPGPU-Sim uArch: cycles simulated: 439500  inst.: 8183808 (ipc=18.6) sim_rate=33957 (inst/sec) elapsed = 0:0:04:01 / Tue Mar 22 07:05:22 2016
GPGPU-Sim uArch: cycles simulated: 441500  inst.: 8218688 (ipc=18.6) sim_rate=33961 (inst/sec) elapsed = 0:0:04:02 / Tue Mar 22 07:05:23 2016
GPGPU-Sim uArch: cycles simulated: 443000  inst.: 8241504 (ipc=18.6) sim_rate=33915 (inst/sec) elapsed = 0:0:04:03 / Tue Mar 22 07:05:24 2016
GPGPU-Sim PTX: 8300000 instructions simulated : ctaid=(7,2,0) tid=(31,0,0)
GPGPU-Sim uArch: cycles simulated: 445000  inst.: 8277728 (ipc=18.6) sim_rate=33925 (inst/sec) elapsed = 0:0:04:04 / Tue Mar 22 07:05:25 2016
GPGPU-Sim uArch: cycles simulated: 447000  inst.: 8308288 (ipc=18.6) sim_rate=33911 (inst/sec) elapsed = 0:0:04:05 / Tue Mar 22 07:05:26 2016
GPGPU-Sim uArch: cycles simulated: 448500  inst.: 8336288 (ipc=18.6) sim_rate=33887 (inst/sec) elapsed = 0:0:04:06 / Tue Mar 22 07:05:27 2016
GPGPU-Sim PTX: 8400000 instructions simulated : ctaid=(3,1,0) tid=(159,0,0)
GPGPU-Sim uArch: cycles simulated: 450500  inst.: 8372864 (ipc=18.6) sim_rate=33898 (inst/sec) elapsed = 0:0:04:07 / Tue Mar 22 07:05:28 2016
GPGPU-Sim uArch: cycles simulated: 452500  inst.: 8404832 (ipc=18.6) sim_rate=33890 (inst/sec) elapsed = 0:0:04:08 / Tue Mar 22 07:05:29 2016
GPGPU-Sim uArch: cycles simulated: 454500  inst.: 8435680 (ipc=18.6) sim_rate=33878 (inst/sec) elapsed = 0:0:04:09 / Tue Mar 22 07:05:30 2016
GPGPU-Sim PTX: 8500000 instructions simulated : ctaid=(2,1,0) tid=(223,0,0)
GPGPU-Sim uArch: cycles simulated: 456000  inst.: 8458784 (ipc=18.5) sim_rate=33835 (inst/sec) elapsed = 0:0:04:10 / Tue Mar 22 07:05:31 2016
GPGPU-Sim uArch: cycles simulated: 458000  inst.: 8491744 (ipc=18.5) sim_rate=33831 (inst/sec) elapsed = 0:0:04:11 / Tue Mar 22 07:05:32 2016
GPGPU-Sim uArch: cycles simulated: 460000  inst.: 8522016 (ipc=18.5) sim_rate=33817 (inst/sec) elapsed = 0:0:04:12 / Tue Mar 22 07:05:33 2016
GPGPU-Sim PTX: 8600000 instructions simulated : ctaid=(4,2,0) tid=(31,0,0)
GPGPU-Sim uArch: cycles simulated: 461500  inst.: 8547936 (ipc=18.5) sim_rate=33786 (inst/sec) elapsed = 0:0:04:13 / Tue Mar 22 07:05:34 2016
GPGPU-Sim uArch: cycles simulated: 463500  inst.: 8582240 (ipc=18.5) sim_rate=33788 (inst/sec) elapsed = 0:0:04:14 / Tue Mar 22 07:05:35 2016
GPGPU-Sim uArch: cycles simulated: 465500  inst.: 8613344 (ipc=18.5) sim_rate=33777 (inst/sec) elapsed = 0:0:04:15 / Tue Mar 22 07:05:36 2016
GPGPU-Sim uArch: cycles simulated: 467000  inst.: 8641376 (ipc=18.5) sim_rate=33755 (inst/sec) elapsed = 0:0:04:16 / Tue Mar 22 07:05:37 2016
GPGPU-Sim PTX: 8700000 instructions simulated : ctaid=(7,1,0) tid=(95,0,0)
GPGPU-Sim uArch: cycles simulated: 469000  inst.: 8673216 (ipc=18.5) sim_rate=33747 (inst/sec) elapsed = 0:0:04:17 / Tue Mar 22 07:05:38 2016
GPGPU-Sim uArch: cycles simulated: 471000  inst.: 8705952 (ipc=18.5) sim_rate=33744 (inst/sec) elapsed = 0:0:04:18 / Tue Mar 22 07:05:39 2016
GPGPU-Sim uArch: cycles simulated: 472500  inst.: 8726624 (ipc=18.5) sim_rate=33693 (inst/sec) elapsed = 0:0:04:19 / Tue Mar 22 07:05:40 2016
GPGPU-Sim PTX: 8800000 instructions simulated : ctaid=(0,0,0) tid=(95,0,0)
GPGPU-Sim uArch: cycles simulated: 474500  inst.: 8763808 (ipc=18.5) sim_rate=33706 (inst/sec) elapsed = 0:0:04:20 / Tue Mar 22 07:05:41 2016
GPGPU-Sim uArch: cycles simulated: 476500  inst.: 8793248 (ipc=18.5) sim_rate=33690 (inst/sec) elapsed = 0:0:04:21 / Tue Mar 22 07:05:42 2016
GPGPU-Sim uArch: cycles simulated: 478500  inst.: 8827104 (ipc=18.4) sim_rate=33691 (inst/sec) elapsed = 0:0:04:22 / Tue Mar 22 07:05:43 2016
GPGPU-Sim PTX: 8900000 instructions simulated : ctaid=(7,2,0) tid=(159,0,0)
GPGPU-Sim uArch: cycles simulated: 480000  inst.: 8853536 (ipc=18.4) sim_rate=33663 (inst/sec) elapsed = 0:0:04:23 / Tue Mar 22 07:05:44 2016
GPGPU-Sim uArch: cycles simulated: 482000  inst.: 8884128 (ipc=18.4) sim_rate=33652 (inst/sec) elapsed = 0:0:04:24 / Tue Mar 22 07:05:45 2016
GPGPU-Sim uArch: cycles simulated: 484000  inst.: 8916736 (ipc=18.4) sim_rate=33648 (inst/sec) elapsed = 0:0:04:25 / Tue Mar 22 07:05:46 2016
GPGPU-Sim uArch: cycles simulated: 485500  inst.: 8938944 (ipc=18.4) sim_rate=33605 (inst/sec) elapsed = 0:0:04:26 / Tue Mar 22 07:05:47 2016
GPGPU-Sim PTX: 9000000 instructions simulated : ctaid=(1,0,0) tid=(223,0,0)
GPGPU-Sim uArch: cycles simulated: 487500  inst.: 8976864 (ipc=18.4) sim_rate=33621 (inst/sec) elapsed = 0:0:04:27 / Tue Mar 22 07:05:48 2016
GPGPU-Sim uArch: cycles simulated: 489500  inst.: 9009440 (ipc=18.4) sim_rate=33617 (inst/sec) elapsed = 0:0:04:28 / Tue Mar 22 07:05:49 2016
GPGPU-Sim uArch: cycles simulated: 491000  inst.: 9038272 (ipc=18.4) sim_rate=33599 (inst/sec) elapsed = 0:0:04:29 / Tue Mar 22 07:05:50 2016
GPGPU-Sim PTX: 9100000 instructions simulated : ctaid=(6,2,0) tid=(159,0,0)
GPGPU-Sim uArch: cycles simulated: 493000  inst.: 9068576 (ipc=18.4) sim_rate=33587 (inst/sec) elapsed = 0:0:04:30 / Tue Mar 22 07:05:51 2016
GPGPU-Sim uArch: cycles simulated: 494500  inst.: 9089760 (ipc=18.4) sim_rate=33541 (inst/sec) elapsed = 0:0:04:31 / Tue Mar 22 07:05:52 2016
GPGPU-Sim uArch: cycles simulated: 496500  inst.: 9128064 (ipc=18.4) sim_rate=33559 (inst/sec) elapsed = 0:0:04:32 / Tue Mar 22 07:05:53 2016
GPGPU-Sim PTX: 9200000 instructions simulated : ctaid=(3,1,0) tid=(95,0,0)
GPGPU-Sim uArch: cycles simulated: 498500  inst.: 9157440 (ipc=18.4) sim_rate=33543 (inst/sec) elapsed = 0:0:04:33 / Tue Mar 22 07:05:54 2016
GPGPU-Sim uArch: cycles simulated: 500000  inst.: 9185792 (ipc=18.4) sim_rate=33524 (inst/sec) elapsed = 0:0:04:34 / Tue Mar 22 07:05:55 2016
GPGPU-Sim uArch: cycles simulated: 502000  inst.: 9214656 (ipc=18.4) sim_rate=33507 (inst/sec) elapsed = 0:0:04:35 / Tue Mar 22 07:05:56 2016
GPGPU-Sim PTX: 9300000 instructions simulated : ctaid=(3,1,0) tid=(159,0,0)
GPGPU-Sim uArch: cycles simulated: 504000  inst.: 9250976 (ipc=18.4) sim_rate=33518 (inst/sec) elapsed = 0:0:04:36 / Tue Mar 22 07:05:57 2016
GPGPU-Sim uArch: cycles simulated: 505500  inst.: 9276896 (ipc=18.4) sim_rate=33490 (inst/sec) elapsed = 0:0:04:37 / Tue Mar 22 07:05:58 2016
GPGPU-Sim uArch: cycles simulated: 507500  inst.: 9311552 (ipc=18.3) sim_rate=33494 (inst/sec) elapsed = 0:0:04:38 / Tue Mar 22 07:05:59 2016
GPGPU-Sim PTX: 9400000 instructions simulated : ctaid=(4,0,0) tid=(159,0,0)
GPGPU-Sim uArch: cycles simulated: 509500  inst.: 9352352 (ipc=18.4) sim_rate=33520 (inst/sec) elapsed = 0:0:04:39 / Tue Mar 22 07:06:00 2016
GPGPU-Sim uArch: cycles simulated: 511000  inst.: 9374528 (ipc=18.3) sim_rate=33480 (inst/sec) elapsed = 0:0:04:40 / Tue Mar 22 07:06:01 2016
GPGPU-Sim uArch: cycles simulated: 513000  inst.: 9407808 (ipc=18.3) sim_rate=33479 (inst/sec) elapsed = 0:0:04:41 / Tue Mar 22 07:06:02 2016
GPGPU-Sim uArch: cycles simulated: 515000  inst.: 9441664 (ipc=18.3) sim_rate=33481 (inst/sec) elapsed = 0:0:04:42 / Tue Mar 22 07:06:03 2016
GPGPU-Sim PTX: 9500000 instructions simulated : ctaid=(3,1,0) tid=(95,0,0)
GPGPU-Sim uArch: cycles simulated: 516500  inst.: 9466848 (ipc=18.3) sim_rate=33451 (inst/sec) elapsed = 0:0:04:43 / Tue Mar 22 07:06:04 2016
GPGPU-Sim uArch: cycles simulated: 518500  inst.: 9503200 (ipc=18.3) sim_rate=33461 (inst/sec) elapsed = 0:0:04:44 / Tue Mar 22 07:06:05 2016
GPGPU-Sim uArch: cycles simulated: 520500  inst.: 9537408 (ipc=18.3) sim_rate=33464 (inst/sec) elapsed = 0:0:04:45 / Tue Mar 22 07:06:06 2016
GPGPU-Sim PTX: 9600000 instructions simulated : ctaid=(0,4,0) tid=(159,0,0)
GPGPU-Sim uArch: cycles simulated: 522000  inst.: 9567520 (ipc=18.3) sim_rate=33452 (inst/sec) elapsed = 0:0:04:46 / Tue Mar 22 07:06:07 2016
GPGPU-Sim uArch: cycles simulated: 524000  inst.: 9596800 (ipc=18.3) sim_rate=33438 (inst/sec) elapsed = 0:0:04:47 / Tue Mar 22 07:06:08 2016
GPGPU-Sim uArch: cycles simulated: 526000  inst.: 9633280 (ipc=18.3) sim_rate=33448 (inst/sec) elapsed = 0:0:04:48 / Tue Mar 22 07:06:09 2016
GPGPU-Sim PTX: 9700000 instructions simulated : ctaid=(6,0,0) tid=(95,0,0)
GPGPU-Sim uArch: cycles simulated: 527500  inst.: 9660544 (ipc=18.3) sim_rate=33427 (inst/sec) elapsed = 0:0:04:49 / Tue Mar 22 07:06:10 2016
GPGPU-Sim uArch: cycles simulated: 529500  inst.: 9693079 (ipc=18.3) sim_rate=33424 (inst/sec) elapsed = 0:0:04:50 / Tue Mar 22 07:06:11 2016
GPGPU-Sim uArch: cycles simulated: 531500  inst.: 9724599 (ipc=18.3) sim_rate=33417 (inst/sec) elapsed = 0:0:04:51 / Tue Mar 22 07:06:12 2016
GPGPU-Sim PTX: 9800000 instructions simulated : ctaid=(0,1,0) tid=(145,0,0)
GPGPU-Sim uArch: cycles simulated: 533000  inst.: 9752707 (ipc=18.3) sim_rate=33399 (inst/sec) elapsed = 0:0:04:52 / Tue Mar 22 07:06:13 2016
GPGPU-Sim uArch: cycles simulated: 535000  inst.: 9794524 (ipc=18.3) sim_rate=33428 (inst/sec) elapsed = 0:0:04:53 / Tue Mar 22 07:06:14 2016
GPGPU-Sim uArch: cycles simulated: 537000  inst.: 9830748 (ipc=18.3) sim_rate=33437 (inst/sec) elapsed = 0:0:04:54 / Tue Mar 22 07:06:15 2016
GPGPU-Sim PTX: 9900000 instructions simulated : ctaid=(8,2,0) tid=(71,0,0)
GPGPU-Sim uArch: cycles simulated: 538500  inst.: 9855164 (ipc=18.3) sim_rate=33407 (inst/sec) elapsed = 0:0:04:55 / Tue Mar 22 07:06:16 2016
GPGPU-Sim uArch: cycles simulated: 540500  inst.: 9888892 (ipc=18.3) sim_rate=33408 (inst/sec) elapsed = 0:0:04:56 / Tue Mar 22 07:06:17 2016
GPGPU-Sim uArch: cycles simulated: 542500  inst.: 9923058 (ipc=18.3) sim_rate=33410 (inst/sec) elapsed = 0:0:04:57 / Tue Mar 22 07:06:18 2016
GPGPU-Sim PTX: 10000000 instructions simulated : ctaid=(5,0,0) tid=(27,0,0)
GPGPU-Sim uArch: cycles simulated: 544000  inst.: 9952306 (ipc=18.3) sim_rate=33397 (inst/sec) elapsed = 0:0:04:58 / Tue Mar 22 07:06:19 2016
GPGPU-Sim uArch: cycles simulated: 546000  inst.: 9991986 (ipc=18.3) sim_rate=33418 (inst/sec) elapsed = 0:0:04:59 / Tue Mar 22 07:06:20 2016
GPGPU-Sim uArch: cycles simulated: 548000  inst.: 10025923 (ipc=18.3) sim_rate=33419 (inst/sec) elapsed = 0:0:05:00 / Tue Mar 22 07:06:21 2016
GPGPU-Sim PTX: 10100000 instructions simulated : ctaid=(5,3,0) tid=(129,0,0)
GPGPU-Sim uArch: cycles simulated: 549500  inst.: 10057799 (ipc=18.3) sim_rate=33414 (inst/sec) elapsed = 0:0:05:01 / Tue Mar 22 07:06:22 2016
GPGPU-Sim uArch: cycles simulated: 551500  inst.: 10095086 (ipc=18.3) sim_rate=33427 (inst/sec) elapsed = 0:0:05:02 / Tue Mar 22 07:06:23 2016
[...]
dram[5]:  1.224751  1.217344  1.218874  1.213117  1.211869  1.210510  1.224797  1.220647  1.216663  1.217173  1.218936  1.221297  1.216968  1.214455  1.214238  1.216936 
average row locality = 2773144/2289042 = 1.211487
number of total memory accesses made:
dram[0]:         0         0         0         0         0         0         0         0         0         0         0         0         0         0         0         0 
dram[1]:         0         0         0         0         0         0         0         0         0         0         0         0         0         0         0         0 
dram[2]:         0         0         0         0         0         0         0         0         0         0         0         0         0         0         0         0 
dram[3]:         0         0         0         0         0         0         0         0         0         0         0         0         0         0         0         0 
dram[4]:         0         0         0         0         0         0         0         0         0         0         0         0         0         0         0         0 
dram[5]:         0         0         0         0         0         0         0         0         0         0         0         0         0         0         0         0 
total accesses: 0
min_bank_accesses = 0!
min_chip_accesses = 0!
number of total read accesses:
dram[0]:     28132     27548     29021     28731     28175     28006     30313     29919     28884     28438     29298     28925     27491     27373     28837     28669 
dram[1]:     27998     28051     29063     28930     27972     28146     29730     29753     28557     28770     29245     28934     27283     27532     28938     28966 
dram[2]:     28543     28766     29104     29928     28279     29106     30200     31030     29068     29548     29260     30120     28048     28288     29038     30076 
dram[3]:     28344     28412     29234     29344     28188     28695     29963     30354     28661     29281     29352     29392     27640     27894     28789     29403 
dram[4]:     28064     28504     28926     29621     28105     28800     29855     30853     28825     29199     29176     29792     27592     28110     28866     29487 
dram[5]:     28349     28053     29487     28615     28445     28217     30021     29713     29060     28819     29547     28742     28008     27719     29272     28534 
total reads: 2771352
bank skew: 31030/27283 = 1.14
chip skew: 468402/457760 = 1.02
number of total write accesses:
dram[0]:        64        64         0         0         0         0         0         0         0         0         0         0        20        20        64        64 
dram[1]:        64        64         0         0         0         0         0         0         0         0         0         0        20        20        64        64 
dram[2]:        64        64         0         0         0         0         0         0         0         0         0         0        20        24        64        64 
dram[3]:        64        64         0         0         0         0         0         0         0         0         0         0        20        24        64        64 
dram[4]:        64        64         0         0         0         0         0         0         0         0         0         0        20        24        64        64 
dram[5]:        64        64         0         0         0         0         0         0         0         0         0         0        20        24        64        64 
total reads: 1792
min_bank_accesses = 0!
chip skew: 300/296 = 1.01
average mf latency per bank:
dram[0]:       4372      4565      5219      5520      4393      4517      4203      4264      4333      4515      4242      4374      4458      4584      4306      4427
dram[1]:       4457      4512      5428      5475      4515      4531      4310      4330      4459      4497      4299      4384      4557      4602      4365      4406
dram[2]:       4226      4385      5200      5342      4361      4385      4066      4208      4241      4333      4166      4259      4307      4460      4182      4199
dram[3]:       4363      4436      5299      5396      4482      4459      4220      4300      4444      4363      4240      4366      4494      4526      4333      4331
dram[4]:       4484      4246      5499      4881      4509      4253      4342      4008      4419      4259      4323      4115      4541      4312      4356      4117
dram[5]:       4401      3909      5342      3820      4418      3935      4237      3744      4349      3910      4207      3814      4443      3954      4284      3841
maximum mf latency per bank:
dram[0]:       1042      1030      1047      1030      1046      1006      1048      1037      1076      1026      1061      1028      1026      1057      1046      1034
dram[1]:       1060      1133      1024      1012      1058      1032      1152       996      1046      1066      1038      1082      1031      1016      1002      1024
dram[2]:       1018      1113      1155      1098      1020      1142      1073      1067      1042      1007      1169      1045      1010      1045      1060      1051
dram[3]:       1110      1042      1073      1159      1046      1087      1076      1104      1061      1074      1086      1094      1194      1065      1079      1079
dram[4]:       1064      1055      1132      1032      1104      1076      1059      1045      1071       988      1088       992      1049      1027      1031      1012
dram[5]:        992       940      1043       996      1012       934      1065       935      1026       908      1047       968      1038       948      1044       939

Number of Memory Banks Accessed per Memory Operation per Warp (from 0):
0	0	0	0	0	0	0	0	0	0	0	0	0	0	0	0	0	0	0	0	0	0	0	0	0	0	0	0	0	0	0	0	0	0	0	0	0	0	0	0	0	0	0	0	0	0	0	0	0	0	0	0	0	0	0	0	0	0	0	0	0	0	0	0	0	0	0	0	0	0	0	0	0	0	0	0	0	0	0	0	0	0	0	0	0	0	0	0	0	0	0	0	0	0	0	0	
Average # of Memory Banks Accessed per Memory Operation per Warp=-nan

position of mrq chosen
0	0	0	0	0	0	0	0	0	0	0	0	0	0	0	0	

average position of mrq chosen = -nan
Memory Partition 0: 
Cache L2_bank_000:
MSHR contents

Cache L2_bank_001:
MSHR contents

In Dram Latency Queue (total = 0): 
DRAM[0]: 16 bks, busW=4 BL=8 CL=12, tRRD=2 tCCD=6, tRCD=12 tRAS=28 tRP=12 tRC=40
n_cmd=35839220 n_nop=34166502 n_act=378311 n_pre=378295 n_req=458056 n_rd=915520 n_write=592 bw_util=0.05112
n_activity=14019355 dram_eff=0.1307
bk0: 56264a 35115085i bk1: 55096a 35131229i bk2: 58042a 35087278i bk3: 57462a 35095936i bk4: 56350a 35104868i bk5: 56012a 35115104i bk6: 60626a 35058339i bk7: 59838a 35066098i bk8: 57768a 35091493i bk9: 56876a 35105782i bk10: 58596a 35080370i bk11: 57850a 35090532i bk12: 54982a 35125953i bk13: 54746a 35133364i bk14: 57674a 35091036i bk15: 57338a 35096251i 
dram_util_bins: 0 0 0 0 0 0 0 0 0 0
dram_eff_bins: 0 0 0 0 0 0 0 0 0 0
mrqq: max=16 avg=0.011771
Memory Partition 1: 
Cache L2_bank_002:
MSHR contents

Cache L2_bank_003:
MSHR contents

In Dram Latency Queue (total = 0): 
DRAM[1]: 16 bks, busW=4 BL=8 CL=12, tRRD=2 tCCD=6, tRCD=12 tRAS=28 tRP=12 tRC=40
n_cmd=35839220 n_nop=34167046 n_act=377931 n_pre=377915 n_req=458164 n_rd=915736 n_write=592 bw_util=0.05114
n_activity=14052516 dram_eff=0.1304
bk0: 55996a 35120589i bk1: 56102a 35119992i bk2: 58126a 35089654i bk3: 57860a 35094195i bk4: 55944a 35112741i bk5: 56292a 35112439i bk6: 59460a 35069569i bk7: 59506a 35070657i bk8: 57114a 35100774i bk9: 57540a 35099016i bk10: 58490a 35086803i bk11: 57868a 35093842i bk12: 54566a 35131198i bk13: 55064a 35128082i bk14: 57876a 35094163i bk15: 57932a 35089842i 
dram_util_bins: 0 0 0 0 0 0 0 0 0 0
dram_eff_bins: 0 0 0 0 0 0 0 0 0 0
mrqq: max=16 avg=0.0104992
Memory Partition 2: 
Cache L2_bank_004:
MSHR contents

Cache L2_bank_005:
MSHR contents

In Dram Latency Queue (total = 0): 
DRAM[2]: 16 bks, busW=4 BL=8 CL=12, tRRD=2 tCCD=6, tRCD=12 tRAS=28 tRP=12 tRC=40
n_cmd=35839220 n_nop=34126392 n_act=387720 n_pre=387704 n_req=468702 n_rd=936804 n_write=600 bw_util=0.05231
n_activity=14120193 dram_eff=0.1328
bk0: 57086a 35098422i bk1: 57532a 35098220i bk2: 58208a 35080925i bk3: 59856a 35062154i bk4: 56558a 35100346i bk5: 58212a 35085408i bk6: 60400a 35051751i bk7: 62060a 35033671i bk8: 58136a 35080962i bk9: 59096a 35070456i bk10: 58520a 35079416i bk11: 60240a 35053542i bk12: 56096a 35106358i bk13: 56576a 35103368i bk14: 58076a 35083813i bk15: 60152a 35056664i 
dram_util_bins: 0 0 0 0 0 0 0 0 0 0
dram_eff_bins: 0 0 0 0 0 0 0 0 0 0
mrqq: max=16 avg=0.0133633
Memory Partition 3: 
Cache L2_bank_006:
MSHR contents

Cache L2_bank_007:
MSHR contents

In Dram Latency Queue (total = 0): 
DRAM[3]: 16 bks, busW=4 BL=8 CL=12, tRRD=2 tCCD=6, tRCD=12 tRAS=28 tRP=12 tRC=40
n_cmd=35839220 n_nop=34148398 n_act=382173 n_pre=382157 n_req=463246 n_rd=925892 n_write=600 bw_util=0.0517
n_activity=14074193 dram_eff=0.1317
bk0: 56688a 35108462i bk1: 56824a 35110827i bk2: 58468a 35081127i bk3: 58688a 35082873i bk4: 56376a 35109668i bk5: 57390a 35098322i bk6: 59926a 35063631i bk7: 60708a 35054144i bk8: 57322a 35093735i bk9: 58562a 35083517i bk10: 58704a 35079204i bk11: 58784a 35080736i bk12: 55280a 35123129i bk13: 55788a 35118728i bk14: 57578a 35091018i bk15: 58806a 35079801i 
dram_util_bins: 0 0 0 0 0 0 0 0 0 0
dram_eff_bins: 0 0 0 0 0 0 0 0 0 0
mrqq: max=16 avg=0.0112502
Memory Partition 4: 
Cache L2_bank_008:
MSHR contents

Cache L2_bank_009:
MSHR contents

In Dram Latency Queue (total = 0): 
DRAM[4]: 16 bks, busW=4 BL=8 CL=12, tRRD=2 tCCD=6, tRCD=12 tRAS=28 tRP=12 tRC=40
n_cmd=35839220 n_nop=34142434 n_act=384326 n_pre=384310 n_req=464075 n_rd=927550 n_write=600 bw_util=0.0518
n_activity=14048234 dram_eff=0.1321
bk0: 56128a 35111756i bk1: 57008a 35102987i bk2: 57852a 35087854i bk3: 59242a 35070967i bk4: 56210a 35105666i bk5: 57600a 35090835i bk6: 59710a 35065152i bk7: 61706a 35036677i bk8: 57650a 35088036i bk9: 58398a 35076970i bk10: 58352a 35081152i bk11: 59584a 35063198i bk12: 55184a 35119388i bk13: 56220a 35110738i bk14: 57732a 35087206i bk15: 58974a 35072277i 
dram_util_bins: 0 0 0 0 0 0 0 0 0 0
dram_eff_bins: 0 0 0 0 0 0 0 0 0 0
mrqq: max=16 avg=0.0124348
Memory Partition 5: 
Cache L2_bank_010:
MSHR contents

Cache L2_bank_011:
MSHR contents
MSHR: tag=0x81e4b380, atomic=0 1 entries : 0x7fde14931ac0 :  mf: uid=394780410, sid11:w15, part=5, addr=0x81e4b380, load , size=128, unknown  status = IN_PARTITION_DRAM (27150923), 

In Dram Latency Queue (total = 0): 
DRAM[5]: 16 bks, busW=4 BL=8 CL=12, tRRD=2 tCCD=6, tRCD=12 tRAS=28 tRP=12 tRC=40
n_cmd=35839220 n_nop=34160270 n_act=378582 n_pre=378566 n_req=460901 n_rd=921202 n_write=600 bw_util=0.05144
n_activity=13982852 dram_eff=0.1318
bk0: 56698a 35113235i bk1: 56106a 35120381i bk2: 58974a 35082336i bk3: 57230a 35102579i bk4: 56890a 35105263i bk5: 56434a 35113159i bk6: 60042a 35070506i bk7: 59426a 35075752i bk8: 58120a 35088754i bk9: 57638a 35099035i bk10: 59094a 35077922i bk11: 57484a 35101173i bk12: 56016a 35116926i bk13: 55438a 35126168i bk14: 58544a 35081802i bk15: 57068a 35102487i 
dram_util_bins: 0 0 0 0 0 0 0 0 0 0
dram_eff_bins: 0 0 0 0 0 0 0 0 0 0
mrqq: max=16 avg=0.0106687

========= L2 cache stats =========
L2_cache_bank[0]: Access = 2817620, Miss = 230151, Miss_rate = 0.082, Pending_hits = 17, Reservation_fails = 1577
L2_cache_bank[1]: Access = 2824861, Miss = 227609, Miss_rate = 0.081, Pending_hits = 8, Reservation_fails = 1278
L2_cache_bank[2]: Access = 2829930, Miss = 228786, Miss_rate = 0.081, Pending_hits = 19, Reservation_fails = 215
L2_cache_bank[3]: Access = 2832114, Miss = 229082, Miss_rate = 0.081, Pending_hits = 4, Reservation_fails = 0
L2_cache_bank[4]: Access = 2827257, Miss = 231540, Miss_rate = 0.082, Pending_hits = 10, Reservation_fails = 406
L2_cache_bank[5]: Access = 2836733, Miss = 236862, Miss_rate = 0.083, Pending_hits = 6, Reservation_fails = 1468
L2_cache_bank[6]: Access = 2828883, Miss = 230171, Miss_rate = 0.081, Pending_hits = 6, Reservation_fails = 0
L2_cache_bank[7]: Access = 2821948, Miss = 232775, Miss_rate = 0.082, Pending_hits = 8, Reservation_fails = 83
L2_cache_bank[8]: Access = 2831816, Miss = 229409, Miss_rate = 0.081, Pending_hits = 2, Reservation_fails = 293
L2_cache_bank[9]: Access = 2807907, Miss = 234366, Miss_rate = 0.083, Pending_hits = 3, Reservation_fails = 335
L2_cache_bank[10]: Access = 2830901, Miss = 232189, Miss_rate = 0.082, Pending_hits = 8, Reservation_fails = 34
L2_cache_bank[11]: Access = 2742518, Miss = 228412, Miss_rate = 0.083, Pending_hits = 0, Reservation_fails = 0
L2_total_cache_accesses = 33832488
L2_total_cache_misses = 2771352
L2_total_cache_miss_rate = 0.0819
L2_total_cache_pending_hits = 91
L2_total_cache_reservation_fails = 5689
L2_total_cache_breakdown:
	L2_cache_stats_breakdown[GLOBAL_ACC_R][HIT] = 31060976
	L2_cache_stats_breakdown[GLOBAL_ACC_R][HIT_RESERVED] = 77
	L2_cache_stats_breakdown[GLOBAL_ACC_R][MISS] = 2769553
	L2_cache_stats_breakdown[GLOBAL_ACC_R][RESERVATION_FAIL] = 5272
	L2_cache_stats_breakdown[CONST_ACC_R][HIT] = 11
	L2_cache_stats_breakdown[CONST_ACC_R][HIT_RESERVED] = 3
	L2_cache_stats_breakdown[CONST_ACC_R][MISS] = 1
	L2_cache_stats_breakdown[CONST_ACC_R][RESERVATION_FAIL] = 98
	L2_cache_stats_breakdown[GLOBAL_ACC_W][MISS] = 1792
	L2_cache_stats_breakdown[INST_ACC_R][HIT] = 58
	L2_cache_stats_breakdown[INST_ACC_R][HIT_RESERVED] = 11
	L2_cache_stats_breakdown[INST_ACC_R][MISS] = 6
	L2_cache_stats_breakdown[INST_ACC_R][RESERVATION_FAIL] = 319
L2_cache_data_port_util = 0.381
L2_cache_fill_port_util = 0.034

icnt_total_pkts_mem_to_simt=169155242
icnt_total_pkts_simt_to_mem=33839656
LD_mem_lat_dist  0 0 0 0 0 0 0 0 0 0 0 0 0 0 0 0 0 0 0 0 0 0 0 0 0 0 0
ST_mem_lat_dist  0 0 0 0 0 0 0 0 0 0 0 0 0 0 0 0 0 0 0 0 0 0 0 0 0 0 0
----------------------------Interconnect-DETAILS--------------------------------
Class 0:
Packet latency average = 44.1331
	minimum = 6
	maximum = 673
Network latency average = 32.2888
	minimum = 6
	maximum = 569
Slowest packet = 33867778
Flit latency average = 19.9373
	minimum = 6
	maximum = 569
Slowest flit = 104346919
Fragmentation average = 6.05325e-05
	minimum = 0
	maximum = 345
Injected packet rate average = 0.0922567
	minimum = 0.0773261 (at node 12)
	maximum = 0.104402 (at node 20)
Accepted packet rate average = 0.0922567
	minimum = 0.0773261 (at node 12)
	maximum = 0.104402 (at node 20)
Injected flit rate average = 0.27677
	minimum = 0.0773426 (at node 12)
	maximum = 0.521987 (at node 20)
Accepted flit rate average= 0.27677
	minimum = 0.100968 (at node 26)
	maximum = 0.447474 (at node 7)
Injected packet length average = 3
Accepted packet length average = 3
Total in-flight flits = 0 (0 measured)
====== Overall Traffic Statistics ======
====== Traffic class 0 ======
Packet latency average = 44.0236 (2 samples)
	minimum = 6 (2 samples)
	maximum = 642.5 (2 samples)
Network latency average = 32.2208 (2 samples)
	minimum = 6 (2 samples)
	maximum = 567.5 (2 samples)
Flit latency average = 19.914 (2 samples)
	minimum = 6 (2 samples)
	maximum = 567.5 (2 samples)
Fragmentation average = 7.41893e-05 (2 samples)
	minimum = 0 (2 samples)
	maximum = 332.5 (2 samples)
Injected packet rate average = 0.092303 (2 samples)
	minimum = 0.0774203 (2 samples)
	maximum = 0.10448 (2 samples)
Accepted packet rate average = 0.092303 (2 samples)
	minimum = 0.0774203 (2 samples)
	maximum = 0.10448 (2 samples)
Injected flit rate average = 0.276909 (2 samples)
	minimum = 0.0774368 (2 samples)
	maximum = 0.522379 (2 samples)
Accepted flit rate average = 0.276909 (2 samples)
	minimum = 0.101033 (2 samples)
	maximum = 0.447416 (2 samples)
Injected packet size average = 3 (2 samples)
Accepted packet size average = 3 (2 samples)
Hops average = 1 (2 samples)
----------------------------END-of-Interconnect-DETAILS-------------------------


gpgpu_simulation_time = 0 days, 3 hrs, 29 min, 21 sec (12561 sec)
gpgpu_simulation_rate = 38363 (inst/sec)
gpgpu_simulation_rate = 2161 (cycle/sec)
GPGPU-Sim: synchronize waiting for inactive GPU simulation
GPGPU-Sim API: Stream Manager State
GPGPU-Sim: detected inactive GPU simulation thread
iterated 2 times

================= Centroid Coordinates =================
0: 1.23 613.61 527.61 0.00 0.00 0.01 0.00 0.00 0.00 0.00 0.03 0.01 0.00 0.00 0.00 8.15 11.06 0.00 0.00 0.00 0.00 0.99 0.01 0.22 139.44 193.37 0.83 0.02 0.06 0.01 0.00 0.00 0.00 0.00 1.00 1.23 613.61 527.61 0.00 0.00 0.01 0.00 0.00 0.00 0.00 0.03 0.01 0.00 0.00 0.00 8.15 11.06 0.00 0.00 0.00 0.00 0.99 0.01 0.22 139.44 193.37 0.83 0.02 0.06 0.01 0.00 0.00 0.00 0.00 1.23 613.61 527.61 0.00 0.00 0.01 0.00 0.00 0.00 0.00 0.03 0.01 0.00 0.00 0.00 8.15 11.06 0.00 0.00 0.00 0.00 0.99 0.01 0.22 139.44 193.37 0.83 0.02 0.06 0.01 0.00 0.00 0.00 0.00 1.00 1.23 613.61 527.61 0.00 0.00 0.01 0.00 0.00 0.00 0.00 0.03 0.01 0.00 0.00 0.00 8.15 11.06 0.00 0.00 0.00 0.00 0.99 0.01 0.22 139.44 193.37 0.83 0.02 0.06 0.01 0.00 0.00 0.00 0.00

1: 1.45 15177.44 214.67 0.00 0.00 0.01 0.00 0.00 0.00 0.00 0.00 0.02 0.01 0.02 0.00 4.59 5.07 0.00 0.01 0.00 0.00 0.98 0.03 0.25 129.85 98.10 0.52 0.05 0.20 0.01 0.00 0.00 0.00 0.00 1.00 1.45 15177.44 214.67 0.00 0.00 0.01 0.00 0.00 0.00 0.00 0.00 0.02 0.01 0.02 0.00 4.59 5.07 0.00 0.01 0.00 0.00 0.98 0.03 0.25 129.85 98.10 0.52 0.05 0.20 0.01 0.00 0.00 0.00 0.00 1.45 15177.44 214.67 0.00 0.00 0.01 0.00 0.00 0.00 0.00 0.00 0.02 0.01 0.02 0.00 4.59 5.07 0.00 0.01 0.00 0.00 0.98 0.03 0.25 129.85 98.10 0.52 0.05 0.20 0.01 0.00 0.00 0.00 0.00 1.00 1.45 15177.44 214.67 0.00 0.00 0.01 0.00 0.00 0.00 0.00 0.00 0.02 0.01 0.02 0.00 4.59 5.07 0.00 0.01 0.00 0.00 0.98 0.03 0.25 129.85 98.10 0.52 0.05 0.20 0.01 0.00 0.00 0.00 0.00

2: 3.74 600.16 40.36 0.01 0.00 0.00 0.00 0.00 0.00 0.00 0.00 0.00 0.00 0.00 0.00 338.62 287.90 0.24 0.24 0.03 0.03 0.75 0.04 0.03 240.64 180.98 0.72 0.05 0.58 0.00 0.24 0.24 0.03 0.03 1.00 3.74 600.16 40.36 0.01 0.00 0.00 0.00 0.00 0.00 0.00 0.00 0.00 0.00 0.00 0.00 338.62 287.90 0.24 0.24 0.03 0.03 0.75 0.04 0.03 240.64 180.98 0.72 0.05 0.58 0.00 0.24 0.24 0.03 0.03 3.74 600.16 40.36 0.01 0.00 0.00 0.00 0.00 0.00 0.00 0.00 0.00 0.00 0.00 0.00 338.62 287.90 0.24 0.24 0.03 0.03 0.75 0.04 0.03 240.64 180.98 0.72 0.05 0.58 0.00 0.24 0.24 0.03 0.03 1.00 3.74 600.16 40.36 0.01 0.00 0.00 0.00 0.00 0.00 0.00 0.00 0.00 0.00 0.00 0.00 338.62 287.90 0.24 0.24 0.03 0.03 0.75 0.04 0.03 240.64 180.98 0.72 0.05 0.58 0.00 0.24 0.24 0.03 0.03

3: 21.48 303.12 20528.08 0.00 0.00 0.03 0.00 0.16 0.00 0.00 0.17 0.01 0.00 0.00 0.00 7.59 11.10 0.00 0.01 0.00 0.00 1.00 0.00 0.13 130.51 246.12 0.99 0.00 0.06 0.02 0.00 0.00 0.00 0.00 1.00 21.48 303.12 20528.08 0.00 0.00 0.03 0.00 0.16 0.00 0.00 0.17 0.01 0.00 0.00 0.00 7.59 11.10 0.00 0.01 0.00 0.00 1.00 0.00 0.13 130.51 246.12 0.99 0.00 0.06 0.02 0.00 0.00 0.00 0.00 21.48 303.12 20528.08 0.00 0.00 0.03 0.00 0.16 0.00 0.00 0.17 0.01 0.00 0.00 0.00 7.59 11.10 0.00 0.01 0.00 0.00 1.00 0.00 0.13 130.51 246.12 0.99 0.00 0.06 0.02 0.00 0.00 0.00 0.00 1.00 21.48 303.12 20528.08 0.00 0.00 0.03 0.00 0.16 0.00 0.00 0.17 0.01 0.00 0.00 0.00 7.59 11.10 0.00 0.01 0.00 0.00 1.00 0.00 0.13 130.51 246.12 0.99 0.00 0.06 0.02 0.00 0.00 0.00 0.00

4: 0.31 264.14 2561.85 0.00 0.00 0.06 0.00 0.00 0.00 0.00 0.00 0.00 0.00 0.01 0.00 9.81 13.92 0.00 0.00 0.00 0.00 1.00 0.00 0.10 132.64 245.89 0.99 0.00 0.05 0.02 0.00 0.00 0.00 0.00 1.00 0.31 264.14 2561.85 0.00 0.00 0.06 0.00 0.00 0.00 0.00 0.00 0.00 0.00 0.01 0.00 9.81 13.92 0.00 0.00 0.00 0.00 1.00 0.00 0.10 132.64 245.89 0.99 0.00 0.05 0.02 0.00 0.00 0.00 0.00 0.31 264.14 2561.85 0.00 0.00 0.06 0.00 0.00 0.00 0.00 0.00 0.00 0.00 0.01 0.00 9.81 13.92 0.00 0.00 0.00 0.00 1.00 0.00 0.10 132.64 245.89 0.99 0.00 0.05 0.02 0.00 0.00 0.00 0.00 1.00 0.31 264.14 2561.85 0.00 0.00 0.06 0.00 0.00 0.00 0.00 0.00 0.00 0.00 0.01 0.00 9.81 13.92 0.00 0.00 0.00 0.00 1.00 0.00 0.10 132.64 245.89 0.99 0.00 0.05 0.02 0.00 0.00 0.00 0.00

Number of Iteration: 1
Time for I/O: 0.00000sec
Time for Entire Clustering: 0.00000sec
Root Mean Squared Error: 55443.000
