

        *** GPGPU-Sim Simulator Version 3.2.2  [build 0] ***


GPGPU-Sim PTX: simulation mode 0 (can change with PTX_SIM_MODE_FUNC environment variable:
               1=functional simulation only, 0=detailed performance simulator)
GPGPU-Sim: Configuration options:

-network_mode                           1 # Interconnection network mode
-inter_config_file   config_fermi_islip.icnt # Interconnection network config file
-gpgpu_ptx_use_cuobjdump                    1 # Use cuobjdump to extract ptx and sass from binaries
-gpgpu_experimental_lib_support                    0 # Try to extract code from cuda libraries [Broken because of unknown cudaGetExportTable]
-gpgpu_ptx_convert_to_ptxplus                    0 # Convert SASS (native ISA) to ptxplus and run ptxplus
-gpgpu_ptx_force_max_capability                   20 # Force maximum compute capability
-gpgpu_ptx_inst_debug_to_file                    0 # Dump executed instructions' debug information to file
-gpgpu_ptx_inst_debug_file       inst_debug.txt # Executed instructions' debug output file
-gpgpu_ptx_inst_debug_thread_uid                    1 # Thread UID for executed instructions' debug output
-gpgpu_simd_model                       1 # 1 = post-dominator
-gpgpu_shader_core_pipeline              1536:32 # shader core pipeline config, i.e., {<nthread>:<warpsize>}
-gpgpu_tex_cache:l1  4:128:24,L:R:m:N:L,F:128:4,128:2 # per-shader L1 texture cache  (READ-ONLY) config  {<nsets>:<bsize>:<assoc>,<rep>:<wr>:<alloc>:<wr_alloc>,<mshr>:<N>:<merge>,<mq>:<rf>}
-gpgpu_const_cache:l1 64:64:2,L:R:f:N:L,A:2:32,4 # per-shader L1 constant memory cache  (READ-ONLY) config  {<nsets>:<bsize>:<assoc>,<rep>:<wr>:<alloc>:<wr_alloc>,<mshr>:<N>:<merge>,<mq>} 
-gpgpu_cache:il1     4:128:4,L:R:f:N:L,A:2:32,4 # shader L1 instruction cache config  {<nsets>:<bsize>:<assoc>,<rep>:<wr>:<alloc>:<wr_alloc>,<mshr>:<N>:<merge>,<mq>} 
-gpgpu_cache:dl1     32:128:4,L:L:m:N:H,A:32:8,8:2,0,1:0:1:1:0:1,1:4:8:16:32:64,/sciclone/data10/hwang07/GPU_RESEARCH/swl/swl_outputs/RESULTS/swl4/ # per-shader L1 data cache config  {<nsets>:<bsize>:<assoc>,<rep>:<wr>:<alloc>:<wr_alloc>,<mshr>:<N>:<merge>,<mq> | none}
-gpgpu_cache:dl1PrefL1                 none # per-shader L1 data cache config  {<nsets>:<bsize>:<assoc>,<rep>:<wr>:<alloc>:<wr_alloc>,<mshr>:<N>:<merge>,<mq> | none}
-gpgpu_cache:dl1PreShared                 none # per-shader L1 data cache config  {<nsets>:<bsize>:<assoc>,<rep>:<wr>:<alloc>:<wr_alloc>,<mshr>:<N>:<merge>,<mq> | none}
-gmem_skip_L1D                          0 # global memory access skip L1D cache (implements -Xptxas -dlcm=cg, default=no skip)
-gpgpu_perfect_mem                      0 # enable perfect memory mode (no cache miss)
-n_regfile_gating_group                    4 # group of lanes that should be read/written together)
-gpgpu_clock_gated_reg_file                    0 # enable clock gated reg file for power calculations
-gpgpu_clock_gated_lanes                    0 # enable clock gated lanes for power calculations
-gpgpu_shader_registers                32768 # Number of registers per shader core. Limits number of concurrent CTAs. (default 8192)
-gpgpu_shader_cta                       8 # Maximum number of concurrent CTAs in shader (default 8)
-gpgpu_num_cta_barriers                   16 # Maximum number of named barriers per CTA (default 16)
-gpgpu_n_clusters                      15 # number of processing clusters
-gpgpu_n_cores_per_cluster                    1 # number of simd cores per cluster
-gpgpu_n_cluster_ejection_buffer_size                    8 # number of packets in ejection buffer
-gpgpu_n_ldst_response_buffer_size                    2 # number of response packets in ld/st unit ejection buffer
-gpgpu_shmem_size                   16384 # Size of shared memory per shader core (default 16kB)
-gpgpu_shmem_size                   49152 # Size of shared memory per shader core (default 16kB)
-gpgpu_shmem_size_PrefL1                16384 # Size of shared memory per shader core (default 16kB)
-gpgpu_shmem_size_PrefShared                16384 # Size of shared memory per shader core (default 16kB)
-gpgpu_shmem_num_banks                   32 # Number of banks in the shared memory in each shader core (default 16)
-gpgpu_shmem_limited_broadcast                    0 # Limit shared memory to do one broadcast per cycle (default on)
-gpgpu_shmem_warp_parts                    1 # Number of portions a warp is divided into for shared memory bank conflict check 
-gpgpu_warpdistro_shader                   -1 # Specify which shader core to collect the warp size distribution from
-gpgpu_warp_issue_shader                    0 # Specify which shader core to collect the warp issue distribution from
-gpgpu_local_mem_map                    1 # Mapping from local memory space address to simulated GPU physical address space (default = enabled)
-gpgpu_num_reg_banks                   16 # Number of register banks (default = 8)
-gpgpu_reg_bank_use_warp_id                    0 # Use warp ID in mapping registers to banks (default = off)
-gpgpu_operand_collector_num_units_sp                    6 # number of collector units (default = 4)
-gpgpu_operand_collector_num_units_sfu                    8 # number of collector units (default = 4)
-gpgpu_operand_collector_num_units_mem                    2 # number of collector units (default = 2)
-gpgpu_operand_collector_num_units_gen                    0 # number of collector units (default = 0)
-gpgpu_operand_collector_num_in_ports_sp                    2 # number of collector unit in ports (default = 1)
-gpgpu_operand_collector_num_in_ports_sfu                    1 # number of collector unit in ports (default = 1)
-gpgpu_operand_collector_num_in_ports_mem                    1 # number of collector unit in ports (default = 1)
-gpgpu_operand_collector_num_in_ports_gen                    0 # number of collector unit in ports (default = 0)
-gpgpu_operand_collector_num_out_ports_sp                    2 # number of collector unit in ports (default = 1)
-gpgpu_operand_collector_num_out_ports_sfu                    1 # number of collector unit in ports (default = 1)
-gpgpu_operand_collector_num_out_ports_mem                    1 # number of collector unit in ports (default = 1)
-gpgpu_operand_collector_num_out_ports_gen                    0 # number of collector unit in ports (default = 0)
-gpgpu_coalesce_arch                   13 # Coalescing arch (default = 13, anything else is off for now)
-gpgpu_num_sched_per_core                    2 # Number of warp schedulers per core
-gpgpu_max_insn_issue_per_warp                    1 # Max number of instructions that can be issued per warp in one cycle by scheduler
-gpgpu_simt_core_sim_order                    1 # Select the simulation order of cores in a cluster (0=Fix, 1=Round-Robin)
-gpgpu_pipeline_widths        2,1,1,2,1,1,2 # Pipeline widths ID_OC_SP,ID_OC_SFU,ID_OC_MEM,OC_EX_SP,OC_EX_SFU,OC_EX_MEM,EX_WB
-gpgpu_num_sp_units                     2 # Number of SP units (default=1)
-gpgpu_num_sfu_units                    1 # Number of SF units (default=1)
-gpgpu_num_mem_units                    1 # Number if ldst units (default=1) WARNING: not hooked up to anything
-gpgpu_scheduler        warp_limiting:2:4 # Scheduler configuration: < lrr | gto | two_level_active > If two_level_active:<num_active_warps>:<inner_prioritization>:<outer_prioritization>For complete list of prioritization values see shader.h enum scheduler_prioritization_typeDefault: gto
-gpgpu_dram_scheduler                    1 # 0 = fifo, 1 = FR-FCFS (defaul)
-gpgpu_dram_partition_queues              8:8:8:8 # i2$:$2d:d2$:$2i
-l2_ideal                               0 # Use a ideal L2 cache that always hit
-gpgpu_cache:dl2     64:128:8,L:B:m:W:L,A:32:4,4:0,32 # unified banked L2 data cache config  {<nsets>:<bsize>:<assoc>,<rep>:<wr>:<alloc>:<wr_alloc>,<mshr>:<N>:<merge>,<mq>}
-gpgpu_cache:dl2_texture_only                    0 # L2 cache used for texture only
-gpgpu_n_mem                            6 # number of memory modules (e.g. memory controllers) in gpu
-gpgpu_n_sub_partition_per_mchannel                    2 # number of memory subpartition in each memory module
-gpgpu_n_mem_per_ctrlr                    2 # number of memory chips per memory controller
-gpgpu_memlatency_stat                   14 # track and display latency statistics 0x2 enables MC, 0x4 enables queue logs
-gpgpu_frfcfs_dram_sched_queue_size                   16 # 0 = unlimited (default); # entries per chip
-gpgpu_dram_return_queue_size                  116 # 0 = unlimited (default); # entries per chip
-gpgpu_dram_buswidth                    4 # default = 4 bytes (8 bytes per cycle at DDR)
-gpgpu_dram_burst_length                    8 # Burst length of each DRAM request (default = 4 data bus cycle)
-dram_data_command_freq_ratio                    4 # Frequency ratio between DRAM data bus and command bus (default = 2 times, i.e. DDR)
-gpgpu_dram_timing_opt nbk=16:CCD=2:RRD=6:RCD=12:RAS=28:RP=12:RC=40: CL=12:WL=4:CDLR=5:WR=12:nbkgrp=4:CCDL=3:RTPL=2 # DRAM timing parameters = {nbk:tCCD:tRRD:tRCD:tRAS:tRP:tRC:CL:WL:tCDLR:tWR:nbkgrp:tCCDL:tRTPL}
-rop_latency                          120 # ROP queue latency (default 85)
-dram_latency                         100 # DRAM latency (default 30)
-gpgpu_mem_addr_mapping dramid@8;00000000.00000000.00000000.00000000.0000RRRR.RRRRRRRR.BBBCCCCB.CCSSSSSS # mapping memory address to dram model {dramid@<start bit>;<memory address map>}
-gpgpu_mem_addr_test                    0 # run sweep test to check address mapping for aliased address
-gpgpu_mem_address_mask                    1 # 0 = old addressing mask, 1 = new addressing mask, 2 = new add. mask + flipped bank sel and chip sel bits
-gpuwattch_xml_file  gpuwattch_gtx480.xml # GPUWattch XML file
-power_simulation_enabled                    0 # Turn on power simulator (1=On, 0=Off)
-power_per_cycle_dump                    0 # Dump detailed power output each cycle
-power_trace_enabled                    0 # produce a file for the power trace (1=On, 0=Off)
-power_trace_zlevel                     6 # Compression level of the power trace output log (0=no comp, 9=highest)
-steady_power_levels_enabled                    0 # produce a file for the steady power levels (1=On, 0=Off)
-steady_state_definition                  8:4 # allowed deviation:number of samples
-gpgpu_max_cycle                        0 # terminates gpu simulation early (0 = no limit)
-gpgpu_max_insn                         0 # terminates gpu simulation early (0 = no limit)
-gpgpu_max_cta                          0 # terminates gpu simulation early (0 = no limit)
-gpgpu_runtime_stat                   500 # display runtime statistics such as dram utilization {<freq>:<flag>}
-liveness_message_freq                    1 # Minimum number of seconds between simulation liveness messages (0 = always print)
-gpgpu_flush_l1_cache                    0 # Flush L1 cache at the end of each kernel call
-gpgpu_flush_l2_cache                    0 # Flush L2 cache at the end of each kernel call
-gpgpu_deadlock_detect                    1 # Stop the simulation at deadlock (1=on (default), 0=off)
-gpgpu_ptx_instruction_classification                    0 # if enabled will classify ptx instruction types per kernel (Max 255 kernels now)
-gpgpu_ptx_sim_mode                     0 # Select between Performance (default) or Functional simulation (1)
-gpgpu_clock_domains 700.0:700.0:700.0:924.0 # Clock Domain Frequencies in MhZ {<Core Clock>:<ICNT Clock>:<L2 Clock>:<DRAM Clock>}
-gpgpu_max_concurrent_kernel                    8 # maximum kernels that can run concurrently on GPU
-gpgpu_cflog_interval                    0 # Interval between each snapshot in control flow logger
-visualizer_enabled                     0 # Turn on visualizer output (1=On, 0=Off)
-visualizer_outputfile                 NULL # Specifies the output log file for visualizer
-visualizer_zlevel                      6 # Compression level of the visualizer output log (0=no comp, 9=highest)
-trace_enabled                          0 # Turn on traces
-trace_components                    none # comma seperated list of traces to enable. Complete list found in trace_streams.tup. Default none
-trace_sampling_core                    0 # The core which is printed using CORE_DPRINTF. Default 0
-trace_sampling_memory_partition                   -1 # The memory partition which is printed using MEMPART_DPRINTF. Default -1 (i.e. all)
-enable_ptx_file_line_stats                    1 # Turn on PTX source line statistic profiling. (1 = On)
-ptx_line_stats_filename gpgpu_inst_stats.txt # Output file for PTX source line statistics.
-save_embedded_ptx                      0 # saves ptx files embedded in binary as <n>.ptx
-keep                                   0 # keep intermediate files created by GPGPU-Sim when interfacing with external programs
-gpgpu_ptx_save_converted_ptxplus                    0 # Saved converted ptxplus to a file
-ptx_opcode_latency_int         4,13,4,5,145 # Opcode latencies for integers <ADD,MAX,MUL,MAD,DIV>Default 1,1,19,25,145
-ptx_opcode_latency_fp          4,13,4,5,39 # Opcode latencies for single precision floating points <ADD,MAX,MUL,MAD,DIV>Default 1,1,1,1,30
-ptx_opcode_latency_dp         8,19,8,8,330 # Opcode latencies for double precision floating points <ADD,MAX,MUL,MAD,DIV>Default 8,8,8,8,335
-ptx_opcode_initiation_int            1,2,2,1,8 # Opcode initiation intervals for integers <ADD,MAX,MUL,MAD,DIV>Default 1,1,4,4,32
-ptx_opcode_initiation_fp            1,2,1,1,4 # Opcode initiation intervals for single precision floating points <ADD,MAX,MUL,MAD,DIV>Default 1,1,1,1,5
-ptx_opcode_initiation_dp         8,16,8,8,130 # Opcode initiation intervals for double precision floating points <ADD,MAX,MUL,MAD,DIV>Default 8,8,8,8,130
DRAM Timing Options:
nbk                                    16 # number of banks
CCD                                     2 # column to column delay
RRD                                     6 # minimal delay between activation of rows in different banks
RCD                                    12 # row to column delay
RAS                                    28 # time needed to activate row
RP                                     12 # time needed to precharge (deactivate) row
RC                                     40 # row cycle time
CDLR                                    5 # switching from write to read (changes tWTR)
WR                                     12 # last data-in to row precharge
CL                                     12 # CAS latency
WL                                      4 # Write latency
nbkgrp                                  4 # number of bank groups
CCDL                                    3 # column to column delay between accesses to different bank groups
RTPL                                    2 # read to precharge delay between accesses to different bank groups
Total number of memory sub partition = 12
addr_dec_mask[CHIP]  = 0000000000000000 	high:64 low:0
addr_dec_mask[BK]    = 000000000000e100 	high:16 low:8
addr_dec_mask[ROW]   = 000000000fff0000 	high:28 low:16
addr_dec_mask[COL]   = 0000000000001eff 	high:13 low:0
addr_dec_mask[BURST] = 000000000000003f 	high:6 low:0
sub_partition_id_mask = 0000000000000100
GPGPU-Sim uArch: clock freqs: 700000000.000000:700000000.000000:700000000.000000:924000000.000000
GPGPU-Sim uArch: clock periods: 0.00000000142857142857:0.00000000142857142857:0.00000000142857142857:0.00000000108225108225
*** Initializing Memory Statistics ***
GPGPU-Sim uArch: interconnect node map (shaderID+MemID to icntID)
GPGPU-Sim uArch: Memory nodes ID start from index: 15
GPGPU-Sim uArch:    0   1   2   3   4
GPGPU-Sim uArch:    5   6   7   8   9
GPGPU-Sim uArch:   10  11  12  13  14
GPGPU-Sim uArch:   15  16  17  18  19
GPGPU-Sim uArch:   20  21  22  23  24
GPGPU-Sim uArch:   25  26
GPGPU-Sim uArch: interconnect node reverse map (icntID to shaderID+MemID)
GPGPU-Sim uArch: Memory nodes start from ID: 15
GPGPU-Sim uArch:    0   1   2   3   4
GPGPU-Sim uArch:    5   6   7   8   9
GPGPU-Sim uArch:   10  11  12  13  14
GPGPU-Sim uArch:   15  16  17  18  19
GPGPU-Sim uArch:   20  21  22  23  24
GPGPU-Sim uArch:   25  26
2da471e6a07416e5693a12f48faeb39d  /sciclone/data10/hwang07/adwait/applications/benchmarks/rodinia/cuda/backprop/gpgpu_ptx_sim__backprop
GPGPU-Sim uArch: performance model initialization complete.
GPGPU-Sim PTX: __cudaRegisterFatBinary, fat_cubin_handle = 1, filename=backprop_cuda.cu
self exe links to: /sciclone/data10/hwang07/adwait/applications/benchmarks/rodinia/cuda/backprop/gpgpu_ptx_sim__backprop
Running md5sum using "md5sum /sciclone/data10/hwang07/adwait/applications/benchmarks/rodinia/cuda/backprop/gpgpu_ptx_sim__backprop "
Parsing file _cuobjdump_complete_output_NiI5OI
######### cuobjdump parser ########
## Adding new section ELF
Adding arch: sm_20
Adding identifier: backprop_cuda.cu
## Adding new section PTX
Adding ptx filename: _cuobjdump_1.ptx
Adding arch: sm_20
Adding identifier: backprop_cuda.cu
Done parsing!!!
GPGPU-Sim PTX: __cudaRegisterFunction _Z24bpnn_adjust_weights_cudaPfiS_iS_S_ : hostFun 0x0x402f24, fat_cubin_handle = 1
GPGPU-Sim PTX: allocating shared region for "__cuda___cuda_local_var_39781_34_non_const_input_node40" from 0x0 to 0x40 (shared memory space)
GPGPU-Sim PTX: allocating shared region for "__cuda___cuda_local_var_39782_34_non_const_weight_matrix104" from 0x80 to 0x480 (shared memory space)
GPGPU-Sim PTX: instruction assembly for function '_Z22bpnn_layerforward_CUDAPfS_S_S_ii'...   done.
GPGPU-Sim PTX: finding reconvergence points for '_Z22bpnn_layerforward_CUDAPfS_S_S_ii'...
GPGPU-Sim PTX: Finding dominators for '_Z22bpnn_layerforward_CUDAPfS_S_S_ii'...
GPGPU-Sim PTX: Finding immediate dominators for '_Z22bpnn_layerforward_CUDAPfS_S_S_ii'...
GPGPU-Sim PTX: Finding postdominators for '_Z22bpnn_layerforward_CUDAPfS_S_S_ii'...
GPGPU-Sim PTX: Finding immediate postdominators for '_Z22bpnn_layerforward_CUDAPfS_S_S_ii'...
GPGPU-Sim PTX: pre-decoding instructions for '_Z22bpnn_layerforward_CUDAPfS_S_S_ii'...
GPGPU-Sim PTX: reconvergence points for _Z22bpnn_layerforward_CUDAPfS_S_S_ii...
GPGPU-Sim PTX:  1 (potential) branch divergence @  PC=0x048 (_1.ptx:76) @!%p1 bra $Lt_0_3586;
GPGPU-Sim PTX:    immediate post dominator      @  PC=0x090 (_1.ptx:88) bar.sync 0;
GPGPU-Sim PTX:  2 (potential) branch divergence @  PC=0x190 (_1.ptx:125) @!%p2 bra $Lt_0_4098;
GPGPU-Sim PTX:    immediate post dominator      @  PC=0x290 (_1.ptx:166) ld.shared.f32 %f17, [%rd14+0];
GPGPU-Sim PTX:  3 (potential) branch divergence @  PC=0x1e8 (_1.ptx:139) @%p3 bra $Lt_0_4866;
GPGPU-Sim PTX:    immediate post dominator      @  PC=0x268 (_1.ptx:158) bar.sync 0;
GPGPU-Sim PTX:  4 (potential) branch divergence @  PC=0x288 (_1.ptx:163) @%p4 bra $Lt_0_4610;
GPGPU-Sim PTX:    immediate post dominator      @  PC=0x290 (_1.ptx:166) ld.shared.f32 %f17, [%rd14+0];
GPGPU-Sim PTX:  5 (potential) branch divergence @  PC=0x2a8 (_1.ptx:170) @!%p1 bra $Lt_0_5634;
GPGPU-Sim PTX:    immediate post dominator      @  PC=0x310 (_1.ptx:186) exit;
GPGPU-Sim PTX: ... end of reconvergence points for _Z22bpnn_layerforward_CUDAPfS_S_S_ii
GPGPU-Sim PTX: ... done pre-decoding instructions for '_Z22bpnn_layerforward_CUDAPfS_S_S_ii'.
GPGPU-Sim PTX: instruction assembly for function '_Z24bpnn_adjust_weights_cudaPfiS_iS_S_'...   done.
GPGPU-Sim PTX: finding reconvergence points for '_Z24bpnn_adjust_weights_cudaPfiS_iS_S_'...
GPGPU-Sim PTX: Finding dominators for '_Z24bpnn_adjust_weights_cudaPfiS_iS_S_'...
GPGPU-Sim PTX: Finding immediate dominators for '_Z24bpnn_adjust_weights_cudaPfiS_iS_S_'...
GPGPU-Sim PTX: Finding postdominators for '_Z24bpnn_adjust_weights_cudaPfiS_iS_S_'...
GPGPU-Sim PTX: Finding immediate postdominators for '_Z24bpnn_adjust_weights_cudaPfiS_iS_S_'...
GPGPU-Sim PTX: pre-decoding instructions for '_Z24bpnn_adjust_weights_cudaPfiS_iS_S_'...
GPGPU-Sim PTX: reconvergence points for _Z24bpnn_adjust_weights_cudaPfiS_iS_S_...
GPGPU-Sim PTX:  1 (potential) branch divergence @  PC=0x530 (_1.ptx:275) @%p1 bra $Lt_1_1282;
GPGPU-Sim PTX:    immediate post dominator      @  PC=0x600 (_1.ptx:305) exit;
GPGPU-Sim PTX: ... end of reconvergence points for _Z24bpnn_adjust_weights_cudaPfiS_iS_S_
GPGPU-Sim PTX: ... done pre-decoding instructions for '_Z24bpnn_adjust_weights_cudaPfiS_iS_S_'.
GPGPU-Sim PTX: finished parsing EMBEDDED .ptx file _1.ptx
Adding _cuobjdump_1.ptx with cubin handle 1
GPGPU-Sim PTX: extracting embedded .ptx to temporary file "_ptx_43jDXq"
Running: cat _ptx_43jDXq | sed 's/.version 1.5/.version 1.4/' | sed 's/, texmode_independent//' | sed 's/\(\.extern \.const\[1\] .b8 \w\+\)\[\]/\1\[1\]/' | sed 's/const\[.\]/const\[0\]/g' > _ptx2_JLAIVd
GPGPU-Sim PTX: generating ptxinfo using "$CUDA_INSTALL_PATH/bin/ptxas --gpu-name=sm_20 -v _ptx2_JLAIVd --output-file  /dev/null 2> _ptx_43jDXqinfo"
GPGPU-Sim PTX: Kernel '_Z24bpnn_adjust_weights_cudaPfiS_iS_S_' : regs=22, lmem=0, smem=0, cmem=80
GPGPU-Sim PTX: Kernel '_Z22bpnn_layerforward_CUDAPfS_S_S_ii' : regs=13, lmem=0, smem=1088, cmem=72
GPGPU-Sim PTX: removing ptxinfo using "rm -f _ptx_43jDXq _ptx2_JLAIVd _ptx_43jDXqinfo"
GPGPU-Sim PTX: loading globals with explicit initializers... 
GPGPU-Sim PTX: finished loading globals (0 bytes total).
GPGPU-Sim PTX: loading constants with explicit initializers...  done.
GPGPU-Sim PTX: __cudaRegisterFunction _Z22bpnn_layerforward_CUDAPfS_S_S_ii : hostFun 0x0x402dc8, fat_cubin_handle = 1
Random number generator seed: 7
Input layer size : 65536
Starting training kernel
Performing GPU computation

GPGPU-Sim PTX: cudaLaunch for 0x0x402dc8 (mode=performance simulation) on stream 0
GPGPU-Sim PTX: pushing kernel '_Z22bpnn_layerforward_CUDAPfS_S_S_ii' to stream 0, gridDim= (1,4096,1) blockDim = (16,16,1) 
kernel '_Z22bpnn_layerforward_CUDAPfS_S_S_ii' transfer to GPU hardware scheduler
GPGPU-Sim uArch: Shader 1 bind to kernel 1 '_Z22bpnn_layerforward_CUDAPfS_S_S_ii'
GPGPU-Sim uArch: CTA/core = 6, limited by: threads
GPGPU-Sim uArch: core:  1, cta: 0 initialized @(1,0)
GPGPU-Sim uArch: Shader 2 bind to kernel 1 '_Z22bpnn_layerforward_CUDAPfS_S_S_ii'
GPGPU-Sim uArch: core:  2, cta: 0 initialized @(1,0)
GPGPU-Sim uArch: Shader 3 bind to kernel 1 '_Z22bpnn_layerforward_CUDAPfS_S_S_ii'
GPGPU-Sim uArch: core:  3, cta: 0 initialized @(1,0)
GPGPU-Sim uArch: Shader 4 bind to kernel 1 '_Z22bpnn_layerforward_CUDAPfS_S_S_ii'
GPGPU-Sim uArch: core:  4, cta: 0 initialized @(1,0)
GPGPU-Sim uArch: Shader 5 bind to kernel 1 '_Z22bpnn_layerforward_CUDAPfS_S_S_ii'
GPGPU-Sim uArch: core:  5, cta: 0 initialized @(1,0)
GPGPU-Sim uArch: Shader 6 bind to kernel 1 '_Z22bpnn_layerforward_CUDAPfS_S_S_ii'
GPGPU-Sim uArch: core:  6, cta: 0 initialized @(1,0)
GPGPU-Sim uArch: Shader 7 bind to kernel 1 '_Z22bpnn_layerforward_CUDAPfS_S_S_ii'
GPGPU-Sim uArch: core:  7, cta: 0 initialized @(1,0)
GPGPU-Sim uArch: Shader 8 bind to kernel 1 '_Z22bpnn_layerforward_CUDAPfS_S_S_ii'
GPGPU-Sim uArch: core:  8, cta: 0 initialized @(1,0)
GPGPU-Sim uArch: Shader 9 bind to kernel 1 '_Z22bpnn_layerforward_CUDAPfS_S_S_ii'
GPGPU-Sim uArch: core:  9, cta: 0 initialized @(1,0)
GPGPU-Sim uArch: Shader 10 bind to kernel 1 '_Z22bpnn_layerforward_CUDAPfS_S_S_ii'
GPGPU-Sim uArch: core: 10, cta: 0 initialized @(1,0)
GPGPU-Sim uArch: Shader 11 bind to kernel 1 '_Z22bpnn_layerforward_CUDAPfS_S_S_ii'
GPGPU-Sim uArch: core: 11, cta: 0 initialized @(1,0)
GPGPU-Sim uArch: Shader 12 bind to kernel 1 '_Z22bpnn_layerforward_CUDAPfS_S_S_ii'
GPGPU-Sim uArch: core: 12, cta: 0 initialized @(1,0)
GPGPU-Sim uArch: Shader 13 bind to kernel 1 '_Z22bpnn_layerforward_CUDAPfS_S_S_ii'
GPGPU-Sim uArch: core: 13, cta: 0 initialized @(1,0)
GPGPU-Sim uArch: Shader 14 bind to kernel 1 '_Z22bpnn_layerforward_CUDAPfS_S_S_ii'
GPGPU-Sim uArch: core: 14, cta: 0 initialized @(1,0)
GPGPU-Sim uArch: Shader 0 bind to kernel 1 '_Z22bpnn_layerforward_CUDAPfS_S_S_ii'
GPGPU-Sim uArch: core:  0, cta: 0 initialized @(1,0)
GPGPU-Sim uArch: core:  1, cta: 1 initialized @(2,0)
GPGPU-Sim uArch: core:  2, cta: 1 initialized @(2,0)
GPGPU-Sim uArch: core:  3, cta: 1 initialized @(2,0)
GPGPU-Sim uArch: core:  4, cta: 1 initialized @(2,0)
GPGPU-Sim uArch: core:  5, cta: 1 initialized @(2,0)
GPGPU-Sim uArch: core:  6, cta: 1 initialized @(2,0)
GPGPU-Sim uArch: core:  7, cta: 1 initialized @(2,0)
GPGPU-Sim uArch: core:  8, cta: 1 initialized @(2,0)
GPGPU-Sim uArch: core:  9, cta: 1 initialized @(2,0)
GPGPU-Sim uArch: core: 10, cta: 1 initialized @(2,0)
GPGPU-Sim uArch: core: 11, cta: 1 initialized @(2,0)
GPGPU-Sim uArch: core: 12, cta: 1 initialized @(2,0)
GPGPU-Sim uArch: core: 13, cta: 1 initialized @(2,0)
GPGPU-Sim uArch: core: 14, cta: 1 initialized @(2,0)
GPGPU-Sim uArch: core:  0, cta: 1 initialized @(2,0)
GPGPU-Sim uArch: core:  1, cta: 2 initialized @(3,0)
GPGPU-Sim uArch: core:  2, cta: 2 initialized @(3,0)
GPGPU-Sim uArch: core:  3, cta: 2 initialized @(3,0)
GPGPU-Sim uArch: core:  4, cta: 2 initialized @(3,0)
GPGPU-Sim uArch: core:  5, cta: 2 initialized @(3,0)
GPGPU-Sim uArch: core:  6, cta: 2 initialized @(3,0)
GPGPU-Sim uArch: core:  7, cta: 2 initialized @(3,0)
GPGPU-Sim uArch: core:  8, cta: 2 initialized @(3,0)
GPGPU-Sim uArch: core:  9, cta: 2 initialized @(3,0)
GPGPU-Sim uArch: core: 10, cta: 2 initialized @(3,0)
GPGPU-Sim uArch: core: 11, cta: 2 initialized @(3,0)
GPGPU-Sim uArch: core: 12, cta: 2 initialized @(3,0)
GPGPU-Sim uArch: core: 13, cta: 2 initialized @(3,0)
GPGPU-Sim uArch: core: 14, cta: 2 initialized @(3,0)
GPGPU-Sim uArch: core:  0, cta: 2 initialized @(3,0)
GPGPU-Sim uArch: core:  1, cta: 3 initialized @(4,0)
GPGPU-Sim uArch: core:  2, cta: 3 initialized @(4,0)
GPGPU-Sim uArch: core:  3, cta: 3 initialized @(4,0)
GPGPU-Sim uArch: core:  4, cta: 3 initialized @(4,0)
GPGPU-Sim uArch: core:  5, cta: 3 initialized @(4,0)
GPGPU-Sim uArch: core:  6, cta: 3 initialized @(4,0)
GPGPU-Sim uArch: core:  7, cta: 3 initialized @(4,0)
GPGPU-Sim uArch: core:  8, cta: 3 initialized @(4,0)
GPGPU-Sim uArch: core:  9, cta: 3 initialized @(4,0)
GPGPU-Sim uArch: core: 10, cta: 3 initialized @(4,0)
GPGPU-Sim uArch: core: 11, cta: 3 initialized @(4,0)
GPGPU-Sim uArch: core: 12, cta: 3 initialized @(4,0)
GPGPU-Sim uArch: core: 13, cta: 3 initialized @(4,0)
GPGPU-Sim uArch: core: 14, cta: 3 initialized @(4,0)
GPGPU-Sim uArch: core:  0, cta: 3 initialized @(4,0)
GPGPU-Sim uArch: core:  1, cta: 4 initialized @(5,0)
GPGPU-Sim uArch: core:  2, cta: 4 initialized @(5,0)
GPGPU-Sim uArch: core:  3, cta: 4 initialized @(5,0)
GPGPU-Sim uArch: core:  4, cta: 4 initialized @(5,0)
GPGPU-Sim uArch: core:  5, cta: 4 initialized @(5,0)
GPGPU-Sim uArch: core:  6, cta: 4 initialized @(5,0)
GPGPU-Sim uArch: core:  7, cta: 4 initialized @(5,0)
GPGPU-Sim uArch: core:  8, cta: 4 initialized @(5,0)
GPGPU-Sim uArch: core:  9, cta: 4 initialized @(5,0)
GPGPU-Sim uArch: core: 10, cta: 4 initialized @(5,0)
GPGPU-Sim uArch: core: 11, cta: 4 initialized @(5,0)
GPGPU-Sim uArch: core: 12, cta: 4 initialized @(5,0)
GPGPU-Sim uArch: core: 13, cta: 4 initialized @(5,0)
GPGPU-Sim uArch: core: 14, cta: 4 initialized @(5,0)
GPGPU-Sim uArch: core:  0, cta: 4 initialized @(5,0)
GPGPU-Sim uArch: core:  1, cta: 5 initialized @(6,0)
GPGPU-Sim uArch: core:  2, cta: 5 initialized @(6,0)
GPGPU-Sim uArch: core:  3, cta: 5 initialized @(6,0)
GPGPU-Sim uArch: core:  4, cta: 5 initialized @(6,0)
GPGPU-Sim uArch: core:  5, cta: 5 initialized @(6,0)
GPGPU-Sim uArch: core:  6, cta: 5 initialized @(6,0)
GPGPU-Sim uArch: core:  7, cta: 5 initialized @(6,0)
GPGPU-Sim uArch: core:  8, cta: 5 initialized @(6,0)
GPGPU-Sim uArch: core:  9, cta: 5 initialized @(6,0)
GPGPU-Sim uArch: core: 10, cta: 5 initialized @(6,0)
GPGPU-Sim uArch: core: 11, cta: 5 initialized @(6,0)
GPGPU-Sim uArch: core: 12, cta: 5 initialized @(6,0)
GPGPU-Sim uArch: core: 13, cta: 5 initialized @(6,0)
GPGPU-Sim uArch: core: 14, cta: 5 initialized @(6,0)
GPGPU-Sim uArch: core:  0, cta: 5 initialized @(6,0)
GPGPU-Sim uArch: cycles simulated: 500  inst.: 39120 (ipc=78.2) sim_rate=4890 (inst/sec) elapsed = 0:0:00:08 / Tue Mar 22 12:46:20 2016
GPGPU-Sim uArch: cycles simulated: 1000  inst.: 39600 (ipc=39.6) sim_rate=2475 (inst/sec) elapsed = 0:0:00:16 / Tue Mar 22 12:46:28 2016
GPGPU-Sim PTX: 100000 instructions simulated : ctaid=(0,3,0) tid=(15,3,0)
GPGPU-Sim uArch: cycles simulated: 2000  inst.: 151462 (ipc=75.7) sim_rate=8909 (inst/sec) elapsed = 0:0:00:17 / Tue Mar 22 12:46:29 2016
GPGPU-Sim PTX: 200000 instructions simulated : ctaid=(0,13,0) tid=(13,7,0)
GPGPU-Sim PTX: 300000 instructions simulated : ctaid=(0,11,0) tid=(5,1,0)
GPGPU-Sim PTX: 400000 instructions simulated : ctaid=(0,9,0) tid=(1,4,0)
GPGPU-Sim PTX: 500000 instructions simulated : ctaid=(0,12,0) tid=(13,6,0)
GPGPU-Sim uArch: cycles simulated: 4000  inst.: 560174 (ipc=140.0) sim_rate=31120 (inst/sec) elapsed = 0:0:00:18 / Tue Mar 22 12:46:30 2016
GPGPU-Sim PTX: 600000 instructions simulated : ctaid=(0,46,0) tid=(7,11,0)
GPGPU-Sim uArch: Shader 10 finished CTA #0 (4481,0), 5 CTAs running
GPGPU-Sim uArch: core: 10, cta: 0 initialized @(4482,0)
GPGPU-Sim uArch: Shader 0 finished CTA #0 (4488,0), 5 CTAs running
GPGPU-Sim uArch: core:  0, cta: 0 initialized @(4489,0)
GPGPU-Sim uArch: Shader 4 finished CTA #0 (4499,0), 5 CTAs running
GPGPU-Sim uArch: core:  4, cta: 0 initialized @(4500,0)
GPGPU-Sim uArch: Shader 3 finished CTA #0 (4520,0), 5 CTAs running
GPGPU-Sim uArch: core:  3, cta: 0 initialized @(4521,0)
GPGPU-Sim PTX: 700000 instructions simulated : ctaid=(0,17,0) tid=(11,13,0)
GPGPU-Sim uArch: Shader 1 finished CTA #0 (4572,0), 5 CTAs running
GPGPU-Sim uArch: core:  1, cta: 0 initialized @(4573,0)
GPGPU-Sim uArch: Shader 2 finished CTA #0 (4577,0), 5 CTAs running
GPGPU-Sim uArch: core:  2, cta: 0 initialized @(4578,0)
GPGPU-Sim uArch: Shader 12 finished CTA #0 (4608,0), 5 CTAs running
GPGPU-Sim uArch: core: 12, cta: 0 initialized @(4609,0)
GPGPU-Sim uArch: Shader 9 finished CTA #0 (4624,0), 5 CTAs running
GPGPU-Sim uArch: core:  9, cta: 0 initialized @(4625,0)
GPGPU-Sim uArch: Shader 14 finished CTA #0 (4638,0), 5 CTAs running
GPGPU-Sim uArch: core: 14, cta: 0 initialized @(4639,0)
GPGPU-Sim uArch: Shader 11 finished CTA #0 (4640,0), 5 CTAs running
GPGPU-Sim uArch: core: 11, cta: 0 initialized @(4641,0)
GPGPU-Sim uArch: Shader 13 finished CTA #0 (4647,0), 5 CTAs running
GPGPU-Sim uArch: core: 13, cta: 0 initialized @(4648,0)
GPGPU-Sim uArch: Shader 6 finished CTA #0 (4651,0), 5 CTAs running
GPGPU-Sim uArch: core:  6, cta: 0 initialized @(4652,0)
GPGPU-Sim uArch: Shader 5 finished CTA #0 (4670,0), 5 CTAs running
GPGPU-Sim uArch: core:  5, cta: 0 initialized @(4671,0)
GPGPU-Sim uArch: Shader 7 finished CTA #0 (4675,0), 5 CTAs running
GPGPU-Sim uArch: core:  7, cta: 0 initialized @(4676,0)
GPGPU-Sim uArch: Shader 8 finished CTA #0 (4679,0), 5 CTAs running
GPGPU-Sim uArch: core:  8, cta: 0 initialized @(4680,0)
GPGPU-Sim PTX: 800000 instructions simulated : ctaid=(0,29,0) tid=(3,9,0)
GPGPU-Sim PTX: 900000 instructions simulated : ctaid=(0,44,0) tid=(11,5,0)
GPGPU-Sim PTX: 1000000 instructions simulated : ctaid=(0,17,0) tid=(13,9,0)
GPGPU-Sim uArch: cycles simulated: 5500  inst.: 994238 (ipc=180.8) sim_rate=52328 (inst/sec) elapsed = 0:0:00:19 / Tue Mar 22 12:46:31 2016
GPGPU-Sim PTX: 1100000 instructions simulated : ctaid=(0,31,0) tid=(15,5,0)
GPGPU-Sim uArch: Shader 1 finished CTA #1 (5790,0), 5 CTAs running
GPGPU-Sim uArch: core:  1, cta: 1 initialized @(5791,0)
GPGPU-Sim uArch: Shader 0 finished CTA #1 (5902,0), 5 CTAs running
GPGPU-Sim uArch: core:  0, cta: 1 initialized @(5903,0)
GPGPU-Sim uArch: Shader 5 finished CTA #1 (5929,0), 5 CTAs running
GPGPU-Sim uArch: core:  5, cta: 1 initialized @(5930,0)
GPGPU-Sim uArch: Shader 9 finished CTA #1 (5942,0), 5 CTAs running
GPGPU-Sim uArch: core:  9, cta: 1 initialized @(5943,0)
GPGPU-Sim uArch: Shader 13 finished CTA #1 (5959,0), 5 CTAs running
GPGPU-Sim uArch: core: 13, cta: 1 initialized @(5960,0)
GPGPU-Sim PTX: 1200000 instructions simulated : ctaid=(0,36,0) tid=(3,6,0)
GPGPU-Sim uArch: Shader 11 finished CTA #1 (6039,0), 5 CTAs running
GPGPU-Sim uArch: core: 11, cta: 1 initialized @(6040,0)
GPGPU-Sim uArch: Shader 3 finished CTA #1 (6068,0), 5 CTAs running
GPGPU-Sim uArch: core:  3, cta: 1 initialized @(6069,0)
GPGPU-Sim uArch: Shader 4 finished CTA #1 (6096,0), 5 CTAs running
GPGPU-Sim uArch: core:  4, cta: 1 initialized @(6097,0)
GPGPU-Sim uArch: Shader 10 finished CTA #1 (6125,0), 5 CTAs running
GPGPU-Sim uArch: core: 10, cta: 1 initialized @(6126,0)
GPGPU-Sim uArch: Shader 14 finished CTA #1 (6150,0), 5 CTAs running
GPGPU-Sim uArch: core: 14, cta: 1 initialized @(6151,0)
GPGPU-Sim uArch: Shader 12 finished CTA #1 (6170,0), 5 CTAs running
GPGPU-Sim uArch: core: 12, cta: 1 initialized @(6171,0)
GPGPU-Sim uArch: Shader 6 finished CTA #1 (6217,0), 5 CTAs running
GPGPU-Sim uArch: core:  6, cta: 1 initialized @(6218,0)
GPGPU-Sim uArch: Shader 7 finished CTA #1 (6237,0), 5 CTAs running
GPGPU-Sim uArch: core:  7, cta: 1 initialized @(6238,0)
GPGPU-Sim uArch: Shader 8 finished CTA #1 (6241,0), 5 CTAs running
GPGPU-Sim uArch: core:  8, cta: 1 initialized @(6242,0)
GPGPU-Sim PTX: 1300000 instructions simulated : ctaid=(0,38,0) tid=(13,10,0)
GPGPU-Sim uArch: Shader 2 finished CTA #1 (6371,0), 5 CTAs running
GPGPU-Sim uArch: core:  2, cta: 1 initialized @(6372,0)
GPGPU-Sim uArch: cycles simulated: 6500  inst.: 1326328 (ipc=204.1) sim_rate=66316 (inst/sec) elapsed = 0:0:00:20 / Tue Mar 22 12:46:32 2016
GPGPU-Sim PTX: 1400000 instructions simulated : ctaid=(0,41,0) tid=(9,0,0)
GPGPU-Sim PTX: 1500000 instructions simulated : ctaid=(0,33,0) tid=(11,13,0)
GPGPU-Sim PTX: 1600000 instructions simulated : ctaid=(0,34,0) tid=(1,6,0)
GPGPU-Sim uArch: Shader 3 finished CTA #2 (7262,0), 5 CTAs running
GPGPU-Sim uArch: core:  3, cta: 2 initialized @(7263,0)
GPGPU-Sim uArch: Shader 1 finished CTA #2 (7273,0), 5 CTAs running
GPGPU-Sim uArch: core:  1, cta: 2 initialized @(7274,0)
GPGPU-Sim uArch: Shader 10 finished CTA #2 (7274,0), 5 CTAs running
GPGPU-Sim uArch: core: 10, cta: 2 initialized @(7275,0)
GPGPU-Sim uArch: Shader 4 finished CTA #2 (7292,0), 5 CTAs running
GPGPU-Sim uArch: core:  4, cta: 2 initialized @(7293,0)
GPGPU-Sim uArch: Shader 14 finished CTA #2 (7304,0), 5 CTAs running
GPGPU-Sim uArch: core: 14, cta: 2 initialized @(7305,0)
GPGPU-Sim uArch: Shader 0 finished CTA #2 (7322,0), 5 CTAs running
GPGPU-Sim uArch: core:  0, cta: 2 initialized @(7323,0)
GPGPU-Sim uArch: Shader 6 finished CTA #2 (7412,0), 5 CTAs running
GPGPU-Sim uArch: core:  6, cta: 2 initialized @(7413,0)
GPGPU-Sim uArch: Shader 7 finished CTA #2 (7423,0), 5 CTAs running
GPGPU-Sim uArch: core:  7, cta: 2 initialized @(7424,0)
GPGPU-Sim uArch: Shader 8 finished CTA #2 (7427,0), 5 CTAs running
GPGPU-Sim uArch: core:  8, cta: 2 initialized @(7428,0)
GPGPU-Sim uArch: Shader 11 finished CTA #2 (7447,0), 5 CTAs running
GPGPU-Sim uArch: core: 11, cta: 2 initialized @(7448,0)
GPGPU-Sim uArch: Shader 2 finished CTA #2 (7452,0), 5 CTAs running
GPGPU-Sim uArch: core:  2, cta: 2 initialized @(7453,0)
GPGPU-Sim uArch: Shader 12 finished CTA #2 (7454,0), 5 CTAs running
GPGPU-Sim uArch: core: 12, cta: 2 initialized @(7455,0)
GPGPU-Sim uArch: Shader 13 finished CTA #2 (7470,0), 5 CTAs running
GPGPU-Sim uArch: core: 13, cta: 2 initialized @(7471,0)
GPGPU-Sim uArch: Shader 5 finished CTA #2 (7497,0), 5 CTAs running
GPGPU-Sim uArch: core:  5, cta: 2 initialized @(7498,0)
GPGPU-Sim uArch: cycles simulated: 7500  inst.: 1652058 (ipc=220.3) sim_rate=78669 (inst/sec) elapsed = 0:0:00:21 / Tue Mar 22 12:46:33 2016
GPGPU-Sim PTX: 1700000 instructions simulated : ctaid=(0,52,0) tid=(13,1,0)
GPGPU-Sim uArch: Shader 9 finished CTA #2 (7543,0), 5 CTAs running
GPGPU-Sim uArch: core:  9, cta: 2 initialized @(7544,0)
GPGPU-Sim PTX: 1800000 instructions simulated : ctaid=(0,46,0) tid=(11,0,0)
GPGPU-Sim PTX: 1900000 instructions simulated : ctaid=(0,87,0) tid=(3,13,0)
GPGPU-Sim PTX: 2000000 instructions simulated : ctaid=(0,75,0) tid=(11,4,0)
GPGPU-Sim uArch: Shader 1 finished CTA #3 (8417,0), 5 CTAs running
GPGPU-Sim uArch: core:  1, cta: 3 initialized @(8418,0)
GPGPU-Sim uArch: cycles simulated: 8500  inst.: 1989764 (ipc=234.1) sim_rate=90443 (inst/sec) elapsed = 0:0:00:22 / Tue Mar 22 12:46:34 2016
GPGPU-Sim uArch: Shader 0 finished CTA #3 (8526,0), 5 CTAs running
GPGPU-Sim uArch: core:  0, cta: 3 initialized @(8527,0)
GPGPU-Sim uArch: Shader 3 finished CTA #3 (8533,0), 5 CTAs running
GPGPU-Sim uArch: core:  3, cta: 3 initialized @(8534,0)
GPGPU-Sim uArch: Shader 11 finished CTA #3 (8538,0), 5 CTAs running
GPGPU-Sim uArch: core: 11, cta: 3 initialized @(8539,0)
GPGPU-Sim uArch: Shader 7 finished CTA #3 (8601,0), 5 CTAs running
GPGPU-Sim uArch: core:  7, cta: 3 initialized @(8602,0)
GPGPU-Sim uArch: Shader 13 finished CTA #3 (8667,0), 5 CTAs running
GPGPU-Sim uArch: core: 13, cta: 3 initialized @(8668,0)
GPGPU-Sim uArch: Shader 6 finished CTA #3 (8669,0), 5 CTAs running
GPGPU-Sim uArch: core:  6, cta: 3 initialized @(8670,0)
GPGPU-Sim uArch: Shader 14 finished CTA #3 (8674,0), 5 CTAs running
GPGPU-Sim uArch: core: 14, cta: 3 initialized @(8675,0)
GPGPU-Sim uArch: Shader 9 finished CTA #3 (8683,0), 5 CTAs running
GPGPU-Sim uArch: core:  9, cta: 3 initialized @(8684,0)
GPGPU-Sim PTX: 2100000 instructions simulated : ctaid=(0,62,0) tid=(11,2,0)
GPGPU-Sim uArch: Shader 8 finished CTA #3 (8701,0), 5 CTAs running
GPGPU-Sim uArch: core:  8, cta: 3 initialized @(8702,0)
GPGPU-Sim uArch: Shader 2 finished CTA #3 (8728,0), 5 CTAs running
GPGPU-Sim uArch: core:  2, cta: 3 initialized @(8729,0)
GPGPU-Sim uArch: Shader 5 finished CTA #3 (8729,0), 5 CTAs running
GPGPU-Sim uArch: core:  5, cta: 3 initialized @(8730,0)
GPGPU-Sim uArch: Shader 4 finished CTA #3 (8759,0), 5 CTAs running
GPGPU-Sim uArch: core:  4, cta: 3 initialized @(8760,0)
GPGPU-Sim uArch: Shader 12 finished CTA #3 (8788,0), 5 CTAs running
GPGPU-Sim uArch: core: 12, cta: 3 initialized @(8789,0)
GPGPU-Sim PTX: 2200000 instructions simulated : ctaid=(0,84,0) tid=(11,0,0)
GPGPU-Sim uArch: cycles simulated: 9000  inst.: 2147964 (ipc=238.7) sim_rate=93389 (inst/sec) elapsed = 0:0:00:23 / Tue Mar 22 12:46:35 2016
GPGPU-Sim uArch: Shader 10 finished CTA #3 (9015,0), 5 CTAs running
GPGPU-Sim uArch: core: 10, cta: 3 initialized @(9016,0)
GPGPU-Sim PTX: 2300000 instructions simulated : ctaid=(0,74,0) tid=(11,1,0)
GPGPU-Sim uArch: cycles simulated: 9500  inst.: 2323310 (ipc=244.6) sim_rate=96804 (inst/sec) elapsed = 0:0:00:24 / Tue Mar 22 12:46:36 2016
GPGPU-Sim PTX: 2400000 instructions simulated : ctaid=(0,81,0) tid=(11,2,0)
GPGPU-Sim PTX: 2500000 instructions simulated : ctaid=(0,89,0) tid=(7,14,0)
GPGPU-Sim uArch: Shader 6 finished CTA #4 (9855,0), 5 CTAs running
GPGPU-Sim uArch: core:  6, cta: 4 initialized @(9856,0)
GPGPU-Sim uArch: Shader 14 finished CTA #4 (9899,0), 5 CTAs running
GPGPU-Sim uArch: core: 14, cta: 4 initialized @(9900,0)
GPGPU-Sim uArch: Shader 12 finished CTA #4 (9913,0), 5 CTAs running
GPGPU-Sim uArch: core: 12, cta: 4 initialized @(9914,0)
GPGPU-Sim uArch: Shader 8 finished CTA #4 (9990,0), 5 CTAs running
GPGPU-Sim uArch: core:  8, cta: 4 initialized @(9991,0)
GPGPU-Sim uArch: Shader 4 finished CTA #4 (10027,0), 5 CTAs running
GPGPU-Sim uArch: core:  4, cta: 4 initialized @(10028,0)
GPGPU-Sim uArch: Shader 0 finished CTA #4 (10034,0), 5 CTAs running
GPGPU-Sim uArch: core:  0, cta: 4 initialized @(10035,0)
GPGPU-Sim uArch: Shader 5 finished CTA #4 (10038,0), 5 CTAs running
GPGPU-Sim uArch: core:  5, cta: 4 initialized @(10039,0)
GPGPU-Sim uArch: Shader 11 finished CTA #4 (10045,0), 5 CTAs running
GPGPU-Sim uArch: core: 11, cta: 4 initialized @(10046,0)
GPGPU-Sim uArch: Shader 10 finished CTA #4 (10139,0), 5 CTAs running
GPGPU-Sim uArch: core: 10, cta: 4 initialized @(10140,0)
GPGPU-Sim uArch: Shader 13 finished CTA #4 (10146,0), 5 CTAs running
GPGPU-Sim uArch: core: 13, cta: 4 initialized @(10147,0)
GPGPU-Sim uArch: Shader 9 finished CTA #4 (10152,0), 5 CTAs running
GPGPU-Sim uArch: core:  9, cta: 4 initialized @(10153,0)
GPGPU-Sim PTX: 2600000 instructions simulated : ctaid=(0,78,0) tid=(1,1,0)
GPGPU-Sim uArch: Shader 1 finished CTA #4 (10243,0), 5 CTAs running
GPGPU-Sim uArch: core:  1, cta: 4 initialized @(10244,0)
GPGPU-Sim uArch: Shader 7 finished CTA #4 (10246,0), 5 CTAs running
GPGPU-Sim uArch: core:  7, cta: 4 initialized @(10247,0)
GPGPU-Sim uArch: Shader 2 finished CTA #4 (10340,0), 5 CTAs running
GPGPU-Sim uArch: core:  2, cta: 4 initialized @(10341,0)
GPGPU-Sim uArch: Shader 3 finished CTA #4 (10367,0), 5 CTAs running
GPGPU-Sim uArch: core:  3, cta: 4 initialized @(10368,0)
GPGPU-Sim PTX: 2700000 instructions simulated : ctaid=(0,79,0) tid=(3,11,0)
GPGPU-Sim uArch: cycles simulated: 10500  inst.: 2648414 (ipc=252.2) sim_rate=105936 (inst/sec) elapsed = 0:0:00:25 / Tue Mar 22 12:46:37 2016
GPGPU-Sim PTX: 2800000 instructions simulated : ctaid=(0,77,0) tid=(9,4,0)
GPGPU-Sim PTX: 2900000 instructions simulated : ctaid=(0,109,0) tid=(15,6,0)
GPGPU-Sim uArch: Shader 1 finished CTA #5 (11097,0), 5 CTAs running
GPGPU-Sim uArch: core:  1, cta: 5 initialized @(11098,0)
GPGPU-Sim uArch: Shader 13 finished CTA #5 (11108,0), 5 CTAs running
GPGPU-Sim uArch: core: 13, cta: 5 initialized @(11109,0)
GPGPU-Sim uArch: Shader 0 finished CTA #5 (11129,0), 5 CTAs running
GPGPU-Sim uArch: core:  0, cta: 5 initialized @(11130,0)
GPGPU-Sim uArch: Shader 11 finished CTA #5 (11245,0), 5 CTAs running
GPGPU-Sim uArch: core: 11, cta: 5 initialized @(11246,0)
GPGPU-Sim uArch: Shader 9 finished CTA #5 (11252,0), 5 CTAs running
GPGPU-Sim uArch: core:  9, cta: 5 initialized @(11253,0)
GPGPU-Sim uArch: Shader 5 finished CTA #5 (11263,0), 5 CTAs running
GPGPU-Sim uArch: core:  5, cta: 5 initialized @(11264,0)
GPGPU-Sim uArch: Shader 12 finished CTA #5 (11373,0), 5 CTAs running
GPGPU-Sim uArch: core: 12, cta: 5 initialized @(11374,0)
GPGPU-Sim PTX: 3000000 instructions simulated : ctaid=(0,96,0) tid=(11,4,0)
GPGPU-Sim uArch: Shader 3 finished CTA #5 (11393,0), 5 CTAs running
GPGPU-Sim uArch: core:  3, cta: 5 initialized @(11394,0)
GPGPU-Sim uArch: Shader 4 finished CTA #5 (11413,0), 5 CTAs running
GPGPU-Sim uArch: core:  4, cta: 5 initialized @(11414,0)
GPGPU-Sim uArch: Shader 14 finished CTA #5 (11415,0), 5 CTAs running
GPGPU-Sim uArch: core: 14, cta: 5 initialized @(11416,0)
GPGPU-Sim uArch: Shader 10 finished CTA #5 (11452,0), 5 CTAs running
GPGPU-Sim uArch: core: 10, cta: 5 initialized @(11453,0)
GPGPU-Sim uArch: Shader 7 finished CTA #5 (11490,0), 5 CTAs running
GPGPU-Sim uArch: core:  7, cta: 5 initialized @(11491,0)
GPGPU-Sim uArch: cycles simulated: 11500  inst.: 2961544 (ipc=257.5) sim_rate=113905 (inst/sec) elapsed = 0:0:00:26 / Tue Mar 22 12:46:38 2016
GPGPU-Sim uArch: Shader 8 finished CTA #5 (11528,0), 5 CTAs running
GPGPU-Sim uArch: core:  8, cta: 5 initialized @(11529,0)
GPGPU-Sim uArch: Shader 6 finished CTA #5 (11538,0), 5 CTAs running
GPGPU-Sim uArch: core:  6, cta: 5 initialized @(11539,0)
GPGPU-Sim PTX: 3100000 instructions simulated : ctaid=(0,113,0) tid=(9,11,0)
GPGPU-Sim uArch: Shader 2 finished CTA #5 (11723,0), 5 CTAs running
GPGPU-Sim uArch: core:  2, cta: 5 initialized @(11724,0)
GPGPU-Sim PTX: 3200000 instructions simulated : ctaid=(0,93,0) tid=(11,11,0)
GPGPU-Sim PTX: 3300000 instructions simulated : ctaid=(0,94,0) tid=(3,12,0)
GPGPU-Sim uArch: Shader 11 finished CTA #0 (12477,0), 5 CTAs running
GPGPU-Sim uArch: core: 11, cta: 0 initialized @(12478,0)
GPGPU-Sim uArch: cycles simulated: 12500  inst.: 3295212 (ipc=263.6) sim_rate=122044 (inst/sec) elapsed = 0:0:00:27 / Tue Mar 22 12:46:39 2016
GPGPU-Sim PTX: 3400000 instructions simulated : ctaid=(0,102,0) tid=(7,10,0)
GPGPU-Sim uArch: Shader 0 finished CTA #0 (12557,0), 5 CTAs running
GPGPU-Sim uArch: core:  0, cta: 0 initialized @(12558,0)
GPGPU-Sim uArch: Shader 9 finished CTA #0 (12608,0), 5 CTAs running
GPGPU-Sim uArch: core:  9, cta: 0 initialized @(12609,0)
GPGPU-Sim uArch: Shader 3 finished CTA #0 (12628,0), 5 CTAs running
GPGPU-Sim uArch: core:  3, cta: 0 initialized @(12629,0)
GPGPU-Sim uArch: Shader 4 finished CTA #0 (12646,0), 5 CTAs running
GPGPU-Sim uArch: core:  4, cta: 0 initialized @(12647,0)
GPGPU-Sim uArch: Shader 6 finished CTA #0 (12671,0), 5 CTAs running
GPGPU-Sim uArch: core:  6, cta: 0 initialized @(12672,0)
GPGPU-Sim uArch: Shader 12 finished CTA #0 (12753,0), 5 CTAs running
GPGPU-Sim uArch: core: 12, cta: 0 initialized @(12754,0)
GPGPU-Sim uArch: Shader 8 finished CTA #0 (12766,0), 5 CTAs running
GPGPU-Sim uArch: core:  8, cta: 0 initialized @(12767,0)
GPGPU-Sim uArch: Shader 10 finished CTA #0 (12768,0), 5 CTAs running
GPGPU-Sim uArch: core: 10, cta: 0 initialized @(12769,0)
GPGPU-Sim uArch: Shader 14 finished CTA #0 (12775,0), 5 CTAs running
GPGPU-Sim uArch: core: 14, cta: 0 initialized @(12776,0)
GPGPU-Sim PTX: 3500000 instructions simulated : ctaid=(0,114,0) tid=(7,15,0)
GPGPU-Sim uArch: Shader 1 finished CTA #0 (12893,0), 5 CTAs running
GPGPU-Sim uArch: core:  1, cta: 0 initialized @(12894,0)
GPGPU-Sim uArch: Shader 2 finished CTA #0 (12953,0), 5 CTAs running
GPGPU-Sim uArch: core:  2, cta: 0 initialized @(12954,0)
GPGPU-Sim uArch: Shader 13 finished CTA #0 (12961,0), 5 CTAs running
GPGPU-Sim uArch: core: 13, cta: 0 initialized @(12962,0)
GPGPU-Sim uArch: Shader 7 finished CTA #0 (12965,0), 5 CTAs running
GPGPU-Sim uArch: core:  7, cta: 0 initialized @(12966,0)
GPGPU-Sim uArch: Shader 5 finished CTA #0 (12976,0), 5 CTAs running
GPGPU-Sim uArch: core:  5, cta: 0 initialized @(12977,0)
GPGPU-Sim uArch: cycles simulated: 13000  inst.: 3457878 (ipc=266.0) sim_rate=123495 (inst/sec) elapsed = 0:0:00:28 / Tue Mar 22 12:46:40 2016
GPGPU-Sim PTX: 3600000 instructions simulated : ctaid=(0,106,0) tid=(15,8,0)
GPGPU-Sim PTX: 3700000 instructions simulated : ctaid=(0,108,0) tid=(11,15,0)
GPGPU-Sim PTX: 3800000 instructions simulated : ctaid=(0,151,0) tid=(7,1,0)
GPGPU-Sim uArch: Shader 12 finished CTA #1 (13772,0), 5 CTAs running
GPGPU-Sim uArch: core: 12, cta: 1 initialized @(13773,0)
GPGPU-Sim uArch: Shader 0 finished CTA #1 (13880,0), 5 CTAs running
GPGPU-Sim uArch: Shader 3 finished CTA #1 (13880,0), 5 CTAs running
GPGPU-Sim uArch: core:  0, cta: 1 initialized @(13881,0)
GPGPU-Sim uArch: core:  3, cta: 1 initialized @(13881,0)
GPGPU-Sim uArch: Shader 1 finished CTA #1 (13919,0), 5 CTAs running
GPGPU-Sim uArch: core:  1, cta: 1 initialized @(13920,0)
GPGPU-Sim uArch: Shader 14 finished CTA #1 (13928,0), 5 CTAs running
GPGPU-Sim uArch: core: 14, cta: 1 initialized @(13929,0)
GPGPU-Sim uArch: cycles simulated: 14000  inst.: 3775530 (ipc=269.7) sim_rate=130190 (inst/sec) elapsed = 0:0:00:29 / Tue Mar 22 12:46:41 2016
GPGPU-Sim uArch: Shader 13 finished CTA #1 (14019,0), 5 CTAs running
GPGPU-Sim uArch: core: 13, cta: 1 initialized @(14020,0)
GPGPU-Sim uArch: Shader 7 finished CTA #1 (14031,0), 5 CTAs running
GPGPU-Sim uArch: core:  7, cta: 1 initialized @(14032,0)
GPGPU-Sim uArch: Shader 8 finished CTA #1 (14037,0), 5 CTAs running
GPGPU-Sim uArch: core:  8, cta: 1 initialized @(14038,0)
GPGPU-Sim uArch: Shader 4 finished CTA #1 (14039,0), 5 CTAs running
GPGPU-Sim uArch: core:  4, cta: 1 initialized @(14040,0)
GPGPU-Sim uArch: Shader 5 finished CTA #1 (14047,0), 5 CTAs running
GPGPU-Sim uArch: Shader 11 finished CTA #1 (14047,0), 5 CTAs running
GPGPU-Sim uArch: core:  5, cta: 1 initialized @(14048,0)
GPGPU-Sim uArch: core: 11, cta: 1 initialized @(14048,0)
GPGPU-Sim uArch: Shader 10 finished CTA #1 (14057,0), 5 CTAs running
GPGPU-Sim uArch: core: 10, cta: 1 initialized @(14058,0)
GPGPU-Sim uArch: Shader 6 finished CTA #1 (14067,0), 5 CTAs running
GPGPU-Sim uArch: core:  6, cta: 1 initialized @(14068,0)
GPGPU-Sim PTX: 3900000 instructions simulated : ctaid=(0,126,0) tid=(11,2,0)
GPGPU-Sim uArch: Shader 2 finished CTA #1 (14078,0), 5 CTAs running
GPGPU-Sim uArch: core:  2, cta: 1 initialized @(14079,0)
GPGPU-Sim uArch: Shader 9 finished CTA #1 (14157,0), 5 CTAs running
GPGPU-Sim uArch: core:  9, cta: 1 initialized @(14158,0)
GPGPU-Sim PTX: 4000000 instructions simulated : ctaid=(0,120,0) tid=(13,4,0)
GPGPU-Sim PTX: 4100000 instructions simulated : ctaid=(0,132,0) tid=(11,7,0)
GPGPU-Sim PTX: 4200000 instructions simulated : ctaid=(0,122,0) tid=(15,8,0)
GPGPU-Sim uArch: cycles simulated: 15000  inst.: 4101260 (ipc=273.4) sim_rate=136708 (inst/sec) elapsed = 0:0:00:30 / Tue Mar 22 12:46:42 2016
GPGPU-Sim uArch: Shader 11 finished CTA #2 (15126,0), 5 CTAs running
GPGPU-Sim uArch: core: 11, cta: 2 initialized @(15127,0)
GPGPU-Sim uArch: Shader 1 finished CTA #2 (15186,0), 5 CTAs running
GPGPU-Sim uArch: core:  1, cta: 2 initialized @(15187,0)
GPGPU-Sim uArch: Shader 0 finished CTA #2 (15190,0), 5 CTAs running
GPGPU-Sim uArch: core:  0, cta: 2 initialized @(15191,0)
GPGPU-Sim uArch: Shader 12 finished CTA #2 (15257,0), 5 CTAs running
GPGPU-Sim uArch: core: 12, cta: 2 initialized @(15258,0)
GPGPU-Sim uArch: Shader 13 finished CTA #2 (15265,0), 5 CTAs running
GPGPU-Sim uArch: core: 13, cta: 2 initialized @(15266,0)
GPGPU-Sim PTX: 4300000 instructions simulated : ctaid=(0,145,0) tid=(15,14,0)
GPGPU-Sim uArch: Shader 4 finished CTA #2 (15316,0), 5 CTAs running
GPGPU-Sim uArch: core:  4, cta: 2 initialized @(15317,0)
GPGPU-Sim uArch: Shader 7 finished CTA #2 (15355,0), 5 CTAs running
GPGPU-Sim uArch: core:  7, cta: 2 initialized @(15356,0)
GPGPU-Sim uArch: Shader 6 finished CTA #2 (15361,0), 5 CTAs running
GPGPU-Sim uArch: core:  6, cta: 2 initialized @(15362,0)
GPGPU-Sim uArch: Shader 9 finished CTA #2 (15396,0), 5 CTAs running
GPGPU-Sim uArch: core:  9, cta: 2 initialized @(15397,0)
GPGPU-Sim uArch: Shader 5 finished CTA #2 (15414,0), 5 CTAs running
GPGPU-Sim uArch: core:  5, cta: 2 initialized @(15415,0)
GPGPU-Sim uArch: Shader 3 finished CTA #2 (15438,0), 5 CTAs running
GPGPU-Sim uArch: core:  3, cta: 2 initialized @(15439,0)
GPGPU-Sim uArch: Shader 8 finished CTA #2 (15525,0), 5 CTAs running
GPGPU-Sim uArch: core:  8, cta: 2 initialized @(15526,0)
GPGPU-Sim PTX: 4400000 instructions simulated : ctaid=(0,143,0) tid=(15,7,0)
GPGPU-Sim uArch: Shader 14 finished CTA #2 (15665,0), 5 CTAs running
GPGPU-Sim uArch: core: 14, cta: 2 initialized @(15666,0)
GPGPU-Sim uArch: Shader 10 finished CTA #2 (15673,0), 5 CTAs running
GPGPU-Sim uArch: core: 10, cta: 2 initialized @(15674,0)
GPGPU-Sim uArch: Shader 2 finished CTA #2 (15683,0), 5 CTAs running
GPGPU-Sim uArch: core:  2, cta: 2 initialized @(15684,0)
GPGPU-Sim PTX: 4500000 instructions simulated : ctaid=(0,157,0) tid=(3,1,0)
GPGPU-Sim uArch: cycles simulated: 16000  inst.: 4428892 (ipc=276.8) sim_rate=142867 (inst/sec) elapsed = 0:0:00:31 / Tue Mar 22 12:46:43 2016
GPGPU-Sim PTX: 4600000 instructions simulated : ctaid=(0,137,0) tid=(9,15,0)
GPGPU-Sim uArch: Shader 1 finished CTA #3 (16357,0), 5 CTAs running
GPGPU-Sim uArch: core:  1, cta: 3 initialized @(16358,0)
GPGPU-Sim uArch: Shader 9 finished CTA #3 (16429,0), 5 CTAs running
GPGPU-Sim uArch: core:  9, cta: 3 initialized @(16430,0)
GPGPU-Sim PTX: 4700000 instructions simulated : ctaid=(0,156,0) tid=(9,6,0)
GPGPU-Sim uArch: cycles simulated: 16500  inst.: 4585520 (ipc=277.9) sim_rate=143297 (inst/sec) elapsed = 0:0:00:32 / Tue Mar 22 12:46:44 2016
GPGPU-Sim uArch: Shader 3 finished CTA #3 (16560,0), 5 CTAs running
GPGPU-Sim uArch: core:  3, cta: 3 initialized @(16561,0)
GPGPU-Sim uArch: Shader 4 finished CTA #3 (16647,0), 5 CTAs running
GPGPU-Sim uArch: core:  4, cta: 3 initialized @(16648,0)
GPGPU-Sim uArch: Shader 6 finished CTA #3 (16693,0), 5 CTAs running
GPGPU-Sim uArch: core:  6, cta: 3 initialized @(16694,0)
GPGPU-Sim uArch: Shader 13 finished CTA #3 (16703,0), 5 CTAs running
GPGPU-Sim uArch: core: 13, cta: 3 initialized @(16704,0)
GPGPU-Sim uArch: Shader 11 finished CTA #3 (16710,0), 5 CTAs running
GPGPU-Sim uArch: core: 11, cta: 3 initialized @(16711,0)
GPGPU-Sim uArch: Shader 0 finished CTA #3 (16718,0), 5 CTAs running
GPGPU-Sim uArch: core:  0, cta: 3 initialized @(16719,0)
GPGPU-Sim uArch: Shader 7 finished CTA #3 (16726,0), 5 CTAs running
GPGPU-Sim uArch: core:  7, cta: 3 initialized @(16727,0)
GPGPU-Sim uArch: Shader 12 finished CTA #3 (16728,0), 5 CTAs running
GPGPU-Sim uArch: core: 12, cta: 3 initialized @(16729,0)
GPGPU-Sim uArch: Shader 10 finished CTA #3 (16754,0), 5 CTAs running
GPGPU-Sim uArch: core: 10, cta: 3 initialized @(16755,0)
GPGPU-Sim PTX: 4800000 instructions simulated : ctaid=(0,159,0) tid=(11,2,0)
GPGPU-Sim uArch: Shader 8 finished CTA #3 (16807,0), 5 CTAs running
GPGPU-Sim uArch: core:  8, cta: 3 initialized @(16808,0)
GPGPU-Sim uArch: Shader 2 finished CTA #3 (16835,0), 5 CTAs running
GPGPU-Sim uArch: core:  2, cta: 3 initialized @(16836,0)
GPGPU-Sim uArch: Shader 5 finished CTA #3 (16852,0), 5 CTAs running
GPGPU-Sim uArch: core:  5, cta: 3 initialized @(16853,0)
GPGPU-Sim uArch: Shader 14 finished CTA #3 (16854,0), 5 CTAs running
GPGPU-Sim uArch: core: 14, cta: 3 initialized @(16855,0)
GPGPU-Sim PTX: 4900000 instructions simulated : ctaid=(0,158,0) tid=(1,10,0)
GPGPU-Sim PTX: 5000000 instructions simulated : ctaid=(0,177,0) tid=(5,5,0)
GPGPU-Sim uArch: cycles simulated: 17500  inst.: 4913474 (ipc=280.8) sim_rate=148893 (inst/sec) elapsed = 0:0:00:33 / Tue Mar 22 12:46:45 2016
GPGPU-Sim PTX: 5100000 instructions simulated : ctaid=(0,191,0) tid=(13,0,0)
GPGPU-Sim uArch: Shader 11 finished CTA #4 (17717,0), 5 CTAs running
GPGPU-Sim uArch: core: 11, cta: 4 initialized @(17718,0)
GPGPU-Sim uArch: Shader 0 finished CTA #4 (17791,0), 5 CTAs running
GPGPU-Sim uArch: core:  0, cta: 4 initialized @(17792,0)
GPGPU-Sim uArch: Shader 13 finished CTA #4 (17876,0), 5 CTAs running
GPGPU-Sim uArch: core: 13, cta: 4 initialized @(17877,0)
GPGPU-Sim uArch: Shader 3 finished CTA #4 (17877,0), 5 CTAs running
GPGPU-Sim uArch: core:  3, cta: 4 initialized @(17878,0)
GPGPU-Sim uArch: Shader 1 finished CTA #4 (17888,0), 5 CTAs running
GPGPU-Sim uArch: core:  1, cta: 4 initialized @(17889,0)
GPGPU-Sim uArch: Shader 12 finished CTA #4 (17921,0), 5 CTAs running
GPGPU-Sim uArch: core: 12, cta: 4 initialized @(17922,0)
GPGPU-Sim uArch: Shader 9 finished CTA #4 (17930,0), 5 CTAs running
GPGPU-Sim uArch: core:  9, cta: 4 initialized @(17931,0)
GPGPU-Sim uArch: Shader 4 finished CTA #4 (17945,0), 5 CTAs running
GPGPU-Sim uArch: core:  4, cta: 4 initialized @(17946,0)
GPGPU-Sim PTX: 5200000 instructions simulated : ctaid=(0,158,0) tid=(9,9,0)
GPGPU-Sim uArch: Shader 8 finished CTA #4 (17998,0), 5 CTAs running
GPGPU-Sim uArch: core:  8, cta: 4 initialized @(17999,0)
GPGPU-Sim uArch: Shader 5 finished CTA #4 (18025,0), 5 CTAs running
GPGPU-Sim uArch: core:  5, cta: 4 initialized @(18026,0)
GPGPU-Sim uArch: Shader 14 finished CTA #4 (18040,0), 5 CTAs running
GPGPU-Sim uArch: core: 14, cta: 4 initialized @(18041,0)
GPGPU-Sim uArch: Shader 6 finished CTA #4 (18160,0), 5 CTAs running
GPGPU-Sim uArch: core:  6, cta: 4 initialized @(18161,0)
GPGPU-Sim uArch: Shader 2 finished CTA #4 (18168,0), 5 CTAs running
GPGPU-Sim uArch: core:  2, cta: 4 initialized @(18169,0)
GPGPU-Sim uArch: Shader 7 finished CTA #4 (18223,0), 5 CTAs running
GPGPU-Sim uArch: core:  7, cta: 4 initialized @(18224,0)
GPGPU-Sim uArch: Shader 10 finished CTA #4 (18254,0), 5 CTAs running
GPGPU-Sim uArch: core: 10, cta: 4 initialized @(18255,0)
GPGPU-Sim PTX: 5300000 instructions simulated : ctaid=(0,252,0) tid=(7,3,0)
GPGPU-Sim uArch: cycles simulated: 18500  inst.: 5236050 (ipc=283.0) sim_rate=154001 (inst/sec) elapsed = 0:0:00:34 / Tue Mar 22 12:46:46 2016
GPGPU-Sim PTX: 5400000 instructions simulated : ctaid=(0,192,0) tid=(5,3,0)
GPGPU-Sim PTX: 5500000 instructions simulated : ctaid=(0,176,0) tid=(13,8,0)
GPGPU-Sim uArch: Shader 1 finished CTA #5 (19014,0), 5 CTAs running
GPGPU-Sim uArch: core:  1, cta: 5 initialized @(19015,0)
GPGPU-Sim uArch: Shader 11 finished CTA #5 (19089,0), 5 CTAs running
GPGPU-Sim uArch: core: 11, cta: 5 initialized @(19090,0)
GPGPU-Sim uArch: Shader 0 finished CTA #5 (19156,0), 5 CTAs running
GPGPU-Sim uArch: core:  0, cta: 5 initialized @(19157,0)
GPGPU-Sim uArch: Shader 13 finished CTA #5 (19181,0), 5 CTAs running
GPGPU-Sim uArch: core: 13, cta: 5 initialized @(19182,0)
GPGPU-Sim PTX: 5600000 instructions simulated : ctaid=(0,189,0) tid=(3,8,0)
GPGPU-Sim uArch: Shader 12 finished CTA #5 (19224,0), 5 CTAs running
GPGPU-Sim uArch: core: 12, cta: 5 initialized @(19225,0)
GPGPU-Sim uArch: Shader 9 finished CTA #5 (19234,0), 5 CTAs running
GPGPU-Sim uArch: core:  9, cta: 5 initialized @(19235,0)
GPGPU-Sim uArch: Shader 4 finished CTA #5 (19262,0), 5 CTAs running
GPGPU-Sim uArch: core:  4, cta: 5 initialized @(19263,0)
GPGPU-Sim uArch: Shader 3 finished CTA #5 (19273,0), 5 CTAs running
GPGPU-Sim uArch: core:  3, cta: 5 initialized @(19274,0)
GPGPU-Sim uArch: Shader 2 finished CTA #5 (19438,0), 5 CTAs running
GPGPU-Sim uArch: core:  2, cta: 5 initialized @(19439,0)
GPGPU-Sim uArch: cycles simulated: 19500  inst.: 5544686 (ipc=284.3) sim_rate=158419 (inst/sec) elapsed = 0:0:00:35 / Tue Mar 22 12:46:47 2016
GPGPU-Sim PTX: 5700000 instructions simulated : ctaid=(0,185,0) tid=(3,12,0)
GPGPU-Sim uArch: Shader 10 finished CTA #5 (19543,0), 5 CTAs running
GPGPU-Sim uArch: core: 10, cta: 5 initialized @(19544,0)
GPGPU-Sim uArch: Shader 6 finished CTA #5 (19560,0), 5 CTAs running
GPGPU-Sim uArch: core:  6, cta: 5 initialized @(19561,0)
GPGPU-Sim uArch: Shader 14 finished CTA #5 (19561,0), 5 CTAs running
GPGPU-Sim uArch: core: 14, cta: 5 initialized @(19562,0)
GPGPU-Sim uArch: Shader 8 finished CTA #5 (19565,0), 5 CTAs running
GPGPU-Sim uArch: core:  8, cta: 5 initialized @(19566,0)
GPGPU-Sim uArch: Shader 5 finished CTA #5 (19579,0), 5 CTAs running
GPGPU-Sim uArch: core:  5, cta: 5 initialized @(19580,0)
GPGPU-Sim uArch: Shader 7 finished CTA #5 (19588,0), 5 CTAs running
GPGPU-Sim uArch: core:  7, cta: 5 initialized @(19589,0)
GPGPU-Sim PTX: 5800000 instructions simulated : ctaid=(0,194,0) tid=(15,6,0)
GPGPU-Sim uArch: cycles simulated: 20000  inst.: 5713498 (ipc=285.7) sim_rate=158708 (inst/sec) elapsed = 0:0:00:36 / Tue Mar 22 12:46:48 2016
GPGPU-Sim PTX: 5900000 instructions simulated : ctaid=(0,194,0) tid=(3,13,0)
GPGPU-Sim uArch: Shader 11 finished CTA #0 (20343,0), 5 CTAs running
GPGPU-Sim uArch: core: 11, cta: 0 initialized @(20344,0)
GPGPU-Sim uArch: Shader 0 finished CTA #0 (20351,0), 5 CTAs running
GPGPU-Sim uArch: core:  0, cta: 0 initialized @(20352,0)
GPGPU-Sim PTX: 6000000 instructions simulated : ctaid=(0,186,0) tid=(3,3,0)
GPGPU-Sim uArch: Shader 3 finished CTA #0 (20484,0), 5 CTAs running
GPGPU-Sim uArch: core:  3, cta: 0 initialized @(20485,0)
GPGPU-Sim uArch: Shader 1 finished CTA #0 (20640,0), 5 CTAs running
GPGPU-Sim uArch: core:  1, cta: 0 initialized @(20641,0)
GPGPU-Sim uArch: Shader 2 finished CTA #0 (20672,0), 5 CTAs running
GPGPU-Sim uArch: core:  2, cta: 0 initialized @(20673,0)
GPGPU-Sim uArch: Shader 13 finished CTA #0 (20685,0), 5 CTAs running
GPGPU-Sim uArch: core: 13, cta: 0 initialized @(20686,0)
GPGPU-Sim uArch: Shader 6 finished CTA #0 (20697,0), 5 CTAs running
GPGPU-Sim uArch: core:  6, cta: 0 initialized @(20698,0)
GPGPU-Sim PTX: 6100000 instructions simulated : ctaid=(0,197,0) tid=(15,14,0)
GPGPU-Sim uArch: Shader 14 finished CTA #0 (20798,0), 5 CTAs running
GPGPU-Sim uArch: core: 14, cta: 0 initialized @(20799,0)
GPGPU-Sim uArch: Shader 10 finished CTA #0 (20812,0), 5 CTAs running
GPGPU-Sim uArch: core: 10, cta: 0 initialized @(20813,0)
GPGPU-Sim uArch: Shader 7 finished CTA #0 (20834,0), 5 CTAs running
GPGPU-Sim uArch: core:  7, cta: 0 initialized @(20835,0)
GPGPU-Sim uArch: Shader 8 finished CTA #0 (20840,0), 5 CTAs running
GPGPU-Sim uArch: core:  8, cta: 0 initialized @(20841,0)
GPGPU-Sim uArch: Shader 5 finished CTA #0 (20845,0), 5 CTAs running
GPGPU-Sim uArch: core:  5, cta: 0 initialized @(20846,0)
GPGPU-Sim uArch: Shader 9 finished CTA #0 (20846,0), 5 CTAs running
GPGPU-Sim uArch: core:  9, cta: 0 initialized @(20847,0)
GPGPU-Sim uArch: Shader 12 finished CTA #0 (20860,0), 5 CTAs running
GPGPU-Sim uArch: core: 12, cta: 0 initialized @(20861,0)
GPGPU-Sim uArch: Shader 4 finished CTA #0 (20974,0), 5 CTAs running
GPGPU-Sim uArch: core:  4, cta: 0 initialized @(20975,0)
GPGPU-Sim uArch: cycles simulated: 21000  inst.: 6026704 (ipc=287.0) sim_rate=162883 (inst/sec) elapsed = 0:0:00:37 / Tue Mar 22 12:46:49 2016
GPGPU-Sim PTX: 6200000 instructions simulated : ctaid=(0,214,0) tid=(7,15,0)
GPGPU-Sim PTX: 6300000 instructions simulated : ctaid=(0,201,0) tid=(13,10,0)
GPGPU-Sim uArch: Shader 11 finished CTA #1 (21598,0), 5 CTAs running
GPGPU-Sim uArch: core: 11, cta: 1 initialized @(21599,0)
GPGPU-Sim PTX: 6400000 instructions simulated : ctaid=(0,226,0) tid=(7,9,0)
GPGPU-Sim uArch: Shader 12 finished CTA #1 (21799,0), 5 CTAs running
GPGPU-Sim uArch: core: 12, cta: 1 initialized @(21800,0)
GPGPU-Sim uArch: Shader 3 finished CTA #1 (21900,0), 5 CTAs running
GPGPU-Sim uArch: core:  3, cta: 1 initialized @(21901,0)
GPGPU-Sim uArch: Shader 9 finished CTA #1 (21930,0), 5 CTAs running
GPGPU-Sim uArch: core:  9, cta: 1 initialized @(21931,0)
GPGPU-Sim PTX: 6500000 instructions simulated : ctaid=(0,215,0) tid=(13,11,0)
GPGPU-Sim uArch: Shader 13 finished CTA #1 (21991,0), 5 CTAs running
GPGPU-Sim uArch: core: 13, cta: 1 initialized @(21992,0)
GPGPU-Sim uArch: cycles simulated: 22000  inst.: 6343246 (ipc=288.3) sim_rate=166927 (inst/sec) elapsed = 0:0:00:38 / Tue Mar 22 12:46:50 2016
GPGPU-Sim uArch: Shader 1 finished CTA #1 (22005,0), 5 CTAs running
GPGPU-Sim uArch: core:  1, cta: 1 initialized @(22006,0)
GPGPU-Sim uArch: Shader 14 finished CTA #1 (22019,0), 5 CTAs running
GPGPU-Sim uArch: core: 14, cta: 1 initialized @(22020,0)
GPGPU-Sim uArch: Shader 0 finished CTA #1 (22033,0), 5 CTAs running
GPGPU-Sim uArch: core:  0, cta: 1 initialized @(22034,0)
GPGPU-Sim uArch: Shader 6 finished CTA #1 (22078,0), 5 CTAs running
GPGPU-Sim uArch: core:  6, cta: 1 initialized @(22079,0)
GPGPU-Sim uArch: Shader 5 finished CTA #1 (22090,0), 5 CTAs running
GPGPU-Sim uArch: core:  5, cta: 1 initialized @(22091,0)
GPGPU-Sim uArch: Shader 4 finished CTA #1 (22122,0), 5 CTAs running
GPGPU-Sim uArch: core:  4, cta: 1 initialized @(22123,0)
GPGPU-Sim uArch: Shader 7 finished CTA #1 (22134,0), 5 CTAs running
GPGPU-Sim uArch: core:  7, cta: 1 initialized @(22135,0)
GPGPU-Sim PTX: 6600000 instructions simulated : ctaid=(0,221,0) tid=(7,12,0)
GPGPU-Sim uArch: Shader 10 finished CTA #1 (22308,0), 5 CTAs running
GPGPU-Sim uArch: core: 10, cta: 1 initialized @(22309,0)
GPGPU-Sim uArch: Shader 2 finished CTA #1 (22310,0), 5 CTAs running
GPGPU-Sim uArch: core:  2, cta: 1 initialized @(22311,0)
GPGPU-Sim uArch: Shader 8 finished CTA #1 (22392,0), 5 CTAs running
GPGPU-Sim uArch: core:  8, cta: 1 initialized @(22393,0)
GPGPU-Sim PTX: 6700000 instructions simulated : ctaid=(0,221,0) tid=(3,0,0)
GPGPU-Sim PTX: 6800000 instructions simulated : ctaid=(0,228,0) tid=(5,13,0)
GPGPU-Sim uArch: cycles simulated: 23000  inst.: 6673784 (ipc=290.2) sim_rate=171122 (inst/sec) elapsed = 0:0:00:39 / Tue Mar 22 12:46:51 2016
GPGPU-Sim PTX: 6900000 instructions simulated : ctaid=(0,265,0) tid=(9,0,0)
GPGPU-Sim uArch: Shader 1 finished CTA #2 (23148,0), 5 CTAs running
GPGPU-Sim uArch: core:  1, cta: 2 initialized @(23149,0)
GPGPU-Sim uArch: Shader 12 finished CTA #2 (23190,0), 5 CTAs running
GPGPU-Sim uArch: core: 12, cta: 2 initialized @(23191,0)
GPGPU-Sim uArch: Shader 3 finished CTA #2 (23241,0), 5 CTAs running
GPGPU-Sim uArch: core:  3, cta: 2 initialized @(23242,0)
GPGPU-Sim uArch: Shader 11 finished CTA #2 (23258,0), 5 CTAs running
GPGPU-Sim uArch: core: 11, cta: 2 initialized @(23259,0)
GPGPU-Sim uArch: Shader 0 finished CTA #2 (23314,0), 5 CTAs running
GPGPU-Sim uArch: core:  0, cta: 2 initialized @(23315,0)
GPGPU-Sim uArch: Shader 6 finished CTA #2 (23319,0), 5 CTAs running
GPGPU-Sim uArch: core:  6, cta: 2 initialized @(23320,0)
GPGPU-Sim uArch: Shader 4 finished CTA #2 (23340,0), 5 CTAs running
GPGPU-Sim uArch: core:  4, cta: 2 initialized @(23341,0)
GPGPU-Sim uArch: Shader 13 finished CTA #2 (23346,0), 5 CTAs running
GPGPU-Sim uArch: core: 13, cta: 2 initialized @(23347,0)
GPGPU-Sim PTX: 7000000 instructions simulated : ctaid=(0,226,0) tid=(7,12,0)
GPGPU-Sim uArch: Shader 10 finished CTA #2 (23472,0), 5 CTAs running
GPGPU-Sim uArch: core: 10, cta: 2 initialized @(23473,0)
GPGPU-Sim uArch: Shader 5 finished CTA #2 (23474,0), 5 CTAs running
GPGPU-Sim uArch: core:  5, cta: 2 initialized @(23475,0)
GPGPU-Sim uArch: Shader 9 finished CTA #2 (23482,0), 5 CTAs running
GPGPU-Sim uArch: core:  9, cta: 2 initialized @(23483,0)
GPGPU-Sim uArch: cycles simulated: 23500  inst.: 6829286 (ipc=290.6) sim_rate=170732 (inst/sec) elapsed = 0:0:00:40 / Tue Mar 22 12:46:52 2016
GPGPU-Sim uArch: Shader 7 finished CTA #2 (23501,0), 5 CTAs running
GPGPU-Sim uArch: core:  7, cta: 2 initialized @(23502,0)
GPGPU-Sim uArch: Shader 8 finished CTA #2 (23507,0), 5 CTAs running
GPGPU-Sim uArch: core:  8, cta: 2 initialized @(23508,0)
GPGPU-Sim uArch: Shader 2 finished CTA #2 (23569,0), 5 CTAs running
GPGPU-Sim uArch: core:  2, cta: 2 initialized @(23570,0)
GPGPU-Sim uArch: Shader 14 finished CTA #2 (23670,0), 5 CTAs running
GPGPU-Sim uArch: core: 14, cta: 2 initialized @(23671,0)
GPGPU-Sim PTX: 7100000 instructions simulated : ctaid=(0,248,0) tid=(15,1,0)
GPGPU-Sim PTX: 7200000 instructions simulated : ctaid=(0,247,0) tid=(5,2,0)
GPGPU-Sim PTX: 7300000 instructions simulated : ctaid=(0,252,0) tid=(11,13,0)
GPGPU-Sim uArch: Shader 11 finished CTA #3 (24416,0), 5 CTAs running
GPGPU-Sim uArch: core: 11, cta: 3 initialized @(24417,0)
GPGPU-Sim uArch: Shader 3 finished CTA #3 (24445,0), 5 CTAs running
GPGPU-Sim uArch: core:  3, cta: 3 initialized @(24446,0)
GPGPU-Sim uArch: Shader 1 finished CTA #3 (24451,0), 5 CTAs running
GPGPU-Sim uArch: core:  1, cta: 3 initialized @(24452,0)
GPGPU-Sim uArch: cycles simulated: 24500  inst.: 7165480 (ipc=292.5) sim_rate=174767 (inst/sec) elapsed = 0:0:00:41 / Tue Mar 22 12:46:53 2016
GPGPU-Sim uArch: Shader 13 finished CTA #3 (24543,0), 5 CTAs running
GPGPU-Sim uArch: core: 13, cta: 3 initialized @(24544,0)
GPGPU-Sim uArch: Shader 9 finished CTA #3 (24588,0), 5 CTAs running
GPGPU-Sim uArch: core:  9, cta: 3 initialized @(24589,0)
GPGPU-Sim PTX: 7400000 instructions simulated : ctaid=(0,241,0) tid=(11,6,0)
GPGPU-Sim uArch: Shader 0 finished CTA #3 (24669,0), 5 CTAs running
GPGPU-Sim uArch: core:  0, cta: 3 initialized @(24670,0)
GPGPU-Sim uArch: Shader 6 finished CTA #3 (24722,0), 5 CTAs running
GPGPU-Sim uArch: core:  6, cta: 3 initialized @(24723,0)
GPGPU-Sim uArch: Shader 4 finished CTA #3 (24740,0), 5 CTAs running
GPGPU-Sim uArch: core:  4, cta: 3 initialized @(24741,0)
GPGPU-Sim uArch: Shader 10 finished CTA #3 (24801,0), 5 CTAs running
GPGPU-Sim uArch: core: 10, cta: 3 initialized @(24802,0)
GPGPU-Sim uArch: Shader 2 finished CTA #3 (24851,0), 5 CTAs running
GPGPU-Sim uArch: core:  2, cta: 3 initialized @(24852,0)
GPGPU-Sim uArch: Shader 7 finished CTA #3 (24932,0), 5 CTAs running
GPGPU-Sim uArch: core:  7, cta: 3 initialized @(24933,0)
GPGPU-Sim PTX: 7500000 instructions simulated : ctaid=(0,317,0) tid=(7,7,0)
GPGPU-Sim uArch: Shader 12 finished CTA #3 (24952,0), 5 CTAs running
GPGPU-Sim uArch: core: 12, cta: 3 initialized @(24953,0)
GPGPU-Sim uArch: Shader 8 finished CTA #3 (24974,0), 5 CTAs running
GPGPU-Sim uArch: core:  8, cta: 3 initialized @(24975,0)
GPGPU-Sim uArch: Shader 14 finished CTA #3 (24984,0), 5 CTAs running
GPGPU-Sim uArch: core: 14, cta: 3 initialized @(24985,0)
GPGPU-Sim uArch: Shader 5 finished CTA #3 (25000,0), 5 CTAs running
GPGPU-Sim uArch: core:  5, cta: 3 initialized @(25001,0)
GPGPU-Sim PTX: 7600000 instructions simulated : ctaid=(0,248,0) tid=(1,3,0)
GPGPU-Sim uArch: cycles simulated: 25500  inst.: 7486674 (ipc=293.6) sim_rate=178254 (inst/sec) elapsed = 0:0:00:42 / Tue Mar 22 12:46:54 2016
GPGPU-Sim PTX: 7700000 instructions simulated : ctaid=(0,247,0) tid=(11,15,0)
GPGPU-Sim uArch: Shader 11 finished CTA #4 (25800,0), 5 CTAs running
GPGPU-Sim uArch: core: 11, cta: 4 initialized @(25801,0)
GPGPU-Sim uArch: Shader 0 finished CTA #4 (25805,0), 5 CTAs running
GPGPU-Sim uArch: core:  0, cta: 4 initialized @(25806,0)
GPGPU-Sim PTX: 7800000 instructions simulated : ctaid=(0,276,0) tid=(3,10,0)
GPGPU-Sim uArch: Shader 3 finished CTA #4 (25927,0), 5 CTAs running
GPGPU-Sim uArch: core:  3, cta: 4 initialized @(25928,0)
GPGPU-Sim uArch: Shader 9 finished CTA #4 (25967,0), 5 CTAs running
GPGPU-Sim uArch: core:  9, cta: 4 initialized @(25968,0)
GPGPU-Sim uArch: Shader 4 finished CTA #4 (25975,0), 5 CTAs running
GPGPU-Sim uArch: core:  4, cta: 4 initialized @(25976,0)
GPGPU-Sim uArch: Shader 6 finished CTA #4 (26002,0), 5 CTAs running
GPGPU-Sim uArch: core:  6, cta: 4 initialized @(26003,0)
GPGPU-Sim uArch: Shader 13 finished CTA #4 (26071,0), 5 CTAs running
GPGPU-Sim uArch: core: 13, cta: 4 initialized @(26072,0)
GPGPU-Sim uArch: Shader 12 finished CTA #4 (26099,0), 5 CTAs running
GPGPU-Sim uArch: core: 12, cta: 4 initialized @(26100,0)
GPGPU-Sim uArch: Shader 1 finished CTA #4 (26115,0), 5 CTAs running
GPGPU-Sim uArch: core:  1, cta: 4 initialized @(26116,0)
GPGPU-Sim PTX: 7900000 instructions simulated : ctaid=(0,261,0) tid=(5,12,0)
GPGPU-Sim uArch: Shader 5 finished CTA #4 (26156,0), 5 CTAs running
GPGPU-Sim uArch: core:  5, cta: 4 initialized @(26157,0)
GPGPU-Sim uArch: Shader 7 finished CTA #4 (26233,0), 5 CTAs running
GPGPU-Sim uArch: core:  7, cta: 4 initialized @(26234,0)
GPGPU-Sim uArch: Shader 10 finished CTA #4 (26362,0), 5 CTAs running
GPGPU-Sim uArch: core: 10, cta: 4 initialized @(26363,0)
GPGPU-Sim uArch: Shader 8 finished CTA #4 (26369,0), 5 CTAs running
GPGPU-Sim uArch: core:  8, cta: 4 initialized @(26370,0)
GPGPU-Sim uArch: Shader 2 finished CTA #4 (26384,0), 5 CTAs running
GPGPU-Sim uArch: core:  2, cta: 4 initialized @(26385,0)
GPGPU-Sim uArch: Shader 14 finished CTA #4 (26387,0), 5 CTAs running
GPGPU-Sim uArch: core: 14, cta: 4 initialized @(26388,0)
GPGPU-Sim PTX: 8000000 instructions simulated : ctaid=(0,259,0) tid=(1,5,0)
GPGPU-Sim uArch: cycles simulated: 26500  inst.: 7807830 (ipc=294.6) sim_rate=181577 (inst/sec) elapsed = 0:0:00:43 / Tue Mar 22 12:46:55 2016
GPGPU-Sim PTX: 8100000 instructions simulated : ctaid=(0,279,0) tid=(1,11,0)
GPGPU-Sim uArch: cycles simulated: 27000  inst.: 7969674 (ipc=295.2) sim_rate=181128 (inst/sec) elapsed = 0:0:00:44 / Tue Mar 22 12:46:56 2016
GPGPU-Sim PTX: 8200000 instructions simulated : ctaid=(0,298,0) tid=(15,9,0)
GPGPU-Sim uArch: Shader 11 finished CTA #5 (27102,0), 5 CTAs running
GPGPU-Sim uArch: core: 11, cta: 5 initialized @(27103,0)
GPGPU-Sim uArch: Shader 0 finished CTA #5 (27112,0), 5 CTAs running
GPGPU-Sim uArch: core:  0, cta: 5 initialized @(27113,0)
GPGPU-Sim uArch: Shader 1 finished CTA #5 (27146,0), 5 CTAs running
GPGPU-Sim uArch: core:  1, cta: 5 initialized @(27147,0)
GPGPU-Sim uArch: Shader 4 finished CTA #5 (27223,0), 5 CTAs running
GPGPU-Sim uArch: core:  4, cta: 5 initialized @(27224,0)
GPGPU-Sim uArch: Shader 3 finished CTA #5 (27303,0), 5 CTAs running
GPGPU-Sim uArch: core:  3, cta: 5 initialized @(27304,0)
GPGPU-Sim uArch: Shader 12 finished CTA #5 (27353,0), 5 CTAs running
GPGPU-Sim uArch: core: 12, cta: 5 initialized @(27354,0)
GPGPU-Sim uArch: Shader 9 finished CTA #5 (27354,0), 5 CTAs running
GPGPU-Sim uArch: core:  9, cta: 5 initialized @(27355,0)
GPGPU-Sim uArch: Shader 13 finished CTA #5 (27375,0), 5 CTAs running
GPGPU-Sim uArch: core: 13, cta: 5 initialized @(27376,0)
GPGPU-Sim PTX: 8300000 instructions simulated : ctaid=(0,274,0) tid=(11,2,0)
GPGPU-Sim uArch: Shader 6 finished CTA #5 (27427,0), 5 CTAs running
GPGPU-Sim uArch: core:  6, cta: 5 initialized @(27428,0)
GPGPU-Sim uArch: Shader 7 finished CTA #5 (27506,0), 5 CTAs running
GPGPU-Sim uArch: core:  7, cta: 5 initialized @(27507,0)
GPGPU-Sim uArch: Shader 2 finished CTA #5 (27516,0), 5 CTAs running
GPGPU-Sim uArch: core:  2, cta: 5 initialized @(27517,0)
GPGPU-Sim uArch: Shader 8 finished CTA #5 (27575,0), 5 CTAs running
GPGPU-Sim uArch: core:  8, cta: 5 initialized @(27576,0)
GPGPU-Sim uArch: Shader 5 finished CTA #5 (27581,0), 5 CTAs running
GPGPU-Sim uArch: core:  5, cta: 5 initialized @(27582,0)
GPGPU-Sim uArch: Shader 10 finished CTA #5 (27607,0), 5 CTAs running
GPGPU-Sim uArch: core: 10, cta: 5 initialized @(27608,0)
GPGPU-Sim uArch: Shader 14 finished CTA #5 (27610,0), 5 CTAs running
GPGPU-Sim uArch: core: 14, cta: 5 initialized @(27611,0)
GPGPU-Sim PTX: 8400000 instructions simulated : ctaid=(0,286,0) tid=(3,7,0)
GPGPU-Sim PTX: 8500000 instructions simulated : ctaid=(0,346,0) tid=(3,2,0)
GPGPU-Sim uArch: cycles simulated: 28000  inst.: 8290956 (ipc=296.1) sim_rate=184243 (inst/sec) elapsed = 0:0:00:45 / Tue Mar 22 12:46:57 2016
GPGPU-Sim PTX: 8600000 instructions simulated : ctaid=(0,300,0) tid=(15,8,0)
GPGPU-Sim uArch: Shader 11 finished CTA #0 (28405,0), 5 CTAs running
GPGPU-Sim uArch: core: 11, cta: 0 initialized @(28406,0)
GPGPU-Sim uArch: Shader 0 finished CTA #0 (28418,0), 5 CTAs running
GPGPU-Sim uArch: core:  0, cta: 0 initialized @(28419,0)
GPGPU-Sim uArch: Shader 1 finished CTA #0 (28539,0), 5 CTAs running
GPGPU-Sim uArch: core:  1, cta: 0 initialized @(28540,0)
GPGPU-Sim PTX: 8700000 instructions simulated : ctaid=(0,278,0) tid=(1,13,0)
GPGPU-Sim uArch: Shader 9 finished CTA #0 (28637,0), 5 CTAs running
GPGPU-Sim uArch: core:  9, cta: 0 initialized @(28638,0)
GPGPU-Sim uArch: Shader 12 finished CTA #0 (28667,0), 5 CTAs running
GPGPU-Sim uArch: core: 12, cta: 0 initialized @(28668,0)
GPGPU-Sim uArch: Shader 13 finished CTA #0 (28672,0), 5 CTAs running
GPGPU-Sim uArch: core: 13, cta: 0 initialized @(28673,0)
GPGPU-Sim uArch: Shader 6 finished CTA #0 (28758,0), 5 CTAs running
GPGPU-Sim uArch: core:  6, cta: 0 initialized @(28759,0)
GPGPU-Sim uArch: Shader 5 finished CTA #0 (28767,0), 5 CTAs running
GPGPU-Sim uArch: core:  5, cta: 0 initialized @(28768,0)
GPGPU-Sim uArch: Shader 3 finished CTA #0 (28795,0), 5 CTAs running
GPGPU-Sim uArch: core:  3, cta: 0 initialized @(28796,0)
GPGPU-Sim uArch: Shader 2 finished CTA #0 (28841,0), 5 CTAs running
GPGPU-Sim uArch: core:  2, cta: 0 initialized @(28842,0)
GPGPU-Sim uArch: Shader 14 finished CTA #0 (28855,0), 5 CTAs running
GPGPU-Sim uArch: core: 14, cta: 0 initialized @(28856,0)
GPGPU-Sim PTX: 8800000 instructions simulated : ctaid=(0,291,0) tid=(1,14,0)
GPGPU-Sim uArch: Shader 8 finished CTA #0 (28879,0), 5 CTAs running
GPGPU-Sim uArch: core:  8, cta: 0 initialized @(28880,0)
GPGPU-Sim uArch: Shader 4 finished CTA #0 (28955,0), 5 CTAs running
GPGPU-Sim uArch: core:  4, cta: 0 initialized @(28956,0)
GPGPU-Sim uArch: cycles simulated: 29000  inst.: 8608590 (ipc=296.8) sim_rate=187143 (inst/sec) elapsed = 0:0:00:46 / Tue Mar 22 12:46:58 2016
GPGPU-Sim uArch: Shader 10 finished CTA #0 (29019,0), 5 CTAs running
GPGPU-Sim uArch: core: 10, cta: 0 initialized @(29020,0)
GPGPU-Sim uArch: Shader 7 finished CTA #0 (29021,0), 5 CTAs running
GPGPU-Sim uArch: core:  7, cta: 0 initialized @(29022,0)
GPGPU-Sim PTX: 8900000 instructions simulated : ctaid=(0,300,0) tid=(15,13,0)
GPGPU-Sim PTX: 9000000 instructions simulated : ctaid=(0,293,0) tid=(7,0,0)
GPGPU-Sim uArch: cycles simulated: 29500  inst.: 8772826 (ipc=297.4) sim_rate=186655 (inst/sec) elapsed = 0:0:00:47 / Tue Mar 22 12:46:59 2016
GPGPU-Sim uArch: Shader 11 finished CTA #1 (29577,0), 5 CTAs running
GPGPU-Sim uArch: core: 11, cta: 1 initialized @(29578,0)
GPGPU-Sim PTX: 9100000 instructions simulated : ctaid=(0,314,0) tid=(1,8,0)
GPGPU-Sim uArch: Shader 3 finished CTA #1 (29780,0), 5 CTAs running
GPGPU-Sim uArch: core:  3, cta: 1 initialized @(29781,0)
GPGPU-Sim uArch: Shader 0 finished CTA #1 (29992,0), 5 CTAs running
GPGPU-Sim uArch: core:  0, cta: 1 initialized @(29993,0)
GPGPU-Sim uArch: Shader 13 finished CTA #1 (30000,0), 5 CTAs running
GPGPU-Sim uArch: core: 13, cta: 1 initialized @(30001,0)
GPGPU-Sim PTX: 9200000 instructions simulated : ctaid=(0,323,0) tid=(1,11,0)
GPGPU-Sim uArch: Shader 12 finished CTA #1 (30099,0), 5 CTAs running
GPGPU-Sim uArch: core: 12, cta: 1 initialized @(30100,0)
GPGPU-Sim uArch: Shader 4 finished CTA #1 (30128,0), 5 CTAs running
GPGPU-Sim uArch: core:  4, cta: 1 initialized @(30129,0)
GPGPU-Sim uArch: Shader 6 finished CTA #1 (30132,0), 5 CTAs running
GPGPU-Sim uArch: core:  6, cta: 1 initialized @(30133,0)
GPGPU-Sim uArch: Shader 1 finished CTA #1 (30133,0), 5 CTAs running
GPGPU-Sim uArch: core:  1, cta: 1 initialized @(30134,0)
GPGPU-Sim uArch: Shader 9 finished CTA #1 (30143,0), 5 CTAs running
GPGPU-Sim uArch: core:  9, cta: 1 initialized @(30144,0)
GPGPU-Sim uArch: Shader 8 finished CTA #1 (30176,0), 5 CTAs running
GPGPU-Sim uArch: core:  8, cta: 1 initialized @(30177,0)
GPGPU-Sim uArch: Shader 14 finished CTA #1 (30260,0), 5 CTAs running
GPGPU-Sim uArch: core: 14, cta: 1 initialized @(30261,0)
GPGPU-Sim uArch: Shader 2 finished CTA #1 (30326,0), 5 CTAs running
GPGPU-Sim uArch: core:  2, cta: 1 initialized @(30327,0)
GPGPU-Sim uArch: Shader 10 finished CTA #1 (30331,0), 5 CTAs running
GPGPU-Sim uArch: core: 10, cta: 1 initialized @(30332,0)
GPGPU-Sim PTX: 9300000 instructions simulated : ctaid=(0,311,0) tid=(15,6,0)
GPGPU-Sim uArch: Shader 5 finished CTA #1 (30420,0), 5 CTAs running
GPGPU-Sim uArch: core:  5, cta: 1 initialized @(30421,0)
GPGPU-Sim uArch: Shader 7 finished CTA #1 (30432,0), 5 CTAs running
GPGPU-Sim uArch: core:  7, cta: 1 initialized @(30433,0)
GPGPU-Sim uArch: cycles simulated: 30500  inst.: 9092872 (ipc=298.1) sim_rate=189434 (inst/sec) elapsed = 0:0:00:48 / Tue Mar 22 12:47:00 2016
GPGPU-Sim PTX: 9400000 instructions simulated : ctaid=(0,302,0) tid=(1,7,0)
GPGPU-Sim PTX: 9500000 instructions simulated : ctaid=(0,301,0) tid=(0,3,0)
GPGPU-Sim uArch: Shader 11 finished CTA #2 (31060,0), 5 CTAs running
GPGPU-Sim uArch: core: 11, cta: 2 initialized @(31061,0)
GPGPU-Sim uArch: Shader 3 finished CTA #2 (31073,0), 5 CTAs running
GPGPU-Sim uArch: core:  3, cta: 2 initialized @(31074,0)
GPGPU-Sim uArch: Shader 0 finished CTA #2 (31134,0), 5 CTAs running
GPGPU-Sim uArch: core:  0, cta: 2 initialized @(31135,0)
GPGPU-Sim uArch: Shader 13 finished CTA #2 (31281,0), 5 CTAs running
GPGPU-Sim uArch: core: 13, cta: 2 initialized @(31282,0)
GPGPU-Sim PTX: 9600000 instructions simulated : ctaid=(0,316,0) tid=(5,1,0)
GPGPU-Sim uArch: Shader 6 finished CTA #2 (31299,0), 5 CTAs running
GPGPU-Sim uArch: core:  6, cta: 2 initialized @(31300,0)
GPGPU-Sim uArch: Shader 12 finished CTA #2 (31338,0), 5 CTAs running
GPGPU-Sim uArch: core: 12, cta: 2 initialized @(31339,0)
GPGPU-Sim uArch: Shader 1 finished CTA #2 (31345,0), 5 CTAs running
GPGPU-Sim uArch: core:  1, cta: 2 initialized @(31346,0)
GPGPU-Sim uArch: Shader 7 finished CTA #2 (31370,0), 5 CTAs running
GPGPU-Sim uArch: core:  7, cta: 2 initialized @(31371,0)
GPGPU-Sim uArch: Shader 9 finished CTA #2 (31395,0), 5 CTAs running
GPGPU-Sim uArch: core:  9, cta: 2 initialized @(31396,0)
GPGPU-Sim uArch: Shader 4 finished CTA #2 (31419,0), 5 CTAs running
GPGPU-Sim uArch: core:  4, cta: 2 initialized @(31420,0)
GPGPU-Sim uArch: cycles simulated: 31500  inst.: 9418804 (ipc=299.0) sim_rate=192220 (inst/sec) elapsed = 0:0:00:49 / Tue Mar 22 12:47:01 2016
GPGPU-Sim uArch: Shader 2 finished CTA #2 (31561,0), 5 CTAs running
GPGPU-Sim uArch: core:  2, cta: 2 initialized @(31562,0)
GPGPU-Sim PTX: 9700000 instructions simulated : ctaid=(0,322,0) tid=(13,3,0)
GPGPU-Sim uArch: Shader 5 finished CTA #2 (31668,0), 5 CTAs running
GPGPU-Sim uArch: core:  5, cta: 2 initialized @(31669,0)
GPGPU-Sim uArch: Shader 14 finished CTA #2 (31716,0), 5 CTAs running
GPGPU-Sim uArch: core: 14, cta: 2 initialized @(31717,0)
GPGPU-Sim uArch: Shader 10 finished CTA #2 (31753,0), 5 CTAs running
GPGPU-Sim uArch: core: 10, cta: 2 initialized @(31754,0)
GPGPU-Sim uArch: Shader 8 finished CTA #2 (31854,0), 5 CTAs running
GPGPU-Sim uArch: core:  8, cta: 2 initialized @(31855,0)
GPGPU-Sim PTX: 9800000 instructions simulated : ctaid=(0,335,0) tid=(11,9,0)
GPGPU-Sim uArch: cycles simulated: 32000  inst.: 9585918 (ipc=299.6) sim_rate=191718 (inst/sec) elapsed = 0:0:00:50 / Tue Mar 22 12:47:02 2016
GPGPU-Sim PTX: 9900000 instructions simulated : ctaid=(0,327,0) tid=(5,14,0)
GPGPU-Sim uArch: Shader 11 finished CTA #3 (32224,0), 5 CTAs running
[...]
Stall:270446	W0_Idle:346268	W0_Scoreboard:13676557	W1:0	W2:655360	W3:0	W4:0	W5:0	W6:0	W7:0	W8:0	W9:0	W10:0	W11:0	W12:0	W13:0	W14:0	W15:0	W16:921625	W17:0	W18:0	W19:0	W20:0	W21:0	W22:0	W23:0	W24:0	W25:0	W26:0	W27:0	W28:0	W29:0	W30:0	W31:0	W32:5537792
traffic_breakdown_coretomem[CONST_ACC_R] = 120 {8:15,}
traffic_breakdown_coretomem[GLOBAL_ACC_R] = 1038736 {8:129842,}
traffic_breakdown_coretomem[GLOBAL_ACC_W] = 20185360 {40:81920,72:49152,136:98306,}
traffic_breakdown_coretomem[INST_ACC_R] = 1448 {8:181,}
traffic_breakdown_memtocore[CONST_ACC_R] = 1080 {72:15,}
traffic_breakdown_memtocore[GLOBAL_ACC_R] = 17658512 {136:129842,}
traffic_breakdown_memtocore[GLOBAL_ACC_W] = 1835024 {8:229378,}
traffic_breakdown_memtocore[INST_ACC_R] = 24616 {136:181,}
maxmrqlatency = 225 
maxdqlatency = 0 
maxmflatency = 615 
averagemflatency = 216 
max_icnt2mem_latency = 375 
max_icnt2sh_latency = 714911 
mrq_lat_table:76062 	6584 	5079 	16543 	53585 	43440 	17033 	996 	0 	0 	0 	0 	0 	0 	0 	0 	0 	0 	0 	0 	0 	0 	0 	0 	0 	0 	0 	0 	0 	0 	0 	0 	
dq_lat_table:0 	0 	0 	0 	0 	0 	0 	0 	0 	0 	0 	0 	0 	0 	0 	0 	0 	0 	0 	0 	0 	0 	0 	0 	0 	0 	0 	0 	0 	0 	0 	0 	
mf_lat_table:0 	0 	0 	0 	0 	0 	0 	224901 	134316 	18 	0 	0 	0 	0 	0 	0 	0 	0 	0 	0 	0 	0 	0 	0 	0 	0 	0 	0 	0 	0 	0 	0 	
icnt2mem_lat_table:0 	0 	0 	166858 	71306 	100465 	18712 	1877 	198 	0 	0 	0 	0 	0 	0 	0 	0 	0 	0 	0 	0 	0 	0 	0 	
icnt2sh_lat_table:0 	0 	0 	80605 	45918 	3334 	0 	0 	0 	0 	0 	154 	926 	2238 	4488 	8754 	17638 	35048 	86797 	73335 	0 	0 	0 	0 	
mf_lat_pw_table:0 	0 	0 	0 	0 	0 	0 	1320 	107 	0 	0 	0 	0 	0 	0 	0 	0 	0 	0 	0 	0 	0 	0 	0 	0 	0 	0 	0 	0 	0 	0 	0 	
maximum concurrent accesses to same row:
dram[0]:        32        32        32        32        32        32        32        32        32        32        32        32        32        32        32        32 
dram[1]:        32        32        32        32        32        32        32        32        32        32        32        32        32        32        32        32 
dram[2]:        32        32        32        32        32        32        32        32        32        32        32        32        32        32        32        32 
dram[3]:        32        32        32        32        32        32        32        32        32        32        32        32        32        32        32        32 
dram[4]:        32        32        32        32        32        32        32        32        32        32        32        32        32        32        32        32 
dram[5]:        32        32        32        32        32        32        32        32        32        32        32        32        32        32        32        32 
maximum service time to same row:
dram[0]:     32131     32572     33169     32011     27590     29782     26384     26624     32196     31991     32065     32350     32244     31884     31811     32088 
dram[1]:     30036     32531     33206     32031     29704     30115     26612     26487     32272     31980     32069     32305     31944     32010     32117     32062 
dram[2]:     30032     32516     32056     32030     29921     30002     26675     26213     32217     31969     32504     32097     31872     32600     32068     31835 
dram[3]:     29772     32707     32209     32019     29953     29939     26819     26469     32207     31963     32516     31378     31774     32619     32028     31757 
dram[4]:     32174     32832     31810     32361     29447     30081     26634     26243     32229     31988     32544     31581     31774     32617     31989     31717 
dram[5]:     32570     32761     31917     32143     29445     30044     26602     26344     32152     31762     32361     31573     31779     32428     31977     31722 
average row accesses per activate:
dram[0]:  2.539593  2.543700  2.598608  2.698795  2.448052  2.464558  2.587709  2.552863  2.510893  2.520788  2.562848  2.675958  2.531868  2.660508  2.720189  2.645235 
dram[1]:  2.582949  2.574713  2.660332  2.728380  2.527964  2.547914  2.628831  2.561326  2.512541  2.571429  2.534653  2.666667  2.526316  2.651323  2.651323  2.612245 
dram[2]:  2.559727  2.589595  2.586605  2.679426  2.464558  2.512764  2.564784  2.695349  2.438095  2.565701  2.618182  2.688448  2.624146  2.639175  2.615210  2.701055 
dram[3]:  2.550114  2.511211  2.545455  2.660332  2.553672  2.552424  2.561326  2.634091  2.518033  2.571429  2.557159  2.654378  2.669757  2.603390  2.591676  2.648276 
dram[4]:  2.591908  2.583622  2.511211  2.669845  2.437972  2.516704  2.607424  2.643101  2.523549  2.518033  2.627138  2.582960  2.642202  2.568562  2.669757  2.726627 
dram[5]:  2.571101  2.528217  2.571757  2.715152  2.491731  2.554054  2.514100  2.679769  2.480086  2.529089  2.642202  2.636156  2.543046  2.568562  2.588764  2.755981 
average row locality = 219322/84780 = 2.586954
number of total memory accesses made:
dram[0]:         0         0         0         0         0         0         0         0         0         0         0         0         0         0         0         0 
dram[1]:         0         0         0         0         0         0         0         0         0         0         0         0         0         0         0         0 
dram[2]:         0         0         0         0         0         0         0         0         0         0         0         0         0         0         0         0 
dram[3]:         0         0         0         0         0         0         0         0         0         0         0         0         0         0         0         0 
dram[4]:         0         0         0         0         0         0         0         0         0         0         0         0         0         0         0         0 
dram[5]:         0         0         0         0         0         0         0         0         0         0         0         0         0         0         0         0 
total accesses: 0
min_bank_accesses = 0!
min_chip_accesses = 0!
number of total read accesses:
dram[0]:      1153      1153      1152      1152      1153      1152      1152      1152      1152      1152      1152      1152      1152      1152      1152      1152 
dram[1]:      1150      1152      1152      1152      1152      1152      1152      1152      1152      1152      1152      1152      1152      1152      1152      1152 
dram[2]:      1154      1152      1152      1152      1152      1156      1152      1152      1152      1152      1152      1152      1152      1152      1152      1152 
dram[3]:      1153      1152      1152      1152      1152      1156      1152      1152      1152      1152      1152      1152      1152      1152      1152      1152 
dram[4]:      1154      1152      1152      1152      1152      1154      1152      1152      1152      1152      1152      1152      1152      1152      1152      1152 
dram[5]:      1154      1152      1152      1152      1152      1154      1152      1152      1152      1152      1152      1152      1152      1152      1152      1152 
total reads: 110612
bank skew: 1156/1150 = 1.01
chip skew: 18438/18430 = 1.00
number of total write accesses:
dram[0]:      1092      1088      1088      1088      1109      1108      1164      1166      1153      1152      1152      1152      1152      1152      1152      1152 
dram[1]:      1092      1088      1088      1088      1108      1108      1164      1166      1152      1152      1152      1152      1152      1152      1152      1152 
dram[2]:      1096      1088      1088      1088      1108      1108      1164      1166      1152      1152      1152      1152      1152      1152      1152      1152 
dram[3]:      1086      1088      1088      1088      1108      1108      1166      1166      1152      1152      1152      1152      1152      1152      1152      1152 
dram[4]:      1088      1088      1088      1088      1108      1106      1166      1166      1152      1152      1152      1152      1152      1152      1152      1152 
dram[5]:      1088      1088      1088      1088      1108      1114      1166      1166      1152      1152      1152      1152      1152      1152      1152      1152 
total reads: 108710
bank skew: 1166/1086 = 1.07
chip skew: 18122/18114 = 1.00
average mf latency per bank:
dram[0]:        333       333       326       329       343       338       361       362       364       361       365       365       361       369       362       364
dram[1]:        332       332       329       328       343       342       365       361       362       367       366       367       362       367       364       363
dram[2]:        333       330       328       330       341       341       364       364       366       366       365       367       362       365       361       364
dram[3]:        330       331       328       330       338       344       360       366       367       368       366       365       367       366       364       364
dram[4]:        332       330       329       331       339       343       358       366       365       372       366       365       371       367       372       365
dram[5]:        332       331       329       328       340       347       365       366       368       369       364       366       363       363       361       367
maximum mf latency per bank:
dram[0]:        456       468       442       484       493       491       558       446       559       476       472       465       453       461       476       435
dram[1]:        502       509       471       442       508       504       562       497       518       535       467       456       466       448       443       538
dram[2]:        492       500       434       438       564       535       505       417       499       486       489       448       421       455       451       448
dram[3]:        484       479       476       430       496       516       430       498       442       489       533       502       467       469       425       434
dram[4]:        485       467       483       505       470       615       518       556       443       477       501       508       505       470       480       503
dram[5]:        469       468       467       448       435       482       438       496       439       457       467       476       488       458       500       424

Number of Memory Banks Accessed per Memory Operation per Warp (from 0):
0	0	0	0	0	0	0	0	0	0	0	0	0	0	0	0	0	0	0	0	0	0	0	0	0	0	0	0	0	0	0	0	0	0	0	0	0	0	0	0	0	0	0	0	0	0	0	0	0	0	0	0	0	0	0	0	0	0	0	0	0	0	0	0	0	0	0	0	0	0	0	0	0	0	0	0	0	0	0	0	0	0	0	0	0	0	0	0	0	0	0	0	0	0	0	0	
Average # of Memory Banks Accessed per Memory Operation per Warp=-nan

position of mrq chosen
0	0	0	0	0	0	0	0	0	0	0	0	0	0	0	0	

average position of mrq chosen = -nan
Memory Partition 0: 
Cache L2_bank_000:
MSHR contents

Cache L2_bank_001:
MSHR contents

In Dram Latency Queue (total = 0): 
DRAM[0]: 16 bks, busW=4 BL=8 CL=12, tRRD=2 tCCD=6, tRCD=12 tRAS=28 tRP=12 tRC=40
n_cmd=943682 n_nop=843582 n_act=14187 n_pre=14171 n_req=36555 n_rd=36870 n_write=34872 bw_util=0.152
n_activity=545739 dram_eff=0.2629
bk0: 2306a 902066i bk1: 2306a 901080i bk2: 2304a 902096i bk3: 2304a 901966i bk4: 2306a 900936i bk5: 2304a 900564i bk6: 2304a 900858i bk7: 2304a 900408i bk8: 2304a 900764i bk9: 2304a 899717i bk10: 2304a 900806i bk11: 2304a 901541i bk12: 2304a 901189i bk13: 2304a 900807i bk14: 2304a 902197i bk15: 2304a 900441i 
dram_util_bins: 0 0 0 0 0 0 0 0 0 0
dram_eff_bins: 0 0 0 0 0 0 0 0 0 0
mrqq: max=16 avg=1.13482
Memory Partition 1: 
Cache L2_bank_002:
MSHR contents

Cache L2_bank_003:
MSHR contents

In Dram Latency Queue (total = 0): 
DRAM[1]: 16 bks, busW=4 BL=8 CL=12, tRRD=2 tCCD=6, tRCD=12 tRAS=28 tRP=12 tRC=40
n_cmd=943682 n_nop=843798 n_act=14086 n_pre=14070 n_req=36548 n_rd=36860 n_write=34868 bw_util=0.152
n_activity=543601 dram_eff=0.2639
bk0: 2300a 902587i bk1: 2304a 900848i bk2: 2304a 902568i bk3: 2304a 902342i bk4: 2304a 902335i bk5: 2304a 901413i bk6: 2304a 901960i bk7: 2304a 900191i bk8: 2304a 901222i bk9: 2304a 900507i bk10: 2304a 900061i bk11: 2304a 900841i bk12: 2304a 900118i bk13: 2304a 900888i bk14: 2304a 901436i bk15: 2304a 900406i 
dram_util_bins: 0 0 0 0 0 0 0 0 0 0
dram_eff_bins: 0 0 0 0 0 0 0 0 0 0
mrqq: max=16 avg=1.14499
Memory Partition 2: 
Cache L2_bank_004:
MSHR contents

Cache L2_bank_005:
MSHR contents

In Dram Latency Queue (total = 0): 
DRAM[2]: 16 bks, busW=4 BL=8 CL=12, tRRD=2 tCCD=6, tRCD=12 tRAS=28 tRP=12 tRC=40
n_cmd=943682 n_nop=843762 n_act=14092 n_pre=14076 n_req=36560 n_rd=36876 n_write=34876 bw_util=0.1521
n_activity=543353 dram_eff=0.2641
bk0: 2308a 902200i bk1: 2304a 901376i bk2: 2304a 901950i bk3: 2304a 902238i bk4: 2304a 901048i bk5: 2312a 900617i bk6: 2304a 900707i bk7: 2304a 901528i bk8: 2304a 900191i bk9: 2304a 900007i bk10: 2304a 901670i bk11: 2304a 901023i bk12: 2304a 901594i bk13: 2304a 900661i bk14: 2304a 900860i bk15: 2304a 901573i 
dram_util_bins: 0 0 0 0 0 0 0 0 0 0
dram_eff_bins: 0 0 0 0 0 0 0 0 0 0
mrqq: max=16 avg=1.1474
Memory Partition 3: 
Cache L2_bank_006:
MSHR contents

Cache L2_bank_007:
MSHR contents

In Dram Latency Queue (total = 0): 
DRAM[3]: 16 bks, busW=4 BL=8 CL=12, tRRD=2 tCCD=6, tRCD=12 tRAS=28 tRP=12 tRC=40
n_cmd=943682 n_nop=843684 n_act=14136 n_pre=14120 n_req=36551 n_rd=36874 n_write=34868 bw_util=0.152
n_activity=544644 dram_eff=0.2634
bk0: 2306a 901987i bk1: 2304a 900767i bk2: 2304a 901180i bk3: 2304a 902150i bk4: 2304a 902457i bk5: 2312a 901305i bk6: 2304a 900761i bk7: 2304a 901337i bk8: 2304a 900544i bk9: 2304a 900428i bk10: 2304a 900354i bk11: 2304a 901258i bk12: 2304a 901777i bk13: 2304a 900850i bk14: 2304a 901258i bk15: 2304a 900674i 
dram_util_bins: 0 0 0 0 0 0 0 0 0 0
dram_eff_bins: 0 0 0 0 0 0 0 0 0 0
mrqq: max=16 avg=1.13672
Memory Partition 4: 
Cache L2_bank_008:
MSHR contents

Cache L2_bank_009:
MSHR contents

In Dram Latency Queue (total = 0): 
DRAM[4]: 16 bks, busW=4 BL=8 CL=12, tRRD=2 tCCD=6, tRCD=12 tRAS=28 tRP=12 tRC=40
n_cmd=943682 n_nop=843702 n_act=14128 n_pre=14112 n_req=36550 n_rd=36872 n_write=34868 bw_util=0.152
n_activity=546055 dram_eff=0.2628
bk0: 2308a 902583i bk1: 2304a 901814i bk2: 2304a 901228i bk3: 2304a 901791i bk4: 2304a 901050i bk5: 2308a 900831i bk6: 2304a 901229i bk7: 2304a 901138i bk8: 2304a 901350i bk9: 2304a 900032i bk10: 2304a 901464i bk11: 2304a 900734i bk12: 2304a 901799i bk13: 2304a 900340i bk14: 2304a 901726i bk15: 2304a 902263i 
dram_util_bins: 0 0 0 0 0 0 0 0 0 0
dram_eff_bins: 0 0 0 0 0 0 0 0 0 0
mrqq: max=16 avg=1.13031
Memory Partition 5: 
Cache L2_bank_010:
MSHR contents

Cache L2_bank_011:
MSHR contents

In Dram Latency Queue (total = 0): 
DRAM[5]: 16 bks, busW=4 BL=8 CL=12, tRRD=2 tCCD=6, tRCD=12 tRAS=28 tRP=12 tRC=40
n_cmd=943682 n_nop=843648 n_act=14151 n_pre=14135 n_req=36558 n_rd=36872 n_write=34876 bw_util=0.1521
n_activity=546325 dram_eff=0.2627
bk0: 2308a 902179i bk1: 2304a 900465i bk2: 2304a 902037i bk3: 2304a 902469i bk4: 2304a 901524i bk5: 2308a 901455i bk6: 2304a 899834i bk7: 2304a 901580i bk8: 2304a 900324i bk9: 2304a 900217i bk10: 2304a 901318i bk11: 2304a 901040i bk12: 2304a 900975i bk13: 2304a 900442i bk14: 2304a 900700i bk15: 2304a 901408i 
dram_util_bins: 0 0 0 0 0 0 0 0 0 0
dram_eff_bins: 0 0 0 0 0 0 0 0 0 0
mrqq: max=16 avg=1.1454

========= L2 cache stats =========
L2_cache_bank[0]: Access = 29979, Miss = 9218, Miss_rate = 0.307, Pending_hits = 1151, Reservation_fails = 21422
L2_cache_bank[1]: Access = 29941, Miss = 9217, Miss_rate = 0.308, Pending_hits = 1132, Reservation_fails = 20706
L2_cache_bank[2]: Access = 29962, Miss = 9214, Miss_rate = 0.308, Pending_hits = 1147, Reservation_fails = 20895
L2_cache_bank[3]: Access = 29924, Miss = 9216, Miss_rate = 0.308, Pending_hits = 1149, Reservation_fails = 20050
L2_cache_bank[4]: Access = 29973, Miss = 9218, Miss_rate = 0.308, Pending_hits = 1116, Reservation_fails = 21190
L2_cache_bank[5]: Access = 29943, Miss = 9220, Miss_rate = 0.308, Pending_hits = 1169, Reservation_fails = 20216
L2_cache_bank[6]: Access = 29975, Miss = 9217, Miss_rate = 0.307, Pending_hits = 1161, Reservation_fails = 21001
L2_cache_bank[7]: Access = 29929, Miss = 9220, Miss_rate = 0.308, Pending_hits = 1204, Reservation_fails = 20857
L2_cache_bank[8]: Access = 29956, Miss = 9218, Miss_rate = 0.308, Pending_hits = 1168, Reservation_fails = 20707
L2_cache_bank[9]: Access = 29935, Miss = 9218, Miss_rate = 0.308, Pending_hits = 1183, Reservation_fails = 21116
L2_cache_bank[10]: Access = 29946, Miss = 9218, Miss_rate = 0.308, Pending_hits = 1172, Reservation_fails = 20695
L2_cache_bank[11]: Access = 29953, Miss = 9218, Miss_rate = 0.308, Pending_hits = 1155, Reservation_fails = 20986
L2_total_cache_accesses = 359416
L2_total_cache_misses = 110612
L2_total_cache_miss_rate = 0.3078
L2_total_cache_pending_hits = 13907
L2_total_cache_reservation_fails = 249841
L2_total_cache_breakdown:
	L2_cache_stats_breakdown[GLOBAL_ACC_R][HIT] = 13568
	L2_cache_stats_breakdown[GLOBAL_ACC_R][HIT_RESERVED] = 7724
	L2_cache_stats_breakdown[GLOBAL_ACC_R][MISS] = 108550
	L2_cache_stats_breakdown[GLOBAL_ACC_R][RESERVATION_FAIL] = 97
	L2_cache_stats_breakdown[CONST_ACC_R][HIT] = 11
	L2_cache_stats_breakdown[CONST_ACC_R][HIT_RESERVED] = 3
	L2_cache_stats_breakdown[CONST_ACC_R][MISS] = 1
	L2_cache_stats_breakdown[CONST_ACC_R][RESERVATION_FAIL] = 109
	L2_cache_stats_breakdown[GLOBAL_ACC_W][HIT] = 221186
	L2_cache_stats_breakdown[GLOBAL_ACC_W][HIT_RESERVED] = 6144
	L2_cache_stats_breakdown[GLOBAL_ACC_W][MISS] = 2048
	L2_cache_stats_breakdown[GLOBAL_ACC_W][RESERVATION_FAIL] = 248387
	L2_cache_stats_breakdown[INST_ACC_R][HIT] = 132
	L2_cache_stats_breakdown[INST_ACC_R][HIT_RESERVED] = 36
	L2_cache_stats_breakdown[INST_ACC_R][MISS] = 13
	L2_cache_stats_breakdown[INST_ACC_R][RESERVATION_FAIL] = 1248
L2_cache_data_port_util = 0.118
L2_cache_fill_port_util = 0.052

icnt_total_pkts_mem_to_simt=879538
icnt_total_pkts_simt_to_mem=932864
LD_mem_lat_dist  0 0 0 0 0 0 0 0 0 0 0 0 0 0 0 0 0 0 0 0 0 0 0 0 0 0 0
ST_mem_lat_dist  0 0 0 0 0 0 0 0 0 0 0 0 0 0 0 0 0 0 0 0 0 0 0 0 0 0 0
----------------------------Interconnect-DETAILS--------------------------------
Class 0:
Packet latency average = 12.8321
	minimum = 6
	maximum = 79
Network latency average = 10.5538
	minimum = 6
	maximum = 63
Slowest packet = 286959
Flit latency average = 9.76242
	minimum = 6
	maximum = 61
Slowest flit = 957437
Fragmentation average = 0
	minimum = 0
	maximum = 0
Injected packet rate average = 0.0464389
	minimum = 0.0414356 (at node 7)
	maximum = 0.0523258 (at node 21)
Accepted packet rate average = 0.0464389
	minimum = 0.0414356 (at node 7)
	maximum = 0.0523258 (at node 21)
Injected flit rate average = 0.121699
	minimum = 0.110609 (at node 7)
	maximum = 0.134779 (at node 21)
Accepted flit rate average= 0.121699
	minimum = 0.106469 (at node 7)
	maximum = 0.139546 (at node 23)
Injected packet length average = 2.62063
Accepted packet length average = 2.62063
Total in-flight flits = 0 (0 measured)
====== Overall Traffic Statistics ======
====== Traffic class 0 ======
Packet latency average = 12.7593 (2 samples)
	minimum = 6 (2 samples)
	maximum = 186 (2 samples)
Network latency average = 10.6979 (2 samples)
	minimum = 6 (2 samples)
	maximum = 175.5 (2 samples)
Flit latency average = 9.79855 (2 samples)
	minimum = 6 (2 samples)
	maximum = 171 (2 samples)
Fragmentation average = 0.0203601 (2 samples)
	minimum = 0 (2 samples)
	maximum = 134 (2 samples)
Injected packet rate average = 0.0375634 (2 samples)
	minimum = 0.033577 (2 samples)
	maximum = 0.0423678 (2 samples)
Accepted packet rate average = 0.0375634 (2 samples)
	minimum = 0.033577 (2 samples)
	maximum = 0.0423678 (2 samples)
Injected flit rate average = 0.0948711 (2 samples)
	minimum = 0.087242 (2 samples)
	maximum = 0.104052 (2 samples)
Accepted flit rate average = 0.0948711 (2 samples)
	minimum = 0.0822865 (2 samples)
	maximum = 0.109953 (2 samples)
Injected packet size average = 2.52563 (2 samples)
Accepted packet size average = 2.52563 (2 samples)
Hops average = 1 (2 samples)
