

        *** GPGPU-Sim Simulator Version 3.2.2  [build 0] ***


GPGPU-Sim PTX: simulation mode 0 (can change with PTX_SIM_MODE_FUNC environment variable:
               1=functional simulation only, 0=detailed performance simulator)
GPGPU-Sim: Configuration options:

-network_mode                           1 # Interconnection network mode
-inter_config_file   config_fermi_islip.icnt # Interconnection network config file
-gpgpu_ptx_use_cuobjdump                    1 # Use cuobjdump to extract ptx and sass from binaries
-gpgpu_experimental_lib_support                    0 # Try to extract code from cuda libraries [Broken because of unknown cudaGetExportTable]
-gpgpu_ptx_convert_to_ptxplus                    0 # Convert SASS (native ISA) to ptxplus and run ptxplus
-gpgpu_ptx_force_max_capability                   20 # Force maximum compute capability
-gpgpu_ptx_inst_debug_to_file                    0 # Dump executed instructions' debug information to file
-gpgpu_ptx_inst_debug_file       inst_debug.txt # Executed instructions' debug output file
-gpgpu_ptx_inst_debug_thread_uid                    1 # Thread UID for executed instructions' debug output
-gpgpu_simd_model                       1 # 1 = post-dominator
-gpgpu_shader_core_pipeline              1536:32 # shader core pipeline config, i.e., {<nthread>:<warpsize>}
-gpgpu_tex_cache:l1  4:128:24,L:R:m:N:L,F:128:4,128:2 # per-shader L1 texture cache  (READ-ONLY) config  {<nsets>:<bsize>:<assoc>,<rep>:<wr>:<alloc>:<wr_alloc>,<mshr>:<N>:<merge>,<mq>:<rf>}
-gpgpu_const_cache:l1 64:64:2,L:R:f:N:L,A:2:32,4 # per-shader L1 constant memory cache  (READ-ONLY) config  {<nsets>:<bsize>:<assoc>,<rep>:<wr>:<alloc>:<wr_alloc>,<mshr>:<N>:<merge>,<mq>} 
-gpgpu_cache:il1     4:128:4,L:R:f:N:L,A:2:32,4 # shader L1 instruction cache config  {<nsets>:<bsize>:<assoc>,<rep>:<wr>:<alloc>:<wr_alloc>,<mshr>:<N>:<merge>,<mq>} 
-gpgpu_cache:dl1     32:128:4,L:L:m:N:H,A:32:8,8:2,0,0:0:1:1:0:1,1:4:8:16:32:64,/sciclone/data10/hwang07/GPU_RESEARCH/swl/swl_outputs/RESULTS/ # per-shader L1 data cache config  {<nsets>:<bsize>:<assoc>,<rep>:<wr>:<alloc>:<wr_alloc>,<mshr>:<N>:<merge>,<mq> | none}
-gpgpu_cache:dl1PrefL1                 none # per-shader L1 data cache config  {<nsets>:<bsize>:<assoc>,<rep>:<wr>:<alloc>:<wr_alloc>,<mshr>:<N>:<merge>,<mq> | none}
-gpgpu_cache:dl1PreShared                 none # per-shader L1 data cache config  {<nsets>:<bsize>:<assoc>,<rep>:<wr>:<alloc>:<wr_alloc>,<mshr>:<N>:<merge>,<mq> | none}
-gmem_skip_L1D                          0 # global memory access skip L1D cache (implements -Xptxas -dlcm=cg, default=no skip)
-gpgpu_perfect_mem                      0 # enable perfect memory mode (no cache miss)
-n_regfile_gating_group                    4 # group of lanes that should be read/written together)
-gpgpu_clock_gated_reg_file                    0 # enable clock gated reg file for power calculations
-gpgpu_clock_gated_lanes                    0 # enable clock gated lanes for power calculations
-gpgpu_shader_registers                32768 # Number of registers per shader core. Limits number of concurrent CTAs. (default 8192)
-gpgpu_shader_cta                       8 # Maximum number of concurrent CTAs in shader (default 8)
-gpgpu_num_cta_barriers                   16 # Maximum number of named barriers per CTA (default 16)
-gpgpu_n_clusters                      15 # number of processing clusters
-gpgpu_n_cores_per_cluster                    1 # number of simd cores per cluster
-gpgpu_n_cluster_ejection_buffer_size                    8 # number of packets in ejection buffer
-gpgpu_n_ldst_response_buffer_size                    2 # number of response packets in ld/st unit ejection buffer
-gpgpu_shmem_size                   16384 # Size of shared memory per shader core (default 16kB)
-gpgpu_shmem_size                   49152 # Size of shared memory per shader core (default 16kB)
-gpgpu_shmem_size_PrefL1                16384 # Size of shared memory per shader core (default 16kB)
-gpgpu_shmem_size_PrefShared                16384 # Size of shared memory per shader core (default 16kB)
-gpgpu_shmem_num_banks                   32 # Number of banks in the shared memory in each shader core (default 16)
-gpgpu_shmem_limited_broadcast                    0 # Limit shared memory to do one broadcast per cycle (default on)
-gpgpu_shmem_warp_parts                    1 # Number of portions a warp is divided into for shared memory bank conflict check 
-gpgpu_warpdistro_shader                   -1 # Specify which shader core to collect the warp size distribution from
-gpgpu_warp_issue_shader                    0 # Specify which shader core to collect the warp issue distribution from
-gpgpu_local_mem_map                    1 # Mapping from local memory space address to simulated GPU physical address space (default = enabled)
-gpgpu_num_reg_banks                   16 # Number of register banks (default = 8)
-gpgpu_reg_bank_use_warp_id                    0 # Use warp ID in mapping registers to banks (default = off)
-gpgpu_operand_collector_num_units_sp                    6 # number of collector units (default = 4)
-gpgpu_operand_collector_num_units_sfu                    8 # number of collector units (default = 4)
-gpgpu_operand_collector_num_units_mem                    2 # number of collector units (default = 2)
-gpgpu_operand_collector_num_units_gen                    0 # number of collector units (default = 0)
-gpgpu_operand_collector_num_in_ports_sp                    2 # number of collector unit in ports (default = 1)
-gpgpu_operand_collector_num_in_ports_sfu                    1 # number of collector unit in ports (default = 1)
-gpgpu_operand_collector_num_in_ports_mem                    1 # number of collector unit in ports (default = 1)
-gpgpu_operand_collector_num_in_ports_gen                    0 # number of collector unit in ports (default = 0)
-gpgpu_operand_collector_num_out_ports_sp                    2 # number of collector unit in ports (default = 1)
-gpgpu_operand_collector_num_out_ports_sfu                    1 # number of collector unit in ports (default = 1)
-gpgpu_operand_collector_num_out_ports_mem                    1 # number of collector unit in ports (default = 1)
-gpgpu_operand_collector_num_out_ports_gen                    0 # number of collector unit in ports (default = 0)
-gpgpu_coalesce_arch                   13 # Coalescing arch (default = 13, anything else is off for now)
-gpgpu_num_sched_per_core                    2 # Number of warp schedulers per core
-gpgpu_max_insn_issue_per_warp                    1 # Max number of instructions that can be issued per warp in one cycle by scheduler
-gpgpu_simt_core_sim_order                    1 # Select the simulation order of cores in a cluster (0=Fix, 1=Round-Robin)
-gpgpu_pipeline_widths        2,1,1,2,1,1,2 # Pipeline widths ID_OC_SP,ID_OC_SFU,ID_OC_MEM,OC_EX_SP,OC_EX_SFU,OC_EX_MEM,EX_WB
-gpgpu_num_sp_units                     2 # Number of SP units (default=1)
-gpgpu_num_sfu_units                    1 # Number of SF units (default=1)
-gpgpu_num_mem_units                    1 # Number if ldst units (default=1) WARNING: not hooked up to anything
-gpgpu_scheduler      warp_limiting:2:1:1 # Scheduler configuration: < lrr | gto | two_level_active > If two_level_active:<num_active_warps>:<inner_prioritization>:<outer_prioritization>For complete list of prioritization values see shader.h enum scheduler_prioritization_typeDefault: gto
-gpgpu_dram_scheduler                    1 # 0 = fifo, 1 = FR-FCFS (defaul)
-gpgpu_dram_partition_queues              8:8:8:8 # i2$:$2d:d2$:$2i
-l2_ideal                               0 # Use a ideal L2 cache that always hit
-gpgpu_cache:dl2     64:128:8,L:B:m:W:L,A:32:4,4:0,32 # unified banked L2 data cache config  {<nsets>:<bsize>:<assoc>,<rep>:<wr>:<alloc>:<wr_alloc>,<mshr>:<N>:<merge>,<mq>}
-gpgpu_cache:dl2_texture_only                    0 # L2 cache used for texture only
-gpgpu_n_mem                            6 # number of memory modules (e.g. memory controllers) in gpu
-gpgpu_n_sub_partition_per_mchannel                    2 # number of memory subpartition in each memory module
-gpgpu_n_mem_per_ctrlr                    2 # number of memory chips per memory controller
-gpgpu_memlatency_stat                   14 # track and display latency statistics 0x2 enables MC, 0x4 enables queue logs
-gpgpu_frfcfs_dram_sched_queue_size                   16 # 0 = unlimited (default); # entries per chip
-gpgpu_dram_return_queue_size                  116 # 0 = unlimited (default); # entries per chip
-gpgpu_dram_buswidth                    4 # default = 4 bytes (8 bytes per cycle at DDR)
-gpgpu_dram_burst_length                    8 # Burst length of each DRAM request (default = 4 data bus cycle)
-dram_data_command_freq_ratio                    4 # Frequency ratio between DRAM data bus and command bus (default = 2 times, i.e. DDR)
-gpgpu_dram_timing_opt nbk=16:CCD=2:RRD=6:RCD=12:RAS=28:RP=12:RC=40: CL=12:WL=4:CDLR=5:WR=12:nbkgrp=4:CCDL=3:RTPL=2 # DRAM timing parameters = {nbk:tCCD:tRRD:tRCD:tRAS:tRP:tRC:CL:WL:tCDLR:tWR:nbkgrp:tCCDL:tRTPL}
-rop_latency                          120 # ROP queue latency (default 85)
-dram_latency                         100 # DRAM latency (default 30)
-gpgpu_mem_addr_mapping dramid@8;00000000.00000000.00000000.00000000.0000RRRR.RRRRRRRR.BBBCCCCB.CCSSSSSS # mapping memory address to dram model {dramid@<start bit>;<memory address map>}
-gpgpu_mem_addr_test                    0 # run sweep test to check address mapping for aliased address
-gpgpu_mem_address_mask                    1 # 0 = old addressing mask, 1 = new addressing mask, 2 = new add. mask + flipped bank sel and chip sel bits
-gpuwattch_xml_file  gpuwattch_gtx480.xml # GPUWattch XML file
-power_simulation_enabled                    0 # Turn on power simulator (1=On, 0=Off)
-power_per_cycle_dump                    0 # Dump detailed power output each cycle
-power_trace_enabled                    0 # produce a file for the power trace (1=On, 0=Off)
-power_trace_zlevel                     6 # Compression level of the power trace output log (0=no comp, 9=highest)
-steady_power_levels_enabled                    0 # produce a file for the steady power levels (1=On, 0=Off)
-steady_state_definition                  8:4 # allowed deviation:number of samples
-gpgpu_max_cycle                        0 # terminates gpu simulation early (0 = no limit)
-gpgpu_max_insn                         0 # terminates gpu simulation early (0 = no limit)
-gpgpu_max_cta                          0 # terminates gpu simulation early (0 = no limit)
-gpgpu_runtime_stat                   500 # display runtime statistics such as dram utilization {<freq>:<flag>}
-liveness_message_freq                    1 # Minimum number of seconds between simulation liveness messages (0 = always print)
-gpgpu_flush_l1_cache                    0 # Flush L1 cache at the end of each kernel call
-gpgpu_flush_l2_cache                    0 # Flush L2 cache at the end of each kernel call
-gpgpu_deadlock_detect                    1 # Stop the simulation at deadlock (1=on (default), 0=off)
-gpgpu_ptx_instruction_classification                    0 # if enabled will classify ptx instruction types per kernel (Max 255 kernels now)
-gpgpu_ptx_sim_mode                     0 # Select between Performance (default) or Functional simulation (1)
-gpgpu_clock_domains 700.0:700.0:700.0:924.0 # Clock Domain Frequencies in MhZ {<Core Clock>:<ICNT Clock>:<L2 Clock>:<DRAM Clock>}
-gpgpu_max_concurrent_kernel                    8 # maximum kernels that can run concurrently on GPU
-gpgpu_cflog_interval                    0 # Interval between each snapshot in control flow logger
-visualizer_enabled                     0 # Turn on visualizer output (1=On, 0=Off)
-visualizer_outputfile                 NULL # Specifies the output log file for visualizer
-visualizer_zlevel                      6 # Compression level of the visualizer output log (0=no comp, 9=highest)
-trace_enabled                          0 # Turn on traces
-trace_components                    none # comma seperated list of traces to enable. Complete list found in trace_streams.tup. Default none
-trace_sampling_core                    0 # The core which is printed using CORE_DPRINTF. Default 0
-trace_sampling_memory_partition                   -1 # The memory partition which is printed using MEMPART_DPRINTF. Default -1 (i.e. all)
-enable_ptx_file_line_stats                    1 # Turn on PTX source line statistic profiling. (1 = On)
-ptx_line_stats_filename gpgpu_inst_stats.txt # Output file for PTX source line statistics.
-save_embedded_ptx                      0 # saves ptx files embedded in binary as <n>.ptx
-keep                                   0 # keep intermediate files created by GPGPU-Sim when interfacing with external programs
-gpgpu_ptx_save_converted_ptxplus                    0 # Saved converted ptxplus to a file
-ptx_opcode_latency_int         4,13,4,5,145 # Opcode latencies for integers <ADD,MAX,MUL,MAD,DIV>Default 1,1,19,25,145
-ptx_opcode_latency_fp          4,13,4,5,39 # Opcode latencies for single precision floating points <ADD,MAX,MUL,MAD,DIV>Default 1,1,1,1,30
-ptx_opcode_latency_dp         8,19,8,8,330 # Opcode latencies for double precision floating points <ADD,MAX,MUL,MAD,DIV>Default 8,8,8,8,335
-ptx_opcode_initiation_int            1,2,2,1,8 # Opcode initiation intervals for integers <ADD,MAX,MUL,MAD,DIV>Default 1,1,4,4,32
-ptx_opcode_initiation_fp            1,2,1,1,4 # Opcode initiation intervals for single precision floating points <ADD,MAX,MUL,MAD,DIV>Default 1,1,1,1,5
-ptx_opcode_initiation_dp         8,16,8,8,130 # Opcode initiation intervals for double precision floating points <ADD,MAX,MUL,MAD,DIV>Default 8,8,8,8,130
DRAM Timing Options:
nbk                                    16 # number of banks
CCD                                     2 # column to column delay
RRD                                     6 # minimal delay between activation of rows in different banks
RCD                                    12 # row to column delay
RAS                                    28 # time needed to activate row
RP                                     12 # time needed to precharge (deactivate) row
RC                                     40 # row cycle time
CDLR                                    5 # switching from write to read (changes tWTR)
WR                                     12 # last data-in to row precharge
CL                                     12 # CAS latency
WL                                      4 # Write latency
nbkgrp                                  4 # number of bank groups
CCDL                                    3 # column to column delay between accesses to different bank groups
RTPL                                    2 # read to precharge delay between accesses to different bank groups
Total number of memory sub partition = 12
addr_dec_mask[CHIP]  = 0000000000000000 	high:64 low:0
addr_dec_mask[BK]    = 000000000000e100 	high:16 low:8
addr_dec_mask[ROW]   = 000000000fff0000 	high:28 low:16
addr_dec_mask[COL]   = 0000000000001eff 	high:13 low:0
addr_dec_mask[BURST] = 000000000000003f 	high:6 low:0
sub_partition_id_mask = 0000000000000100
GPGPU-Sim uArch: clock freqs: 700000000.000000:700000000.000000:700000000.000000:924000000.000000
GPGPU-Sim uArch: clock periods: 0.00000000142857142857:0.00000000142857142857:0.00000000142857142857:0.00000000108225108225
*** Initializing Memory Statistics ***
GPGPU-Sim uArch: interconnect node map (shaderID+MemID to icntID)
GPGPU-Sim uArch: Memory nodes ID start from index: 15
GPGPU-Sim uArch:    0   1   2   3   4
GPGPU-Sim uArch:    5   6   7   8   9
GPGPU-Sim uArch:   10  11  12  13  14
GPGPU-Sim uArch:   15  16  17  18  19
GPGPU-Sim uArch:   20  21  22  23  24
GPGPU-Sim uArch:   25  26
GPGPU-Sim uArch: interconnect node reverse map (icntID to shaderID+MemID)
GPGPU-Sim uArch: Memory nodes start from ID: 15
GPGPU-Sim uArch:    0   1   2   3   4
GPGPU-Sim uArch:    5   6   7   8   9
GPGPU-Sim uArch:   10  11  12  13  14
GPGPU-Sim uArch:   15  16  17  18  19
GPGPU-Sim uArch:   20  21  22  23  24
GPGPU-Sim uArch:   25  26
a694f6f961931330989587dbd586e872  /sciclone/data10/hwang07/adwait/applications/benchmarks/CUDA/KMN/gpgpu_ptx_sim__KMN
GPGPU-Sim uArch: performance model initialization complete.
GPGPU-Sim PTX: __cudaRegisterFatBinary, fat_cubin_handle = 1, filename=kmeans_cuda.cu
self exe links to: /sciclone/data10/hwang07/adwait/applications/benchmarks/CUDA/KMN/gpgpu_ptx_sim__KMN
Running md5sum using "md5sum /sciclone/data10/hwang07/adwait/applications/benchmarks/CUDA/KMN/gpgpu_ptx_sim__KMN "
Parsing file _cuobjdump_complete_output_uoGCEq
######### cuobjdump parser ########
## Adding new section ELF
Adding arch: sm_20
Adding identifier: kmeans_cuda.cu
## Adding new section PTX
Adding ptx filename: _cuobjdump_1.ptx
Adding arch: sm_20
Adding identifier: kmeans_cuda.cu
Done parsing!!!
GPGPU-Sim PTX: __cudaRegisterFunction _Z11kmeansPointPfiiiPiS_S_S0_ : hostFun 0x0x402a5e, fat_cubin_handle = 1
GPGPU-Sim PTX: instruction assembly for function '_Z14invert_mappingPfS_ii'...   done.
GPGPU-Sim PTX: finding reconvergence points for '_Z14invert_mappingPfS_ii'...
GPGPU-Sim PTX: Finding dominators for '_Z14invert_mappingPfS_ii'...
GPGPU-Sim PTX: Finding immediate dominators for '_Z14invert_mappingPfS_ii'...
GPGPU-Sim PTX: Finding postdominators for '_Z14invert_mappingPfS_ii'...
GPGPU-Sim PTX: Finding immediate postdominators for '_Z14invert_mappingPfS_ii'...
GPGPU-Sim PTX: pre-decoding instructions for '_Z14invert_mappingPfS_ii'...
GPGPU-Sim PTX: reconvergence points for _Z14invert_mappingPfS_ii...
GPGPU-Sim PTX:  1 (potential) branch divergence @  PC=0x038 (_1.ptx:70) @%p1 bra $Lt_0_2050;
GPGPU-Sim PTX:    immediate post dominator      @  PC=0x110 (_1.ptx:103) exit;
GPGPU-Sim PTX:  2 (potential) branch divergence @  PC=0x058 (_1.ptx:74) @%p2 bra $Lt_0_2562;
GPGPU-Sim PTX:    immediate post dominator      @  PC=0x110 (_1.ptx:103) exit;
GPGPU-Sim PTX:  3 (potential) branch divergence @  PC=0x108 (_1.ptx:99) @%p3 bra $Lt_0_3074;
GPGPU-Sim PTX:    immediate post dominator      @  PC=0x110 (_1.ptx:103) exit;
GPGPU-Sim PTX: ... end of reconvergence points for _Z14invert_mappingPfS_ii
GPGPU-Sim PTX: ... done pre-decoding instructions for '_Z14invert_mappingPfS_ii'.
GPGPU-Sim PTX: instruction assembly for function '_Z11kmeansPointPfiiiPiS_S_S0_'...   done.
GPGPU-Sim PTX: finding reconvergence points for '_Z11kmeansPointPfiiiPiS_S_S0_'...
GPGPU-Sim PTX: Finding dominators for '_Z11kmeansPointPfiiiPiS_S_S0_'...
GPGPU-Sim PTX: Finding immediate dominators for '_Z11kmeansPointPfiiiPiS_S_S0_'...
GPGPU-Sim PTX: Finding postdominators for '_Z11kmeansPointPfiiiPiS_S_S0_'...
GPGPU-Sim PTX: Finding immediate postdominators for '_Z11kmeansPointPfiiiPiS_S_S0_'...
GPGPU-Sim PTX: pre-decoding instructions for '_Z11kmeansPointPfiiiPiS_S_S0_'...
GPGPU-Sim PTX: reconvergence points for _Z11kmeansPointPfiiiPiS_S_S0_...
GPGPU-Sim PTX:  1 (potential) branch divergence @  PC=0x180 (_1.ptx:136) @!%p1 bra $Lt_1_4866;
GPGPU-Sim PTX:    immediate post dominator      @  PC=0x320 (_1.ptx:202) @!%p1 bra $Lt_1_7682;
GPGPU-Sim PTX:  2 (potential) branch divergence @  PC=0x1a0 (_1.ptx:140) @%p2 bra $Lt_1_8194;
GPGPU-Sim PTX:    immediate post dominator      @  PC=0x320 (_1.ptx:202) @!%p1 bra $Lt_1_7682;
GPGPU-Sim PTX:  3 (potential) branch divergence @  PC=0x1e8 (_1.ptx:151) @!%p3 bra $Lt_1_8450;
GPGPU-Sim PTX:    immediate post dominator      @  PC=0x2c8 (_1.ptx:185) setp.lt.f32 %p5, %f2, %f1;
GPGPU-Sim PTX:  4 (potential) branch divergence @  PC=0x2b0 (_1.ptx:180) @%p4 bra $Lt_1_6402;
GPGPU-Sim PTX:    immediate post dominator      @  PC=0x2b8 (_1.ptx:181) bra.uni $Lt_1_5890;
GPGPU-Sim PTX:  5 (potential) branch divergence @  PC=0x2b8 (_1.ptx:181) bra.uni $Lt_1_5890;
GPGPU-Sim PTX:    immediate post dominator      @  PC=0x2c8 (_1.ptx:185) setp.lt.f32 %p5, %f2, %f1;
GPGPU-Sim PTX:  6 (potential) branch divergence @  PC=0x2d0 (_1.ptx:186) @!%p5 bra $Lt_1_6914;
GPGPU-Sim PTX:    immediate post dominator      @  PC=0x2e8 (_1.ptx:192) add.s32 %r18, %r18, 1;
GPGPU-Sim PTX:  7 (potential) branch divergence @  PC=0x2f8 (_1.ptx:194) @%p6 bra $Lt_1_5634;
GPGPU-Sim PTX:    immediate post dominator      @  PC=0x300 (_1.ptx:195) bra.uni $Lt_1_4610;
GPGPU-Sim PTX:  8 (potential) branch divergence @  PC=0x300 (_1.ptx:195) bra.uni $Lt_1_4610;
GPGPU-Sim PTX:    immediate post dominator      @  PC=0x320 (_1.ptx:202) @!%p1 bra $Lt_1_7682;
GPGPU-Sim PTX:  9 (potential) branch divergence @  PC=0x310 (_1.ptx:198) bra.uni $Lt_1_4610;
GPGPU-Sim PTX:    immediate post dominator      @  PC=0x320 (_1.ptx:202) @!%p1 bra $Lt_1_7682;
GPGPU-Sim PTX: 10 (potential) branch divergence @  PC=0x320 (_1.ptx:202) @!%p1 bra $Lt_1_7682;
GPGPU-Sim PTX:    immediate post dominator      @  PC=0x350 (_1.ptx:211) exit;
GPGPU-Sim PTX: ... end of reconvergence points for _Z11kmeansPointPfiiiPiS_S_S0_
GPGPU-Sim PTX: ... done pre-decoding instructions for '_Z11kmeansPointPfiiiPiS_S_S0_'.
GPGPU-Sim PTX: allocating global region for "t_features" from 0x100 to 0x104 (global memory space)
GPGPU-Sim PTX: allocating global region for "t_features_flipped" from 0x104 to 0x108 (global memory space)
GPGPU-Sim PTX: allocating global region for "t_clusters" from 0x108 to 0x10c (global memory space)
GPGPU-Sim PTX: finished parsing EMBEDDED .ptx file _1.ptx
Adding _cuobjdump_1.ptx with cubin handle 1
GPGPU-Sim PTX: extracting embedded .ptx to temporary file "_ptx_6kglN2"
Running: cat _ptx_6kglN2 | sed 's/.version 1.5/.version 1.4/' | sed 's/, texmode_independent//' | sed 's/\(\.extern \.const\[1\] .b8 \w\+\)\[\]/\1\[1\]/' | sed 's/const\[.\]/const\[0\]/g' > _ptx2_yquOsF
GPGPU-Sim PTX: generating ptxinfo using "$CUDA_INSTALL_PATH/bin/ptxas --gpu-name=sm_20 -v _ptx2_yquOsF --output-file  /dev/null 2> _ptx_6kglN2info"
GPGPU-Sim PTX: Kernel '_Z11kmeansPointPfiiiPiS_S_S0_' : regs=15, lmem=0, smem=0, cmem=88
GPGPU-Sim PTX: Kernel '_Z14invert_mappingPfS_ii' : regs=10, lmem=0, smem=0, cmem=56
GPGPU-Sim PTX: removing ptxinfo using "rm -f _ptx_6kglN2 _ptx2_yquOsF _ptx_6kglN2info"
GPGPU-Sim PTX: loading globals with explicit initializers... 
GPGPU-Sim PTX: finished loading globals (0 bytes total).
GPGPU-Sim PTX: loading constants with explicit initializers...  done.
GPGPU-Sim PTX: __cudaRegisterFunction _Z14invert_mappingPfS_ii : hostFun 0x0x4028ce, fat_cubin_handle = 1
GPGPU-Sim PTX: in __cudaRegisterTexture:
GPGPU-Sim PTX:   int dim = 1
GPGPU-Sim PTX:   int norm = 0
GPGPU-Sim PTX:   int ext = 0
GPGPU-Sim PTX:   Execution warning: Not finished implementing "void __cudaRegisterTexture(void**, const textureReference*, const void**, const char*, int, int, int)"
GPGPU-Sim PTX: in __cudaRegisterTexture:
GPGPU-Sim PTX:   int dim = 1
GPGPU-Sim PTX:   int norm = 0
GPGPU-Sim PTX:   int ext = 0
GPGPU-Sim PTX:   Execution warning: Not finished implementing "void __cudaRegisterTexture(void**, const textureReference*, const void**, const char*, int, int, int)"
GPGPU-Sim PTX: in __cudaRegisterTexture:
GPGPU-Sim PTX:   int dim = 1
GPGPU-Sim PTX:   int norm = 0
GPGPU-Sim PTX:   int ext = 0
GPGPU-Sim PTX:   Execution warning: Not finished implementing "void __cudaRegisterTexture(void**, const textureReference*, const void**, const char*, int, int, int)"

I/O completed

Number of objects: 28672
Number of features: 138

GPGPU-Sim PTX: cudaLaunch for 0x0x402a5e (mode=performance simulation) on stream 0
GPGPU-Sim PTX: pushing kernel '_Z11kmeansPointPfiiiPiS_S_S0_' to stream 0, gridDim= (11,11,1) blockDim = (256,1,1) 
kernel '_Z11kmeansPointPfiiiPiS_S_S0_' transfer to GPU hardware scheduler
GPGPU-Sim uArch: Shader 1 bind to kernel 1 '_Z11kmeansPointPfiiiPiS_S_S0_'
GPGPU-Sim uArch: CTA/core = 6, limited by: threads
GPGPU-Sim uArch: core:  1, cta: 0 initialized @(1,0)
GPGPU-Sim uArch: Shader 2 bind to kernel 1 '_Z11kmeansPointPfiiiPiS_S_S0_'
GPGPU-Sim uArch: core:  2, cta: 0 initialized @(1,0)
GPGPU-Sim uArch: Shader 3 bind to kernel 1 '_Z11kmeansPointPfiiiPiS_S_S0_'
GPGPU-Sim uArch: core:  3, cta: 0 initialized @(1,0)
GPGPU-Sim uArch: Shader 4 bind to kernel 1 '_Z11kmeansPointPfiiiPiS_S_S0_'
GPGPU-Sim uArch: core:  4, cta: 0 initialized @(1,0)
GPGPU-Sim uArch: Shader 5 bind to kernel 1 '_Z11kmeansPointPfiiiPiS_S_S0_'
GPGPU-Sim uArch: core:  5, cta: 0 initialized @(1,0)
GPGPU-Sim uArch: Shader 6 bind to kernel 1 '_Z11kmeansPointPfiiiPiS_S_S0_'
GPGPU-Sim uArch: core:  6, cta: 0 initialized @(1,0)
GPGPU-Sim uArch: Shader 7 bind to kernel 1 '_Z11kmeansPointPfiiiPiS_S_S0_'
GPGPU-Sim uArch: core:  7, cta: 0 initialized @(1,0)
GPGPU-Sim uArch: Shader 8 bind to kernel 1 '_Z11kmeansPointPfiiiPiS_S_S0_'
GPGPU-Sim uArch: core:  8, cta: 0 initialized @(1,0)
GPGPU-Sim uArch: Shader 9 bind to kernel 1 '_Z11kmeansPointPfiiiPiS_S_S0_'
GPGPU-Sim uArch: core:  9, cta: 0 initialized @(1,0)
GPGPU-Sim uArch: Shader 10 bind to kernel 1 '_Z11kmeansPointPfiiiPiS_S_S0_'
GPGPU-Sim uArch: core: 10, cta: 0 initialized @(1,0)
GPGPU-Sim uArch: Shader 11 bind to kernel 1 '_Z11kmeansPointPfiiiPiS_S_S0_'
GPGPU-Sim uArch: core: 11, cta: 0 initialized @(1,0)
GPGPU-Sim uArch: Shader 12 bind to kernel 1 '_Z11kmeansPointPfiiiPiS_S_S0_'
GPGPU-Sim uArch: core: 12, cta: 0 initialized @(1,0)
GPGPU-Sim uArch: Shader 13 bind to kernel 1 '_Z11kmeansPointPfiiiPiS_S_S0_'
GPGPU-Sim uArch: core: 13, cta: 0 initialized @(1,0)
GPGPU-Sim uArch: Shader 14 bind to kernel 1 '_Z11kmeansPointPfiiiPiS_S_S0_'
GPGPU-Sim uArch: core: 14, cta: 0 initialized @(1,0)
GPGPU-Sim uArch: Shader 0 bind to kernel 1 '_Z11kmeansPointPfiiiPiS_S_S0_'
GPGPU-Sim uArch: core:  0, cta: 0 initialized @(1,0)
GPGPU-Sim uArch: core:  1, cta: 1 initialized @(2,0)
GPGPU-Sim uArch: core:  2, cta: 1 initialized @(2,0)
GPGPU-Sim uArch: core:  3, cta: 1 initialized @(2,0)
GPGPU-Sim uArch: core:  4, cta: 1 initialized @(2,0)
GPGPU-Sim uArch: core:  5, cta: 1 initialized @(2,0)
GPGPU-Sim uArch: core:  6, cta: 1 initialized @(2,0)
GPGPU-Sim uArch: core:  7, cta: 1 initialized @(2,0)
GPGPU-Sim uArch: core:  8, cta: 1 initialized @(2,0)
GPGPU-Sim uArch: core:  9, cta: 1 initialized @(2,0)
GPGPU-Sim uArch: core: 10, cta: 1 initialized @(2,0)
GPGPU-Sim uArch: core: 11, cta: 1 initialized @(2,0)
GPGPU-Sim uArch: core: 12, cta: 1 initialized @(2,0)
GPGPU-Sim uArch: core: 13, cta: 1 initialized @(2,0)
GPGPU-Sim uArch: core: 14, cta: 1 initialized @(2,0)
GPGPU-Sim uArch: core:  0, cta: 1 initialized @(2,0)
GPGPU-Sim uArch: core:  1, cta: 2 initialized @(3,0)
GPGPU-Sim uArch: core:  2, cta: 2 initialized @(3,0)
GPGPU-Sim uArch: core:  3, cta: 2 initialized @(3,0)
GPGPU-Sim uArch: core:  4, cta: 2 initialized @(3,0)
GPGPU-Sim uArch: core:  5, cta: 2 initialized @(3,0)
GPGPU-Sim uArch: core:  6, cta: 2 initialized @(3,0)
GPGPU-Sim uArch: core:  7, cta: 2 initialized @(3,0)
GPGPU-Sim uArch: core:  8, cta: 2 initialized @(3,0)
GPGPU-Sim uArch: core:  9, cta: 2 initialized @(3,0)
GPGPU-Sim uArch: core: 10, cta: 2 initialized @(3,0)
GPGPU-Sim uArch: core: 11, cta: 2 initialized @(3,0)
GPGPU-Sim uArch: core: 12, cta: 2 initialized @(3,0)
GPGPU-Sim uArch: core: 13, cta: 2 initialized @(3,0)
GPGPU-Sim uArch: core: 14, cta: 2 initialized @(3,0)
GPGPU-Sim uArch: core:  0, cta: 2 initialized @(3,0)
GPGPU-Sim uArch: core:  1, cta: 3 initialized @(4,0)
GPGPU-Sim uArch: core:  2, cta: 3 initialized @(4,0)
GPGPU-Sim uArch: core:  3, cta: 3 initialized @(4,0)
GPGPU-Sim uArch: core:  4, cta: 3 initialized @(4,0)
GPGPU-Sim uArch: core:  5, cta: 3 initialized @(4,0)
GPGPU-Sim uArch: core:  6, cta: 3 initialized @(4,0)
GPGPU-Sim uArch: core:  7, cta: 3 initialized @(4,0)
GPGPU-Sim uArch: core:  8, cta: 3 initialized @(4,0)
GPGPU-Sim uArch: core:  9, cta: 3 initialized @(4,0)
GPGPU-Sim uArch: core: 10, cta: 3 initialized @(4,0)
GPGPU-Sim uArch: core: 11, cta: 3 initialized @(4,0)
GPGPU-Sim uArch: core: 12, cta: 3 initialized @(4,0)
GPGPU-Sim uArch: core: 13, cta: 3 initialized @(4,0)
GPGPU-Sim uArch: core: 14, cta: 3 initialized @(4,0)
GPGPU-Sim uArch: core:  0, cta: 3 initialized @(4,0)
GPGPU-Sim uArch: core:  1, cta: 4 initialized @(5,0)
GPGPU-Sim uArch: core:  2, cta: 4 initialized @(5,0)
GPGPU-Sim uArch: core:  3, cta: 4 initialized @(5,0)
GPGPU-Sim uArch: core:  4, cta: 4 initialized @(5,0)
GPGPU-Sim uArch: core:  5, cta: 4 initialized @(5,0)
GPGPU-Sim uArch: core:  6, cta: 4 initialized @(5,0)
GPGPU-Sim uArch: core:  7, cta: 4 initialized @(5,0)
GPGPU-Sim uArch: core:  8, cta: 4 initialized @(5,0)
GPGPU-Sim uArch: core:  9, cta: 4 initialized @(5,0)
GPGPU-Sim uArch: core: 10, cta: 4 initialized @(5,0)
GPGPU-Sim uArch: core: 11, cta: 4 initialized @(5,0)
GPGPU-Sim uArch: core: 12, cta: 4 initialized @(5,0)
GPGPU-Sim uArch: core: 13, cta: 4 initialized @(5,0)
GPGPU-Sim uArch: core: 14, cta: 4 initialized @(5,0)
GPGPU-Sim uArch: core:  0, cta: 4 initialized @(5,0)
GPGPU-Sim uArch: core:  1, cta: 5 initialized @(6,0)
GPGPU-Sim uArch: core:  2, cta: 5 initialized @(6,0)
GPGPU-Sim uArch: core:  3, cta: 5 initialized @(6,0)
GPGPU-Sim uArch: core:  4, cta: 5 initialized @(6,0)
GPGPU-Sim uArch: core:  5, cta: 5 initialized @(6,0)
GPGPU-Sim uArch: core:  6, cta: 5 initialized @(6,0)
GPGPU-Sim uArch: core:  7, cta: 5 initialized @(6,0)
GPGPU-Sim uArch: core:  8, cta: 5 initialized @(6,0)
GPGPU-Sim uArch: core:  9, cta: 5 initialized @(6,0)
GPGPU-Sim uArch: core: 10, cta: 5 initialized @(6,0)
GPGPU-Sim uArch: core: 11, cta: 5 initialized @(6,0)
GPGPU-Sim uArch: core: 12, cta: 5 initialized @(6,0)
GPGPU-Sim uArch: core: 13, cta: 5 initialized @(6,0)
GPGPU-Sim uArch: core: 14, cta: 5 initialized @(6,0)
GPGPU-Sim uArch: core:  0, cta: 5 initialized @(6,0)
GPGPU-Sim uArch: cycles simulated: 500  inst.: 10560 (ipc=21.1) sim_rate=5280 (inst/sec) elapsed = 0:0:00:02 / Tue Mar 22 07:00:40 2016
GPGPU-Sim uArch: cycles simulated: 2000  inst.: 76896 (ipc=38.4) sim_rate=25632 (inst/sec) elapsed = 0:0:00:03 / Tue Mar 22 07:00:41 2016
GPGPU-Sim PTX: 100000 instructions simulated : ctaid=(3,1,0) tid=(255,0,0)
GPGPU-Sim uArch: cycles simulated: 4500  inst.: 173792 (ipc=38.6) sim_rate=43448 (inst/sec) elapsed = 0:0:00:04 / Tue Mar 22 07:00:42 2016
GPGPU-Sim PTX: 200000 instructions simulated : ctaid=(9,5,0) tid=(31,0,0)
GPGPU-Sim uArch: cycles simulated: 6500  inst.: 238944 (ipc=36.8) sim_rate=47788 (inst/sec) elapsed = 0:0:00:05 / Tue Mar 22 07:00:43 2016
GPGPU-Sim PTX: 300000 instructions simulated : ctaid=(1,1,0) tid=(63,0,0)
GPGPU-Sim uArch: cycles simulated: 9000  inst.: 320352 (ipc=35.6) sim_rate=53392 (inst/sec) elapsed = 0:0:00:06 / Tue Mar 22 07:00:44 2016
GPGPU-Sim PTX: 400000 instructions simulated : ctaid=(3,0,0) tid=(127,0,0)
GPGPU-Sim uArch: cycles simulated: 11500  inst.: 435584 (ipc=37.9) sim_rate=62226 (inst/sec) elapsed = 0:0:00:07 / Tue Mar 22 07:00:45 2016
GPGPU-Sim PTX: 500000 instructions simulated : ctaid=(0,1,0) tid=(95,0,0)
GPGPU-Sim uArch: cycles simulated: 14000  inst.: 484768 (ipc=34.6) sim_rate=60596 (inst/sec) elapsed = 0:0:00:08 / Tue Mar 22 07:00:46 2016
GPGPU-Sim uArch: cycles simulated: 16000  inst.: 520064 (ipc=32.5) sim_rate=57784 (inst/sec) elapsed = 0:0:00:09 / Tue Mar 22 07:00:47 2016
GPGPU-Sim uArch: cycles simulated: 18000  inst.: 560128 (ipc=31.1) sim_rate=56012 (inst/sec) elapsed = 0:0:00:10 / Tue Mar 22 07:00:48 2016
GPGPU-Sim PTX: 600000 instructions simulated : ctaid=(4,0,0) tid=(159,0,0)
GPGPU-Sim uArch: cycles simulated: 20500  inst.: 604032 (ipc=29.5) sim_rate=54912 (inst/sec) elapsed = 0:0:00:11 / Tue Mar 22 07:00:49 2016
GPGPU-Sim PTX: 700000 instructions simulated : ctaid=(6,0,0) tid=(223,0,0)
GPGPU-Sim uArch: cycles simulated: 22500  inst.: 698304 (ipc=31.0) sim_rate=58192 (inst/sec) elapsed = 0:0:00:12 / Tue Mar 22 07:00:50 2016
GPGPU-Sim uArch: cycles simulated: 24500  inst.: 734592 (ipc=30.0) sim_rate=56507 (inst/sec) elapsed = 0:0:00:13 / Tue Mar 22 07:00:51 2016
GPGPU-Sim PTX: 800000 instructions simulated : ctaid=(2,0,0) tid=(223,0,0)
GPGPU-Sim uArch: cycles simulated: 27000  inst.: 792288 (ipc=29.3) sim_rate=56592 (inst/sec) elapsed = 0:0:00:14 / Tue Mar 22 07:00:52 2016
GPGPU-Sim uArch: cycles simulated: 29000  inst.: 837376 (ipc=28.9) sim_rate=55825 (inst/sec) elapsed = 0:0:00:15 / Tue Mar 22 07:00:53 2016
GPGPU-Sim PTX: 900000 instructions simulated : ctaid=(2,1,0) tid=(95,0,0)
GPGPU-Sim uArch: cycles simulated: 31000  inst.: 879712 (ipc=28.4) sim_rate=54982 (inst/sec) elapsed = 0:0:00:16 / Tue Mar 22 07:00:54 2016
GPGPU-Sim PTX: 1000000 instructions simulated : ctaid=(10,2,0) tid=(191,0,0)
GPGPU-Sim uArch: cycles simulated: 33500  inst.: 1005536 (ipc=30.0) sim_rate=59149 (inst/sec) elapsed = 0:0:00:17 / Tue Mar 22 07:00:55 2016
GPGPU-Sim uArch: cycles simulated: 35000  inst.: 1037984 (ipc=29.7) sim_rate=57665 (inst/sec) elapsed = 0:0:00:18 / Tue Mar 22 07:00:56 2016
GPGPU-Sim uArch: cycles simulated: 37000  inst.: 1074464 (ipc=29.0) sim_rate=56550 (inst/sec) elapsed = 0:0:00:19 / Tue Mar 22 07:00:57 2016
GPGPU-Sim PTX: 1100000 instructions simulated : ctaid=(10,0,0) tid=(31,0,0)
GPGPU-Sim uArch: cycles simulated: 39000  inst.: 1119392 (ipc=28.7) sim_rate=55969 (inst/sec) elapsed = 0:0:00:20 / Tue Mar 22 07:00:58 2016
GPGPU-Sim uArch: cycles simulated: 41000  inst.: 1153152 (ipc=28.1) sim_rate=54912 (inst/sec) elapsed = 0:0:00:21 / Tue Mar 22 07:00:59 2016
GPGPU-Sim PTX: 1200000 instructions simulated : ctaid=(1,1,0) tid=(95,0,0)
GPGPU-Sim uArch: cycles simulated: 43000  inst.: 1191296 (ipc=27.7) sim_rate=54149 (inst/sec) elapsed = 0:0:00:22 / Tue Mar 22 07:01:00 2016
GPGPU-Sim PTX: 1300000 instructions simulated : ctaid=(4,7,0) tid=(95,0,0)
GPGPU-Sim uArch: cycles simulated: 45000  inst.: 1301376 (ipc=28.9) sim_rate=56581 (inst/sec) elapsed = 0:0:00:23 / Tue Mar 22 07:01:01 2016
GPGPU-Sim uArch: cycles simulated: 46500  inst.: 1332704 (ipc=28.7) sim_rate=55529 (inst/sec) elapsed = 0:0:00:24 / Tue Mar 22 07:01:02 2016
GPGPU-Sim uArch: cycles simulated: 48500  inst.: 1373440 (ipc=28.3) sim_rate=54937 (inst/sec) elapsed = 0:0:00:25 / Tue Mar 22 07:01:03 2016
GPGPU-Sim PTX: 1400000 instructions simulated : ctaid=(8,0,0) tid=(223,0,0)
GPGPU-Sim uArch: cycles simulated: 50500  inst.: 1414560 (ipc=28.0) sim_rate=54406 (inst/sec) elapsed = 0:0:00:26 / Tue Mar 22 07:01:04 2016
GPGPU-Sim uArch: cycles simulated: 52500  inst.: 1446752 (ipc=27.6) sim_rate=53583 (inst/sec) elapsed = 0:0:00:27 / Tue Mar 22 07:01:05 2016
GPGPU-Sim PTX: 1500000 instructions simulated : ctaid=(0,0,0) tid=(127,0,0)
GPGPU-Sim uArch: cycles simulated: 54500  inst.: 1483040 (ipc=27.2) sim_rate=52965 (inst/sec) elapsed = 0:0:00:28 / Tue Mar 22 07:01:06 2016
GPGPU-Sim uArch: cycles simulated: 56500  inst.: 1522912 (ipc=27.0) sim_rate=52514 (inst/sec) elapsed = 0:0:00:29 / Tue Mar 22 07:01:07 2016
GPGPU-Sim uArch: cycles simulated: 58000  inst.: 1546880 (ipc=26.7) sim_rate=51562 (inst/sec) elapsed = 0:0:00:30 / Tue Mar 22 07:01:08 2016
GPGPU-Sim PTX: 1600000 instructions simulated : ctaid=(9,0,0) tid=(223,0,0)
GPGPU-Sim uArch: cycles simulated: 60000  inst.: 1586272 (ipc=26.4) sim_rate=51170 (inst/sec) elapsed = 0:0:00:31 / Tue Mar 22 07:01:09 2016
GPGPU-Sim uArch: cycles simulated: 61500  inst.: 1611360 (ipc=26.2) sim_rate=50355 (inst/sec) elapsed = 0:0:00:32 / Tue Mar 22 07:01:10 2016
GPGPU-Sim uArch: cycles simulated: 63500  inst.: 1650496 (ipc=26.0) sim_rate=50015 (inst/sec) elapsed = 0:0:00:33 / Tue Mar 22 07:01:11 2016
GPGPU-Sim PTX: 1700000 instructions simulated : ctaid=(3,0,0) tid=(223,0,0)
GPGPU-Sim uArch: cycles simulated: 65500  inst.: 1684480 (ipc=25.7) sim_rate=49543 (inst/sec) elapsed = 0:0:00:34 / Tue Mar 22 07:01:12 2016
GPGPU-Sim uArch: cycles simulated: 67500  inst.: 1724544 (ipc=25.5) sim_rate=49272 (inst/sec) elapsed = 0:0:00:35 / Tue Mar 22 07:01:13 2016
GPGPU-Sim uArch: cycles simulated: 69000  inst.: 1748448 (ipc=25.3) sim_rate=48568 (inst/sec) elapsed = 0:0:00:36 / Tue Mar 22 07:01:14 2016
GPGPU-Sim PTX: 1800000 instructions simulated : ctaid=(2,0,0) tid=(127,0,0)
GPGPU-Sim uArch: cycles simulated: 71000  inst.: 1787296 (ipc=25.2) sim_rate=48305 (inst/sec) elapsed = 0:0:00:37 / Tue Mar 22 07:01:15 2016
GPGPU-Sim uArch: cycles simulated: 73000  inst.: 1815232 (ipc=24.9) sim_rate=47769 (inst/sec) elapsed = 0:0:00:38 / Tue Mar 22 07:01:16 2016
GPGPU-Sim uArch: cycles simulated: 75000  inst.: 1859200 (ipc=24.8) sim_rate=47671 (inst/sec) elapsed = 0:0:00:39 / Tue Mar 22 07:01:17 2016
GPGPU-Sim PTX: 1900000 instructions simulated : ctaid=(0,2,0) tid=(159,0,0)
GPGPU-Sim uArch: cycles simulated: 76500  inst.: 1889632 (ipc=24.7) sim_rate=47240 (inst/sec) elapsed = 0:0:00:40 / Tue Mar 22 07:01:18 2016
GPGPU-Sim uArch: cycles simulated: 78500  inst.: 1921120 (ipc=24.5) sim_rate=46856 (inst/sec) elapsed = 0:0:00:41 / Tue Mar 22 07:01:19 2016
GPGPU-Sim uArch: cycles simulated: 80500  inst.: 1957472 (ipc=24.3) sim_rate=46606 (inst/sec) elapsed = 0:0:00:42 / Tue Mar 22 07:01:20 2016
GPGPU-Sim PTX: 2000000 instructions simulated : ctaid=(2,0,0) tid=(255,0,0)
GPGPU-Sim uArch: cycles simulated: 82500  inst.: 1991616 (ipc=24.1) sim_rate=46316 (inst/sec) elapsed = 0:0:00:43 / Tue Mar 22 07:01:21 2016
GPGPU-Sim uArch: cycles simulated: 85000  inst.: 2041280 (ipc=24.0) sim_rate=46392 (inst/sec) elapsed = 0:0:00:44 / Tue Mar 22 07:01:22 2016
GPGPU-Sim PTX: 2100000 instructions simulated : ctaid=(8,0,0) tid=(159,0,0)
GPGPU-Sim uArch: cycles simulated: 87000  inst.: 2078304 (ipc=23.9) sim_rate=46184 (inst/sec) elapsed = 0:0:00:45 / Tue Mar 22 07:01:23 2016
GPGPU-Sim uArch: cycles simulated: 89000  inst.: 2115680 (ipc=23.8) sim_rate=45993 (inst/sec) elapsed = 0:0:00:46 / Tue Mar 22 07:01:24 2016
GPGPU-Sim uArch: cycles simulated: 90500  inst.: 2141088 (ipc=23.7) sim_rate=45555 (inst/sec) elapsed = 0:0:00:47 / Tue Mar 22 07:01:25 2016
GPGPU-Sim PTX: 2200000 instructions simulated : ctaid=(2,0,0) tid=(223,0,0)
GPGPU-Sim uArch: cycles simulated: 93000  inst.: 2190240 (ipc=23.6) sim_rate=45630 (inst/sec) elapsed = 0:0:00:48 / Tue Mar 22 07:01:26 2016
GPGPU-Sim uArch: cycles simulated: 95000  inst.: 2226240 (ipc=23.4) sim_rate=45433 (inst/sec) elapsed = 0:0:00:49 / Tue Mar 22 07:01:27 2016
GPGPU-Sim uArch: cycles simulated: 97000  inst.: 2269408 (ipc=23.4) sim_rate=45388 (inst/sec) elapsed = 0:0:00:50 / Tue Mar 22 07:01:28 2016
GPGPU-Sim PTX: 2300000 instructions simulated : ctaid=(1,0,0) tid=(31,0,0)
GPGPU-Sim uArch: cycles simulated: 99000  inst.: 2305248 (ipc=23.3) sim_rate=45200 (inst/sec) elapsed = 0:0:00:51 / Tue Mar 22 07:01:29 2016
GPGPU-Sim uArch: cycles simulated: 101000  inst.: 2333824 (ipc=23.1) sim_rate=44881 (inst/sec) elapsed = 0:0:00:52 / Tue Mar 22 07:01:30 2016
GPGPU-Sim PTX: 2400000 instructions simulated : ctaid=(8,1,0) tid=(95,0,0)
GPGPU-Sim uArch: cycles simulated: 103500  inst.: 2376480 (ipc=23.0) sim_rate=44839 (inst/sec) elapsed = 0:0:00:53 / Tue Mar 22 07:01:31 2016
GPGPU-Sim uArch: cycles simulated: 105500  inst.: 2413184 (ipc=22.9) sim_rate=44688 (inst/sec) elapsed = 0:0:00:54 / Tue Mar 22 07:01:32 2016
GPGPU-Sim uArch: cycles simulated: 108000  inst.: 2456288 (ipc=22.7) sim_rate=44659 (inst/sec) elapsed = 0:0:00:55 / Tue Mar 22 07:01:33 2016
GPGPU-Sim PTX: 2500000 instructions simulated : ctaid=(2,1,0) tid=(31,0,0)
GPGPU-Sim uArch: cycles simulated: 110000  inst.: 2490080 (ipc=22.6) sim_rate=44465 (inst/sec) elapsed = 0:0:00:56 / Tue Mar 22 07:01:34 2016
GPGPU-Sim uArch: cycles simulated: 112000  inst.: 2527648 (ipc=22.6) sim_rate=44344 (inst/sec) elapsed = 0:0:00:57 / Tue Mar 22 07:01:35 2016
GPGPU-Sim uArch: cycles simulated: 113500  inst.: 2553856 (ipc=22.5) sim_rate=44032 (inst/sec) elapsed = 0:0:00:58 / Tue Mar 22 07:01:36 2016
GPGPU-Sim PTX: 2600000 instructions simulated : ctaid=(7,0,0) tid=(95,0,0)
GPGPU-Sim uArch: cycles simulated: 115500  inst.: 2588928 (ipc=22.4) sim_rate=43880 (inst/sec) elapsed = 0:0:00:59 / Tue Mar 22 07:01:37 2016
GPGPU-Sim uArch: cycles simulated: 117500  inst.: 2629248 (ipc=22.4) sim_rate=43820 (inst/sec) elapsed = 0:0:01:00 / Tue Mar 22 07:01:38 2016
GPGPU-Sim uArch: cycles simulated: 119500  inst.: 2666080 (ipc=22.3) sim_rate=43706 (inst/sec) elapsed = 0:0:01:01 / Tue Mar 22 07:01:39 2016
GPGPU-Sim PTX: 2700000 instructions simulated : ctaid=(6,1,0) tid=(159,0,0)
GPGPU-Sim uArch: cycles simulated: 121500  inst.: 2699840 (ipc=22.2) sim_rate=43545 (inst/sec) elapsed = 0:0:01:02 / Tue Mar 22 07:01:40 2016
GPGPU-Sim uArch: cycles simulated: 123500  inst.: 2730208 (ipc=22.1) sim_rate=43336 (inst/sec) elapsed = 0:0:01:03 / Tue Mar 22 07:01:41 2016
GPGPU-Sim uArch: cycles simulated: 125000  inst.: 2759744 (ipc=22.1) sim_rate=43121 (inst/sec) elapsed = 0:0:01:04 / Tue Mar 22 07:01:42 2016
GPGPU-Sim PTX: 2800000 instructions simulated : ctaid=(4,0,0) tid=(31,0,0)
GPGPU-Sim uArch: cycles simulated: 127000  inst.: 2800192 (ipc=22.0) sim_rate=43079 (inst/sec) elapsed = 0:0:01:05 / Tue Mar 22 07:01:43 2016
GPGPU-Sim uArch: cycles simulated: 129000  inst.: 2831040 (ipc=21.9) sim_rate=42894 (inst/sec) elapsed = 0:0:01:06 / Tue Mar 22 07:01:44 2016
GPGPU-Sim uArch: cycles simulated: 131000  inst.: 2865888 (ipc=21.9) sim_rate=42774 (inst/sec) elapsed = 0:0:01:07 / Tue Mar 22 07:01:45 2016
GPGPU-Sim PTX: 2900000 instructions simulated : ctaid=(8,1,0) tid=(95,0,0)
GPGPU-Sim uArch: cycles simulated: 133000  inst.: 2903232 (ipc=21.8) sim_rate=42694 (inst/sec) elapsed = 0:0:01:08 / Tue Mar 22 07:01:46 2016
GPGPU-Sim uArch: cycles simulated: 135000  inst.: 2936448 (ipc=21.8) sim_rate=42557 (inst/sec) elapsed = 0:0:01:09 / Tue Mar 22 07:01:47 2016
GPGPU-Sim PTX: 3000000 instructions simulated : ctaid=(1,0,0) tid=(95,0,0)
GPGPU-Sim uArch: cycles simulated: 137500  inst.: 2982304 (ipc=21.7) sim_rate=42604 (inst/sec) elapsed = 0:0:01:10 / Tue Mar 22 07:01:48 2016
GPGPU-Sim uArch: cycles simulated: 139500  inst.: 3016640 (ipc=21.6) sim_rate=42487 (inst/sec) elapsed = 0:0:01:11 / Tue Mar 22 07:01:49 2016
GPGPU-Sim uArch: cycles simulated: 141500  inst.: 3046560 (ipc=21.5) sim_rate=42313 (inst/sec) elapsed = 0:0:01:12 / Tue Mar 22 07:01:50 2016
GPGPU-Sim PTX: 3100000 instructions simulated : ctaid=(1,0,0) tid=(95,0,0)
GPGPU-Sim uArch: cycles simulated: 143500  inst.: 3082048 (ipc=21.5) sim_rate=42219 (inst/sec) elapsed = 0:0:01:13 / Tue Mar 22 07:01:51 2016
GPGPU-Sim uArch: cycles simulated: 146000  inst.: 3121888 (ipc=21.4) sim_rate=42187 (inst/sec) elapsed = 0:0:01:14 / Tue Mar 22 07:01:52 2016
GPGPU-Sim uArch: cycles simulated: 148000  inst.: 3158048 (ipc=21.3) sim_rate=42107 (inst/sec) elapsed = 0:0:01:15 / Tue Mar 22 07:01:53 2016
GPGPU-Sim PTX: 3200000 instructions simulated : ctaid=(0,0,0) tid=(127,0,0)
GPGPU-Sim uArch: cycles simulated: 150000  inst.: 3195872 (ipc=21.3) sim_rate=42050 (inst/sec) elapsed = 0:0:01:16 / Tue Mar 22 07:01:54 2016
GPGPU-Sim uArch: cycles simulated: 152500  inst.: 3240064 (ipc=21.2) sim_rate=42078 (inst/sec) elapsed = 0:0:01:17 / Tue Mar 22 07:01:55 2016
GPGPU-Sim PTX: 3300000 instructions simulated : ctaid=(10,0,0) tid=(127,0,0)
GPGPU-Sim uArch: cycles simulated: 154500  inst.: 3306304 (ipc=21.4) sim_rate=42388 (inst/sec) elapsed = 0:0:01:18 / Tue Mar 22 07:01:56 2016
GPGPU-Sim uArch: cycles simulated: 157000  inst.: 3337792 (ipc=21.3) sim_rate=42250 (inst/sec) elapsed = 0:0:01:19 / Tue Mar 22 07:01:57 2016
GPGPU-Sim PTX: 3400000 instructions simulated : ctaid=(0,1,0) tid=(63,0,0)
GPGPU-Sim uArch: cycles simulated: 159000  inst.: 3373792 (ipc=21.2) sim_rate=42172 (inst/sec) elapsed = 0:0:01:20 / Tue Mar 22 07:01:58 2016
GPGPU-Sim uArch: cycles simulated: 161500  inst.: 3427776 (ipc=21.2) sim_rate=42318 (inst/sec) elapsed = 0:0:01:21 / Tue Mar 22 07:01:59 2016
GPGPU-Sim PTX: 3500000 instructions simulated : ctaid=(1,1,0) tid=(223,0,0)
GPGPU-Sim uArch: cycles simulated: 164000  inst.: 3505984 (ipc=21.4) sim_rate=42755 (inst/sec) elapsed = 0:0:01:22 / Tue Mar 22 07:02:00 2016
GPGPU-Sim PTX: 3600000 instructions simulated : ctaid=(5,0,0) tid=(223,0,0)
GPGPU-Sim uArch: cycles simulated: 166000  inst.: 3575104 (ipc=21.5) sim_rate=43073 (inst/sec) elapsed = 0:0:01:23 / Tue Mar 22 07:02:01 2016
GPGPU-Sim uArch: cycles simulated: 168000  inst.: 3607680 (ipc=21.5) sim_rate=42948 (inst/sec) elapsed = 0:0:01:24 / Tue Mar 22 07:02:02 2016
GPGPU-Sim uArch: cycles simulated: 170500  inst.: 3642720 (ipc=21.4) sim_rate=42855 (inst/sec) elapsed = 0:0:01:25 / Tue Mar 22 07:02:03 2016
GPGPU-Sim PTX: 3700000 instructions simulated : ctaid=(3,1,0) tid=(63,0,0)
GPGPU-Sim uArch: cycles simulated: 173000  inst.: 3739616 (ipc=21.6) sim_rate=43483 (inst/sec) elapsed = 0:0:01:26 / Tue Mar 22 07:02:04 2016
GPGPU-Sim PTX: 3800000 instructions simulated : ctaid=(0,0,0) tid=(127,0,0)
GPGPU-Sim PTX: 3900000 instructions simulated : ctaid=(8,0,0) tid=(95,0,0)
GPGPU-Sim uArch: cycles simulated: 176000  inst.: 3873728 (ipc=22.0) sim_rate=44525 (inst/sec) elapsed = 0:0:01:27 / Tue Mar 22 07:02:05 2016
GPGPU-Sim uArch: cycles simulated: 178000  inst.: 3933152 (ipc=22.1) sim_rate=44694 (inst/sec) elapsed = 0:0:01:28 / Tue Mar 22 07:02:06 2016
GPGPU-Sim PTX: 4000000 instructions simulated : ctaid=(5,0,0) tid=(95,0,0)
GPGPU-Sim uArch: cycles simulated: 180500  inst.: 3986048 (ipc=22.1) sim_rate=44787 (inst/sec) elapsed = 0:0:01:29 / Tue Mar 22 07:02:07 2016
GPGPU-Sim uArch: cycles simulated: 182500  inst.: 4037088 (ipc=22.1) sim_rate=44856 (inst/sec) elapsed = 0:0:01:30 / Tue Mar 22 07:02:08 2016
GPGPU-Sim PTX: 4100000 instructions simulated : ctaid=(0,1,0) tid=(31,0,0)
GPGPU-Sim uArch: cycles simulated: 185000  inst.: 4117792 (ipc=22.3) sim_rate=45250 (inst/sec) elapsed = 0:0:01:31 / Tue Mar 22 07:02:09 2016
GPGPU-Sim PTX: 4200000 instructions simulated : ctaid=(8,0,0) tid=(31,0,0)
GPGPU-Sim uArch: cycles simulated: 187500  inst.: 4203552 (ipc=22.4) sim_rate=45690 (inst/sec) elapsed = 0:0:01:32 / Tue Mar 22 07:02:10 2016
GPGPU-Sim uArch: cycles simulated: 189500  inst.: 4246592 (ipc=22.4) sim_rate=45662 (inst/sec) elapsed = 0:0:01:33 / Tue Mar 22 07:02:11 2016
GPGPU-Sim PTX: 4300000 instructions simulated : ctaid=(4,0,0) tid=(31,0,0)
GPGPU-Sim uArch: cycles simulated: 192000  inst.: 4295776 (ipc=22.4) sim_rate=45699 (inst/sec) elapsed = 0:0:01:34 / Tue Mar 22 07:02:12 2016
GPGPU-Sim uArch: cycles simulated: 194500  inst.: 4367616 (ipc=22.5) sim_rate=45974 (inst/sec) elapsed = 0:0:01:35 / Tue Mar 22 07:02:13 2016
GPGPU-Sim PTX: 4400000 instructions simulated : ctaid=(5,0,0) tid=(95,0,0)
GPGPU-Sim uArch: cycles simulated: 197000  inst.: 4448000 (ipc=22.6) sim_rate=46333 (inst/sec) elapsed = 0:0:01:36 / Tue Mar 22 07:02:14 2016
GPGPU-Sim PTX: 4500000 instructions simulated : ctaid=(9,0,0) tid=(31,0,0)
GPGPU-Sim uArch: cycles simulated: 199500  inst.: 4525216 (ipc=22.7) sim_rate=46651 (inst/sec) elapsed = 0:0:01:37 / Tue Mar 22 07:02:15 2016
GPGPU-Sim uArch: cycles simulated: 201500  inst.: 4558880 (ipc=22.6) sim_rate=46519 (inst/sec) elapsed = 0:0:01:38 / Tue Mar 22 07:02:16 2016
GPGPU-Sim PTX: 4600000 instructions simulated : ctaid=(0,1,0) tid=(127,0,0)
GPGPU-Sim uArch: cycles simulated: 204000  inst.: 4629248 (ipc=22.7) sim_rate=46760 (inst/sec) elapsed = 0:0:01:39 / Tue Mar 22 07:02:17 2016
GPGPU-Sim PTX: 4700000 instructions simulated : ctaid=(0,0,0) tid=(223,0,0)
GPGPU-Sim uArch: cycles simulated: 206500  inst.: 4699072 (ipc=22.8) sim_rate=46990 (inst/sec) elapsed = 0:0:01:40 / Tue Mar 22 07:02:18 2016
GPGPU-Sim PTX: 4800000 instructions simulated : ctaid=(8,0,0) tid=(223,0,0)
GPGPU-Sim uArch: cycles simulated: 209000  inst.: 4776768 (ipc=22.9) sim_rate=47294 (inst/sec) elapsed = 0:0:01:41 / Tue Mar 22 07:02:19 2016
GPGPU-Sim uArch: cycles simulated: 211000  inst.: 4821440 (ipc=22.9) sim_rate=47269 (inst/sec) elapsed = 0:0:01:42 / Tue Mar 22 07:02:20 2016
GPGPU-Sim PTX: 4900000 instructions simulated : ctaid=(5,0,0) tid=(127,0,0)
GPGPU-Sim uArch: cycles simulated: 213500  inst.: 4878496 (ipc=22.9) sim_rate=47364 (inst/sec) elapsed = 0:0:01:43 / Tue Mar 22 07:02:21 2016
GPGPU-Sim uArch: cycles simulated: 216000  inst.: 4943232 (ipc=22.9) sim_rate=47531 (inst/sec) elapsed = 0:0:01:44 / Tue Mar 22 07:02:22 2016
GPGPU-Sim PTX: 5000000 instructions simulated : ctaid=(2,0,0) tid=(223,0,0)
GPGPU-Sim uArch: cycles simulated: 218000  inst.: 5000512 (ipc=22.9) sim_rate=47623 (inst/sec) elapsed = 0:0:01:45 / Tue Mar 22 07:02:23 2016
GPGPU-Sim PTX: 5100000 instructions simulated : ctaid=(6,0,0) tid=(95,0,0)
GPGPU-Sim uArch: cycles simulated: 220500  inst.: 5083264 (ipc=23.1) sim_rate=47955 (inst/sec) elapsed = 0:0:01:46 / Tue Mar 22 07:02:24 2016
GPGPU-Sim uArch: cycles simulated: 223000  inst.: 5134368 (ipc=23.0) sim_rate=47984 (inst/sec) elapsed = 0:0:01:47 / Tue Mar 22 07:02:25 2016
GPGPU-Sim PTX: 5200000 instructions simulated : ctaid=(0,0,0) tid=(31,0,0)
GPGPU-Sim uArch: cycles simulated: 225000  inst.: 5172928 (ipc=23.0) sim_rate=47897 (inst/sec) elapsed = 0:0:01:48 / Tue Mar 22 07:02:26 2016
GPGPU-Sim uArch: cycles simulated: 227000  inst.: 5214496 (ipc=23.0) sim_rate=47839 (inst/sec) elapsed = 0:0:01:49 / Tue Mar 22 07:02:27 2016
GPGPU-Sim uArch: cycles simulated: 229500  inst.: 5265824 (ipc=22.9) sim_rate=47871 (inst/sec) elapsed = 0:0:01:50 / Tue Mar 22 07:02:28 2016
GPGPU-Sim PTX: 5300000 instructions simulated : ctaid=(4,0,0) tid=(95,0,0)
GPGPU-Sim uArch: cycles simulated: 232000  inst.: 5343072 (ipc=23.0) sim_rate=48135 (inst/sec) elapsed = 0:0:01:51 / Tue Mar 22 07:02:29 2016
GPGPU-Sim PTX: 5400000 instructions simulated : ctaid=(5,2,0) tid=(95,0,0)
GPGPU-Sim uArch: cycles simulated: 234000  inst.: 5388096 (ipc=23.0) sim_rate=48108 (inst/sec) elapsed = 0:0:01:52 / Tue Mar 22 07:02:30 2016
GPGPU-Sim uArch: cycles simulated: 236500  inst.: 5442912 (ipc=23.0) sim_rate=48167 (inst/sec) elapsed = 0:0:01:53 / Tue Mar 22 07:02:31 2016
GPGPU-Sim PTX: 5500000 instructions simulated : ctaid=(0,0,0) tid=(159,0,0)
GPGPU-Sim uArch: cycles simulated: 238500  inst.: 5484032 (ipc=23.0) sim_rate=48105 (inst/sec) elapsed = 0:0:01:54 / Tue Mar 22 07:02:32 2016
GPGPU-Sim uArch: cycles simulated: 241000  inst.: 5537920 (ipc=23.0) sim_rate=48155 (inst/sec) elapsed = 0:0:01:55 / Tue Mar 22 07:02:33 2016
GPGPU-Sim PTX: 5600000 instructions simulated : ctaid=(6,0,0) tid=(95,0,0)
GPGPU-Sim uArch: cycles simulated: 243000  inst.: 5596096 (ipc=23.0) sim_rate=48242 (inst/sec) elapsed = 0:0:01:56 / Tue Mar 22 07:02:34 2016
GPGPU-Sim uArch: cycles simulated: 245500  inst.: 5648544 (ipc=23.0) sim_rate=48278 (inst/sec) elapsed = 0:0:01:57 / Tue Mar 22 07:02:35 2016
GPGPU-Sim PTX: 5700000 instructions simulated : ctaid=(7,0,0) tid=(63,0,0)
GPGPU-Sim uArch: cycles simulated: 247500  inst.: 5690272 (ipc=23.0) sim_rate=48222 (inst/sec) elapsed = 0:0:01:58 / Tue Mar 22 07:02:36 2016
GPGPU-Sim uArch: cycles simulated: 249500  inst.: 5733019 (ipc=23.0) sim_rate=48176 (inst/sec) elapsed = 0:0:01:59 / Tue Mar 22 07:02:37 2016
GPGPU-Sim PTX: 5800000 instructions simulated : ctaid=(3,1,0) tid=(73,0,0)
GPGPU-Sim uArch: cycles simulated: 252000  inst.: 5778747 (ipc=22.9) sim_rate=48156 (inst/sec) elapsed = 0:0:02:00 / Tue Mar 22 07:02:38 2016
GPGPU-Sim uArch: cycles simulated: 254500  inst.: 5850011 (ipc=23.0) sim_rate=48347 (inst/sec) elapsed = 0:0:02:01 / Tue Mar 22 07:02:39 2016
GPGPU-Sim PTX: 5900000 instructions simulated : ctaid=(8,0,0) tid=(201,0,0)
GPGPU-Sim uArch: cycles simulated: 256500  inst.: 5890706 (ipc=23.0) sim_rate=48284 (inst/sec) elapsed = 0:0:02:02 / Tue Mar 22 07:02:40 2016
GPGPU-Sim uArch: cycles simulated: 259000  inst.: 5949515 (ipc=23.0) sim_rate=48370 (inst/sec) elapsed = 0:0:02:03 / Tue Mar 22 07:02:41 2016
GPGPU-Sim PTX: 6000000 instructions simulated : ctaid=(9,0,0) tid=(73,0,0)
GPGPU-Sim uArch: cycles simulated: 261000  inst.: 5987650 (ipc=22.9) sim_rate=48287 (inst/sec) elapsed = 0:0:02:04 / Tue Mar 22 07:02:42 2016
GPGPU-Sim uArch: cycles simulated: 263500  inst.: 6048322 (ipc=23.0) sim_rate=48386 (inst/sec) elapsed = 0:0:02:05 / Tue Mar 22 07:02:43 2016
GPGPU-Sim PTX: 6100000 instructions simulated : ctaid=(3,0,0) tid=(155,0,0)
GPGPU-Sim uArch: cycles simulated: 266000  inst.: 6122786 (ipc=23.0) sim_rate=48593 (inst/sec) elapsed = 0:0:02:06 / Tue Mar 22 07:02:44 2016
GPGPU-Sim PTX: 6200000 instructions simulated : ctaid=(3,1,0) tid=(19,0,0)
GPGPU-Sim uArch: cycles simulated: 268500  inst.: 6198214 (ipc=23.1) sim_rate=48804 (inst/sec) elapsed = 0:0:02:07 / Tue Mar 22 07:02:45 2016
GPGPU-Sim uArch: cycles simulated: 271000  inst.: 6265953 (ipc=23.1) sim_rate=48952 (inst/sec) elapsed = 0:0:02:08 / Tue Mar 22 07:02:46 2016
GPGPU-Sim PTX: 6300000 instructions simulated : ctaid=(10,0,0) tid=(29,0,0)
GPGPU-Sim PTX: 6400000 instructions simulated : ctaid=(0,0,0) tid=(61,0,0)
GPGPU-Sim uArch: cycles simulated: 273500  inst.: 6369825 (ipc=23.3) sim_rate=49378 (inst/sec) elapsed = 0:0:02:09 / Tue Mar 22 07:02:47 2016
GPGPU-Sim PTX: 6500000 instructions simulated : ctaid=(1,0,0) tid=(79,0,0)
GPGPU-Sim uArch: cycles simulated: 276000  inst.: 6472056 (ipc=23.4) sim_rate=49785 (inst/sec) elapsed = 0:0:02:10 / Tue Mar 22 07:02:48 2016
GPGPU-Sim uArch: cycles simulated: 278000  inst.: 6517080 (ipc=23.4) sim_rate=49748 (inst/sec) elapsed = 0:0:02:11 / Tue Mar 22 07:02:49 2016
GPGPU-Sim PTX: 6600000 instructions simulated : ctaid=(0,0,0) tid=(57,0,0)
GPGPU-Sim uArch: cycles simulated: 280500  inst.: 6592216 (ipc=23.5) sim_rate=49941 (inst/sec) elapsed = 0:0:02:12 / Tue Mar 22 07:02:50 2016
GPGPU-Sim PTX: 6700000 instructions simulated : ctaid=(3,1,0) tid=(47,0,0)
GPGPU-Sim uArch: cycles simulated: 283500  inst.: 6711633 (ipc=23.7) sim_rate=50463 (inst/sec) elapsed = 0:0:02:13 / Tue Mar 22 07:02:51 2016
GPGPU-Sim PTX: 6800000 instructions simulated : ctaid=(6,0,0) tid=(61,0,0)
GPGPU-Sim uArch: cycles simulated: 286000  inst.: 6824401 (ipc=23.9) sim_rate=50928 (inst/sec) elapsed = 0:0:02:14 / Tue Mar 22 07:02:52 2016
GPGPU-Sim PTX: 6900000 instructions simulated : ctaid=(4,0,0) tid=(93,0,0)
GPGPU-Sim uArch: cycles simulated: 288500  inst.: 6897137 (ipc=23.9) sim_rate=51089 (inst/sec) elapsed = 0:0:02:15 / Tue Mar 22 07:02:53 2016
GPGPU-Sim PTX: 7000000 instructions simulated : ctaid=(6,0,0) tid=(61,0,0)
GPGPU-Sim uArch: cycles simulated: 291000  inst.: 6999569 (ipc=24.1) sim_rate=51467 (inst/sec) elapsed = 0:0:02:16 / Tue Mar 22 07:02:54 2016
GPGPU-Sim PTX: 7100000 instructions simulated : ctaid=(2,0,0) tid=(29,0,0)
GPGPU-Sim uArch: cycles simulated: 294000  inst.: 7150577 (ipc=24.3) sim_rate=52193 (inst/sec) elapsed = 0:0:02:17 / Tue Mar 22 07:02:55 2016
GPGPU-Sim PTX: 7200000 instructions simulated : ctaid=(2,1,0) tid=(61,0,0)
GPGPU-Sim PTX: 7300000 instructions simulated : ctaid=(5,0,0) tid=(61,0,0)
GPGPU-Sim uArch: cycles simulated: 297000  inst.: 7304017 (ipc=24.6) sim_rate=52927 (inst/sec) elapsed = 0:0:02:18 / Tue Mar 22 07:02:56 2016
GPGPU-Sim uArch: cycles simulated: 299000  inst.: 7360049 (ipc=24.6) sim_rate=52949 (inst/sec) elapsed = 0:0:02:19 / Tue Mar 22 07:02:57 2016
GPGPU-Sim PTX: 7400000 instructions simulated : ctaid=(5,0,0) tid=(29,0,0)
GPGPU-Sim uArch: cycles simulated: 302000  inst.: 7446674 (ipc=24.7) sim_rate=53190 (inst/sec) elapsed = 0:0:02:20 / Tue Mar 22 07:02:58 2016
GPGPU-Sim PTX: 7500000 instructions simulated : ctaid=(9,0,0) tid=(27,0,0)
GPGPU-Sim PTX: 7600000 instructions simulated : ctaid=(6,0,0) tid=(35,0,0)
GPGPU-Sim uArch: cycles simulated: 305000  inst.: 7599268 (ipc=24.9) sim_rate=53895 (inst/sec) elapsed = 0:0:02:21 / Tue Mar 22 07:02:59 2016
GPGPU-Sim PTX: 7700000 instructions simulated : ctaid=(4,0,0) tid=(21,0,0)
GPGPU-Sim uArch: cycles simulated: 307500  inst.: 7727795 (ipc=25.1) sim_rate=54421 (inst/sec) elapsed = 0:0:02:22 / Tue Mar 22 07:03:00 2016
GPGPU-Sim PTX: 7800000 instructions simulated : ctaid=(3,0,0) tid=(65,0,0)
GPGPU-Sim uArch: cycles simulated: 310000  inst.: 7811871 (ipc=25.2) sim_rate=54628 (inst/sec) elapsed = 0:0:02:23 / Tue Mar 22 07:03:01 2016
GPGPU-Sim PTX: 7900000 instructions simulated : ctaid=(0,0,0) tid=(47,0,0)
GPGPU-Sim uArch: cycles simulated: 312500  inst.: 7872280 (ipc=25.2) sim_rate=54668 (inst/sec) elapsed = 0:0:02:24 / Tue Mar 22 07:03:02 2016
GPGPU-Sim PTX: 8000000 instructions simulated : ctaid=(4,0,0) tid=(3,0,0)
GPGPU-Sim uArch: cycles simulated: 315500  inst.: 7991150 (ipc=25.3) sim_rate=55111 (inst/sec) elapsed = 0:0:02:25 / Tue Mar 22 07:03:03 2016
GPGPU-Sim PTX: 8100000 instructions simulated : ctaid=(8,0,0) tid=(3,0,0)
GPGPU-Sim uArch: cycles simulated: 318000  inst.: 8093198 (ipc=25.5) sim_rate=55432 (inst/sec) elapsed = 0:0:02:26 / Tue Mar 22 07:03:04 2016
GPGPU-Sim PTX: 8200000 instructions simulated : ctaid=(6,0,0) tid=(93,0,0)
GPGPU-Sim uArch: cycles simulated: 320500  inst.: 8186401 (ipc=25.5) sim_rate=55689 (inst/sec) elapsed = 0:0:02:27 / Tue Mar 22 07:03:05 2016
GPGPU-Sim uArch: cycles simulated: 323000  inst.: 8252993 (ipc=25.6) sim_rate=55763 (inst/sec) elapsed = 0:0:02:28 / Tue Mar 22 07:03:06 2016
GPGPU-Sim PTX: 8300000 instructions simulated : ctaid=(1,0,0) tid=(125,0,0)
GPGPU-Sim uArch: cycles simulated: 325500  inst.: 8330337 (ipc=25.6) sim_rate=55908 (inst/sec) elapsed = 0:0:02:29 / Tue Mar 22 07:03:07 2016
GPGPU-Sim PTX: 8400000 instructions simulated : ctaid=(3,1,0) tid=(61,0,0)
GPGPU-Sim uArch: cycles simulated: 328500  inst.: 8453862 (ipc=25.7) sim_rate=56359 (inst/sec) elapsed = 0:0:02:30 / Tue Mar 22 07:03:08 2016
GPGPU-Sim PTX: 8500000 instructions simulated : ctaid=(3,1,0) tid=(19,0,0)
GPGPU-Sim uArch: cycles simulated: 331000  inst.: 8545472 (ipc=25.8) sim_rate=56592 (inst/sec) elapsed = 0:0:02:31 / Tue Mar 22 07:03:09 2016
GPGPU-Sim PTX: 8600000 instructions simulated : ctaid=(2,1,0) tid=(1,0,0)
GPGPU-Sim uArch: cycles simulated: 333500  inst.: 8613110 (ipc=25.8) sim_rate=56665 (inst/sec) elapsed = 0:0:02:32 / Tue Mar 22 07:03:10 2016
GPGPU-Sim PTX: 8700000 instructions simulated : ctaid=(6,0,0) tid=(19,0,0)
GPGPU-Sim uArch: cycles simulated: 336000  inst.: 8676694 (ipc=25.8) sim_rate=56710 (inst/sec) elapsed = 0:0:02:33 / Tue Mar 22 07:03:11 2016
GPGPU-Sim uArch: cycles simulated: 338500  inst.: 8759474 (ipc=25.9) sim_rate=56879 (inst/sec) elapsed = 0:0:02:34 / Tue Mar 22 07:03:12 2016
GPGPU-Sim PTX: 8800000 instructions simulated : ctaid=(2,0,0) tid=(59,0,0)
GPGPU-Sim PTX: 8900000 instructions simulated : ctaid=(6,0,0) tid=(27,0,0)
GPGPU-Sim uArch: cycles simulated: 341000  inst.: 8867138 (ipc=26.0) sim_rate=57207 (inst/sec) elapsed = 0:0:02:35 / Tue Mar 22 07:03:13 2016
GPGPU-Sim uArch: cycles simulated: 343500  inst.: 8938779 (ipc=26.0) sim_rate=57299 (inst/sec) elapsed = 0:0:02:36 / Tue Mar 22 07:03:14 2016
GPGPU-Sim PTX: 9000000 instructions simulated : ctaid=(3,1,0) tid=(105,0,0)
GPGPU-Sim uArch: cycles simulated: 346000  inst.: 9002875 (ipc=26.0) sim_rate=57343 (inst/sec) elapsed = 0:0:02:37 / Tue Mar 22 07:03:15 2016
GPGPU-Sim uArch: cycles simulated: 348000  inst.: 9056219 (ipc=26.0) sim_rate=57317 (inst/sec) elapsed = 0:0:02:38 / Tue Mar 22 07:03:16 2016
GPGPU-Sim PTX: 9100000 instructions simulated : ctaid=(0,0,0) tid=(9,0,0)
GPGPU-Sim uArch: cycles simulated: 351000  inst.: 9159957 (ipc=26.1) sim_rate=57609 (inst/sec) elapsed = 0:0:02:39 / Tue Mar 22 07:03:17 2016
GPGPU-Sim PTX: 9200000 instructions simulated : ctaid=(0,0,0) tid=(21,0,0)
GPGPU-Sim uArch: cycles simulated: 353500  inst.: 9253505 (ipc=26.2) sim_rate=57834 (inst/sec) elapsed = 0:0:02:40 / Tue Mar 22 07:03:18 2016
GPGPU-Sim PTX: 9300000 instructions simulated : ctaid=(2,1,0) tid=(125,0,0)
GPGPU-Sim uArch: cycles simulated: 356000  inst.: 9317473 (ipc=26.2) sim_rate=57872 (inst/sec) elapsed = 0:0:02:41 / Tue Mar 22 07:03:19 2016
GPGPU-Sim PTX: 9400000 instructions simulated : ctaid=(3,1,0) tid=(57,0,0)
GPGPU-Sim uArch: cycles simulated: 358000  inst.: 9374067 (ipc=26.2) sim_rate=57864 (inst/sec) elapsed = 0:0:02:42 / Tue Mar 22 07:03:20 2016
GPGPU-Sim uArch: cycles simulated: 360500  inst.: 9439608 (ipc=26.2) sim_rate=57911 (inst/sec) elapsed = 0:0:02:43 / Tue Mar 22 07:03:21 2016
GPGPU-Sim PTX: 9500000 instructions simulated : ctaid=(5,0,0) tid=(47,0,0)
GPGPU-Sim uArch: cycles simulated: 363000  inst.: 9539384 (ipc=26.3) sim_rate=58166 (inst/sec) elapsed = 0:0:02:44 / Tue Mar 22 07:03:22 2016
GPGPU-Sim PTX: 9600000 instructions simulated : ctaid=(0,0,0) tid=(15,0,0)
GPGPU-Sim uArch: cycles simulated: 365500  inst.: 9617304 (ipc=26.3) sim_rate=58286 (inst/sec) elapsed = 0:0:02:45 / Tue Mar 22 07:03:23 2016
GPGPU-Sim PTX: 9700000 instructions simulated : ctaid=(1,1,0) tid=(15,0,0)
GPGPU-Sim uArch: cycles simulated: 368000  inst.: 9685752 (ipc=26.3) sim_rate=58347 (inst/sec) elapsed = 0:0:02:46 / Tue Mar 22 07:03:24 2016
GPGPU-Sim uArch: cycles simulated: 370000  inst.: 9738244 (ipc=26.3) sim_rate=58312 (inst/sec) elapsed = 0:0:02:47 / Tue Mar 22 07:03:25 2016
GPGPU-Sim PTX: 9800000 instructions simulated : ctaid=(3,0,0) tid=(13,0,0)
GPGPU-Sim uArch: cycles simulated: 372500  inst.: 9804374 (ipc=26.3) sim_rate=58359 (inst/sec) elapsed = 0:0:02:48 / Tue Mar 22 07:03:26 2016
GPGPU-Sim PTX: 9900000 instructions simulated : ctaid=(5,0,0) tid=(115,0,0)
GPGPU-Sim uArch: cycles simulated: 375000  inst.: 9898741 (ipc=26.4) sim_rate=58572 (inst/sec) elapsed = 0:0:02:49 / Tue Mar 22 07:03:27 2016
GPGPU-Sim PTX: 10000000 instructions simulated : ctaid=(4,0,0) tid=(85,0,0)
GPGPU-Sim uArch: cycles simulated: 377500  inst.: 9962165 (ipc=26.4) sim_rate=58600 (inst/sec) elapsed = 0:0:02:50 / Tue Mar 22 07:03:28 2016
GPGPU-Sim uArch: cycles simulated: 380000  inst.: 10030551 (ipc=26.4) sim_rate=58658 (inst/sec) elapsed = 0:0:02:51 / Tue Mar 22 07:03:29 2016
GPGPU-Sim PTX: 10100000 instructions simulated : ctaid=(0,0,0) tid=(113,0,0)
GPGPU-Sim uArch: cycles simulated: 382500  inst.: 10100311 (ipc=26.4) sim_rate=58722 (inst/sec) elapsed = 0:0:02:52 / Tue Mar 22 07:03:30 2016
GPGPU-Sim uArch: cycles simulated: 384500  inst.: 10155681 (ipc=26.4) sim_rate=58703 (inst/sec) elapsed = 0:0:02:53 / Tue Mar 22 07:03:31 2016
GPGPU-Sim PTX: 10200000 instructions simulated : ctaid=(1,0,0) tid=(61,0,0)
GPGPU-Sim uArch: cycles simulated: 387000  inst.: 10236097 (ipc=26.4) sim_rate=58828 (inst/sec) elapsed = 0:0:02:54 / Tue Mar 22 07:03:32 2016
GPGPU-Sim PTX: 10300000 instructions simulated : ctaid=(0,1,0) tid=(93,0,0)
GPGPU-Sim uArch: cycles simulated: 389500  inst.: 10299777 (ipc=26.4) sim_rate=58855 (inst/sec) elapsed = 0:0:02:55 / Tue Mar 22 07:03:33 2016
GPGPU-Sim PTX: 10400000 instructions simulated : ctaid=(1,0,0) tid=(29,0,0)
GPGPU-Sim uArch: cycles simulated: 392000  inst.: 10364225 (ipc=26.4) sim_rate=58887 (inst/sec) elapsed = 0:0:02:56 / Tue Mar 22 07:03:34 2016
GPGPU-Sim uArch: cycles simulated: 394000  inst.: 10418465 (ipc=26.4) sim_rate=58861 (inst/sec) elapsed = 0:0:02:57 / Tue Mar 22 07:03:35 2016
GPGPU-Sim PTX: 10500000 instructions simulated : ctaid=(3,1,0) tid=(71,0,0)
GPGPU-Sim uArch: cycles simulated: 396500  inst.: 10482380 (ipc=26.4) sim_rate=58889 (inst/sec) elapsed = 0:0:02:58 / Tue Mar 22 07:03:36 2016
GPGPU-Sim PTX: 10600000 instructions simulated : ctaid=(2,1,0) tid=(7,0,0)
GPGPU-Sim uArch: cycles simulated: 399500  inst.: 10607852 (ipc=26.6) sim_rate=59261 (inst/sec) elapsed = 0:0:02:59 / Tue Mar 22 07:03:37 2016
GPGPU-Sim PTX: 10700000 instructions simulated : ctaid=(9,0,0) tid=(29,0,0)
GPGPU-Sim uArch: cycles simulated: 402500  inst.: 10741905 (ipc=26.7) sim_rate=59677 (inst/sec) elapsed = 0:0:03:00 / Tue Mar 22 07:03:38 2016
GPGPU-Sim PTX: 10800000 instructions simulated : ctaid=(1,0,0) tid=(61,0,0)
GPGPU-Sim PTX: 10900000 instructions simulated : ctaid=(1,1,0) tid=(67,0,0)
GPGPU-Sim uArch: cycles simulated: 405500  inst.: 10888583 (ipc=26.9) sim_rate=60157 (inst/sec) elapsed = 0:0:03:01 / Tue Mar 22 07:03:39 2016
GPGPU-Sim PTX: 11000000 instructions simulated : ctaid=(10,0,0) tid=(17,0,0)
GPGPU-Sim uArch: cycles simulated: 408000  inst.: 10994503 (ipc=26.9) sim_rate=60409 (inst/sec) elapsed = 0:0:03:02 / Tue Mar 22 07:03:40 2016
GPGPU-Sim PTX: 11100000 instructions simulated : ctaid=(4,0,0) tid=(17,0,0)
GPGPU-Sim uArch: cycles simulated: 411000  inst.: 11102919 (ipc=27.0) sim_rate=60671 (inst/sec) elapsed = 0:0:03:03 / Tue Mar 22 07:03:41 2016
GPGPU-Sim PTX: 11200000 instructions simulated : ctaid=(10,0,0) tid=(49,0,0)
GPGPU-Sim uArch: cycles simulated: 414000  inst.: 11245799 (ipc=27.2) sim_rate=61118 (inst/sec) elapsed = 0:0:03:04 / Tue Mar 22 07:03:42 2016
GPGPU-Sim PTX: 11300000 instructions simulated : ctaid=(6,0,0) tid=(17,0,0)
GPGPU-Sim uArch: cycles simulated: 416500  inst.: 11358697 (ipc=27.3) sim_rate=61398 (inst/sec) elapsed = 0:0:03:05 / Tue Mar 22 07:03:43 2016
GPGPU-Sim PTX: 11400000 instructions simulated : ctaid=(2,0,0) tid=(45,0,0)
GPGPU-Sim PTX: 11500000 instructions simulated : ctaid=(10,0,0) tid=(7,0,0)
GPGPU-Sim uArch: cycles simulated: 419500  inst.: 11479788 (ipc=27.4) sim_rate=61719 (inst/sec) elapsed = 0:0:03:06 / Tue Mar 22 07:03:44 2016
GPGPU-Sim uArch: cycles simulated: 422000  inst.: 11556803 (ipc=27.4) sim_rate=61801 (inst/sec) elapsed = 0:0:03:07 / Tue Mar 22 07:03:45 2016
GPGPU-Sim PTX: 11600000 instructions simulated : ctaid=(9,0,0) tid=(25,0,0)
GPGPU-Sim PTX: 11700000 instructions simulated : ctaid=(3,1,0) tid=(41,0,0)
GPGPU-Sim uArch: cycles simulated: 424500  inst.: 11667995 (ipc=27.5) sim_rate=62063 (inst/sec) elapsed = 0:0:03:08 / Tue Mar 22 07:03:46 2016
GPGPU-Sim PTX: 11800000 instructions simulated : ctaid=(0,1,0) tid=(7,0,0)
GPGPU-Sim uArch: cycles simulated: 427500  inst.: 11809122 (ipc=27.6) sim_rate=62482 (inst/sec) elapsed = 0:0:03:09 / Tue Mar 22 07:03:47 2016
GPGPU-Sim PTX: 11900000 instructions simulated : ctaid=(5,0,0) tid=(35,0,0)
GPGPU-Sim uArch: cycles simulated: 430000  inst.: 11900947 (ipc=27.7) sim_rate=62636 (inst/sec) elapsed = 0:0:03:10 / Tue Mar 22 07:03:48 2016
GPGPU-Sim uArch: cycles simulated: 432000  inst.: 11957355 (ipc=27.7) sim_rate=62603 (inst/sec) elapsed = 0:0:03:11 / Tue Mar 22 07:03:49 2016
GPGPU-Sim PTX: 12000000 instructions simulated : ctaid=(8,0,0) tid=(9,0,0)
GPGPU-Sim PTX: 12100000 instructions simulated : ctaid=(2,0,0) tid=(11,0,0)
GPGPU-Sim uArch: cycles simulated: 434500  inst.: 12060122 (ipc=27.8) sim_rate=62813 (inst/sec) elapsed = 0:0:03:12 / Tue Mar 22 07:03:50 2016
GPGPU-Sim PTX: 12200000 instructions simulated : ctaid=(0,0,0) tid=(43,0,0)
GPGPU-Sim uArch: cycles simulated: 437500  inst.: 12203133 (ipc=27.9) sim_rate=63228 (inst/sec) elapsed = 0:0:03:13 / Tue Mar 22 07:03:51 2016
GPGPU-Sim PTX: 12300000 instructions simulated : ctaid=(2,1,0) tid=(69,0,0)
GPGPU-Sim uArch: cycles simulated: 440000  inst.: 12314532 (ipc=28.0) sim_rate=63476 (inst/sec) elapsed = 0:0:03:14 / Tue Mar 22 07:03:52 2016
GPGPU-Sim PTX: 12400000 instructions simulated : ctaid=(0,0,0) tid=(47,0,0)
GPGPU-Sim uArch: cycles simulated: 442000  inst.: 12369496 (ipc=28.0) sim_rate=63433 (inst/sec) elapsed = 0:0:03:15 / Tue Mar 22 07:03:53 2016
GPGPU-Sim uArch: cycles simulated: 444000  inst.: 12421464 (ipc=28.0) sim_rate=63374 (inst/sec) elapsed = 0:0:03:16 / Tue Mar 22 07:03:54 2016
GPGPU-Sim PTX: 12500000 instructions simulated : ctaid=(4,0,0) tid=(3,0,0)
GPGPU-Sim uArch: cycles simulated: 446500  inst.: 12511213 (ipc=28.0) sim_rate=63508 (inst/sec) elapsed = 0:0:03:17 / Tue Mar 22 07:03:55 2016
GPGPU-Sim PTX: 12600000 instructions simulated : ctaid=(7,0,0) tid=(69,0,0)
GPGPU-Sim uArch: cycles simulated: 449000  inst.: 12633122 (ipc=28.1) sim_rate=63803 (inst/sec) elapsed = 0:0:03:18 / Tue Mar 22 07:03:56 2016
GPGPU-Sim PTX: 12700000 instructions simulated : ctaid=(3,1,0) tid=(123,0,0)
GPGPU-Sim uArch: cycles simulated: 451500  inst.: 12749898 (ipc=28.2) sim_rate=64069 (inst/sec) elapsed = 0:0:03:19 / Tue Mar 22 07:03:57 2016
GPGPU-Sim PTX: 12800000 instructions simulated : ctaid=(10,0,0) tid=(107,0,0)
GPGPU-Sim uArch: cycles simulated: 453500  inst.: 12796298 (ipc=28.2) sim_rate=63981 (inst/sec) elapsed = 0:0:03:20 / Tue Mar 22 07:03:58 2016
GPGPU-Sim uArch: cycles simulated: 455500  inst.: 12847722 (ipc=28.2) sim_rate=63919 (inst/sec) elapsed = 0:0:03:21 / Tue Mar 22 07:03:59 2016
GPGPU-Sim PTX: 12900000 instructions simulated : ctaid=(7,0,0) tid=(139,0,0)
GPGPU-Sim uArch: cycles simulated: 458000  inst.: 12929034 (ipc=28.2) sim_rate=64005 (inst/sec) elapsed = 0:0:03:22 / Tue Mar 22 07:04:00 2016
GPGPU-Sim PTX: 13000000 instructions simulated : ctaid=(8,0,0) tid=(43,0,0)
GPGPU-Sim uArch: cycles simulated: 460000  inst.: 13028429 (ipc=28.3) sim_rate=64179 (inst/sec) elapsed = 0:0:03:23 / Tue Mar 22 07:04:01 2016
GPGPU-Sim PTX: 13100000 instructions simulated : ctaid=(5,0,0) tid=(5,0,0)
GPGPU-Sim uArch: cycles simulated: 462500  inst.: 13148525 (ipc=28.4) sim_rate=64453 (inst/sec) elapsed = 0:0:03:24 / Tue Mar 22 07:04:02 2016
GPGPU-Sim PTX: 13200000 instructions simulated : ctaid=(3,0,0) tid=(101,0,0)
GPGPU-Sim uArch: cycles simulated: 464500  inst.: 13198925 (ipc=28.4) sim_rate=64385 (inst/sec) elapsed = 0:0:03:25 / Tue Mar 22 07:04:03 2016
GPGPU-Sim uArch: cycles simulated: 466500  inst.: 13247021 (ipc=28.4) sim_rate=64305 (inst/sec) elapsed = 0:0:03:26 / Tue Mar 22 07:04:04 2016
GPGPU-Sim PTX: 13300000 instructions simulated : ctaid=(10,0,0) tid=(101,0,0)
GPGPU-Sim uArch: cycles simulated: 469000  inst.: 13309502 (ipc=28.4) sim_rate=64297 (inst/sec) elapsed = 0:0:03:27 / Tue Mar 22 07:04:05 2016
GPGPU-Sim PTX: 13400000 instructions simulated : ctaid=(5,0,0) tid=(35,0,0)
GPGPU-Sim uArch: cycles simulated: 471000  inst.: 13401050 (ipc=28.5) sim_rate=64428 (inst/sec) elapsed = 0:0:03:28 / Tue Mar 22 07:04:06 2016
GPGPU-Sim PTX: 13500000 instructions simulated : ctaid=(3,1,0) tid=(117,0,0)
GPGPU-Sim uArch: cycles simulated: 473500  inst.: 13523763 (ipc=28.6) sim_rate=64707 (inst/sec) elapsed = 0:0:03:29 / Tue Mar 22 07:04:07 2016
GPGPU-Sim PTX: 13600000 instructions simulated : ctaid=(0,1,0) tid=(181,0,0)
GPGPU-Sim uArch: cycles simulated: 475500  inst.: 13574613 (ipc=28.5) sim_rate=64641 (inst/sec) elapsed = 0:0:03:30 / Tue Mar 22 07:04:08 2016
GPGPU-Sim uArch: cycles simulated: 477500  inst.: 13627093 (ipc=28.5) sim_rate=64583 (inst/sec) elapsed = 0:0:03:31 / Tue Mar 22 07:04:09 2016
GPGPU-Sim PTX: 13700000 instructions simulated : ctaid=(8,0,0) tid=(85,0,0)
GPGPU-Sim uArch: cycles simulated: 479500  inst.: 13680287 (ipc=28.5) sim_rate=64529 (inst/sec) elapsed = 0:0:03:32 / Tue Mar 22 07:04:10 2016
GPGPU-Sim uArch: cycles simulated: 481500  inst.: 13734472 (ipc=28.5) sim_rate=64481 (inst/sec) elapsed = 0:0:03:33 / Tue Mar 22 07:04:11 2016
GPGPU-Sim PTX: 13800000 instructions simulated : ctaid=(4,0,0) tid=(79,0,0)
GPGPU-Sim uArch: cycles simulated: 483500  inst.: 13816194 (ipc=28.6) sim_rate=64561 (inst/sec) elapsed = 0:0:03:34 / Tue Mar 22 07:04:12 2016
GPGPU-Sim PTX: 13900000 instructions simulated : ctaid=(1,0,0) tid=(123,0,0)
GPGPU-Sim uArch: cycles simulated: 485500  inst.: 13887010 (ipc=28.6) sim_rate=64590 (inst/sec) elapsed = 0:0:03:35 / Tue Mar 22 07:04:13 2016
GPGPU-Sim uArch: cycles simulated: 487500  inst.: 13945643 (ipc=28.6) sim_rate=64563 (inst/sec) elapsed = 0:0:03:36 / Tue Mar 22 07:04:14 2016
GPGPU-Sim PTX: 14000000 instructions simulated : ctaid=(9,0,0) tid=(73,0,0)
GPGPU-Sim uArch: cycles simulated: 489500  inst.: 14003085 (ipc=28.6) sim_rate=64530 (inst/sec) elapsed = 0:0:03:37 / Tue Mar 22 07:04:15 2016
GPGPU-Sim uArch: cycles simulated: 491500  inst.: 14054573 (ipc=28.6) sim_rate=64470 (inst/sec) elapsed = 0:0:03:38 / Tue Mar 22 07:04:16 2016
GPGPU-Sim PTX: 14100000 instructions simulated : ctaid=(1,1,0) tid=(69,0,0)
GPGPU-Sim uArch: cycles simulated: 493500  inst.: 14116752 (ipc=28.6) sim_rate=64460 (inst/sec) elapsed = 0:0:03:39 / Tue Mar 22 07:04:17 2016
GPGPU-Sim PTX: 14200000 instructions simulated : ctaid=(1,1,0) tid=(95,0,0)
GPGPU-Sim uArch: cycles simulated: 495500  inst.: 14205024 (ipc=28.7) sim_rate=64568 (inst/sec) elapsed = 0:0:03:40 / Tue Mar 22 07:04:18 2016
GPGPU-Sim PTX: 14300000 instructions simulated : ctaid=(4,0,0) tid=(95,0,0)
GPGPU-Sim uArch: cycles simulated: 497500  inst.: 14258528 (ipc=28.7) sim_rate=64518 (inst/sec) elapsed = 0:0:03:41 / Tue Mar 22 07:04:19 2016
GPGPU-Sim uArch: cycles simulated: 499500  inst.: 14314688 (ipc=28.7) sim_rate=64480 (inst/sec) elapsed = 0:0:03:42 / Tue Mar 22 07:04:20 2016
GPGPU-Sim PTX: 14400000 instructions simulated : ctaid=(2,1,0) tid=(191,0,0)
GPGPU-Sim uArch: cycles simulated: 501500  inst.: 14371072 (ipc=28.7) sim_rate=64444 (inst/sec) elapsed = 0:0:03:43 / Tue Mar 22 07:04:21 2016
GPGPU-Sim uArch: cycles simulated: 503000  inst.: 14417536 (ipc=28.7) sim_rate=64364 (inst/sec) elapsed = 0:0:03:44 / Tue Mar 22 07:04:22 2016
GPGPU-Sim PTX: 14500000 instructions simulated : ctaid=(6,0,0) tid=(95,0,0)
GPGPU-Sim uArch: cycles simulated: 505000  inst.: 14468480 (ipc=28.7) sim_rate=64304 (inst/sec) elapsed = 0:0:03:45 / Tue Mar 22 07:04:23 2016
GPGPU-Sim uArch: cycles simulated: 507000  inst.: 14546784 (ipc=28.7) sim_rate=64366 (inst/sec) elapsed = 0:0:03:46 / Tue Mar 22 07:04:24 2016
GPGPU-Sim PTX: 14600000 instructions simulated : ctaid=(10,0,0) tid=(95,0,0)
GPGPU-Sim uArch: cycles simulated: 509000  inst.: 14599496 (ipc=28.7) sim_rate=64314 (inst/sec) elapsed = 0:0:03:47 / Tue Mar 22 07:04:25 2016
GPGPU-Sim uArch: cycles simulated: 511000  inst.: 14651848 (ipc=28.7) sim_rate=64262 (inst/sec) elapsed = 0:0:03:48 / Tue Mar 22 07:04:26 2016
GPGPU-Sim PTX: 14700000 instructions simulated : ctaid=(5,0,0) tid=(79,0,0)
GPGPU-Sim uArch: cycles simulated: 513000  inst.: 14713772 (ipc=28.7) sim_rate=64252 (inst/sec) elapsed = 0:0:03:49 / Tue Mar 22 07:04:27 2016
GPGPU-Sim PTX: 14800000 instructions simulated : ctaid=(1,1,0) tid=(53,0,0)
GPGPU-Sim uArch: cycles simulated: 515000  inst.: 14775297 (ipc=28.7) sim_rate=64240 (inst/sec) elapsed = 0:0:03:50 / Tue Mar 22 07:04:28 2016
GPGPU-Sim uArch: cycles simulated: 517000  inst.: 14835969 (ipc=28.7) sim_rate=64224 (inst/sec) elapsed = 0:0:03:51 / Tue Mar 22 07:04:29 2016
GPGPU-Sim PTX: 14900000 instructions simulated : ctaid=(0,1,0) tid=(93,0,0)
GPGPU-Sim uArch: cycles simulated: 518500  inst.: 14890433 (ipc=28.7) sim_rate=64182 (inst/sec) elapsed = 0:0:03:52 / Tue Mar 22 07:04:30 2016
GPGPU-Sim uArch: cycles simulated: 520500  inst.: 14941059 (ipc=28.7) sim_rate=64124 (inst/sec) elapsed = 0:0:03:53 / Tue Mar 22 07:04:31 2016
GPGPU-Sim PTX: 15000000 instructions simulated : ctaid=(3,1,0) tid=(121,0,0)
GPGPU-Sim uArch: cycles simulated: 522500  inst.: 14991843 (ipc=28.7) sim_rate=64067 (inst/sec) elapsed = 0:0:03:54 / Tue Mar 22 07:04:32 2016
GPGPU-Sim uArch: cycles simulated: 524500  inst.: 15049443 (ipc=28.7) sim_rate=64040 (inst/sec) elapsed = 0:0:03:55 / Tue Mar 22 07:04:33 2016
GPGPU-Sim PTX: 15100000 instructions simulated : ctaid=(1,0,0) tid=(121,0,0)
GPGPU-Sim uArch: cycles simulated: 526000  inst.: 15092739 (ipc=28.7) sim_rate=63952 (inst/sec) elapsed = 0:0:03:56 / Tue Mar 22 07:04:34 2016
GPGPU-Sim uArch: cycles simulated: 528000  inst.: 15150403 (ipc=28.7) sim_rate=63925 (inst/sec) elapsed = 0:0:03:57 / Tue Mar 22 07:04:35 2016
GPGPU-Sim PTX: 15200000 instructions simulated : ctaid=(5,0,0) tid=(121,0,0)
GPGPU-Sim uArch: cycles simulated: 530000  inst.: 15213894 (ipc=28.7) sim_rate=63923 (inst/sec) elapsed = 0:0:03:58 / Tue Mar 22 07:04:36 2016
GPGPU-Sim PTX: 15300000 instructions simulated : ctaid=(2,0,0) tid=(73,0,0)
GPGPU-Sim uArch: cycles simulated: 532500  inst.: 15322993 (ipc=28.8) sim_rate=64112 (inst/sec) elapsed = 0:0:03:59 / Tue Mar 22 07:04:37 2016
GPGPU-Sim PTX: 15400000 instructions simulated : ctaid=(5,0,0) tid=(125,0,0)
GPGPU-Sim uArch: cycles simulated: 534500  inst.: 15418385 (ipc=28.8) sim_rate=64243 (inst/sec) elapsed = 0:0:04:00 / Tue Mar 22 07:04:38 2016
GPGPU-Sim PTX: 15500000 instructions simulated : ctaid=(7,0,0) tid=(73,0,0)
GPGPU-Sim uArch: cycles simulated: 537000  inst.: 15533571 (ipc=28.9) sim_rate=64454 (inst/sec) elapsed = 0:0:04:01 / Tue Mar 22 07:04:39 2016
GPGPU-Sim PTX: 15600000 instructions simulated : ctaid=(2,0,0) tid=(89,0,0)
GPGPU-Sim uArch: cycles simulated: 539000  inst.: 15627400 (ipc=29.0) sim_rate=64576 (inst/sec) elapsed = 0:0:04:02 / Tue Mar 22 07:04:40 2016
GPGPU-Sim PTX: 15700000 instructions simulated : ctaid=(0,1,0) tid=(143,0,0)
GPGPU-Sim uArch: cycles simulated: 541000  inst.: 15680168 (ipc=29.0) sim_rate=64527 (inst/sec) elapsed = 0:0:04:03 / Tue Mar 22 07:04:41 2016
GPGPU-Sim PTX: 15800000 instructions simulated : ctaid=(1,0,0) tid=(105,0,0)
GPGPU-Sim uArch: cycles simulated: 543000  inst.: 15770980 (ipc=29.0) sim_rate=64635 (inst/sec) elapsed = 0:0:04:04 / Tue Mar 22 07:04:42 2016
GPGPU-Sim PTX: 15900000 instructions simulated : ctaid=(3,0,0) tid=(85,0,0)
GPGPU-Sim uArch: cycles simulated: 545000  inst.: 15861189 (ipc=29.1) sim_rate=64739 (inst/sec) elapsed = 0:0:04:05 / Tue Mar 22 07:04:43 2016
GPGPU-Sim PTX: 16000000 instructions simulated : ctaid=(9,0,0) tid=(117,0,0)
GPGPU-Sim uArch: cycles simulated: 547500  inst.: 15967045 (ipc=29.2) sim_rate=64906 (inst/sec) elapsed = 0:0:04:06 / Tue Mar 22 07:04:44 2016
GPGPU-Sim PTX: 16100000 instructions simulated : ctaid=(7,0,0) tid=(73,0,0)
GPGPU-Sim uArch: cycles simulated: 549500  inst.: 16058283 (ipc=29.2) sim_rate=65013 (inst/sec) elapsed = 0:0:04:07 / Tue Mar 22 07:04:45 2016
GPGPU-Sim uArch: cycles simulated: 551500  inst.: 16127115 (ipc=29.2) sim_rate=65028 (inst/sec) elapsed = 0:0:04:08 / Tue Mar 22 07:04:46 2016
GPGPU-Sim PTX: 16200000 instructions simulated : ctaid=(8,0,0) tid=(113,0,0)
GPGPU-Sim uArch: cycles simulated: 553000  inst.: 16160407 (ipc=29.2) sim_rate=64901 (inst/sec) elapsed = 0:0:04:09 / Tue Mar 22 07:04:47 2016
GPGPU-Sim PTX: 16300000 instructions simulated : ctaid=(2,1,0) tid=(81,0,0)
GPGPU-Sim uArch: cycles simulated: 555500  inst.: 16278659 (ipc=29.3) sim_rate=65114 (inst/sec) elapsed = 0:0:04:10 / Tue Mar 22 07:04:48 2016
GPGPU-Sim PTX: 16400000 instructions simulated : ctaid=(8,0,0) tid=(107,0,0)
GPGPU-Sim uArch: cycles simulated: 557500  inst.: 16373288 (ipc=29.4) sim_rate=65232 (inst/sec) elapsed = 0:0:04:11 / Tue Mar 22 07:04:49 2016
GPGPU-Sim PTX: 16500000 instructions simulated : ctaid=(4,0,0) tid=(111,0,0)
GPGPU-Sim uArch: cycles simulated: 559500  inst.: 16473128 (ipc=29.4) sim_rate=65369 (inst/sec) elapsed = 0:0:04:12 / Tue Mar 22 07:04:50 2016
GPGPU-Sim PTX: 16600000 instructions simulated : ctaid=(2,1,0) tid=(97,0,0)
GPGPU-Sim uArch: cycles simulated: 561500  inst.: 16570575 (ipc=29.5) sim_rate=65496 (inst/sec) elapsed = 0:0:04:13 / Tue Mar 22 07:04:51 2016
GPGPU-Sim uArch: cycles simulated: 563500  inst.: 16613826 (ipc=29.5) sim_rate=65408 (inst/sec) elapsed = 0:0:04:14 / Tue Mar 22 07:04:52 2016
GPGPU-Sim PTX: 16700000 instructions simulated : ctaid=(9,0,0) tid=(91,0,0)
GPGPU-Sim uArch: cycles simulated: 565500  inst.: 16668930 (ipc=29.5) sim_rate=65368 (inst/sec) elapsed = 0:0:04:15 / Tue Mar 22 07:04:53 2016
GPGPU-Sim PTX: 16800000 instructions simulated : ctaid=(6,0,0) tid=(91,0,0)
GPGPU-Sim uArch: cycles simulated: 567500  inst.: 16764386 (ipc=29.5) sim_rate=65485 (inst/sec) elapsed = 0:0:04:16 / Tue Mar 22 07:04:54 2016
GPGPU-Sim PTX: 16900000 instructions simulated : ctaid=(3,0,0) tid=(75,0,0)
GPGPU-Sim uArch: cycles simulated: 569500  inst.: 16856522 (ipc=29.6) sim_rate=65589 (inst/sec) elapsed = 0:0:04:17 / Tue Mar 22 07:04:55 2016
GPGPU-Sim PTX: 17000000 instructions simulated : ctaid=(5,0,0) tid=(125,0,0)
GPGPU-Sim uArch: cycles simulated: 572000  inst.: 16976142 (ipc=29.7) sim_rate=65799 (inst/sec) elapsed = 0:0:04:18 / Tue Mar 22 07:04:56 2016
GPGPU-Sim uArch: cycles simulated: 573500  inst.: 17022446 (ipc=29.7) sim_rate=65723 (inst/sec) elapsed = 0:0:04:19 / Tue Mar 22 07:04:57 2016
GPGPU-Sim PTX: 17100000 instructions simulated : ctaid=(0,1,0) tid=(163,0,0)
GPGPU-Sim uArch: cycles simulated: 575500  inst.: 17081038 (ipc=29.7) sim_rate=65696 (inst/sec) elapsed = 0:0:04:20 / Tue Mar 22 07:04:58 2016
GPGPU-Sim uArch: cycles simulated: 577500  inst.: 17149678 (ipc=29.7) sim_rate=65707 (inst/sec) elapsed = 0:0:04:21 / Tue Mar 22 07:04:59 2016
GPGPU-Sim PTX: 17200000 instructions simulated : ctaid=(2,0,0) tid=(99,0,0)
GPGPU-Sim PTX: 17300000 instructions simulated : ctaid=(3,1,0) tid=(117,0,0)
GPGPU-Sim uArch: cycles simulated: 580000  inst.: 17286485 (ipc=29.8) sim_rate=65978 (inst/sec) elapsed = 0:0:04:22 / Tue Mar 22 07:05:00 2016
GPGPU-Sim PTX: 17400000 instructions simulated : ctaid=(5,0,0) tid=(113,0,0)
[...]
dram[5]:  1.254296  1.264934  1.273160  1.265930  1.254993  1.263142  1.245452  1.242347  1.269505  1.252874  1.245191  1.248803  1.248803  1.253973  1.253412  1.255658 
average row locality = 818051/651632 = 1.255388
number of total memory accesses made:
dram[0]:         0         0         0         0         0         0         0         0         0         0         0         0         0         0         0         0 
dram[1]:         0         0         0         0         0         0         0         0         0         0         0         0         0         0         0         0 
dram[2]:         0         0         0         0         0         0         0         0         0         0         0         0         0         0         0         0 
dram[3]:         0         0         0         0         0         0         0         0         0         0         0         0         0         0         0         0 
dram[4]:         0         0         0         0         0         0         0         0         0         0         0         0         0         0         0         0 
dram[5]:         0         0         0         0         0         0         0         0         0         0         0         0         0         0         0         0 
total accesses: 0
min_bank_accesses = 0!
min_chip_accesses = 0!
number of total read accesses:
dram[0]:      8394      8352      8382      8355      8440      8356      8872      8828      8351      8387      8621      8637      8286      8338      8693      8653 
dram[1]:      8417      8400      8359      8269      8367      8417      8765      8772      8372      8419      8691      8592      8276      8359      8601      8594 
dram[2]:      8396      8441      8373      8339      8331      8436      8907      8880      8383      8472      8591      8674      8369      8337      8663      8693 
dram[3]:      8424      8459      8423      8360      8394      8477      8882      8832      8387      8477      8647      8600      8365      8368      8675      8687 
dram[4]:      8378      8423      8417      8378      8315      8493      8852      8906      8343      8413      8661      8658      8362      8385      8630      8685 
dram[5]:      8331      8406      8301      8245      8421      8410      8763      8807      8380      8393      8674      8608      8327      8340      8661      8536 
total reads: 816259
bank skew: 8907/8245 = 1.08
chip skew: 136457/135603 = 1.01
number of total write accesses:
dram[0]:        64        64         0         0         0         0         0         0         0         0         0         0        20        20        64        64 
dram[1]:        64        64         0         0         0         0         0         0         0         0         0         0        20        20        64        64 
dram[2]:        64        64         0         0         0         0         0         0         0         0         0         0        20        24        64        64 
dram[3]:        64        64         0         0         0         0         0         0         0         0         0         0        20        24        64        64 
dram[4]:        64        64         0         0         0         0         0         0         0         0         0         0        20        24        64        64 
dram[5]:        64        64         0         0         0         0         0         0         0         0         0         0        20        24        64        64 
total reads: 1792
min_bank_accesses = 0!
chip skew: 300/296 = 1.01
average mf latency per bank:
dram[0]:       4714      3840      7108      4548      4559      3868      4611      3684      4658      3863      4686      3772      4777      3868      4550      3733
dram[1]:       4548      3999      7137      4924      4660      4042      4611      3944      4608      4108      4664      4013      4721      4114      4580      4005
dram[2]:       4309      4171      5757      5053      4471      4221      4077      4115      4417      4208      4265      4145      4447      4282      4181      4038
dram[3]:       4020      3797      4951      4580      4199      3797      3993      3816      4195      3793      4055      3903      4233      3874      4006      3792
dram[4]:       4113      3890      4737      4392      4106      3957      3928      3672      4061      3989      3906      3830      4074      4011      3881      3743
dram[5]:       3845      3715      4558      3779      3831      3811      3745      3614      3799      3795      3724      3703      3903      3826      3697      3737
maximum mf latency per bank:
dram[0]:       1020       898       919       929       982       860       934       900       929       905       959       932       919       893       997       889
dram[1]:        972       869       920       844       953       843      1007       894       948       856      1022       952      1013       924       940       893
dram[2]:       1042       914       975       956       959       968       965       930       995       912      1010       991       982       925       998       923
dram[3]:        944       866       929       905       923       908      1017       870       924       851       997       870       982       927       932       902
dram[4]:        895       875       945       862       886       869       970       833       998       871       954       882       950       881       898       850
dram[5]:        876       851       838       887       842       894       833       859       938       876       839       887       874       923       840       821

Number of Memory Banks Accessed per Memory Operation per Warp (from 0):
0	0	0	0	0	0	0	0	0	0	0	0	0	0	0	0	0	0	0	0	0	0	0	0	0	0	0	0	0	0	0	0	0	0	0	0	0	0	0	0	0	0	0	0	0	0	0	0	0	0	0	0	0	0	0	0	0	0	0	0	0	0	0	0	0	0	0	0	0	0	0	0	0	0	0	0	0	0	0	0	0	0	0	0	0	0	0	0	0	0	0	0	0	0	0	0	
Average # of Memory Banks Accessed per Memory Operation per Warp=-nan

position of mrq chosen
0	0	0	0	0	0	0	0	0	0	0	0	0	0	0	0	

average position of mrq chosen = -nan
Memory Partition 0: 
Cache L2_bank_000:
MSHR contents

Cache L2_bank_001:
MSHR contents

In Dram Latency Queue (total = 0): 
DRAM[0]: 16 bks, busW=4 BL=8 CL=12, tRRD=2 tCCD=6, tRCD=12 tRAS=28 tRP=12 tRC=40
n_cmd=18038567 n_nop=17549609 n_act=108246 n_pre=108230 n_req=136241 n_rd=271890 n_write=592 bw_util=0.03021
n_activity=4926173 dram_eff=0.1106
bk0: 16788a 17832978i bk1: 16704a 17833191i bk2: 16764a 17834489i bk3: 16710a 17837707i bk4: 16880a 17833243i bk5: 16712a 17835613i bk6: 17744a 17820265i bk7: 17656a 17819726i bk8: 16702a 17834089i bk9: 16774a 17834696i bk10: 17242a 17826415i bk11: 17274a 17826532i bk12: 16572a 17835483i bk13: 16676a 17835941i bk14: 17386a 17825023i bk15: 17306a 17825123i 
dram_util_bins: 0 0 0 0 0 0 0 0 0 0
dram_eff_bins: 0 0 0 0 0 0 0 0 0 0
mrqq: max=16 avg=0.00412671
Memory Partition 1: 
Cache L2_bank_002:
MSHR contents

Cache L2_bank_003:
MSHR contents

In Dram Latency Queue (total = 0): 
DRAM[1]: 16 bks, busW=4 BL=8 CL=12, tRRD=2 tCCD=6, tRCD=12 tRAS=28 tRP=12 tRC=40
n_cmd=18038567 n_nop=17548891 n_act=108880 n_pre=108864 n_req=135966 n_rd=271340 n_write=592 bw_util=0.03015
n_activity=4951876 dram_eff=0.1098
bk0: 16834a 17831260i bk1: 16800a 17832437i bk2: 16718a 17834523i bk3: 16538a 17837497i bk4: 16734a 17834787i bk5: 16834a 17833163i bk6: 17530a 17821630i bk7: 17544a 17821189i bk8: 16744a 17833884i bk9: 16838a 17831952i bk10: 17382a 17822783i bk11: 17184a 17825152i bk12: 16552a 17834960i bk13: 16718a 17832202i bk14: 17202a 17825282i bk15: 17188a 17825696i 
dram_util_bins: 0 0 0 0 0 0 0 0 0 0
dram_eff_bins: 0 0 0 0 0 0 0 0 0 0
mrqq: max=16 avg=0.00320724
Memory Partition 2: 
Cache L2_bank_004:
MSHR contents

Cache L2_bank_005:
MSHR contents

In Dram Latency Queue (total = 0): 
DRAM[2]: 16 bks, busW=4 BL=8 CL=12, tRRD=2 tCCD=6, tRCD=12 tRAS=28 tRP=12 tRC=40
n_cmd=18038567 n_nop=17548307 n_act=108553 n_pre=108537 n_req=136585 n_rd=272570 n_write=600 bw_util=0.03029
n_activity=4940989 dram_eff=0.1106
bk0: 16792a 17832214i bk1: 16882a 17830861i bk2: 16746a 17835341i bk3: 16678a 17837151i bk4: 16662a 17837079i bk5: 16872a 17834334i bk6: 17814a 17817273i bk7: 17760a 17818424i bk8: 16766a 17833737i bk9: 16944a 17833066i bk10: 17182a 17828502i bk11: 17348a 17826311i bk12: 16738a 17832209i bk13: 16674a 17834458i bk14: 17326a 17823167i bk15: 17386a 17824907i 
dram_util_bins: 0 0 0 0 0 0 0 0 0 0
dram_eff_bins: 0 0 0 0 0 0 0 0 0 0
mrqq: max=16 avg=0.00410648
Memory Partition 3: 
Cache L2_bank_006:
MSHR contents

Cache L2_bank_007:
MSHR contents

In Dram Latency Queue (total = 0): 
DRAM[3]: 16 bks, busW=4 BL=8 CL=12, tRRD=2 tCCD=6, tRCD=12 tRAS=28 tRP=12 tRC=40
n_cmd=18038567 n_nop=17547481 n_act=108794 n_pre=108778 n_req=136757 n_rd=272914 n_write=600 bw_util=0.03033
n_activity=4942539 dram_eff=0.1107
bk0: 16848a 17831530i bk1: 16918a 17830925i bk2: 16846a 17833987i bk3: 16720a 17836572i bk4: 16788a 17836014i bk5: 16954a 17833308i bk6: 17764a 17818265i bk7: 17664a 17817952i bk8: 16774a 17833874i bk9: 16954a 17832350i bk10: 17294a 17824970i bk11: 17200a 17827262i bk12: 16730a 17834253i bk13: 16736a 17832988i bk14: 17350a 17824659i bk15: 17374a 17824509i 
dram_util_bins: 0 0 0 0 0 0 0 0 0 0
dram_eff_bins: 0 0 0 0 0 0 0 0 0 0
mrqq: max=16 avg=0.00370595
Memory Partition 4: 
Cache L2_bank_008:
MSHR contents

Cache L2_bank_009:
MSHR contents

In Dram Latency Queue (total = 0): 
DRAM[4]: 16 bks, busW=4 BL=8 CL=12, tRRD=2 tCCD=6, tRCD=12 tRAS=28 tRP=12 tRC=40
n_cmd=18038567 n_nop=17547541 n_act=108922 n_pre=108906 n_req=136599 n_rd=272598 n_write=600 bw_util=0.03029
n_activity=4946772 dram_eff=0.1105
bk0: 16756a 17831370i bk1: 16846a 17831888i bk2: 16834a 17834413i bk3: 16756a 17836289i bk4: 16630a 17835667i bk5: 16986a 17832312i bk6: 17704a 17819095i bk7: 17812a 17817855i bk8: 16686a 17834990i bk9: 16826a 17833319i bk10: 17322a 17825916i bk11: 17316a 17825938i bk12: 16724a 17832506i bk13: 16770a 17833187i bk14: 17260a 17823761i bk15: 17370a 17824418i 
dram_util_bins: 0 0 0 0 0 0 0 0 0 0
dram_eff_bins: 0 0 0 0 0 0 0 0 0 0
mrqq: max=16 avg=0.00351802
Memory Partition 5: 
Cache L2_bank_010:
MSHR contents

Cache L2_bank_011:
MSHR contents
MSHR: tag=0x81e4bf00, atomic=0 1 entries : 0x7f4ff1574810 :  mf: uid=131381456, sid02:w14, part=5, addr=0x81e4bf00, load , size=128, unknown  status = IN_PARTITION_DRAM (13665579), 

In Dram Latency Queue (total = 0): 
DRAM[5]: 16 bks, busW=4 BL=8 CL=12, tRRD=2 tCCD=6, tRCD=12 tRAS=28 tRP=12 tRC=40
n_cmd=18038567 n_nop=17550301 n_act=108238 n_pre=108222 n_req=135903 n_rd=271206 n_write=600 bw_util=0.03014
n_activity=4921462 dram_eff=0.1105
bk0: 16662a 17832902i bk1: 16812a 17832699i bk2: 16602a 17837966i bk3: 16490a 17838773i bk4: 16842a 17833215i bk5: 16820a 17834852i bk6: 17526a 17823372i bk7: 17614a 17821083i bk8: 16760a 17835097i bk9: 16786a 17833017i bk10: 17348a 17824664i bk11: 17216a 17826859i bk12: 16654a 17832978i bk13: 16680a 17833584i bk14: 17322a 17824731i bk15: 17072a 17827919i 
dram_util_bins: 0 0 0 0 0 0 0 0 0 0
dram_eff_bins: 0 0 0 0 0 0 0 0 0 0
mrqq: max=16 avg=0.00326173

========= L2 cache stats =========
L2_cache_bank[0]: Access = 946800, Miss = 68039, Miss_rate = 0.072, Pending_hits = 6, Reservation_fails = 1105
L2_cache_bank[1]: Access = 916506, Miss = 67906, Miss_rate = 0.074, Pending_hits = 2, Reservation_fails = 531
L2_cache_bank[2]: Access = 945460, Miss = 67848, Miss_rate = 0.072, Pending_hits = 9, Reservation_fails = 215
L2_cache_bank[3]: Access = 935365, Miss = 67822, Miss_rate = 0.073, Pending_hits = 0, Reservation_fails = 0
L2_cache_bank[4]: Access = 937265, Miss = 68013, Miss_rate = 0.073, Pending_hits = 7, Reservation_fails = 617
L2_cache_bank[5]: Access = 940787, Miss = 68272, Miss_rate = 0.073, Pending_hits = 0, Reservation_fails = 519
L2_cache_bank[6]: Access = 931247, Miss = 68197, Miss_rate = 0.073, Pending_hits = 0, Reservation_fails = 8
L2_cache_bank[7]: Access = 918053, Miss = 68260, Miss_rate = 0.074, Pending_hits = 0, Reservation_fails = 42
L2_cache_bank[8]: Access = 928262, Miss = 67958, Miss_rate = 0.073, Pending_hits = 0, Reservation_fails = 225
L2_cache_bank[9]: Access = 920515, Miss = 68341, Miss_rate = 0.074, Pending_hits = 1, Reservation_fails = 363
L2_cache_bank[10]: Access = 921091, Miss = 67858, Miss_rate = 0.074, Pending_hits = 0, Reservation_fails = 102
L2_cache_bank[11]: Access = 900892, Miss = 67745, Miss_rate = 0.075, Pending_hits = 0, Reservation_fails = 0
L2_total_cache_accesses = 11142243
L2_total_cache_misses = 816259
L2_total_cache_miss_rate = 0.0733
L2_total_cache_pending_hits = 25
L2_total_cache_reservation_fails = 3727
L2_total_cache_breakdown:
	L2_cache_stats_breakdown[GLOBAL_ACC_R][HIT] = 10325891
	L2_cache_stats_breakdown[GLOBAL_ACC_R][HIT_RESERVED] = 10
	L2_cache_stats_breakdown[GLOBAL_ACC_R][MISS] = 814460
	L2_cache_stats_breakdown[GLOBAL_ACC_R][RESERVATION_FAIL] = 3281
	L2_cache_stats_breakdown[CONST_ACC_R][HIT] = 11
	L2_cache_stats_breakdown[CONST_ACC_R][HIT_RESERVED] = 3
	L2_cache_stats_breakdown[CONST_ACC_R][MISS] = 1
	L2_cache_stats_breakdown[CONST_ACC_R][RESERVATION_FAIL] = 94
	L2_cache_stats_breakdown[GLOBAL_ACC_W][MISS] = 1792
	L2_cache_stats_breakdown[INST_ACC_R][HIT] = 57
	L2_cache_stats_breakdown[INST_ACC_R][HIT_RESERVED] = 12
	L2_cache_stats_breakdown[INST_ACC_R][MISS] = 6
	L2_cache_stats_breakdown[INST_ACC_R][RESERVATION_FAIL] = 352
L2_cache_data_port_util = 0.252
L2_cache_fill_port_util = 0.020

icnt_total_pkts_mem_to_simt=55704017
icnt_total_pkts_simt_to_mem=11149411
LD_mem_lat_dist  0 0 0 0 0 0 0 0 0 0 0 0 0 0 0 0 0 0 0 0 0 0 0 0 0 0 0
ST_mem_lat_dist  0 0 0 0 0 0 0 0 0 0 0 0 0 0 0 0 0 0 0 0 0 0 0 0 0 0 0
----------------------------Interconnect-DETAILS--------------------------------
Class 0:
Packet latency average = 28.5509
	minimum = 6
	maximum = 561
Network latency average = 22.544
	minimum = 6
	maximum = 493
Slowest packet = 11294993
Flit latency average = 16.4052
	minimum = 6
	maximum = 493
Slowest flit = 33884071
Fragmentation average = 4.52415e-05
	minimum = 0
	maximum = 270
Injected packet rate average = 0.0609394
	minimum = 0.049221 (at node 4)
	maximum = 0.0698498 (at node 17)
Accepted packet rate average = 0.0609394
	minimum = 0.049221 (at node 4)
	maximum = 0.0698498 (at node 17)
Injected flit rate average = 0.182818
	minimum = 0.0492535 (at node 4)
	maximum = 0.349206 (at node 17)
Accepted flit rate average= 0.182818
	minimum = 0.0664279 (at node 26)
	maximum = 0.289418 (at node 14)
Injected packet length average = 3
Accepted packet length average = 3
Total in-flight flits = 0 (0 measured)
====== Overall Traffic Statistics ======
====== Traffic class 0 ======
Packet latency average = 28.5738 (2 samples)
	minimum = 6 (2 samples)
	maximum = 559 (2 samples)
Network latency average = 22.5934 (2 samples)
	minimum = 6 (2 samples)
	maximum = 474 (2 samples)
Flit latency average = 16.3811 (2 samples)
	minimum = 6 (2 samples)
	maximum = 474 (2 samples)
Fragmentation average = 5.27706e-05 (2 samples)
	minimum = 0 (2 samples)
	maximum = 222 (2 samples)
Injected packet rate average = 0.0603916 (2 samples)
	minimum = 0.0492475 (2 samples)
	maximum = 0.069302 (2 samples)
Accepted packet rate average = 0.0603916 (2 samples)
	minimum = 0.0492475 (2 samples)
	maximum = 0.069302 (2 samples)
Injected flit rate average = 0.181175 (2 samples)
	minimum = 0.0492803 (2 samples)
	maximum = 0.346464 (2 samples)
Accepted flit rate average = 0.181175 (2 samples)
	minimum = 0.0659647 (2 samples)
	maximum = 0.29023 (2 samples)
Injected packet size average = 3 (2 samples)
Accepted packet size average = 3 (2 samples)
Hops average = 1 (2 samples)
----------------------------END-of-Interconnect-DETAILS-------------------------


gpgpu_simulation_time = 0 days, 1 hrs, 29 min, 41 sec (5381 sec)
gpgpu_simulation_rate = 89553 (inst/sec)
gpgpu_simulation_rate = 2539 (cycle/sec)
GPGPU-Sim API: Stream Manager State
GPGPU-Sim: detected inactive GPU simulation thread
iterated 2 times

================= Centroid Coordinates =================
0: 1.23 613.61 527.61 0.00 0.00 0.01 0.00 0.00 0.00 0.00 0.03 0.01 0.00 0.00 0.00 8.15 11.06 0.00 0.00 0.00 0.00 0.99 0.01 0.22 139.44 193.37 0.83 0.02 0.06 0.01 0.00 0.00 0.00 0.00 1.00 1.23 613.61 527.61 0.00 0.00 0.01 0.00 0.00 0.00 0.00 0.03 0.01 0.00 0.00 0.00 8.15 11.06 0.00 0.00 0.00 0.00 0.99 0.01 0.22 139.44 193.37 0.83 0.02 0.06 0.01 0.00 0.00 0.00 0.00 1.23 613.61 527.61 0.00 0.00 0.01 0.00 0.00 0.00 0.00 0.03 0.01 0.00 0.00 0.00 8.15 11.06 0.00 0.00 0.00 0.00 0.99 0.01 0.22 139.44 193.37 0.83 0.02 0.06 0.01 0.00 0.00 0.00 0.00 1.00 1.23 613.61 527.61 0.00 0.00 0.01 0.00 0.00 0.00 0.00 0.03 0.01 0.00 0.00 0.00 8.15 11.06 0.00 0.00 0.00 0.00 0.99 0.01 0.22 139.44 193.37 0.83 0.02 0.06 0.01 0.00 0.00 0.00 0.00

1: 1.45 15177.44 214.67 0.00 0.00 0.01 0.00 0.00 0.00 0.00 0.00 0.02 0.01 0.02 0.00 4.59 5.07 0.00 0.01 0.00 0.00 0.98 0.03 0.25 129.85 98.10 0.52 0.05 0.20 0.01 0.00 0.00 0.00 0.00 1.00 1.45 15177.44 214.67 0.00 0.00 0.01 0.00 0.00 0.00 0.00 0.00 0.02 0.01 0.02 0.00 4.59 5.07 0.00 0.01 0.00 0.00 0.98 0.03 0.25 129.85 98.10 0.52 0.05 0.20 0.01 0.00 0.00 0.00 0.00 1.45 15177.44 214.67 0.00 0.00 0.01 0.00 0.00 0.00 0.00 0.00 0.02 0.01 0.02 0.00 4.59 5.07 0.00 0.01 0.00 0.00 0.98 0.03 0.25 129.85 98.10 0.52 0.05 0.20 0.01 0.00 0.00 0.00 0.00 1.00 1.45 15177.44 214.67 0.00 0.00 0.01 0.00 0.00 0.00 0.00 0.00 0.02 0.01 0.02 0.00 4.59 5.07 0.00 0.01 0.00 0.00 0.98 0.03 0.25 129.85 98.10 0.52 0.05 0.20 0.01 0.00 0.00 0.00 0.00

2: 3.74 600.16 40.36 0.01 0.00 0.00 0.00 0.00 0.00 0.00 0.00 0.00 0.00 0.00 0.00 338.62 287.90 0.24 0.24 0.03 0.03 0.75 0.04 0.03 240.64 180.98 0.72 0.05 0.58 0.00 0.24 0.24 0.03 0.03 1.00 3.74 600.16 40.36 0.01 0.00 0.00 0.00 0.00 0.00 0.00 0.00 0.00 0.00 0.00 0.00 338.62 287.90 0.24 0.24 0.03 0.03 0.75 0.04 0.03 240.64 180.98 0.72 0.05 0.58 0.00 0.24 0.24 0.03 0.03 3.74 600.16 40.36 0.01 0.00 0.00 0.00 0.00 0.00 0.00 0.00 0.00 0.00 0.00 0.00 338.62 287.90 0.24 0.24 0.03 0.03 0.75 0.04 0.03 240.64 180.98 0.72 0.05 0.58 0.00 0.24 0.24 0.03 0.03 1.00 3.74 600.16 40.36 0.01 0.00 0.00 0.00 0.00 0.00 0.00 0.00 0.00 0.00 0.00 0.00 338.62 287.90 0.24 0.24 0.03 0.03 0.75 0.04 0.03 240.64 180.98 0.72 0.05 0.58 0.00 0.24 0.24 0.03 0.03

3: 21.48 303.12 20528.08 0.00 0.00 0.03 0.00 0.16 0.00 0.00 0.17 0.01 0.00 0.00 0.00 7.59 11.10 0.00 0.01 0.00 0.00 1.00 0.00 0.13 130.51 246.12 0.99 0.00 0.06 0.02 0.00 0.00 0.00 0.00 1.00 21.48 303.12 20528.08 0.00 0.00 0.03 0.00 0.16 0.00 0.00 0.17 0.01 0.00 0.00 0.00 7.59 11.10 0.00 0.01 0.00 0.00 1.00 0.00 0.13 130.51 246.12 0.99 0.00 0.06 0.02 0.00 0.00 0.00 0.00 21.48 303.12 20528.08 0.00 0.00 0.03 0.00 0.16 0.00 0.00 0.17 0.01 0.00 0.00 0.00 7.59 11.10 0.00 0.01 0.00 0.00 1.00 0.00 0.13 130.51 246.12 0.99 0.00 0.06 0.02 0.00 0.00 0.00 0.00 1.00 21.48 303.12 20528.08 0.00 0.00 0.03 0.00 0.16 0.00 0.00 0.17 0.01 0.00 0.00 0.00 7.59 11.10 0.00 0.01 0.00 0.00 1.00 0.00 0.13 130.51 246.12 0.99 0.00 0.06 0.02 0.00 0.00 0.00 0.00

4: 0.31 264.14 2561.85 0.00 0.00 0.06 0.00 0.00 0.00 0.00 0.00 0.00 0.00 0.01 0.00 9.81 13.92 0.00 0.00 0.00 0.00 1.00 0.00 0.10 132.64 245.89 0.99 0.00 0.05 0.02 0.00 0.00 0.00 0.00 1.00 0.31 264.14 2561.85 0.00 0.00 0.06 0.00 0.00 0.00 0.00 0.00 0.00 0.00 0.01 0.00 9.81 13.92 0.00 0.00 0.00 0.00 1.00 0.00 0.10 132.64 245.89 0.99 0.00 0.05 0.02 0.00 0.00 0.00 0.00 0.31 264.14 2561.85 0.00 0.00 0.06 0.00 0.00 0.00 0.00 0.00 0.00 0.00 0.01 0.00 9.81 13.92 0.00 0.00 0.00 0.00 1.00 0.00 0.10 132.64 245.89 0.99 0.00 0.05 0.02 0.00 0.00 0.00 0.00 1.00 0.31 264.14 2561.85 0.00 0.00 0.06 0.00 0.00 0.00 0.00 0.00 0.00 0.00 0.01 0.00 9.81 13.92 0.00 0.00 0.00 0.00 1.00 0.00 0.10 132.64 245.89 0.99 0.00 0.05 0.02 0.00 0.00 0.00 0.00

Number of Iteration: 1
Time for I/O: 0.00000sec
Time for Entire Clustering: 0.00000sec
Root Mean Squared Error: 55443.000
