

        *** GPGPU-Sim Simulator Version 3.2.2  [build 0] ***


GPGPU-Sim PTX: simulation mode 0 (can change with PTX_SIM_MODE_FUNC environment variable:
               1=functional simulation only, 0=detailed performance simulator)
GPGPU-Sim: Configuration options:

-network_mode                           1 # Interconnection network mode
-inter_config_file   config_fermi_islip.icnt # Interconnection network config file
-gpgpu_ptx_use_cuobjdump                    1 # Use cuobjdump to extract ptx and sass from binaries
-gpgpu_experimental_lib_support                    0 # Try to extract code from cuda libraries [Broken because of unknown cudaGetExportTable]
-gpgpu_ptx_convert_to_ptxplus                    0 # Convert SASS (native ISA) to ptxplus and run ptxplus
-gpgpu_ptx_force_max_capability                   20 # Force maximum compute capability
-gpgpu_ptx_inst_debug_to_file                    0 # Dump executed instructions' debug information to file
-gpgpu_ptx_inst_debug_file       inst_debug.txt # Executed instructions' debug output file
-gpgpu_ptx_inst_debug_thread_uid                    1 # Thread UID for executed instructions' debug output
-gpgpu_simd_model                       1 # 1 = post-dominator
-gpgpu_shader_core_pipeline              1536:32 # shader core pipeline config, i.e., {<nthread>:<warpsize>}
-gpgpu_tex_cache:l1  4:128:24,L:R:m:N:L,F:128:4,128:2 # per-shader L1 texture cache  (READ-ONLY) config  {<nsets>:<bsize>:<assoc>,<rep>:<wr>:<alloc>:<wr_alloc>,<mshr>:<N>:<merge>,<mq>:<rf>}
-gpgpu_const_cache:l1 64:64:2,L:R:f:N:L,A:2:32,4 # per-shader L1 constant memory cache  (READ-ONLY) config  {<nsets>:<bsize>:<assoc>,<rep>:<wr>:<alloc>:<wr_alloc>,<mshr>:<N>:<merge>,<mq>} 
-gpgpu_cache:il1     4:128:4,L:R:f:N:L,A:2:32,4 # shader L1 instruction cache config  {<nsets>:<bsize>:<assoc>,<rep>:<wr>:<alloc>:<wr_alloc>,<mshr>:<N>:<merge>,<mq>} 
-gpgpu_cache:dl1     32:128:4,L:L:m:N:H,A:32:8,8:2,0,0:0:1:1:0:1,1:4:8:16:32:64,/sciclone/data10/hwang07/GPU_RESEARCH/swl/swl_outputs/RESULTS/ # per-shader L1 data cache config  {<nsets>:<bsize>:<assoc>,<rep>:<wr>:<alloc>:<wr_alloc>,<mshr>:<N>:<merge>,<mq> | none}
-gpgpu_cache:dl1PrefL1                 none # per-shader L1 data cache config  {<nsets>:<bsize>:<assoc>,<rep>:<wr>:<alloc>:<wr_alloc>,<mshr>:<N>:<merge>,<mq> | none}
-gpgpu_cache:dl1PreShared                 none # per-shader L1 data cache config  {<nsets>:<bsize>:<assoc>,<rep>:<wr>:<alloc>:<wr_alloc>,<mshr>:<N>:<merge>,<mq> | none}
-gmem_skip_L1D                          0 # global memory access skip L1D cache (implements -Xptxas -dlcm=cg, default=no skip)
-gpgpu_perfect_mem                      0 # enable perfect memory mode (no cache miss)
-n_regfile_gating_group                    4 # group of lanes that should be read/written together)
-gpgpu_clock_gated_reg_file                    0 # enable clock gated reg file for power calculations
-gpgpu_clock_gated_lanes                    0 # enable clock gated lanes for power calculations
-gpgpu_shader_registers                32768 # Number of registers per shader core. Limits number of concurrent CTAs. (default 8192)
-gpgpu_shader_cta                       8 # Maximum number of concurrent CTAs in shader (default 8)
-gpgpu_num_cta_barriers                   16 # Maximum number of named barriers per CTA (default 16)
-gpgpu_n_clusters                      15 # number of processing clusters
-gpgpu_n_cores_per_cluster                    1 # number of simd cores per cluster
-gpgpu_n_cluster_ejection_buffer_size                    8 # number of packets in ejection buffer
-gpgpu_n_ldst_response_buffer_size                    2 # number of response packets in ld/st unit ejection buffer
-gpgpu_shmem_size                   16384 # Size of shared memory per shader core (default 16kB)
-gpgpu_shmem_size                   49152 # Size of shared memory per shader core (default 16kB)
-gpgpu_shmem_size_PrefL1                16384 # Size of shared memory per shader core (default 16kB)
-gpgpu_shmem_size_PrefShared                16384 # Size of shared memory per shader core (default 16kB)
-gpgpu_shmem_num_banks                   32 # Number of banks in the shared memory in each shader core (default 16)
-gpgpu_shmem_limited_broadcast                    0 # Limit shared memory to do one broadcast per cycle (default on)
-gpgpu_shmem_warp_parts                    1 # Number of portions a warp is divided into for shared memory bank conflict check 
-gpgpu_warpdistro_shader                   -1 # Specify which shader core to collect the warp size distribution from
-gpgpu_warp_issue_shader                    0 # Specify which shader core to collect the warp issue distribution from
-gpgpu_local_mem_map                    1 # Mapping from local memory space address to simulated GPU physical address space (default = enabled)
-gpgpu_num_reg_banks                   16 # Number of register banks (default = 8)
-gpgpu_reg_bank_use_warp_id                    0 # Use warp ID in mapping registers to banks (default = off)
-gpgpu_operand_collector_num_units_sp                    6 # number of collector units (default = 4)
-gpgpu_operand_collector_num_units_sfu                    8 # number of collector units (default = 4)
-gpgpu_operand_collector_num_units_mem                    2 # number of collector units (default = 2)
-gpgpu_operand_collector_num_units_gen                    0 # number of collector units (default = 0)
-gpgpu_operand_collector_num_in_ports_sp                    2 # number of collector unit in ports (default = 1)
-gpgpu_operand_collector_num_in_ports_sfu                    1 # number of collector unit in ports (default = 1)
-gpgpu_operand_collector_num_in_ports_mem                    1 # number of collector unit in ports (default = 1)
-gpgpu_operand_collector_num_in_ports_gen                    0 # number of collector unit in ports (default = 0)
-gpgpu_operand_collector_num_out_ports_sp                    2 # number of collector unit in ports (default = 1)
-gpgpu_operand_collector_num_out_ports_sfu                    1 # number of collector unit in ports (default = 1)
-gpgpu_operand_collector_num_out_ports_mem                    1 # number of collector unit in ports (default = 1)
-gpgpu_operand_collector_num_out_ports_gen                    0 # number of collector unit in ports (default = 0)
-gpgpu_coalesce_arch                   13 # Coalescing arch (default = 13, anything else is off for now)
-gpgpu_num_sched_per_core                    2 # Number of warp schedulers per core
-gpgpu_max_insn_issue_per_warp                    1 # Max number of instructions that can be issued per warp in one cycle by scheduler
-gpgpu_simt_core_sim_order                    1 # Select the simulation order of cores in a cluster (0=Fix, 1=Round-Robin)
-gpgpu_pipeline_widths        2,1,1,2,1,1,2 # Pipeline widths ID_OC_SP,ID_OC_SFU,ID_OC_MEM,OC_EX_SP,OC_EX_SFU,OC_EX_MEM,EX_WB
-gpgpu_num_sp_units                     2 # Number of SP units (default=1)
-gpgpu_num_sfu_units                    1 # Number of SF units (default=1)
-gpgpu_num_mem_units                    1 # Number if ldst units (default=1) WARNING: not hooked up to anything
-gpgpu_scheduler      warp_limiting:2:4:0 # Scheduler configuration: < lrr | gto | two_level_active > If two_level_active:<num_active_warps>:<inner_prioritization>:<outer_prioritization>For complete list of prioritization values see shader.h enum scheduler_prioritization_typeDefault: gto
-gpgpu_dram_scheduler                    1 # 0 = fifo, 1 = FR-FCFS (defaul)
-gpgpu_dram_partition_queues              8:8:8:8 # i2$:$2d:d2$:$2i
-l2_ideal                               0 # Use a ideal L2 cache that always hit
-gpgpu_cache:dl2     64:128:8,L:B:m:W:L,A:32:4,4:0,32 # unified banked L2 data cache config  {<nsets>:<bsize>:<assoc>,<rep>:<wr>:<alloc>:<wr_alloc>,<mshr>:<N>:<merge>,<mq>}
-gpgpu_cache:dl2_texture_only                    0 # L2 cache used for texture only
-gpgpu_n_mem                            6 # number of memory modules (e.g. memory controllers) in gpu
-gpgpu_n_sub_partition_per_mchannel                    2 # number of memory subpartition in each memory module
-gpgpu_n_mem_per_ctrlr                    2 # number of memory chips per memory controller
-gpgpu_memlatency_stat                   14 # track and display latency statistics 0x2 enables MC, 0x4 enables queue logs
-gpgpu_frfcfs_dram_sched_queue_size                   16 # 0 = unlimited (default); # entries per chip
-gpgpu_dram_return_queue_size                  116 # 0 = unlimited (default); # entries per chip
-gpgpu_dram_buswidth                    4 # default = 4 bytes (8 bytes per cycle at DDR)
-gpgpu_dram_burst_length                    8 # Burst length of each DRAM request (default = 4 data bus cycle)
-dram_data_command_freq_ratio                    4 # Frequency ratio between DRAM data bus and command bus (default = 2 times, i.e. DDR)
-gpgpu_dram_timing_opt nbk=16:CCD=2:RRD=6:RCD=12:RAS=28:RP=12:RC=40: CL=12:WL=4:CDLR=5:WR=12:nbkgrp=4:CCDL=3:RTPL=2 # DRAM timing parameters = {nbk:tCCD:tRRD:tRCD:tRAS:tRP:tRC:CL:WL:tCDLR:tWR:nbkgrp:tCCDL:tRTPL}
-rop_latency                          120 # ROP queue latency (default 85)
-dram_latency                         100 # DRAM latency (default 30)
-gpgpu_mem_addr_mapping dramid@8;00000000.00000000.00000000.00000000.0000RRRR.RRRRRRRR.BBBCCCCB.CCSSSSSS # mapping memory address to dram model {dramid@<start bit>;<memory address map>}
-gpgpu_mem_addr_test                    0 # run sweep test to check address mapping for aliased address
-gpgpu_mem_address_mask                    1 # 0 = old addressing mask, 1 = new addressing mask, 2 = new add. mask + flipped bank sel and chip sel bits
-gpuwattch_xml_file  gpuwattch_gtx480.xml # GPUWattch XML file
-power_simulation_enabled                    0 # Turn on power simulator (1=On, 0=Off)
-power_per_cycle_dump                    0 # Dump detailed power output each cycle
-power_trace_enabled                    0 # produce a file for the power trace (1=On, 0=Off)
-power_trace_zlevel                     6 # Compression level of the power trace output log (0=no comp, 9=highest)
-steady_power_levels_enabled                    0 # produce a file for the steady power levels (1=On, 0=Off)
-steady_state_definition                  8:4 # allowed deviation:number of samples
-gpgpu_max_cycle                        0 # terminates gpu simulation early (0 = no limit)
-gpgpu_max_insn                         0 # terminates gpu simulation early (0 = no limit)
-gpgpu_max_cta                          0 # terminates gpu simulation early (0 = no limit)
-gpgpu_runtime_stat                   500 # display runtime statistics such as dram utilization {<freq>:<flag>}
-liveness_message_freq                    1 # Minimum number of seconds between simulation liveness messages (0 = always print)
-gpgpu_flush_l1_cache                    0 # Flush L1 cache at the end of each kernel call
-gpgpu_flush_l2_cache                    0 # Flush L2 cache at the end of each kernel call
-gpgpu_deadlock_detect                    1 # Stop the simulation at deadlock (1=on (default), 0=off)
-gpgpu_ptx_instruction_classification                    0 # if enabled will classify ptx instruction types per kernel (Max 255 kernels now)
-gpgpu_ptx_sim_mode                     0 # Select between Performance (default) or Functional simulation (1)
-gpgpu_clock_domains 700.0:700.0:700.0:924.0 # Clock Domain Frequencies in MhZ {<Core Clock>:<ICNT Clock>:<L2 Clock>:<DRAM Clock>}
-gpgpu_max_concurrent_kernel                    8 # maximum kernels that can run concurrently on GPU
-gpgpu_cflog_interval                    0 # Interval between each snapshot in control flow logger
-visualizer_enabled                     0 # Turn on visualizer output (1=On, 0=Off)
-visualizer_outputfile                 NULL # Specifies the output log file for visualizer
-visualizer_zlevel                      6 # Compression level of the visualizer output log (0=no comp, 9=highest)
-trace_enabled                          0 # Turn on traces
-trace_components                    none # comma seperated list of traces to enable. Complete list found in trace_streams.tup. Default none
-trace_sampling_core                    0 # The core which is printed using CORE_DPRINTF. Default 0
-trace_sampling_memory_partition                   -1 # The memory partition which is printed using MEMPART_DPRINTF. Default -1 (i.e. all)
-enable_ptx_file_line_stats                    1 # Turn on PTX source line statistic profiling. (1 = On)
-ptx_line_stats_filename gpgpu_inst_stats.txt # Output file for PTX source line statistics.
-save_embedded_ptx                      0 # saves ptx files embedded in binary as <n>.ptx
-keep                                   0 # keep intermediate files created by GPGPU-Sim when interfacing with external programs
-gpgpu_ptx_save_converted_ptxplus                    0 # Saved converted ptxplus to a file
-ptx_opcode_latency_int         4,13,4,5,145 # Opcode latencies for integers <ADD,MAX,MUL,MAD,DIV>Default 1,1,19,25,145
-ptx_opcode_latency_fp          4,13,4,5,39 # Opcode latencies for single precision floating points <ADD,MAX,MUL,MAD,DIV>Default 1,1,1,1,30
-ptx_opcode_latency_dp         8,19,8,8,330 # Opcode latencies for double precision floating points <ADD,MAX,MUL,MAD,DIV>Default 8,8,8,8,335
-ptx_opcode_initiation_int            1,2,2,1,8 # Opcode initiation intervals for integers <ADD,MAX,MUL,MAD,DIV>Default 1,1,4,4,32
-ptx_opcode_initiation_fp            1,2,1,1,4 # Opcode initiation intervals for single precision floating points <ADD,MAX,MUL,MAD,DIV>Default 1,1,1,1,5
-ptx_opcode_initiation_dp         8,16,8,8,130 # Opcode initiation intervals for double precision floating points <ADD,MAX,MUL,MAD,DIV>Default 8,8,8,8,130
DRAM Timing Options:
nbk                                    16 # number of banks
CCD                                     2 # column to column delay
RRD                                     6 # minimal delay between activation of rows in different banks
RCD                                    12 # row to column delay
RAS                                    28 # time needed to activate row
RP                                     12 # time needed to precharge (deactivate) row
RC                                     40 # row cycle time
CDLR                                    5 # switching from write to read (changes tWTR)
WR                                     12 # last data-in to row precharge
CL                                     12 # CAS latency
WL                                      4 # Write latency
nbkgrp                                  4 # number of bank groups
CCDL                                    3 # column to column delay between accesses to different bank groups
RTPL                                    2 # read to precharge delay between accesses to different bank groups
Total number of memory sub partition = 12
addr_dec_mask[CHIP]  = 0000000000000000 	high:64 low:0
addr_dec_mask[BK]    = 000000000000e100 	high:16 low:8
addr_dec_mask[ROW]   = 000000000fff0000 	high:28 low:16
addr_dec_mask[COL]   = 0000000000001eff 	high:13 low:0
addr_dec_mask[BURST] = 000000000000003f 	high:6 low:0
sub_partition_id_mask = 0000000000000100
GPGPU-Sim uArch: clock freqs: 700000000.000000:700000000.000000:700000000.000000:924000000.000000
GPGPU-Sim uArch: clock periods: 0.00000000142857142857:0.00000000142857142857:0.00000000142857142857:0.00000000108225108225
*** Initializing Memory Statistics ***
GPGPU-Sim uArch: interconnect node map (shaderID+MemID to icntID)
GPGPU-Sim uArch: Memory nodes ID start from index: 15
GPGPU-Sim uArch:    0   1   2   3   4
GPGPU-Sim uArch:    5   6   7   8   9
GPGPU-Sim uArch:   10  11  12  13  14
GPGPU-Sim uArch:   15  16  17  18  19
GPGPU-Sim uArch:   20  21  22  23  24
GPGPU-Sim uArch:   25  26
GPGPU-Sim uArch: interconnect node reverse map (icntID to shaderID+MemID)
GPGPU-Sim uArch: Memory nodes start from ID: 15
GPGPU-Sim uArch:    0   1   2   3   4
GPGPU-Sim uArch:    5   6   7   8   9
GPGPU-Sim uArch:   10  11  12  13  14
GPGPU-Sim uArch:   15  16  17  18  19
GPGPU-Sim uArch:   20  21  22  23  24
GPGPU-Sim uArch:   25  26
e389dacb331e7fcddf4abf4a164344f1  /sciclone/data10/hwang07/adwait/applications/benchmarks/CUDA/BlackScholes/gpgpu_ptx_sim__BlackScholes
GPGPU-Sim uArch: performance model initialization complete.
GPGPU-Sim PTX: __cudaRegisterFatBinary, fat_cubin_handle = 1, filename=BlackScholes.cu
self exe links to: /sciclone/data10/hwang07/adwait/applications/benchmarks/CUDA/BlackScholes/gpgpu_ptx_sim__BlackScholes
Running md5sum using "md5sum /sciclone/data10/hwang07/adwait/applications/benchmarks/CUDA/BlackScholes/gpgpu_ptx_sim__BlackScholes "
Parsing file _cuobjdump_complete_output_g7cLST
######### cuobjdump parser ########
## Adding new section ELF
Adding arch: sm_20
Adding identifier: BlackScholes.cu
## Adding new section PTX
Adding ptx filename: _cuobjdump_1.ptx
Adding arch: sm_20
Adding identifier: BlackScholes.cu
Done parsing!!!
GPGPU-Sim PTX: __cudaRegisterFunction _Z15BlackScholesGPUPfS_S_S_S_ffi : hostFun 0x0x405752, fat_cubin_handle = 1
GPGPU-Sim PTX: instruction assembly for function '_Z15BlackScholesGPUPfS_S_S_S_ffi'...   done.
GPGPU-Sim PTX: finding reconvergence points for '_Z15BlackScholesGPUPfS_S_S_S_ffi'...
GPGPU-Sim PTX: Finding dominators for '_Z15BlackScholesGPUPfS_S_S_S_ffi'...
GPGPU-Sim PTX: Finding immediate dominators for '_Z15BlackScholesGPUPfS_S_S_S_ffi'...
GPGPU-Sim PTX: Finding postdominators for '_Z15BlackScholesGPUPfS_S_S_S_ffi'...
GPGPU-Sim PTX: Finding immediate postdominators for '_Z15BlackScholesGPUPfS_S_S_S_ffi'...
GPGPU-Sim PTX: pre-decoding instructions for '_Z15BlackScholesGPUPfS_S_S_S_ffi'...
GPGPU-Sim PTX: reconvergence points for _Z15BlackScholesGPUPfS_S_S_S_ffi...
GPGPU-Sim PTX:  1 (potential) branch divergence @  PC=0x040 (_1.ptx:76) @%p1 bra $Lt_0_2818;
GPGPU-Sim PTX:    immediate post dominator      @  PC=0x3f8 (_1.ptx:200) exit;
GPGPU-Sim PTX:  2 (potential) branch divergence @  PC=0x3f0 (_1.ptx:197) @%p4 bra $Lt_0_3330;
GPGPU-Sim PTX:    immediate post dominator      @  PC=0x3f8 (_1.ptx:200) exit;
GPGPU-Sim PTX: ... end of reconvergence points for _Z15BlackScholesGPUPfS_S_S_S_ffi
GPGPU-Sim PTX: ... done pre-decoding instructions for '_Z15BlackScholesGPUPfS_S_S_S_ffi'.
GPGPU-Sim PTX: finished parsing EMBEDDED .ptx file _1.ptx
Adding _cuobjdump_1.ptx with cubin handle 1
GPGPU-Sim PTX: extracting embedded .ptx to temporary file "_ptx_kHtAN5"
Running: cat _ptx_kHtAN5 | sed 's/.version 1.5/.version 1.4/' | sed 's/, texmode_independent//' | sed 's/\(\.extern \.const\[1\] .b8 \w\+\)\[\]/\1\[1\]/' | sed 's/const\[.\]/const\[0\]/g' > _ptx2_z1Ugti
GPGPU-Sim PTX: generating ptxinfo using "$CUDA_INSTALL_PATH/bin/ptxas --gpu-name=sm_20 -v _ptx2_z1Ugti --output-file  /dev/null 2> _ptx_kHtAN5info"
GPGPU-Sim PTX: Kernel '_Z15BlackScholesGPUPfS_S_S_S_ffi' : regs=31, lmem=0, smem=0, cmem=128
GPGPU-Sim PTX: removing ptxinfo using "rm -f _ptx_kHtAN5 _ptx2_z1Ugti _ptx_kHtAN5info"
GPGPU-Sim PTX: loading globals with explicit initializers... 
GPGPU-Sim PTX: finished loading globals (0 bytes total).
GPGPU-Sim PTX: loading constants with explicit initializers...  done.
Initializing data...
...allocating CPU memory for options.
...allocating GPU memory for options.
...generating input data in CPU mem.
...copying input data to GPU mem.
Data init done.
Executing Black-Scholes GPU kernel (1 iterations)...
GPGPU-Sim: synchronize waiting for inactive GPU simulation
GPGPU-Sim API: Stream Manager State
GPGPU-Sim: detected inactive GPU simulation thread

GPGPU-Sim PTX: cudaLaunch for 0x0x405752 (mode=performance simulation) on stream 0
GPGPU-Sim PTX: pushing kernel '_Z15BlackScholesGPUPfS_S_S_S_ffi' to stream 0, gridDim= (480,1,1) blockDim = (128,1,1) 
kernel '_Z15BlackScholesGPUPfS_S_S_S_ffi' transfer to GPU hardware scheduler
GPGPU-Sim uArch: Shader 1 bind to kernel 1 '_Z15BlackScholesGPUPfS_S_S_S_ffi'
GPGPU-Sim uArch: CTA/core = 8, limited by: regs cta_limit
GPGPU-Sim uArch: core:  1, cta: 0 initialized @(1,0)
GPGPU-Sim uArch: Shader 2 bind to kernel 1 '_Z15BlackScholesGPUPfS_S_S_S_ffi'
GPGPU-Sim uArch: core:  2, cta: 0 initialized @(1,0)
GPGPU-Sim uArch: Shader 3 bind to kernel 1 '_Z15BlackScholesGPUPfS_S_S_S_ffi'
GPGPU-Sim uArch: core:  3, cta: 0 initialized @(1,0)
GPGPU-Sim uArch: Shader 4 bind to kernel 1 '_Z15BlackScholesGPUPfS_S_S_S_ffi'
GPGPU-Sim uArch: core:  4, cta: 0 initialized @(1,0)
GPGPU-Sim uArch: Shader 5 bind to kernel 1 '_Z15BlackScholesGPUPfS_S_S_S_ffi'
GPGPU-Sim uArch: core:  5, cta: 0 initialized @(1,0)
GPGPU-Sim uArch: Shader 6 bind to kernel 1 '_Z15BlackScholesGPUPfS_S_S_S_ffi'
GPGPU-Sim uArch: core:  6, cta: 0 initialized @(1,0)
GPGPU-Sim uArch: Shader 7 bind to kernel 1 '_Z15BlackScholesGPUPfS_S_S_S_ffi'
GPGPU-Sim uArch: core:  7, cta: 0 initialized @(1,0)
GPGPU-Sim uArch: Shader 8 bind to kernel 1 '_Z15BlackScholesGPUPfS_S_S_S_ffi'
GPGPU-Sim uArch: core:  8, cta: 0 initialized @(1,0)
GPGPU-Sim uArch: Shader 9 bind to kernel 1 '_Z15BlackScholesGPUPfS_S_S_S_ffi'
GPGPU-Sim uArch: core:  9, cta: 0 initialized @(1,0)
GPGPU-Sim uArch: Shader 10 bind to kernel 1 '_Z15BlackScholesGPUPfS_S_S_S_ffi'
GPGPU-Sim uArch: core: 10, cta: 0 initialized @(1,0)
GPGPU-Sim uArch: Shader 11 bind to kernel 1 '_Z15BlackScholesGPUPfS_S_S_S_ffi'
GPGPU-Sim uArch: core: 11, cta: 0 initialized @(1,0)
GPGPU-Sim uArch: Shader 12 bind to kernel 1 '_Z15BlackScholesGPUPfS_S_S_S_ffi'
GPGPU-Sim uArch: core: 12, cta: 0 initialized @(1,0)
GPGPU-Sim uArch: Shader 13 bind to kernel 1 '_Z15BlackScholesGPUPfS_S_S_S_ffi'
GPGPU-Sim uArch: core: 13, cta: 0 initialized @(1,0)
GPGPU-Sim uArch: Shader 14 bind to kernel 1 '_Z15BlackScholesGPUPfS_S_S_S_ffi'
GPGPU-Sim uArch: core: 14, cta: 0 initialized @(1,0)
GPGPU-Sim uArch: Shader 0 bind to kernel 1 '_Z15BlackScholesGPUPfS_S_S_S_ffi'
GPGPU-Sim uArch: core:  0, cta: 0 initialized @(1,0)
GPGPU-Sim uArch: core:  1, cta: 1 initialized @(2,0)
GPGPU-Sim uArch: core:  2, cta: 1 initialized @(2,0)
GPGPU-Sim uArch: core:  3, cta: 1 initialized @(2,0)
GPGPU-Sim uArch: core:  4, cta: 1 initialized @(2,0)
GPGPU-Sim uArch: core:  5, cta: 1 initialized @(2,0)
GPGPU-Sim uArch: core:  6, cta: 1 initialized @(2,0)
GPGPU-Sim uArch: core:  7, cta: 1 initialized @(2,0)
GPGPU-Sim uArch: core:  8, cta: 1 initialized @(2,0)
GPGPU-Sim uArch: core:  9, cta: 1 initialized @(2,0)
GPGPU-Sim uArch: core: 10, cta: 1 initialized @(2,0)
GPGPU-Sim uArch: core: 11, cta: 1 initialized @(2,0)
GPGPU-Sim uArch: core: 12, cta: 1 initialized @(2,0)
GPGPU-Sim uArch: core: 13, cta: 1 initialized @(2,0)
GPGPU-Sim uArch: core: 14, cta: 1 initialized @(2,0)
GPGPU-Sim uArch: core:  0, cta: 1 initialized @(2,0)
GPGPU-Sim uArch: core:  1, cta: 2 initialized @(3,0)
GPGPU-Sim uArch: core:  2, cta: 2 initialized @(3,0)
GPGPU-Sim uArch: core:  3, cta: 2 initialized @(3,0)
GPGPU-Sim uArch: core:  4, cta: 2 initialized @(3,0)
GPGPU-Sim uArch: core:  5, cta: 2 initialized @(3,0)
GPGPU-Sim uArch: core:  6, cta: 2 initialized @(3,0)
GPGPU-Sim uArch: core:  7, cta: 2 initialized @(3,0)
GPGPU-Sim uArch: core:  8, cta: 2 initialized @(3,0)
GPGPU-Sim uArch: core:  9, cta: 2 initialized @(3,0)
GPGPU-Sim uArch: core: 10, cta: 2 initialized @(3,0)
GPGPU-Sim uArch: core: 11, cta: 2 initialized @(3,0)
GPGPU-Sim uArch: core: 12, cta: 2 initialized @(3,0)
GPGPU-Sim uArch: core: 13, cta: 2 initialized @(3,0)
GPGPU-Sim uArch: core: 14, cta: 2 initialized @(3,0)
GPGPU-Sim uArch: core:  0, cta: 2 initialized @(3,0)
GPGPU-Sim uArch: core:  1, cta: 3 initialized @(4,0)
GPGPU-Sim uArch: core:  2, cta: 3 initialized @(4,0)
GPGPU-Sim uArch: core:  3, cta: 3 initialized @(4,0)
GPGPU-Sim uArch: core:  4, cta: 3 initialized @(4,0)
GPGPU-Sim uArch: core:  5, cta: 3 initialized @(4,0)
GPGPU-Sim uArch: core:  6, cta: 3 initialized @(4,0)
GPGPU-Sim uArch: core:  7, cta: 3 initialized @(4,0)
GPGPU-Sim uArch: core:  8, cta: 3 initialized @(4,0)
GPGPU-Sim uArch: core:  9, cta: 3 initialized @(4,0)
GPGPU-Sim uArch: core: 10, cta: 3 initialized @(4,0)
GPGPU-Sim uArch: core: 11, cta: 3 initialized @(4,0)
GPGPU-Sim uArch: core: 12, cta: 3 initialized @(4,0)
GPGPU-Sim uArch: core: 13, cta: 3 initialized @(4,0)
GPGPU-Sim uArch: core: 14, cta: 3 initialized @(4,0)
GPGPU-Sim uArch: core:  0, cta: 3 initialized @(4,0)
GPGPU-Sim uArch: core:  1, cta: 4 initialized @(5,0)
GPGPU-Sim uArch: core:  2, cta: 4 initialized @(5,0)
GPGPU-Sim uArch: core:  3, cta: 4 initialized @(5,0)
GPGPU-Sim uArch: core:  4, cta: 4 initialized @(5,0)
GPGPU-Sim uArch: core:  5, cta: 4 initialized @(5,0)
GPGPU-Sim uArch: core:  6, cta: 4 initialized @(5,0)
GPGPU-Sim uArch: core:  7, cta: 4 initialized @(5,0)
GPGPU-Sim uArch: core:  8, cta: 4 initialized @(5,0)
GPGPU-Sim uArch: core:  9, cta: 4 initialized @(5,0)
GPGPU-Sim uArch: core: 10, cta: 4 initialized @(5,0)
GPGPU-Sim uArch: core: 11, cta: 4 initialized @(5,0)
GPGPU-Sim uArch: core: 12, cta: 4 initialized @(5,0)
GPGPU-Sim uArch: core: 13, cta: 4 initialized @(5,0)
GPGPU-Sim uArch: core: 14, cta: 4 initialized @(5,0)
GPGPU-Sim uArch: core:  0, cta: 4 initialized @(5,0)
GPGPU-Sim uArch: core:  1, cta: 5 initialized @(6,0)
GPGPU-Sim uArch: core:  2, cta: 5 initialized @(6,0)
GPGPU-Sim uArch: core:  3, cta: 5 initialized @(6,0)
GPGPU-Sim uArch: core:  4, cta: 5 initialized @(6,0)
GPGPU-Sim uArch: core:  5, cta: 5 initialized @(6,0)
GPGPU-Sim uArch: core:  6, cta: 5 initialized @(6,0)
GPGPU-Sim uArch: core:  7, cta: 5 initialized @(6,0)
GPGPU-Sim uArch: core:  8, cta: 5 initialized @(6,0)
GPGPU-Sim uArch: core:  9, cta: 5 initialized @(6,0)
GPGPU-Sim uArch: core: 10, cta: 5 initialized @(6,0)
GPGPU-Sim uArch: core: 11, cta: 5 initialized @(6,0)
GPGPU-Sim uArch: core: 12, cta: 5 initialized @(6,0)
GPGPU-Sim uArch: core: 13, cta: 5 initialized @(6,0)
GPGPU-Sim uArch: core: 14, cta: 5 initialized @(6,0)
GPGPU-Sim uArch: core:  0, cta: 5 initialized @(6,0)
GPGPU-Sim uArch: core:  1, cta: 6 initialized @(7,0)
GPGPU-Sim uArch: core:  2, cta: 6 initialized @(7,0)
GPGPU-Sim uArch: core:  3, cta: 6 initialized @(7,0)
GPGPU-Sim uArch: core:  4, cta: 6 initialized @(7,0)
GPGPU-Sim uArch: core:  5, cta: 6 initialized @(7,0)
GPGPU-Sim uArch: core:  6, cta: 6 initialized @(7,0)
GPGPU-Sim uArch: core:  7, cta: 6 initialized @(7,0)
GPGPU-Sim uArch: core:  8, cta: 6 initialized @(7,0)
GPGPU-Sim uArch: core:  9, cta: 6 initialized @(7,0)
GPGPU-Sim uArch: core: 10, cta: 6 initialized @(7,0)
GPGPU-Sim uArch: core: 11, cta: 6 initialized @(7,0)
GPGPU-Sim uArch: core: 12, cta: 6 initialized @(7,0)
GPGPU-Sim uArch: core: 13, cta: 6 initialized @(7,0)
GPGPU-Sim uArch: core: 14, cta: 6 initialized @(7,0)
GPGPU-Sim uArch: core:  0, cta: 6 initialized @(7,0)
GPGPU-Sim uArch: core:  1, cta: 7 initialized @(8,0)
GPGPU-Sim uArch: core:  2, cta: 7 initialized @(8,0)
GPGPU-Sim uArch: core:  3, cta: 7 initialized @(8,0)
GPGPU-Sim uArch: core:  4, cta: 7 initialized @(8,0)
GPGPU-Sim uArch: core:  5, cta: 7 initialized @(8,0)
GPGPU-Sim uArch: core:  6, cta: 7 initialized @(8,0)
GPGPU-Sim uArch: core:  7, cta: 7 initialized @(8,0)
GPGPU-Sim uArch: core:  8, cta: 7 initialized @(8,0)
GPGPU-Sim uArch: core:  9, cta: 7 initialized @(8,0)
GPGPU-Sim uArch: core: 10, cta: 7 initialized @(8,0)
GPGPU-Sim uArch: core: 11, cta: 7 initialized @(8,0)
GPGPU-Sim uArch: core: 12, cta: 7 initialized @(8,0)
GPGPU-Sim uArch: core: 13, cta: 7 initialized @(8,0)
GPGPU-Sim uArch: core: 14, cta: 7 initialized @(8,0)
GPGPU-Sim uArch: core:  0, cta: 7 initialized @(8,0)
GPGPU-Sim uArch: cycles simulated: 500  inst.: 23040 (ipc=46.1) sim_rate=11520 (inst/sec) elapsed = 0:0:00:02 / Tue Mar 22 07:02:02 2016
GPGPU-Sim uArch: cycles simulated: 1000  inst.: 88480 (ipc=88.5) sim_rate=29493 (inst/sec) elapsed = 0:0:00:03 / Tue Mar 22 07:02:03 2016
GPGPU-Sim PTX: 100000 instructions simulated : ctaid=(21,0,0) tid=(63,0,0)
GPGPU-Sim PTX: 200000 instructions simulated : ctaid=(0,0,0) tid=(127,0,0)
GPGPU-Sim PTX: 300000 instructions simulated : ctaid=(19,0,0) tid=(63,0,0)
GPGPU-Sim PTX: 400000 instructions simulated : ctaid=(11,0,0) tid=(31,0,0)
GPGPU-Sim uArch: cycles simulated: 3500  inst.: 483840 (ipc=138.2) sim_rate=120960 (inst/sec) elapsed = 0:0:00:04 / Tue Mar 22 07:02:04 2016
GPGPU-Sim PTX: 500000 instructions simulated : ctaid=(3,0,0) tid=(31,0,0)
GPGPU-Sim PTX: 600000 instructions simulated : ctaid=(4,0,0) tid=(127,0,0)
GPGPU-Sim PTX: 700000 instructions simulated : ctaid=(8,0,0) tid=(127,0,0)
GPGPU-Sim PTX: 800000 instructions simulated : ctaid=(28,0,0) tid=(95,0,0)
GPGPU-Sim PTX: 900000 instructions simulated : ctaid=(13,0,0) tid=(127,0,0)
GPGPU-Sim uArch: cycles simulated: 5500  inst.: 971584 (ipc=176.7) sim_rate=194316 (inst/sec) elapsed = 0:0:00:05 / Tue Mar 22 07:02:05 2016
GPGPU-Sim PTX: 1000000 instructions simulated : ctaid=(18,0,0) tid=(63,0,0)
GPGPU-Sim PTX: 1100000 instructions simulated : ctaid=(3,0,0) tid=(63,0,0)
GPGPU-Sim PTX: 1200000 instructions simulated : ctaid=(20,0,0) tid=(127,0,0)
GPGPU-Sim PTX: 1300000 instructions simulated : ctaid=(19,0,0) tid=(95,0,0)
GPGPU-Sim PTX: 1400000 instructions simulated : ctaid=(6,0,0) tid=(95,0,0)
GPGPU-Sim PTX: 1500000 instructions simulated : ctaid=(2,0,0) tid=(95,0,0)
GPGPU-Sim uArch: cycles simulated: 7000  inst.: 1549056 (ipc=221.3) sim_rate=258176 (inst/sec) elapsed = 0:0:00:06 / Tue Mar 22 07:02:06 2016
GPGPU-Sim PTX: 1600000 instructions simulated : ctaid=(13,0,0) tid=(31,0,0)
GPGPU-Sim PTX: 1700000 instructions simulated : ctaid=(14,0,0) tid=(127,0,0)
GPGPU-Sim PTX: 1800000 instructions simulated : ctaid=(24,0,0) tid=(127,0,0)
GPGPU-Sim PTX: 1900000 instructions simulated : ctaid=(25,0,0) tid=(31,0,0)
GPGPU-Sim PTX: 2000000 instructions simulated : ctaid=(13,0,0) tid=(95,0,0)
GPGPU-Sim PTX: 2100000 instructions simulated : ctaid=(5,0,0) tid=(31,0,0)
GPGPU-Sim uArch: cycles simulated: 8500  inst.: 2138336 (ipc=251.6) sim_rate=305476 (inst/sec) elapsed = 0:0:00:07 / Tue Mar 22 07:02:07 2016
GPGPU-Sim PTX: 2200000 instructions simulated : ctaid=(29,0,0) tid=(95,0,0)
GPGPU-Sim PTX: 2300000 instructions simulated : ctaid=(28,0,0) tid=(127,0,0)
GPGPU-Sim PTX: 2400000 instructions simulated : ctaid=(12,0,0) tid=(31,0,0)
GPGPU-Sim PTX: 2500000 instructions simulated : ctaid=(20,0,0) tid=(63,0,0)
GPGPU-Sim PTX: 2600000 instructions simulated : ctaid=(27,0,0) tid=(95,0,0)
GPGPU-Sim PTX: 2700000 instructions simulated : ctaid=(29,0,0) tid=(127,0,0)
GPGPU-Sim uArch: cycles simulated: 10000  inst.: 2739968 (ipc=274.0) sim_rate=342496 (inst/sec) elapsed = 0:0:00:08 / Tue Mar 22 07:02:08 2016
GPGPU-Sim PTX: 2800000 instructions simulated : ctaid=(3,0,0) tid=(95,0,0)
GPGPU-Sim PTX: 2900000 instructions simulated : ctaid=(7,0,0) tid=(31,0,0)
GPGPU-Sim PTX: 3000000 instructions simulated : ctaid=(17,0,0) tid=(127,0,0)
GPGPU-Sim PTX: 3100000 instructions simulated : ctaid=(6,0,0) tid=(31,0,0)
GPGPU-Sim PTX: 3200000 instructions simulated : ctaid=(17,0,0) tid=(31,0,0)
GPGPU-Sim PTX: 3300000 instructions simulated : ctaid=(21,0,0) tid=(63,0,0)
GPGPU-Sim uArch: cycles simulated: 11500  inst.: 3350720 (ipc=291.4) sim_rate=372302 (inst/sec) elapsed = 0:0:00:09 / Tue Mar 22 07:02:09 2016
GPGPU-Sim PTX: 3400000 instructions simulated : ctaid=(27,0,0) tid=(127,0,0)
GPGPU-Sim PTX: 3500000 instructions simulated : ctaid=(4,0,0) tid=(31,0,0)
GPGPU-Sim PTX: 3600000 instructions simulated : ctaid=(16,0,0) tid=(63,0,0)
GPGPU-Sim PTX: 3700000 instructions simulated : ctaid=(26,0,0) tid=(31,0,0)
GPGPU-Sim uArch: cycles simulated: 12500  inst.: 3760416 (ipc=300.8) sim_rate=376041 (inst/sec) elapsed = 0:0:00:10 / Tue Mar 22 07:02:10 2016
GPGPU-Sim PTX: 3800000 instructions simulated : ctaid=(4,0,0) tid=(31,0,0)
GPGPU-Sim PTX: 3900000 instructions simulated : ctaid=(17,0,0) tid=(127,0,0)
GPGPU-Sim PTX: 4000000 instructions simulated : ctaid=(13,0,0) tid=(63,0,0)
GPGPU-Sim PTX: 4100000 instructions simulated : ctaid=(6,0,0) tid=(95,0,0)
GPGPU-Sim PTX: 4200000 instructions simulated : ctaid=(19,0,0) tid=(127,0,0)
GPGPU-Sim PTX: 4300000 instructions simulated : ctaid=(22,0,0) tid=(127,0,0)
GPGPU-Sim uArch: cycles simulated: 14000  inst.: 4367520 (ipc=312.0) sim_rate=397047 (inst/sec) elapsed = 0:0:00:11 / Tue Mar 22 07:02:11 2016
GPGPU-Sim PTX: 4400000 instructions simulated : ctaid=(5,0,0) tid=(31,0,0)
GPGPU-Sim PTX: 4500000 instructions simulated : ctaid=(28,0,0) tid=(31,0,0)
GPGPU-Sim PTX: 4600000 instructions simulated : ctaid=(20,0,0) tid=(31,0,0)
GPGPU-Sim PTX: 4700000 instructions simulated : ctaid=(3,0,0) tid=(127,0,0)
GPGPU-Sim PTX: 4800000 instructions simulated : ctaid=(2,0,0) tid=(31,0,0)
GPGPU-Sim PTX: 4900000 instructions simulated : ctaid=(8,0,0) tid=(63,0,0)
GPGPU-Sim PTX: 5000000 instructions simulated : ctaid=(29,0,0) tid=(127,0,0)
GPGPU-Sim uArch: cycles simulated: 15500  inst.: 4996352 (ipc=322.3) sim_rate=416362 (inst/sec) elapsed = 0:0:00:12 / Tue Mar 22 07:02:12 2016
GPGPU-Sim PTX: 5100000 instructions simulated : ctaid=(6,0,0) tid=(31,0,0)
GPGPU-Sim PTX: 5200000 instructions simulated : ctaid=(18,0,0) tid=(95,0,0)
GPGPU-Sim PTX: 5300000 instructions simulated : ctaid=(20,0,0) tid=(95,0,0)
GPGPU-Sim PTX: 5400000 instructions simulated : ctaid=(12,0,0) tid=(31,0,0)
GPGPU-Sim PTX: 5500000 instructions simulated : ctaid=(13,0,0) tid=(31,0,0)
GPGPU-Sim PTX: 5600000 instructions simulated : ctaid=(13,0,0) tid=(63,0,0)
GPGPU-Sim uArch: cycles simulated: 17000  inst.: 5631712 (ipc=331.3) sim_rate=433208 (inst/sec) elapsed = 0:0:00:13 / Tue Mar 22 07:02:13 2016
GPGPU-Sim PTX: 5700000 instructions simulated : ctaid=(20,0,0) tid=(95,0,0)
GPGPU-Sim PTX: 5800000 instructions simulated : ctaid=(24,0,0) tid=(63,0,0)
GPGPU-Sim PTX: 5900000 instructions simulated : ctaid=(9,0,0) tid=(95,0,0)
GPGPU-Sim PTX: 6000000 instructions simulated : ctaid=(15,0,0) tid=(127,0,0)
GPGPU-Sim PTX: 6100000 instructions simulated : ctaid=(14,0,0) tid=(63,0,0)
GPGPU-Sim PTX: 6200000 instructions simulated : ctaid=(6,0,0) tid=(95,0,0)
GPGPU-Sim uArch: cycles simulated: 18500  inst.: 6252192 (ipc=338.0) sim_rate=446585 (inst/sec) elapsed = 0:0:00:14 / Tue Mar 22 07:02:14 2016
GPGPU-Sim PTX: 6300000 instructions simulated : ctaid=(10,0,0) tid=(63,0,0)
GPGPU-Sim PTX: 6400000 instructions simulated : ctaid=(28,0,0) tid=(63,0,0)
GPGPU-Sim PTX: 6500000 instructions simulated : ctaid=(27,0,0) tid=(31,0,0)
GPGPU-Sim PTX: 6600000 instructions simulated : ctaid=(12,0,0) tid=(63,0,0)
GPGPU-Sim uArch: cycles simulated: 19500  inst.: 6677600 (ipc=342.4) sim_rate=445173 (inst/sec) elapsed = 0:0:00:15 / Tue Mar 22 07:02:15 2016
GPGPU-Sim PTX: 6700000 instructions simulated : ctaid=(29,0,0) tid=(31,0,0)
GPGPU-Sim PTX: 6800000 instructions simulated : ctaid=(9,0,0) tid=(63,0,0)
GPGPU-Sim PTX: 6900000 instructions simulated : ctaid=(26,0,0) tid=(127,0,0)
GPGPU-Sim PTX: 7000000 instructions simulated : ctaid=(0,0,0) tid=(127,0,0)
GPGPU-Sim PTX: 7100000 instructions simulated : ctaid=(6,0,0) tid=(95,0,0)
GPGPU-Sim PTX: 7200000 instructions simulated : ctaid=(27,0,0) tid=(31,0,0)
GPGPU-Sim PTX: 7300000 instructions simulated : ctaid=(21,0,0) tid=(127,0,0)
GPGPU-Sim uArch: cycles simulated: 21000  inst.: 7292448 (ipc=347.3) sim_rate=455778 (inst/sec) elapsed = 0:0:00:16 / Tue Mar 22 07:02:16 2016
GPGPU-Sim PTX: 7400000 instructions simulated : ctaid=(15,0,0) tid=(95,0,0)
GPGPU-Sim PTX: 7500000 instructions simulated : ctaid=(5,0,0) tid=(31,0,0)
GPGPU-Sim PTX: 7600000 instructions simulated : ctaid=(20,0,0) tid=(95,0,0)
GPGPU-Sim PTX: 7700000 instructions simulated : ctaid=(15,0,0) tid=(63,0,0)
GPGPU-Sim PTX: 7800000 instructions simulated : ctaid=(3,0,0) tid=(31,0,0)
GPGPU-Sim PTX: 7900000 instructions simulated : ctaid=(7,0,0) tid=(95,0,0)
GPGPU-Sim uArch: cycles simulated: 22500  inst.: 7916224 (ipc=351.8) sim_rate=465660 (inst/sec) elapsed = 0:0:00:17 / Tue Mar 22 07:02:17 2016
GPGPU-Sim PTX: 8000000 instructions simulated : ctaid=(10,0,0) tid=(63,0,0)
GPGPU-Sim PTX: 8100000 instructions simulated : ctaid=(23,0,0) tid=(63,0,0)
GPGPU-Sim PTX: 8200000 instructions simulated : ctaid=(22,0,0) tid=(95,0,0)
GPGPU-Sim PTX: 8300000 instructions simulated : ctaid=(26,0,0) tid=(95,0,0)
GPGPU-Sim PTX: 8400000 instructions simulated : ctaid=(0,0,0) tid=(63,0,0)
GPGPU-Sim PTX: 8500000 instructions simulated : ctaid=(13,0,0) tid=(63,0,0)
GPGPU-Sim uArch: cycles simulated: 24000  inst.: 8550656 (ipc=356.3) sim_rate=475036 (inst/sec) elapsed = 0:0:00:18 / Tue Mar 22 07:02:18 2016
GPGPU-Sim PTX: 8600000 instructions simulated : ctaid=(23,0,0) tid=(31,0,0)
GPGPU-Sim PTX: 8700000 instructions simulated : ctaid=(11,0,0) tid=(95,0,0)
GPGPU-Sim PTX: 8800000 instructions simulated : ctaid=(29,0,0) tid=(31,0,0)
GPGPU-Sim PTX: 8900000 instructions simulated : ctaid=(19,0,0) tid=(31,0,0)
GPGPU-Sim uArch: cycles simulated: 25000  inst.: 8969120 (ipc=358.8) sim_rate=472058 (inst/sec) elapsed = 0:0:00:19 / Tue Mar 22 07:02:19 2016
GPGPU-Sim PTX: 9000000 instructions simulated : ctaid=(29,0,0) tid=(31,0,0)
GPGPU-Sim PTX: 9100000 instructions simulated : ctaid=(2,0,0) tid=(95,0,0)
GPGPU-Sim PTX: 9200000 instructions simulated : ctaid=(27,0,0) tid=(95,0,0)
GPGPU-Sim PTX: 9300000 instructions simulated : ctaid=(4,0,0) tid=(95,0,0)
GPGPU-Sim PTX: 9400000 instructions simulated : ctaid=(15,0,0) tid=(31,0,0)
GPGPU-Sim PTX: 9500000 instructions simulated : ctaid=(29,0,0) tid=(127,0,0)
GPGPU-Sim PTX: 9600000 instructions simulated : ctaid=(3,0,0) tid=(95,0,0)
GPGPU-Sim uArch: cycles simulated: 26500  inst.: 9605152 (ipc=362.5) sim_rate=480257 (inst/sec) elapsed = 0:0:00:20 / Tue Mar 22 07:02:20 2016
GPGPU-Sim PTX: 9700000 instructions simulated : ctaid=(25,0,0) tid=(95,0,0)
GPGPU-Sim PTX: 9800000 instructions simulated : ctaid=(11,0,0) tid=(95,0,0)
GPGPU-Sim PTX: 9900000 instructions simulated : ctaid=(21,0,0) tid=(127,0,0)
GPGPU-Sim PTX: 10000000 instructions simulated : ctaid=(2,0,0) tid=(127,0,0)
GPGPU-Sim PTX: 10100000 instructions simulated : ctaid=(0,0,0) tid=(95,0,0)
GPGPU-Sim PTX: 10200000 instructions simulated : ctaid=(26,0,0) tid=(127,0,0)
GPGPU-Sim uArch: cycles simulated: 28000  inst.: 10228064 (ipc=365.3) sim_rate=487050 (inst/sec) elapsed = 0:0:00:21 / Tue Mar 22 07:02:21 2016
GPGPU-Sim PTX: 10300000 instructions simulated : ctaid=(10,0,0) tid=(127,0,0)
GPGPU-Sim PTX: 10400000 instructions simulated : ctaid=(29,0,0) tid=(31,0,0)
GPGPU-Sim PTX: 10500000 instructions simulated : ctaid=(1,0,0) tid=(127,0,0)
GPGPU-Sim PTX: 10600000 instructions simulated : ctaid=(21,0,0) tid=(127,0,0)
GPGPU-Sim uArch: cycles simulated: 29000  inst.: 10662624 (ipc=367.7) sim_rate=484664 (inst/sec) elapsed = 0:0:00:22 / Tue Mar 22 07:02:22 2016
GPGPU-Sim PTX: 10700000 instructions simulated : ctaid=(9,0,0) tid=(127,0,0)
GPGPU-Sim PTX: 10800000 instructions simulated : ctaid=(26,0,0) tid=(63,0,0)
GPGPU-Sim PTX: 10900000 instructions simulated : ctaid=(17,0,0) tid=(31,0,0)
GPGPU-Sim PTX: 11000000 instructions simulated : ctaid=(4,0,0) tid=(95,0,0)
GPGPU-Sim PTX: 11100000 instructions simulated : ctaid=(13,0,0) tid=(31,0,0)
GPGPU-Sim PTX: 11200000 instructions simulated : ctaid=(18,0,0) tid=(127,0,0)
GPGPU-Sim uArch: cycles simulated: 30500  inst.: 11286528 (ipc=370.1) sim_rate=490718 (inst/sec) elapsed = 0:0:00:23 / Tue Mar 22 07:02:23 2016
GPGPU-Sim PTX: 11300000 instructions simulated : ctaid=(22,0,0) tid=(31,0,0)
GPGPU-Sim PTX: 11400000 instructions simulated : ctaid=(10,0,0) tid=(127,0,0)
GPGPU-Sim PTX: 11500000 instructions simulated : ctaid=(0,0,0) tid=(95,0,0)
GPGPU-Sim PTX: 11600000 instructions simulated : ctaid=(8,0,0) tid=(127,0,0)
GPGPU-Sim PTX: 11700000 instructions simulated : ctaid=(15,0,0) tid=(31,0,0)
GPGPU-Sim PTX: 11800000 instructions simulated : ctaid=(3,0,0) tid=(31,0,0)
GPGPU-Sim PTX: 11900000 instructions simulated : ctaid=(7,0,0) tid=(63,0,0)
GPGPU-Sim uArch: cycles simulated: 32000  inst.: 11918496 (ipc=372.5) sim_rate=496604 (inst/sec) elapsed = 0:0:00:24 / Tue Mar 22 07:02:24 2016
GPGPU-Sim PTX: 12000000 instructions simulated : ctaid=(19,0,0) tid=(31,0,0)
GPGPU-Sim PTX: 12100000 instructions simulated : ctaid=(9,0,0) tid=(31,0,0)
GPGPU-Sim PTX: 12200000 instructions simulated : ctaid=(14,0,0) tid=(31,0,0)
GPGPU-Sim uArch: Shader 2 finished CTA #0 (32661,0), 7 CTAs running
GPGPU-Sim uArch: core:  2, cta: 0 initialized @(32662,0)
GPGPU-Sim PTX: 12300000 instructions simulated : ctaid=(2,0,0) tid=(31,0,0)
GPGPU-Sim uArch: cycles simulated: 33000  inst.: 12368832 (ipc=374.8) sim_rate=494753 (inst/sec) elapsed = 0:0:00:25 / Tue Mar 22 07:02:25 2016
GPGPU-Sim PTX: 12400000 instructions simulated : ctaid=(40,0,0) tid=(31,0,0)
GPGPU-Sim uArch: Shader 11 finished CTA #1 (33125,0), 7 CTAs running
GPGPU-Sim uArch: core: 11, cta: 1 initialized @(33126,0)
GPGPU-Sim uArch: Shader 10 finished CTA #0 (33143,0), 7 CTAs running
GPGPU-Sim uArch: core: 10, cta: 0 initialized @(33144,0)
GPGPU-Sim uArch: Shader 5 finished CTA #1 (33149,0), 7 CTAs running
GPGPU-Sim uArch: core:  5, cta: 1 initialized @(33150,0)
GPGPU-Sim uArch: Shader 14 finished CTA #0 (33199,0), 7 CTAs running
GPGPU-Sim uArch: core: 14, cta: 0 initialized @(33200,0)
GPGPU-Sim PTX: 12500000 instructions simulated : ctaid=(36,0,0) tid=(127,0,0)
GPGPU-Sim uArch: Shader 13 finished CTA #1 (33231,0), 7 CTAs running
GPGPU-Sim uArch: core: 13, cta: 1 initialized @(33232,0)
GPGPU-Sim uArch: Shader 8 finished CTA #0 (33252,0), 7 CTAs running
GPGPU-Sim uArch: core:  8, cta: 0 initialized @(33253,0)
GPGPU-Sim uArch: Shader 13 finished CTA #0 (33255,0), 7 CTAs running
GPGPU-Sim uArch: core: 13, cta: 0 initialized @(33256,0)
GPGPU-Sim uArch: Shader 4 finished CTA #0 (33289,0), 7 CTAs running
GPGPU-Sim uArch: core:  4, cta: 0 initialized @(33290,0)
GPGPU-Sim uArch: Shader 1 finished CTA #0 (33316,0), 7 CTAs running
GPGPU-Sim uArch: core:  1, cta: 0 initialized @(33317,0)
GPGPU-Sim uArch: Shader 7 finished CTA #1 (33388,0), 7 CTAs running
GPGPU-Sim uArch: core:  7, cta: 1 initialized @(33389,0)
GPGPU-Sim uArch: Shader 7 finished CTA #0 (33398,0), 7 CTAs running
GPGPU-Sim uArch: core:  7, cta: 0 initialized @(33399,0)
GPGPU-Sim PTX: 12600000 instructions simulated : ctaid=(57,0,0) tid=(95,0,0)
GPGPU-Sim uArch: Shader 4 finished CTA #1 (33630,0), 7 CTAs running
GPGPU-Sim uArch: core:  4, cta: 1 initialized @(33631,0)
GPGPU-Sim uArch: Shader 10 finished CTA #1 (33639,0), 7 CTAs running
GPGPU-Sim uArch: core: 10, cta: 1 initialized @(33640,0)
GPGPU-Sim PTX: 12700000 instructions simulated : ctaid=(44,0,0) tid=(95,0,0)
GPGPU-Sim uArch: Shader 12 finished CTA #0 (33731,0), 7 CTAs running
GPGPU-Sim uArch: core: 12, cta: 0 initialized @(33732,0)
GPGPU-Sim uArch: Shader 1 finished CTA #1 (33761,0), 7 CTAs running
GPGPU-Sim uArch: core:  1, cta: 1 initialized @(33762,0)
GPGPU-Sim uArch: Shader 9 finished CTA #0 (33765,0), 7 CTAs running
GPGPU-Sim uArch: core:  9, cta: 0 initialized @(33766,0)
GPGPU-Sim uArch: Shader 6 finished CTA #0 (33777,0), 7 CTAs running
GPGPU-Sim uArch: core:  6, cta: 0 initialized @(33778,0)
GPGPU-Sim uArch: Shader 0 finished CTA #0 (33802,0), 7 CTAs running
GPGPU-Sim uArch: core:  0, cta: 0 initialized @(33803,0)
GPGPU-Sim uArch: Shader 0 finished CTA #1 (33807,0), 7 CTAs running
GPGPU-Sim uArch: core:  0, cta: 1 initialized @(33808,0)
GPGPU-Sim uArch: Shader 9 finished CTA #1 (33845,0), 7 CTAs running
GPGPU-Sim uArch: core:  9, cta: 1 initialized @(33846,0)
GPGPU-Sim PTX: 12800000 instructions simulated : ctaid=(40,0,0) tid=(63,0,0)
GPGPU-Sim uArch: Shader 6 finished CTA #1 (33921,0), 7 CTAs running
GPGPU-Sim uArch: core:  6, cta: 1 initialized @(33922,0)
GPGPU-Sim uArch: Shader 3 finished CTA #1 (33993,0), 7 CTAs running
GPGPU-Sim uArch: core:  3, cta: 1 initialized @(33994,0)
GPGPU-Sim uArch: cycles simulated: 34000  inst.: 12823872 (ipc=377.2) sim_rate=493225 (inst/sec) elapsed = 0:0:00:26 / Tue Mar 22 07:02:26 2016
GPGPU-Sim uArch: Shader 12 finished CTA #1 (34023,0), 7 CTAs running
GPGPU-Sim uArch: core: 12, cta: 1 initialized @(34024,0)
GPGPU-Sim uArch: Shader 14 finished CTA #1 (34024,0), 7 CTAs running
GPGPU-Sim uArch: core: 14, cta: 1 initialized @(34025,0)
GPGPU-Sim uArch: Shader 3 finished CTA #0 (34062,0), 7 CTAs running
GPGPU-Sim uArch: core:  3, cta: 0 initialized @(34063,0)
GPGPU-Sim PTX: 12900000 instructions simulated : ctaid=(49,0,0) tid=(63,0,0)
GPGPU-Sim uArch: Shader 5 finished CTA #0 (34127,0), 7 CTAs running
GPGPU-Sim uArch: core:  5, cta: 0 initialized @(34128,0)
GPGPU-Sim uArch: Shader 11 finished CTA #0 (34206,0), 7 CTAs running
GPGPU-Sim uArch: core: 11, cta: 0 initialized @(34207,0)
GPGPU-Sim uArch: Shader 8 finished CTA #1 (34271,0), 7 CTAs running
GPGPU-Sim uArch: core:  8, cta: 1 initialized @(34272,0)
GPGPU-Sim uArch: Shader 2 finished CTA #1 (34308,0), 7 CTAs running
GPGPU-Sim uArch: core:  2, cta: 1 initialized @(34309,0)
GPGPU-Sim PTX: 13000000 instructions simulated : ctaid=(36,0,0) tid=(63,0,0)
GPGPU-Sim PTX: 13100000 instructions simulated : ctaid=(52,0,0) tid=(127,0,0)
GPGPU-Sim PTX: 13200000 instructions simulated : ctaid=(35,0,0) tid=(127,0,0)
GPGPU-Sim PTX: 13300000 instructions simulated : ctaid=(58,0,0) tid=(31,0,0)
GPGPU-Sim PTX: 13400000 instructions simulated : ctaid=(32,0,0) tid=(31,0,0)
GPGPU-Sim uArch: cycles simulated: 35500  inst.: 13472832 (ipc=379.5) sim_rate=498993 (inst/sec) elapsed = 0:0:00:27 / Tue Mar 22 07:02:27 2016
GPGPU-Sim PTX: 13500000 instructions simulated : ctaid=(44,0,0) tid=(31,0,0)
GPGPU-Sim PTX: 13600000 instructions simulated : ctaid=(50,0,0) tid=(31,0,0)
GPGPU-Sim PTX: 13700000 instructions simulated : ctaid=(47,0,0) tid=(95,0,0)
GPGPU-Sim PTX: 13800000 instructions simulated : ctaid=(48,0,0) tid=(63,0,0)
GPGPU-Sim PTX: 13900000 instructions simulated : ctaid=(45,0,0) tid=(95,0,0)
GPGPU-Sim uArch: cycles simulated: 36500  inst.: 13906688 (ipc=381.0) sim_rate=496667 (inst/sec) elapsed = 0:0:00:28 / Tue Mar 22 07:02:28 2016
GPGPU-Sim PTX: 14000000 instructions simulated : ctaid=(41,0,0) tid=(31,0,0)
GPGPU-Sim PTX: 14100000 instructions simulated : ctaid=(47,0,0) tid=(127,0,0)
GPGPU-Sim PTX: 14200000 instructions simulated : ctaid=(32,0,0) tid=(63,0,0)
GPGPU-Sim PTX: 14300000 instructions simulated : ctaid=(32,0,0) tid=(127,0,0)
GPGPU-Sim uArch: cycles simulated: 37500  inst.: 14348512 (ipc=382.6) sim_rate=494776 (inst/sec) elapsed = 0:0:00:29 / Tue Mar 22 07:02:29 2016
GPGPU-Sim PTX: 14400000 instructions simulated : ctaid=(36,0,0) tid=(127,0,0)
GPGPU-Sim PTX: 14500000 instructions simulated : ctaid=(52,0,0) tid=(127,0,0)
GPGPU-Sim PTX: 14600000 instructions simulated : ctaid=(46,0,0) tid=(127,0,0)
GPGPU-Sim PTX: 14700000 instructions simulated : ctaid=(30,0,0) tid=(63,0,0)
GPGPU-Sim PTX: 14800000 instructions simulated : ctaid=(47,0,0) tid=(63,0,0)
GPGPU-Sim PTX: 14900000 instructions simulated : ctaid=(49,0,0) tid=(63,0,0)
GPGPU-Sim PTX: 15000000 instructions simulated : ctaid=(49,0,0) tid=(127,0,0)
GPGPU-Sim uArch: cycles simulated: 39000  inst.: 15009440 (ipc=384.9) sim_rate=500314 (inst/sec) elapsed = 0:0:00:30 / Tue Mar 22 07:02:30 2016
GPGPU-Sim PTX: 15100000 instructions simulated : ctaid=(45,0,0) tid=(127,0,0)
GPGPU-Sim PTX: 15200000 instructions simulated : ctaid=(49,0,0) tid=(63,0,0)
GPGPU-Sim PTX: 15300000 instructions simulated : ctaid=(57,0,0) tid=(31,0,0)
GPGPU-Sim PTX: 15400000 instructions simulated : ctaid=(32,0,0) tid=(127,0,0)
GPGPU-Sim uArch: cycles simulated: 40000  inst.: 15457632 (ipc=386.4) sim_rate=498633 (inst/sec) elapsed = 0:0:00:31 / Tue Mar 22 07:02:31 2016
GPGPU-Sim PTX: 15500000 instructions simulated : ctaid=(31,0,0) tid=(127,0,0)
GPGPU-Sim PTX: 15600000 instructions simulated : ctaid=(33,0,0) tid=(63,0,0)
GPGPU-Sim PTX: 15700000 instructions simulated : ctaid=(31,0,0) tid=(31,0,0)
GPGPU-Sim PTX: 15800000 instructions simulated : ctaid=(49,0,0) tid=(95,0,0)
GPGPU-Sim PTX: 15900000 instructions simulated : ctaid=(33,0,0) tid=(31,0,0)
GPGPU-Sim PTX: 16000000 instructions simulated : ctaid=(30,0,0) tid=(127,0,0)
GPGPU-Sim PTX: 16100000 instructions simulated : ctaid=(55,0,0) tid=(95,0,0)
GPGPU-Sim uArch: cycles simulated: 41500  inst.: 16113120 (ipc=388.3) sim_rate=503535 (inst/sec) elapsed = 0:0:00:32 / Tue Mar 22 07:02:32 2016
GPGPU-Sim PTX: 16200000 instructions simulated : ctaid=(47,0,0) tid=(63,0,0)
GPGPU-Sim PTX: 16300000 instructions simulated : ctaid=(54,0,0) tid=(31,0,0)
GPGPU-Sim PTX: 16400000 instructions simulated : ctaid=(33,0,0) tid=(127,0,0)
GPGPU-Sim PTX: 16500000 instructions simulated : ctaid=(35,0,0) tid=(127,0,0)
GPGPU-Sim uArch: cycles simulated: 42500  inst.: 16550720 (ipc=389.4) sim_rate=501536 (inst/sec) elapsed = 0:0:00:33 / Tue Mar 22 07:02:33 2016
GPGPU-Sim PTX: 16600000 instructions simulated : ctaid=(44,0,0) tid=(127,0,0)
GPGPU-Sim PTX: 16700000 instructions simulated : ctaid=(44,0,0) tid=(31,0,0)
GPGPU-Sim PTX: 16800000 instructions simulated : ctaid=(53,0,0) tid=(63,0,0)
GPGPU-Sim PTX: 16900000 instructions simulated : ctaid=(55,0,0) tid=(95,0,0)
GPGPU-Sim PTX: 17000000 instructions simulated : ctaid=(43,0,0) tid=(95,0,0)
GPGPU-Sim uArch: cycles simulated: 43500  inst.: 16996864 (ipc=390.7) sim_rate=499907 (inst/sec) elapsed = 0:0:00:34 / Tue Mar 22 07:02:34 2016
GPGPU-Sim PTX: 17100000 instructions simulated : ctaid=(36,0,0) tid=(63,0,0)
GPGPU-Sim PTX: 17200000 instructions simulated : ctaid=(51,0,0) tid=(31,0,0)
GPGPU-Sim PTX: 17300000 instructions simulated : ctaid=(35,0,0) tid=(95,0,0)
GPGPU-Sim PTX: 17400000 instructions simulated : ctaid=(41,0,0) tid=(127,0,0)
GPGPU-Sim PTX: 17500000 instructions simulated : ctaid=(47,0,0) tid=(63,0,0)
GPGPU-Sim PTX: 17600000 instructions simulated : ctaid=(52,0,0) tid=(95,0,0)
GPGPU-Sim uArch: cycles simulated: 45000  inst.: 17662240 (ipc=392.5) sim_rate=504635 (inst/sec) elapsed = 0:0:00:35 / Tue Mar 22 07:02:35 2016
GPGPU-Sim PTX: 17700000 instructions simulated : ctaid=(56,0,0) tid=(63,0,0)
GPGPU-Sim PTX: 17800000 instructions simulated : ctaid=(31,0,0) tid=(95,0,0)
GPGPU-Sim PTX: 17900000 instructions simulated : ctaid=(53,0,0) tid=(95,0,0)
GPGPU-Sim PTX: 18000000 instructions simulated : ctaid=(37,0,0) tid=(63,0,0)
GPGPU-Sim PTX: 18100000 instructions simulated : ctaid=(59,0,0) tid=(127,0,0)
GPGPU-Sim uArch: cycles simulated: 46000  inst.: 18107520 (ipc=393.6) sim_rate=502986 (inst/sec) elapsed = 0:0:00:36 / Tue Mar 22 07:02:36 2016
GPGPU-Sim PTX: 18200000 instructions simulated : ctaid=(55,0,0) tid=(31,0,0)
GPGPU-Sim PTX: 18300000 instructions simulated : ctaid=(41,0,0) tid=(63,0,0)
GPGPU-Sim PTX: 18400000 instructions simulated : ctaid=(59,0,0) tid=(95,0,0)
GPGPU-Sim PTX: 18500000 instructions simulated : ctaid=(51,0,0) tid=(63,0,0)
GPGPU-Sim uArch: cycles simulated: 47000  inst.: 18546304 (ipc=394.6) sim_rate=501251 (inst/sec) elapsed = 0:0:00:37 / Tue Mar 22 07:02:37 2016
GPGPU-Sim PTX: 18600000 instructions simulated : ctaid=(34,0,0) tid=(127,0,0)
GPGPU-Sim PTX: 18700000 instructions simulated : ctaid=(33,0,0) tid=(127,0,0)
GPGPU-Sim PTX: 18800000 instructions simulated : ctaid=(56,0,0) tid=(63,0,0)
GPGPU-Sim PTX: 18900000 instructions simulated : ctaid=(50,0,0) tid=(95,0,0)
GPGPU-Sim PTX: 19000000 instructions simulated : ctaid=(59,0,0) tid=(127,0,0)
GPGPU-Sim PTX: 19100000 instructions simulated : ctaid=(47,0,0) tid=(63,0,0)
GPGPU-Sim PTX: 19200000 instructions simulated : ctaid=(30,0,0) tid=(31,0,0)
GPGPU-Sim uArch: cycles simulated: 48500  inst.: 19206400 (ipc=396.0) sim_rate=505431 (inst/sec) elapsed = 0:0:00:38 / Tue Mar 22 07:02:38 2016
GPGPU-Sim PTX: 19300000 instructions simulated : ctaid=(44,0,0) tid=(127,0,0)
GPGPU-Sim PTX: 19400000 instructions simulated : ctaid=(54,0,0) tid=(127,0,0)
GPGPU-Sim PTX: 19500000 instructions simulated : ctaid=(31,0,0) tid=(63,0,0)
GPGPU-Sim PTX: 19600000 instructions simulated : ctaid=(54,0,0) tid=(63,0,0)
GPGPU-Sim uArch: cycles simulated: 49500  inst.: 19649088 (ipc=397.0) sim_rate=503822 (inst/sec) elapsed = 0:0:00:39 / Tue Mar 22 07:02:39 2016
GPGPU-Sim PTX: 19700000 instructions simulated : ctaid=(39,0,0) tid=(95,0,0)
GPGPU-Sim PTX: 19800000 instructions simulated : ctaid=(36,0,0) tid=(127,0,0)
GPGPU-Sim PTX: 19900000 instructions simulated : ctaid=(59,0,0) tid=(63,0,0)
GPGPU-Sim PTX: 20000000 instructions simulated : ctaid=(59,0,0) tid=(95,0,0)
GPGPU-Sim PTX: 20100000 instructions simulated : ctaid=(54,0,0) tid=(63,0,0)
GPGPU-Sim uArch: cycles simulated: 50500  inst.: 20090816 (ipc=397.8) sim_rate=502270 (inst/sec) elapsed = 0:0:00:40 / Tue Mar 22 07:02:40 2016
GPGPU-Sim PTX: 20200000 instructions simulated : ctaid=(46,0,0) tid=(95,0,0)
GPGPU-Sim PTX: 20300000 instructions simulated : ctaid=(53,0,0) tid=(31,0,0)
GPGPU-Sim PTX: 20400000 instructions simulated : ctaid=(57,0,0) tid=(31,0,0)
GPGPU-Sim PTX: 20500000 instructions simulated : ctaid=(59,0,0) tid=(63,0,0)
GPGPU-Sim PTX: 20600000 instructions simulated : ctaid=(38,0,0) tid=(63,0,0)
GPGPU-Sim PTX: 20700000 instructions simulated : ctaid=(49,0,0) tid=(95,0,0)
GPGPU-Sim uArch: cycles simulated: 52000  inst.: 20749920 (ipc=399.0) sim_rate=506095 (inst/sec) elapsed = 0:0:00:41 / Tue Mar 22 07:02:41 2016
GPGPU-Sim PTX: 20800000 instructions simulated : ctaid=(35,0,0) tid=(127,0,0)
GPGPU-Sim PTX: 20900000 instructions simulated : ctaid=(43,0,0) tid=(63,0,0)
GPGPU-Sim PTX: 21000000 instructions simulated : ctaid=(41,0,0) tid=(31,0,0)
GPGPU-Sim PTX: 21100000 instructions simulated : ctaid=(41,0,0) tid=(95,0,0)
GPGPU-Sim PTX: 21200000 instructions simulated : ctaid=(51,0,0) tid=(31,0,0)
GPGPU-Sim uArch: cycles simulated: 53000  inst.: 21196672 (ipc=399.9) sim_rate=504682 (inst/sec) elapsed = 0:0:00:42 / Tue Mar 22 07:02:42 2016
GPGPU-Sim PTX: 21300000 instructions simulated : ctaid=(55,0,0) tid=(127,0,0)
GPGPU-Sim PTX: 21400000 instructions simulated : ctaid=(59,0,0) tid=(63,0,0)
GPGPU-Sim PTX: 21500000 instructions simulated : ctaid=(32,0,0) tid=(127,0,0)
GPGPU-Sim PTX: 21600000 instructions simulated : ctaid=(40,0,0) tid=(31,0,0)
GPGPU-Sim PTX: 21700000 instructions simulated : ctaid=(54,0,0) tid=(95,0,0)
GPGPU-Sim PTX: 21800000 instructions simulated : ctaid=(45,0,0) tid=(63,0,0)
GPGPU-Sim uArch: cycles simulated: 54500  inst.: 21865120 (ipc=401.2) sim_rate=508491 (inst/sec) elapsed = 0:0:00:43 / Tue Mar 22 07:02:43 2016
GPGPU-Sim PTX: 21900000 instructions simulated : ctaid=(53,0,0) tid=(95,0,0)
GPGPU-Sim PTX: 22000000 instructions simulated : ctaid=(38,0,0) tid=(63,0,0)
GPGPU-Sim PTX: 22100000 instructions simulated : ctaid=(57,0,0) tid=(95,0,0)
GPGPU-Sim PTX: 22200000 instructions simulated : ctaid=(54,0,0) tid=(31,0,0)
GPGPU-Sim PTX: 22300000 instructions simulated : ctaid=(59,0,0) tid=(95,0,0)
GPGPU-Sim uArch: cycles simulated: 55500  inst.: 22305824 (ipc=401.9) sim_rate=506950 (inst/sec) elapsed = 0:0:00:44 / Tue Mar 22 07:02:44 2016
GPGPU-Sim PTX: 22400000 instructions simulated : ctaid=(39,0,0) tid=(127,0,0)
GPGPU-Sim PTX: 22500000 instructions simulated : ctaid=(30,0,0) tid=(63,0,0)
GPGPU-Sim PTX: 22600000 instructions simulated : ctaid=(42,0,0) tid=(63,0,0)
GPGPU-Sim PTX: 22700000 instructions simulated : ctaid=(41,0,0) tid=(63,0,0)
GPGPU-Sim uArch: cycles simulated: 56500  inst.: 22746560 (ipc=402.6) sim_rate=505479 (inst/sec) elapsed = 0:0:00:45 / Tue Mar 22 07:02:45 2016
GPGPU-Sim PTX: 22800000 instructions simulated : ctaid=(53,0,0) tid=(31,0,0)
GPGPU-Sim PTX: 22900000 instructions simulated : ctaid=(40,0,0) tid=(95,0,0)
GPGPU-Sim PTX: 23000000 instructions simulated : ctaid=(46,0,0) tid=(31,0,0)
GPGPU-Sim PTX: 23100000 instructions simulated : ctaid=(42,0,0) tid=(127,0,0)
GPGPU-Sim PTX: 23200000 instructions simulated : ctaid=(50,0,0) tid=(31,0,0)
GPGPU-Sim PTX: 23300000 instructions simulated : ctaid=(43,0,0) tid=(95,0,0)
GPGPU-Sim PTX: 23400000 instructions simulated : ctaid=(34,0,0) tid=(127,0,0)
GPGPU-Sim uArch: cycles simulated: 58000  inst.: 23413696 (ipc=403.7) sim_rate=508993 (inst/sec) elapsed = 0:0:00:46 / Tue Mar 22 07:02:46 2016
GPGPU-Sim PTX: 23500000 instructions simulated : ctaid=(33,0,0) tid=(95,0,0)
GPGPU-Sim PTX: 23600000 instructions simulated : ctaid=(49,0,0) tid=(31,0,0)
GPGPU-Sim PTX: 23700000 instructions simulated : ctaid=(40,0,0) tid=(95,0,0)
GPGPU-Sim PTX: 23800000 instructions simulated : ctaid=(44,0,0) tid=(31,0,0)
GPGPU-Sim uArch: cycles simulated: 59000  inst.: 23848544 (ipc=404.2) sim_rate=507415 (inst/sec) elapsed = 0:0:00:47 / Tue Mar 22 07:02:47 2016
GPGPU-Sim PTX: 23900000 instructions simulated : ctaid=(40,0,0) tid=(31,0,0)
GPGPU-Sim PTX: 24000000 instructions simulated : ctaid=(47,0,0) tid=(63,0,0)
GPGPU-Sim PTX: 24100000 instructions simulated : ctaid=(36,0,0) tid=(31,0,0)
GPGPU-Sim PTX: 24200000 instructions simulated : ctaid=(31,0,0) tid=(127,0,0)
GPGPU-Sim PTX: 24300000 instructions simulated : ctaid=(53,0,0) tid=(63,0,0)
GPGPU-Sim uArch: cycles simulated: 60000  inst.: 24297696 (ipc=405.0) sim_rate=506202 (inst/sec) elapsed = 0:0:00:48 / Tue Mar 22 07:02:48 2016
GPGPU-Sim PTX: 24400000 instructions simulated : ctaid=(34,0,0) tid=(63,0,0)
GPGPU-Sim PTX: 24500000 instructions simulated : ctaid=(73,0,0) tid=(127,0,0)
GPGPU-Sim PTX: 24600000 instructions simulated : ctaid=(46,0,0) tid=(31,0,0)
GPGPU-Sim PTX: 24700000 instructions simulated : ctaid=(73,0,0) tid=(31,0,0)
GPGPU-Sim uArch: Shader 2 finished CTA #2 (60903,0), 7 CTAs running
GPGPU-Sim uArch: core:  2, cta: 2 initialized @(60904,0)
GPGPU-Sim uArch: Shader 11 finished CTA #2 (60965,0), 7 CTAs running
GPGPU-Sim uArch: core: 11, cta: 2 initialized @(60966,0)
GPGPU-Sim PTX: 24800000 instructions simulated : ctaid=(78,0,0) tid=(95,0,0)
GPGPU-Sim uArch: Shader 5 finished CTA #2 (61012,0), 7 CTAs running
GPGPU-Sim uArch: core:  5, cta: 2 initialized @(61013,0)
GPGPU-Sim uArch: Shader 8 finished CTA #2 (61059,0), 7 CTAs running
GPGPU-Sim uArch: core:  8, cta: 2 initialized @(61060,0)
GPGPU-Sim uArch: Shader 14 finished CTA #2 (61177,0), 7 CTAs running
GPGPU-Sim uArch: core: 14, cta: 2 initialized @(61178,0)
GPGPU-Sim uArch: Shader 7 finished CTA #2 (61203,0), 7 CTAs running
GPGPU-Sim uArch: core:  7, cta: 2 initialized @(61204,0)
GPGPU-Sim PTX: 24900000 instructions simulated : ctaid=(55,0,0) tid=(63,0,0)
GPGPU-Sim uArch: Shader 10 finished CTA #2 (61226,0), 7 CTAs running
GPGPU-Sim uArch: core: 10, cta: 2 initialized @(61227,0)
GPGPU-Sim uArch: Shader 4 finished CTA #2 (61266,0), 7 CTAs running
GPGPU-Sim uArch: core:  4, cta: 2 initialized @(61267,0)
GPGPU-Sim uArch: Shader 1 finished CTA #3 (61406,0), 7 CTAs running
GPGPU-Sim uArch: core:  1, cta: 3 initialized @(61407,0)
GPGPU-Sim uArch: Shader 10 finished CTA #3 (61419,0), 7 CTAs running
GPGPU-Sim uArch: core: 10, cta: 3 initialized @(61420,0)
GPGPU-Sim PTX: 25000000 instructions simulated : ctaid=(32,0,0) tid=(95,0,0)
GPGPU-Sim uArch: Shader 13 finished CTA #2 (61463,0), 7 CTAs running
GPGPU-Sim uArch: core: 13, cta: 2 initialized @(61464,0)
GPGPU-Sim uArch: Shader 0 finished CTA #2 (61488,0), 7 CTAs running
GPGPU-Sim uArch: core:  0, cta: 2 initialized @(61489,0)
GPGPU-Sim uArch: cycles simulated: 61500  inst.: 24995968 (ipc=406.4) sim_rate=510121 (inst/sec) elapsed = 0:0:00:49 / Tue Mar 22 07:02:49 2016
GPGPU-Sim uArch: Shader 1 finished CTA #2 (61534,0), 7 CTAs running
GPGPU-Sim uArch: core:  1, cta: 2 initialized @(61535,0)
GPGPU-Sim uArch: Shader 7 finished CTA #3 (61567,0), 7 CTAs running
GPGPU-Sim uArch: core:  7, cta: 3 initialized @(61568,0)
GPGPU-Sim uArch: Shader 4 finished CTA #3 (61600,0), 7 CTAs running
GPGPU-Sim uArch: core:  4, cta: 3 initialized @(61601,0)
GPGPU-Sim uArch: Shader 13 finished CTA #3 (61642,0), 7 CTAs running
GPGPU-Sim uArch: core: 13, cta: 3 initialized @(61643,0)
GPGPU-Sim uArch: Shader 12 finished CTA #2 (61646,0), 7 CTAs running
GPGPU-Sim uArch: core: 12, cta: 2 initialized @(61647,0)
GPGPU-Sim PTX: 25100000 instructions simulated : ctaid=(46,0,0) tid=(95,0,0)
GPGPU-Sim uArch: Shader 9 finished CTA #2 (61677,0), 7 CTAs running
GPGPU-Sim uArch: core:  9, cta: 2 initialized @(61678,0)
GPGPU-Sim uArch: Shader 3 finished CTA #2 (61790,0), 7 CTAs running
GPGPU-Sim uArch: core:  3, cta: 2 initialized @(61791,0)
GPGPU-Sim uArch: Shader 6 finished CTA #2 (61799,0), 7 CTAs running
GPGPU-Sim uArch: core:  6, cta: 2 initialized @(61800,0)
GPGPU-Sim uArch: Shader 9 finished CTA #3 (61822,0), 7 CTAs running
GPGPU-Sim uArch: core:  9, cta: 3 initialized @(61823,0)
GPGPU-Sim uArch: Shader 6 finished CTA #3 (61843,0), 7 CTAs running
GPGPU-Sim uArch: core:  6, cta: 3 initialized @(61844,0)
GPGPU-Sim uArch: Shader 3 finished CTA #3 (61849,0), 7 CTAs running
GPGPU-Sim uArch: core:  3, cta: 3 initialized @(61850,0)
GPGPU-Sim uArch: Shader 12 finished CTA #3 (61854,0), 7 CTAs running
GPGPU-Sim uArch: core: 12, cta: 3 initialized @(61855,0)
GPGPU-Sim uArch: Shader 0 finished CTA #3 (61859,0), 7 CTAs running
GPGPU-Sim uArch: core:  0, cta: 3 initialized @(61860,0)
GPGPU-Sim PTX: 25200000 instructions simulated : ctaid=(73,0,0) tid=(63,0,0)
GPGPU-Sim PTX: 25300000 instructions simulated : ctaid=(85,0,0) tid=(63,0,0)
GPGPU-Sim uArch: Shader 8 finished CTA #3 (62250,0), 7 CTAs running
GPGPU-Sim uArch: core:  8, cta: 3 initialized @(62251,0)
GPGPU-Sim uArch: Shader 5 finished CTA #3 (62307,0), 7 CTAs running
GPGPU-Sim uArch: core:  5, cta: 3 initialized @(62308,0)
GPGPU-Sim uArch: Shader 2 finished CTA #3 (62314,0), 7 CTAs running
GPGPU-Sim uArch: core:  2, cta: 3 initialized @(62315,0)
GPGPU-Sim PTX: 25400000 instructions simulated : ctaid=(67,0,0) tid=(127,0,0)
GPGPU-Sim uArch: Shader 14 finished CTA #3 (62347,0), 7 CTAs running
GPGPU-Sim uArch: core: 14, cta: 3 initialized @(62348,0)
GPGPU-Sim uArch: Shader 11 finished CTA #3 (62353,0), 7 CTAs running
GPGPU-Sim uArch: core: 11, cta: 3 initialized @(62354,0)
GPGPU-Sim uArch: cycles simulated: 62500  inst.: 25440128 (ipc=407.0) sim_rate=508802 (inst/sec) elapsed = 0:0:00:50 / Tue Mar 22 07:02:50 2016
GPGPU-Sim PTX: 25500000 instructions simulated : ctaid=(89,0,0) tid=(31,0,0)
GPGPU-Sim PTX: 25600000 instructions simulated : ctaid=(61,0,0) tid=(31,0,0)
GPGPU-Sim PTX: 25700000 instructions simulated : ctaid=(62,0,0) tid=(127,0,0)
GPGPU-Sim PTX: 25800000 instructions simulated : ctaid=(73,0,0) tid=(127,0,0)
GPGPU-Sim uArch: cycles simulated: 63500  inst.: 25870560 (ipc=407.4) sim_rate=507265 (inst/sec) elapsed = 0:0:00:51 / Tue Mar 22 07:02:51 2016
GPGPU-Sim PTX: 25900000 instructions simulated : ctaid=(64,0,0) tid=(63,0,0)
GPGPU-Sim PTX: 26000000 instructions simulated : ctaid=(82,0,0) tid=(63,0,0)
GPGPU-Sim PTX: 26100000 instructions simulated : ctaid=(72,0,0) tid=(63,0,0)
GPGPU-Sim PTX: 26200000 instructions simulated : ctaid=(63,0,0) tid=(95,0,0)
GPGPU-Sim PTX: 26300000 instructions simulated : ctaid=(79,0,0) tid=(127,0,0)
GPGPU-Sim uArch: cycles simulated: 64500  inst.: 26313088 (ipc=408.0) sim_rate=506020 (inst/sec) elapsed = 0:0:00:52 / Tue Mar 22 07:02:52 2016
GPGPU-Sim PTX: 26400000 instructions simulated : ctaid=(69,0,0) tid=(31,0,0)
GPGPU-Sim PTX: 26500000 instructions simulated : ctaid=(67,0,0) tid=(127,0,0)
GPGPU-Sim PTX: 26600000 instructions simulated : ctaid=(82,0,0) tid=(127,0,0)
GPGPU-Sim PTX: 26700000 instructions simulated : ctaid=(67,0,0) tid=(95,0,0)
GPGPU-Sim PTX: 26800000 instructions simulated : ctaid=(67,0,0) tid=(31,0,0)
GPGPU-Sim PTX: 26900000 instructions simulated : ctaid=(67,0,0) tid=(127,0,0)
GPGPU-Sim PTX: 27000000 instructions simulated : ctaid=(65,0,0) tid=(63,0,0)
GPGPU-Sim uArch: cycles simulated: 66000  inst.: 26989696 (ipc=408.9) sim_rate=509239 (inst/sec) elapsed = 0:0:00:53 / Tue Mar 22 07:02:53 2016
GPGPU-Sim PTX: 27100000 instructions simulated : ctaid=(65,0,0) tid=(95,0,0)
GPGPU-Sim PTX: 27200000 instructions simulated : ctaid=(77,0,0) tid=(31,0,0)
GPGPU-Sim PTX: 27300000 instructions simulated : ctaid=(63,0,0) tid=(127,0,0)
GPGPU-Sim PTX: 27400000 instructions simulated : ctaid=(80,0,0) tid=(31,0,0)
GPGPU-Sim uArch: cycles simulated: 67000  inst.: 27437504 (ipc=409.5) sim_rate=508101 (inst/sec) elapsed = 0:0:00:54 / Tue Mar 22 07:02:54 2016
GPGPU-Sim PTX: 27500000 instructions simulated : ctaid=(61,0,0) tid=(95,0,0)
GPGPU-Sim PTX: 27600000 instructions simulated : ctaid=(72,0,0) tid=(63,0,0)
GPGPU-Sim PTX: 27700000 instructions simulated : ctaid=(69,0,0) tid=(127,0,0)
GPGPU-Sim PTX: 27800000 instructions simulated : ctaid=(87,0,0) tid=(31,0,0)
GPGPU-Sim PTX: 27900000 instructions simulated : ctaid=(84,0,0) tid=(31,0,0)
GPGPU-Sim uArch: cycles simulated: 68000  inst.: 27888800 (ipc=410.1) sim_rate=507069 (inst/sec) elapsed = 0:0:00:55 / Tue Mar 22 07:02:55 2016
GPGPU-Sim PTX: 28000000 instructions simulated : ctaid=(88,0,0) tid=(95,0,0)
GPGPU-Sim PTX: 28100000 instructions simulated : ctaid=(80,0,0) tid=(95,0,0)
GPGPU-Sim PTX: 28200000 instructions simulated : ctaid=(66,0,0) tid=(95,0,0)
GPGPU-Sim PTX: 28300000 instructions simulated : ctaid=(84,0,0) tid=(63,0,0)
GPGPU-Sim PTX: 28400000 instructions simulated : ctaid=(78,0,0) tid=(127,0,0)
GPGPU-Sim PTX: 28500000 instructions simulated : ctaid=(79,0,0) tid=(127,0,0)
GPGPU-Sim uArch: cycles simulated: 69500  inst.: 28560928 (ipc=410.9) sim_rate=510016 (inst/sec) elapsed = 0:0:00:56 / Tue Mar 22 07:02:56 2016
GPGPU-Sim PTX: 28600000 instructions simulated : ctaid=(60,0,0) tid=(31,0,0)
GPGPU-Sim PTX: 28700000 instructions simulated : ctaid=(68,0,0) tid=(63,0,0)
GPGPU-Sim PTX: 28800000 instructions simulated : ctaid=(67,0,0) tid=(31,0,0)
GPGPU-Sim PTX: 28900000 instructions simulated : ctaid=(65,0,0) tid=(127,0,0)
GPGPU-Sim PTX: 29000000 instructions simulated : ctaid=(71,0,0) tid=(127,0,0)
GPGPU-Sim uArch: cycles simulated: 70500  inst.: 29007968 (ipc=411.5) sim_rate=508911 (inst/sec) elapsed = 0:0:00:57 / Tue Mar 22 07:02:57 2016
GPGPU-Sim PTX: 29100000 instructions simulated : ctaid=(65,0,0) tid=(95,0,0)
GPGPU-Sim PTX: 29200000 instructions simulated : ctaid=(88,0,0) tid=(95,0,0)
GPGPU-Sim PTX: 29300000 instructions simulated : ctaid=(61,0,0) tid=(63,0,0)
GPGPU-Sim PTX: 29400000 instructions simulated : ctaid=(68,0,0) tid=(95,0,0)
GPGPU-Sim uArch: cycles simulated: 71500  inst.: 29452000 (ipc=411.9) sim_rate=507793 (inst/sec) elapsed = 0:0:00:58 / Tue Mar 22 07:02:58 2016
GPGPU-Sim PTX: 29500000 instructions simulated : ctaid=(83,0,0) tid=(127,0,0)
GPGPU-Sim PTX: 29600000 instructions simulated : ctaid=(87,0,0) tid=(63,0,0)
GPGPU-Sim PTX: 29700000 instructions simulated : ctaid=(82,0,0) tid=(31,0,0)
GPGPU-Sim PTX: 29800000 instructions simulated : ctaid=(81,0,0) tid=(95,0,0)
GPGPU-Sim PTX: 29900000 instructions simulated : ctaid=(87,0,0) tid=(127,0,0)
GPGPU-Sim PTX: 30000000 instructions simulated : ctaid=(60,0,0) tid=(127,0,0)
GPGPU-Sim PTX: 30100000 instructions simulated : ctaid=(62,0,0) tid=(127,0,0)
GPGPU-Sim uArch: cycles simulated: 73000  inst.: 30130144 (ipc=412.7) sim_rate=510680 (inst/sec) elapsed = 0:0:00:59 / Tue Mar 22 07:02:59 2016
GPGPU-Sim PTX: 30200000 instructions simulated : ctaid=(86,0,0) tid=(127,0,0)
GPGPU-Sim PTX: 30300000 instructions simulated : ctaid=(67,0,0) tid=(31,0,0)
GPGPU-Sim PTX: 30400000 instructions simulated : ctaid=(75,0,0) tid=(95,0,0)
GPGPU-Sim PTX: 30500000 instructions simulated : ctaid=(63,0,0) tid=(127,0,0)
GPGPU-Sim PTX: 30600000 instructions simulated : ctaid=(61,0,0) tid=(127,0,0)
GPGPU-Sim uArch: cycles simulated: 74000  inst.: 30580352 (ipc=413.2) sim_rate=509672 (inst/sec) elapsed = 0:0:01:00 / Tue Mar 22 07:03:00 2016
GPGPU-Sim PTX: 30700000 instructions simulated : ctaid=(88,0,0) tid=(95,0,0)
GPGPU-Sim PTX: 30800000 instructions simulated : ctaid=(66,0,0) tid=(95,0,0)
GPGPU-Sim PTX: 30900000 instructions simulated : ctaid=(67,0,0) tid=(95,0,0)
GPGPU-Sim PTX: 31000000 instructions simulated : ctaid=(80,0,0) tid=(127,0,0)
GPGPU-Sim uArch: cycles simulated: 75000  inst.: 31035616 (ipc=413.8) sim_rate=508780 (inst/sec) elapsed = 0:0:01:01 / Tue Mar 22 07:03:01 2016
GPGPU-Sim PTX: 31100000 instructions simulated : ctaid=(83,0,0) tid=(127,0,0)
GPGPU-Sim PTX: 31200000 instructions simulated : ctaid=(75,0,0) tid=(63,0,0)
GPGPU-Sim PTX: 31300000 instructions simulated : ctaid=(65,0,0) tid=(31,0,0)
GPGPU-Sim PTX: 31400000 instructions simulated : ctaid=(86,0,0) tid=(95,0,0)
GPGPU-Sim PTX: 31500000 instructions simulated : ctaid=(74,0,0) tid=(63,0,0)
GPGPU-Sim PTX: 31600000 instructions simulated : ctaid=(88,0,0) tid=(31,0,0)
GPGPU-Sim PTX: 31700000 instructions simulated : ctaid=(78,0,0) tid=(127,0,0)
GPGPU-Sim uArch: cycles simulated: 76500  inst.: 31712416 (ipc=414.5) sim_rate=511490 (inst/sec) elapsed = 0:0:01:02 / Tue Mar 22 07:03:02 2016
GPGPU-Sim PTX: 31800000 instructions simulated : ctaid=(87,0,0) tid=(31,0,0)
GPGPU-Sim PTX: 31900000 instructions simulated : ctaid=(80,0,0) tid=(95,0,0)
GPGPU-Sim PTX: 32000000 instructions simulated : ctaid=(78,0,0) tid=(127,0,0)
GPGPU-Sim PTX: 32100000 instructions simulated : ctaid=(64,0,0) tid=(63,0,0)
GPGPU-Sim uArch: cycles simulated: 77500  inst.: 32161536 (ipc=415.0) sim_rate=510500 (inst/sec) elapsed = 0:0:01:03 / Tue Mar 22 07:03:03 2016
GPGPU-Sim PTX: 32200000 instructions simulated : ctaid=(80,0,0) tid=(127,0,0)
GPGPU-Sim PTX: 32300000 instructions simulated : ctaid=(80,0,0) tid=(63,0,0)
GPGPU-Sim PTX: 32400000 instructions simulated : ctaid=(71,0,0) tid=(127,0,0)
GPGPU-Sim PTX: 32500000 instructions simulated : ctaid=(83,0,0) tid=(127,0,0)
GPGPU-Sim PTX: 32600000 instructions simulated : ctaid=(75,0,0) tid=(63,0,0)
GPGPU-Sim uArch: cycles simulated: 78500  inst.: 32613696 (ipc=415.5) sim_rate=509589 (inst/sec) elapsed = 0:0:01:04 / Tue Mar 22 07:03:04 2016
GPGPU-Sim PTX: 32700000 instructions simulated : ctaid=(64,0,0) tid=(95,0,0)
GPGPU-Sim PTX: 32800000 instructions simulated : ctaid=(73,0,0) tid=(31,0,0)
GPGPU-Sim PTX: 32900000 instructions simulated : ctaid=(61,0,0) tid=(63,0,0)
GPGPU-Sim PTX: 33000000 instructions simulated : ctaid=(66,0,0) tid=(127,0,0)
GPGPU-Sim uArch: cycles simulated: 79500  inst.: 33067392 (ipc=415.9) sim_rate=508729 (inst/sec) elapsed = 0:0:01:05 / Tue Mar 22 07:03:05 2016
GPGPU-Sim PTX: 33100000 instructions simulated : ctaid=(63,0,0) tid=(127,0,0)
GPGPU-Sim PTX: 33200000 instructions simulated : ctaid=(88,0,0) tid=(95,0,0)
GPGPU-Sim PTX: 33300000 instructions simulated : ctaid=(71,0,0) tid=(127,0,0)
GPGPU-Sim PTX: 33400000 instructions simulated : ctaid=(63,0,0) tid=(31,0,0)
GPGPU-Sim PTX: 33500000 instructions simulated : ctaid=(67,0,0) tid=(127,0,0)
GPGPU-Sim PTX: 33600000 instructions simulated : ctaid=(76,0,0) tid=(63,0,0)
GPGPU-Sim PTX: 33700000 instructions simulated : ctaid=(78,0,0) tid=(63,0,0)
GPGPU-Sim uArch: cycles simulated: 81000  inst.: 33724000 (ipc=416.3) sim_rate=510969 (inst/sec) elapsed = 0:0:01:06 / Tue Mar 22 07:03:06 2016
GPGPU-Sim PTX: 33800000 instructions simulated : ctaid=(79,0,0) tid=(95,0,0)
GPGPU-Sim PTX: 33900000 instructions simulated : ctaid=(74,0,0) tid=(31,0,0)
GPGPU-Sim PTX: 34000000 instructions simulated : ctaid=(78,0,0) tid=(63,0,0)
GPGPU-Sim PTX: 34100000 instructions simulated : ctaid=(70,0,0) tid=(95,0,0)
GPGPU-Sim PTX: 34200000 instructions simulated : ctaid=(69,0,0) tid=(31,0,0)
GPGPU-Sim uArch: cycles simulated: 82000  inst.: 34172928 (ipc=416.7) sim_rate=510043 (inst/sec) elapsed = 0:0:01:07 / Tue Mar 22 07:03:07 2016
GPGPU-Sim PTX: 34300000 instructions simulated : ctaid=(63,0,0) tid=(95,0,0)
GPGPU-Sim PTX: 34400000 instructions simulated : ctaid=(64,0,0) tid=(95,0,0)
GPGPU-Sim PTX: 34500000 instructions simulated : ctaid=(64,0,0) tid=(95,0,0)
GPGPU-Sim PTX: 34600000 instructions simulated : ctaid=(76,0,0) tid=(95,0,0)
GPGPU-Sim uArch: cycles simulated: 83000  inst.: 34626592 (ipc=417.2) sim_rate=509214 (inst/sec) elapsed = 0:0:01:08 / Tue Mar 22 07:03:08 2016
GPGPU-Sim PTX: 34700000 instructions simulated : ctaid=(78,0,0) tid=(63,0,0)
GPGPU-Sim PTX: 34800000 instructions simulated : ctaid=(60,0,0) tid=(63,0,0)
GPGPU-Sim PTX: 34900000 instructions simulated : ctaid=(75,0,0) tid=(31,0,0)
GPGPU-Sim PTX: 35000000 instructions simulated : ctaid=(63,0,0) tid=(63,0,0)
GPGPU-Sim PTX: 35100000 instructions simulated : ctaid=(76,0,0) tid=(31,0,0)
GPGPU-Sim PTX: 35200000 instructions simulated : ctaid=(60,0,0) tid=(63,0,0)
GPGPU-Sim PTX: 35300000 instructions simulated : ctaid=(71,0,0) tid=(95,0,0)
GPGPU-Sim uArch: cycles simulated: 84500  inst.: 35302656 (ipc=417.8) sim_rate=511632 (inst/sec) elapsed = 0:0:01:09 / Tue Mar 22 07:03:09 2016
GPGPU-Sim PTX: 35400000 instructions simulated : ctaid=(77,0,0) tid=(95,0,0)
GPGPU-Sim PTX: 35500000 instructions simulated : ctaid=(74,0,0) tid=(127,0,0)
GPGPU-Sim PTX: 35600000 instructions simulated : ctaid=(64,0,0) tid=(127,0,0)
GPGPU-Sim PTX: 35700000 instructions simulated : ctaid=(67,0,0) tid=(95,0,0)
GPGPU-Sim uArch: cycles simulated: 85500  inst.: 35755744 (ipc=418.2) sim_rate=510796 (inst/sec) elapsed = 0:0:01:10 / Tue Mar 22 07:03:10 2016
GPGPU-Sim PTX: 35800000 instructions simulated : ctaid=(75,0,0) tid=(95,0,0)
GPGPU-Sim PTX: 35900000 instructions simulated : ctaid=(74,0,0) tid=(63,0,0)
GPGPU-Sim PTX: 36000000 instructions simulated : ctaid=(83,0,0) tid=(31,0,0)
GPGPU-Sim PTX: 36100000 instructions simulated : ctaid=(73,0,0) tid=(63,0,0)
GPGPU-Sim PTX: 36200000 instructions simulated : ctaid=(60,0,0) tid=(63,0,0)
GPGPU-Sim uArch: cycles simulated: 86500  inst.: 36206432 (ipc=418.6) sim_rate=509949 (inst/sec) elapsed = 0:0:01:11 / Tue Mar 22 07:03:11 2016
GPGPU-Sim PTX: 36300000 instructions simulated : ctaid=(64,0,0) tid=(127,0,0)
GPGPU-Sim PTX: 36400000 instructions simulated : ctaid=(73,0,0) tid=(127,0,0)
GPGPU-Sim PTX: 36500000 instructions simulated : ctaid=(85,0,0) tid=(31,0,0)
GPGPU-Sim PTX: 36600000 instructions simulated : ctaid=(63,0,0) tid=(95,0,0)
GPGPU-Sim PTX: 36700000 instructions simulated : ctaid=(78,0,0) tid=(127,0,0)
GPGPU-Sim PTX: 36800000 instructions simulated : ctaid=(86,0,0) tid=(63,0,0)
GPGPU-Sim PTX: 36900000 instructions simulated : ctaid=(81,0,0) tid=(127,0,0)
GPGPU-Sim uArch: cycles simulated: 88000  inst.: 36888448 (ipc=419.2) sim_rate=512339 (inst/sec) elapsed = 0:0:01:12 / Tue Mar 22 07:03:12 2016
GPGPU-Sim uArch: Shader 5 finished CTA #4 (88053,0), 7 CTAs running
GPGPU-Sim uArch: core:  5, cta: 4 initialized @(88054,0)
GPGPU-Sim PTX: 37000000 instructions simulated : ctaid=(77,0,0) tid=(95,0,0)
GPGPU-Sim PTX: 37100000 instructions simulated : ctaid=(66,0,0) tid=(127,0,0)
GPGPU-Sim uArch: Shader 4 finished CTA #4 (88506,0), 7 CTAs running
GPGPU-Sim uArch: core:  4, cta: 4 initialized @(88507,0)
GPGPU-Sim uArch: Shader 8 finished CTA #4 (88517,0), 7 CTAs running
GPGPU-Sim uArch: core:  8, cta: 4 initialized @(88518,0)
GPGPU-Sim uArch: Shader 10 finished CTA #4 (88537,0), 7 CTAs running
GPGPU-Sim uArch: core: 10, cta: 4 initialized @(88538,0)
GPGPU-Sim uArch: Shader 1 finished CTA #4 (88567,0), 7 CTAs running
GPGPU-Sim uArch: core:  1, cta: 4 initialized @(88568,0)
GPGPU-Sim PTX: 37200000 instructions simulated : ctaid=(98,0,0) tid=(31,0,0)
GPGPU-Sim uArch: Shader 1 finished CTA #5 (88640,0), 7 CTAs running
GPGPU-Sim uArch: core:  1, cta: 5 initialized @(88641,0)
GPGPU-Sim uArch: Shader 13 finished CTA #4 (88681,0), 7 CTAs running
GPGPU-Sim uArch: core: 13, cta: 4 initialized @(88682,0)
GPGPU-Sim uArch: Shader 14 finished CTA #4 (88703,0), 7 CTAs running
GPGPU-Sim uArch: core: 14, cta: 4 initialized @(88704,0)
GPGPU-Sim uArch: Shader 2 finished CTA #4 (88745,0), 7 CTAs running
GPGPU-Sim uArch: core:  2, cta: 4 initialized @(88746,0)
GPGPU-Sim uArch: Shader 7 finished CTA #4 (88783,0), 7 CTAs running
GPGPU-Sim uArch: core:  7, cta: 4 initialized @(88784,0)
GPGPU-Sim PTX: 37300000 instructions simulated : ctaid=(79,0,0) tid=(63,0,0)
GPGPU-Sim uArch: Shader 12 finished CTA #4 (88844,0), 7 CTAs running
GPGPU-Sim uArch: core: 12, cta: 4 initialized @(88845,0)
GPGPU-Sim uArch: Shader 6 finished CTA #4 (88981,0), 7 CTAs running
GPGPU-Sim uArch: core:  6, cta: 4 initialized @(88982,0)
GPGPU-Sim uArch: cycles simulated: 89000  inst.: 37349568 (ipc=419.7) sim_rate=511637 (inst/sec) elapsed = 0:0:01:13 / Tue Mar 22 07:03:13 2016
GPGPU-Sim uArch: Shader 10 finished CTA #5 (89038,0), 7 CTAs running
GPGPU-Sim uArch: core: 10, cta: 5 initialized @(89039,0)
GPGPU-Sim PTX: 37400000 instructions simulated : ctaid=(79,0,0) tid=(95,0,0)
GPGPU-Sim uArch: Shader 11 finished CTA #4 (89201,0), 7 CTAs running
GPGPU-Sim uArch: core: 11, cta: 4 initialized @(89202,0)
GPGPU-Sim uArch: Shader 3 finished CTA #4 (89247,0), 7 CTAs running
GPGPU-Sim uArch: core:  3, cta: 4 initialized @(89248,0)
GPGPU-Sim PTX: 37500000 instructions simulated : ctaid=(100,0,0) tid=(63,0,0)
GPGPU-Sim uArch: Shader 9 finished CTA #4 (89304,0), 7 CTAs running
GPGPU-Sim uArch: core:  9, cta: 4 initialized @(89305,0)
GPGPU-Sim uArch: Shader 7 finished CTA #5 (89383,0), 7 CTAs running
GPGPU-Sim uArch: core:  7, cta: 5 initialized @(89384,0)
GPGPU-Sim uArch: Shader 9 finished CTA #5 (89418,0), 7 CTAs running
GPGPU-Sim uArch: core:  9, cta: 5 initialized @(89419,0)
GPGPU-Sim uArch: Shader 0 finished CTA #4 (89444,0), 7 CTAs running
GPGPU-Sim uArch: core:  0, cta: 4 initialized @(89445,0)
GPGPU-Sim PTX: 37600000 instructions simulated : ctaid=(79,0,0) tid=(95,0,0)
GPGPU-Sim uArch: Shader 12 finished CTA #5 (89506,0), 7 CTAs running
GPGPU-Sim uArch: core: 12, cta: 5 initialized @(89507,0)
GPGPU-Sim PTX: 37700000 instructions simulated : ctaid=(85,0,0) tid=(127,0,0)
GPGPU-Sim uArch: Shader 4 finished CTA #5 (89725,0), 7 CTAs running
GPGPU-Sim uArch: core:  4, cta: 5 initialized @(89726,0)
GPGPU-Sim uArch: Shader 8 finished CTA #5 (89894,0), 7 CTAs running
GPGPU-Sim uArch: core:  8, cta: 5 initialized @(89895,0)
GPGPU-Sim PTX: 37800000 instructions simulated : ctaid=(91,0,0) tid=(31,0,0)
GPGPU-Sim uArch: cycles simulated: 90000  inst.: 37796928 (ipc=420.0) sim_rate=510769 (inst/sec) elapsed = 0:0:01:14 / Tue Mar 22 07:03:14 2016
GPGPU-Sim uArch: Shader 6 finished CTA #5 (90112,0), 7 CTAs running
GPGPU-Sim uArch: core:  6, cta: 5 initialized @(90113,0)
GPGPU-Sim uArch: Shader 2 finished CTA #5 (90121,0), 7 CTAs running
GPGPU-Sim uArch: core:  2, cta: 5 initialized @(90122,0)
GPGPU-Sim uArch: Shader 14 finished CTA #5 (90139,0), 7 CTAs running
GPGPU-Sim uArch: core: 14, cta: 5 initialized @(90140,0)
GPGPU-Sim PTX: 37900000 instructions simulated : ctaid=(106,0,0) tid=(31,0,0)
GPGPU-Sim uArch: Shader 11 finished CTA #5 (90344,0), 7 CTAs running
GPGPU-Sim uArch: core: 11, cta: 5 initialized @(90345,0)
GPGPU-Sim PTX: 38000000 instructions simulated : ctaid=(96,0,0) tid=(127,0,0)
GPGPU-Sim uArch: Shader 0 finished CTA #5 (90536,0), 7 CTAs running
GPGPU-Sim uArch: core:  0, cta: 5 initialized @(90537,0)
GPGPU-Sim uArch: Shader 5 finished CTA #5 (90576,0), 7 CTAs running
GPGPU-Sim uArch: core:  5, cta: 5 initialized @(90577,0)
GPGPU-Sim PTX: 38100000 instructions simulated : ctaid=(95,0,0) tid=(31,0,0)
GPGPU-Sim uArch: Shader 13 finished CTA #5 (90768,0), 7 CTAs running
GPGPU-Sim uArch: core: 13, cta: 5 initialized @(90769,0)
GPGPU-Sim uArch: Shader 3 finished CTA #5 (90828,0), 7 CTAs running
GPGPU-Sim uArch: core:  3, cta: 5 initialized @(90829,0)
GPGPU-Sim PTX: 38200000 instructions simulated : ctaid=(118,0,0) tid=(63,0,0)
GPGPU-Sim uArch: cycles simulated: 91000  inst.: 38234528 (ipc=420.2) sim_rate=509793 (inst/sec) elapsed = 0:0:01:15 / Tue Mar 22 07:03:15 2016
GPGPU-Sim PTX: 38300000 instructions simulated : ctaid=(101,0,0) tid=(63,0,0)
GPGPU-Sim PTX: 38400000 instructions simulated : ctaid=(94,0,0) tid=(63,0,0)
GPGPU-Sim PTX: 38500000 instructions simulated : ctaid=(115,0,0) tid=(127,0,0)
GPGPU-Sim PTX: 38600000 instructions simulated : ctaid=(111,0,0) tid=(63,0,0)
GPGPU-Sim PTX: 38700000 instructions simulated : ctaid=(117,0,0) tid=(127,0,0)
GPGPU-Sim uArch: cycles simulated: 92000  inst.: 38669728 (ipc=420.3) sim_rate=508812 (inst/sec) elapsed = 0:0:01:16 / Tue Mar 22 07:03:16 2016
GPGPU-Sim PTX: 38800000 instructions simulated : ctaid=(90,0,0) tid=(63,0,0)
GPGPU-Sim PTX: 38900000 instructions simulated : ctaid=(106,0,0) tid=(31,0,0)
GPGPU-Sim PTX: 39000000 instructions simulated : ctaid=(103,0,0) tid=(95,0,0)
GPGPU-Sim PTX: 39100000 instructions simulated : ctaid=(104,0,0) tid=(63,0,0)
GPGPU-Sim PTX: 39200000 instructions simulated : ctaid=(107,0,0) tid=(63,0,0)
GPGPU-Sim PTX: 39300000 instructions simulated : ctaid=(104,0,0) tid=(31,0,0)
GPGPU-Sim uArch: cycles simulated: 93500  inst.: 39316928 (ipc=420.5) sim_rate=510609 (inst/sec) elapsed = 0:0:01:17 / Tue Mar 22 07:03:17 2016
GPGPU-Sim PTX: 39400000 instructions simulated : ctaid=(101,0,0) tid=(63,0,0)
[...]
maxdqlatency = 0 
maxmflatency = 943 
averagemflatency = 304 
max_icnt2mem_latency = 114 
max_icnt2sh_latency = 449753 
mrq_lat_table:190092 	9639 	10853 	20158 	75470 	68341 	43255 	17076 	2617 	8 	0 	0 	0 	0 	0 	0 	0 	0 	0 	0 	0 	0 	0 	0 	0 	0 	0 	0 	0 	0 	0 	0 	
dq_lat_table:0 	0 	0 	0 	0 	0 	0 	0 	0 	0 	0 	0 	0 	0 	0 	0 	0 	0 	0 	0 	0 	0 	0 	0 	0 	0 	0 	0 	0 	0 	0 	0 	
mf_lat_table:0 	0 	0 	0 	0 	0 	0 	3309 	306550 	2656 	0 	0 	0 	0 	0 	0 	0 	0 	0 	0 	0 	0 	0 	0 	0 	0 	0 	0 	0 	0 	0 	0 	
icnt2mem_lat_table:0 	0 	0 	273711 	37928 	785 	211 	0 	0 	0 	0 	0 	0 	0 	0 	0 	0 	0 	0 	0 	0 	0 	0 	0 	
icnt2sh_lat_table:0 	0 	0 	126762 	57958 	2792 	3 	0 	0 	0 	0 	238 	854 	2149 	4425 	9223 	18555 	37453 	52103 	0 	0 	0 	0 	0 	
mf_lat_pw_table:0 	0 	0 	0 	0 	0 	0 	0 	895 	1 	0 	0 	0 	0 	0 	0 	0 	0 	0 	0 	0 	0 	0 	0 	0 	0 	0 	0 	0 	0 	0 	0 	
maximum concurrent accesses to same row:
dram[0]:        20        20        20        20        20        20        20        20        20        20        20        20        20        20        20        20 
dram[1]:        20        20        20        20        20        20        20        20        20        20        20        20        20        20        20        20 
dram[2]:        20        20        20        20        20        20        20        20        20        20        20        20        20        20        20        20 
dram[3]:        20        20        20        20        20        20        20        20        20        20        20        20        20        20        20        20 
dram[4]:        18        20        20        20        20        20        20        20        20        20        20        20        20        20        20        20 
dram[5]:        18        20        18        20        20        20        20        20        20        20        20        20        20        20        18        20 
maximum service time to same row:
dram[0]:      4450      5201      6819      6419      5078      5206      4776      6714      5765      6367      4870      4994      6217      6910      5653      6306 
dram[1]:      4300      5262      7097      6085      4936      5213      4642      6836      5885      6172      4913      5083      6342      7212      4921      6303 
dram[2]:      4085      4881      5888      5928      4872      4475      3890      6403      5045      6087      4516      4385      5458      6785      5000      5793 
dram[3]:      3986      5134      6085      5960      4605      4611      3869      6503      4918      5742      4127      4822      5481      6744      4890      5645 
dram[4]:      4482      4974      6571      6171      4453      4622      6242      6579      6695      5635      4358      4903      6575      6912      6751      5673 
dram[5]:      4821      5591      7106      6312      5043      5011      6465      7218      7195      5054      4683      5098      6647      7510      7258      4988 
average row accesses per activate:
dram[0]:  2.381627  2.299340  2.352450  2.295015  2.362878  2.286579  2.372214  2.331126  2.341863  2.275485  2.385818  2.294885  2.337079  2.314618  2.322843  2.298342 
dram[1]:  2.138614  2.114792  2.137376  2.089856  2.143803  2.087517  2.190522  2.140318  2.147349  2.070588  2.128372  2.097159  2.137319  2.107785  2.166667  2.079055 
dram[2]:  2.421783  2.432636  2.381003  2.389831  2.406798  2.425668  2.439232  2.457572  2.399580  2.397067  2.404624  2.457572  2.407154  2.407154  2.417327  2.414776 
dram[3]:  2.151803  2.150925  2.132325  2.134342  2.138745  2.147727  2.164617  2.187381  2.129363  2.148357  2.154426  2.178010  2.191571  2.168720  2.121465  2.153412 
dram[4]:  2.294534  2.342119  2.269618  2.326973  2.240237  2.333333  2.294885  2.355121  2.306452  2.319311  2.313448  2.339468  2.285714  2.362416  2.289145  2.341863 
dram[5]:  2.094226  2.120730  2.085028  2.106443  2.093302  2.113700  2.107785  2.129363  2.073403  2.096198  2.119500  2.137319  2.077168  2.129363  2.080946  2.087591 
average row locality = 437509/195913 = 2.233180
number of total memory accesses made:
dram[0]:         0         0         0         0         0         0         0         0         0         0         0         0         0         0         0         0 
dram[1]:         0         0         0         0         0         0         0         0         0         0         0         0         0         0         0         0 
dram[2]:         0         0         0         0         0         0         0         0         0         0         0         0         0         0         0         0 
dram[3]:         0         0         0         0         0         0         0         0         0         0         0         0         0         0         0         0 
dram[4]:         0         0         0         0         0         0         0         0         0         0         0         0         0         0         0         0 
dram[5]:         0         0         0         0         0         0         0         0         0         0         0         0         0         0         0         0 
total accesses: 0
min_bank_accesses = 0!
min_chip_accesses = 0!
number of total read accesses:
dram[0]:      3251      3246      3232      3232      3242      3242      3264      3264      3264      3264      3264      3264      3264      3264      3264      3264 
dram[1]:      3250      3246      3232      3232      3242      3242      3264      3264      3264      3264      3264      3264      3264      3264      3264      3264 
dram[2]:      3250      3246      3232      3232      3242      3244      3264      3264      3264      3264      3264      3264      3264      3264      3264      3264 
dram[3]:      3250      3246      3232      3232      3242      3244      3264      3264      3264      3264      3264      3264      3264      3264      3264      3264 
dram[4]:      3248      3246      3232      3232      3242      3244      3264      3264      3264      3264      3264      3264      3264      3264      3264      3264 
dram[5]:      3248      3246      3232      3232      3242      3244      3264      3264      3264      3264      3264      3264      3264      3264      3264      3264 
total reads: 312509
bank skew: 3264/3232 = 1.01
chip skew: 52086/52084 = 1.00
number of total write accesses:
dram[0]:      1286      1286      1280      1280      1290      1290      1312      1312      1312      1312      1312      1312      1312      1312      1312      1312 
dram[1]:      1286      1286      1280      1280      1290      1290      1312      1312      1312      1312      1312      1312      1312      1312      1312      1312 
dram[2]:      1286      1286      1280      1280      1290      1292      1312      1312      1312      1312      1312      1312      1312      1312      1312      1312 
dram[3]:      1286      1286      1280      1280      1290      1292      1312      1312      1312      1312      1312      1312      1312      1312      1312      1312 
dram[4]:      1286      1286      1280      1280      1290      1292      1312      1312      1312      1312      1312      1312      1312      1312      1312      1312 
dram[5]:      1286      1286      1280      1280      1290      1292      1312      1312      1312      1312      1312      1312      1312      1312      1312      1312 
total reads: 125000
bank skew: 1312/1280 = 1.02
chip skew: 20834/20832 = 1.00
average mf latency per bank:
dram[0]:        221       217       220       218       221       219       220       219       217       217       218       217       218       219       221       220
dram[1]:        219       214       218       214       220       217       221       216       217       213       220       216       219       214       221       217
dram[2]:        214       214       215       216       215       217       218       217       214       216       215       217       215       215       217       218
dram[3]:        214       215       212       215       214       216       216       217       212       215       214       215       213       214       215       217
dram[4]:        216       217       216       217       218       219       218       218       215       216       217       219       216       218       218       221
dram[5]:        216       217       217       216       216       218       217       219       214       215       216       218       215       217       218       219
maximum mf latency per bank:
dram[0]:        797       698       853       604       686       734       758       621       689       664       663       761       645       684       815       735
dram[1]:        679       680       729       600       695       806       705       692       726       648       714       741       769       739       943       675
dram[2]:        681       598       635       694       711       677       727       848       609       604       657       779       721       599       801       560
dram[3]:        636       627       656       607       799       657       756       724       685       679       694       802       582       546       677       729
dram[4]:        656       676       541       729       753       682       717       778       589       736       774       898       618       741       702       769
dram[5]:        716       676       691       612       693       736       732       659       630       671       783       769       663       730       765       689

Number of Memory Banks Accessed per Memory Operation per Warp (from 0):
0	0	0	0	0	0	0	0	0	0	0	0	0	0	0	0	0	0	0	0	0	0	0	0	0	0	0	0	0	0	0	0	0	0	0	0	0	0	0	0	0	0	0	0	0	0	0	0	0	0	0	0	0	0	0	0	0	0	0	0	0	0	0	0	0	0	0	0	0	0	0	0	0	0	0	0	0	0	0	0	0	0	0	0	0	0	0	0	0	0	0	0	0	0	0	0	
Average # of Memory Banks Accessed per Memory Operation per Warp=-nan

position of mrq chosen
0	0	0	0	0	0	0	0	0	0	0	0	0	0	0	0	

average position of mrq chosen = -nan
Memory Partition 0: 
Cache L2_bank_000:
MSHR contents

Cache L2_bank_001:
MSHR contents

In Dram Latency Queue (total = 0): 
DRAM[0]: 16 bks, busW=4 BL=8 CL=12, tRRD=2 tCCD=6, tRCD=12 tRAS=28 tRP=12 tRC=40
n_cmd=593674 n_nop=385206 n_act=31325 n_pre=31309 n_req=72917 n_rd=104170 n_write=41664 bw_util=0.4913
n_activity=579815 dram_eff=0.503
bk0: 6502a 454764i bk1: 6492a 450652i bk2: 6464a 453749i bk3: 6464a 446705i bk4: 6484a 448352i bk5: 6484a 442475i bk6: 6528a 445265i bk7: 6528a 439295i bk8: 6528a 453127i bk9: 6528a 448151i bk10: 6528a 451252i bk11: 6528a 447053i bk12: 6528a 448216i bk13: 6528a 442931i bk14: 6528a 441854i bk15: 6528a 438182i 
dram_util_bins: 0 0 0 0 0 0 0 0 0 0
dram_eff_bins: 0 0 0 0 0 0 0 0 0 0
mrqq: max=16 avg=5.01685
Memory Partition 1: 
Cache L2_bank_002:
MSHR contents

Cache L2_bank_003:
MSHR contents

In Dram Latency Queue (total = 0): 
DRAM[1]: 16 bks, busW=4 BL=8 CL=12, tRRD=2 tCCD=6, tRCD=12 tRAS=28 tRP=12 tRC=40
n_cmd=593674 n_nop=379170 n_act=34344 n_pre=34328 n_req=72916 n_rd=104168 n_write=41664 bw_util=0.4913
n_activity=583480 dram_eff=0.4999
bk0: 6500a 450251i bk1: 6492a 446466i bk2: 6464a 448894i bk3: 6464a 443033i bk4: 6484a 445578i bk5: 6484a 438741i bk6: 6528a 439973i bk7: 6528a 433733i bk8: 6528a 449314i bk9: 6528a 444301i bk10: 6528a 446481i bk11: 6528a 442615i bk12: 6528a 441925i bk13: 6528a 438282i bk14: 6528a 438605i bk15: 6528a 430921i 
dram_util_bins: 0 0 0 0 0 0 0 0 0 0
dram_eff_bins: 0 0 0 0 0 0 0 0 0 0
mrqq: max=16 avg=4.58887
Memory Partition 2: 
Cache L2_bank_004:
MSHR contents

Cache L2_bank_005:
MSHR contents

In Dram Latency Queue (total = 0): 
DRAM[2]: 16 bks, busW=4 BL=8 CL=12, tRRD=2 tCCD=6, tRCD=12 tRAS=28 tRP=12 tRC=40
n_cmd=593674 n_nop=387488 n_act=30181 n_pre=30165 n_req=72920 n_rd=104172 n_write=41668 bw_util=0.4913
n_activity=579370 dram_eff=0.5034
bk0: 6500a 457523i bk1: 6492a 451610i bk2: 6464a 453283i bk3: 6464a 449903i bk4: 6484a 449602i bk5: 6488a 444393i bk6: 6528a 443057i bk7: 6528a 439603i bk8: 6528a 453319i bk9: 6528a 449453i bk10: 6528a 450299i bk11: 6528a 447239i bk12: 6528a 447273i bk13: 6528a 443242i bk14: 6528a 442875i bk15: 6528a 438947i 
dram_util_bins: 0 0 0 0 0 0 0 0 0 0
dram_eff_bins: 0 0 0 0 0 0 0 0 0 0
mrqq: max=16 avg=4.7207
Memory Partition 3: 
Cache L2_bank_006:
MSHR contents

Cache L2_bank_007:
MSHR contents
MSHR: tag=0x80f21100, atomic=0 1 entries : 0x7f5ab0c3aea0 :  mf: uid=3544391, sid09:w30, part=3, addr=0x80f21100, load , size=128, unknown  status = IN_PARTITION_DRAM (449751), 

In Dram Latency Queue (total = 0): 
DRAM[3]: 16 bks, busW=4 BL=8 CL=12, tRRD=2 tCCD=6, tRCD=12 tRAS=28 tRP=12 tRC=40
n_cmd=593674 n_nop=380118 n_act=33866 n_pre=33850 n_req=72920 n_rd=104172 n_write=41668 bw_util=0.4913
n_activity=582653 dram_eff=0.5006
bk0: 6500a 449456i bk1: 6492a 445904i bk2: 6464a 447561i bk3: 6464a 443607i bk4: 6484a 445051i bk5: 6488a 439571i bk6: 6528a 437052i bk7: 6528a 433164i bk8: 6528a 448352i bk9: 6528a 444357i bk10: 6528a 446136i bk11: 6528a 440773i bk12: 6528a 444704i bk13: 6528a 437828i bk14: 6528a 436352i bk15: 6528a 433514i 
dram_util_bins: 0 0 0 0 0 0 0 0 0 0
dram_eff_bins: 0 0 0 0 0 0 0 0 0 0
mrqq: max=16 avg=4.13024
Memory Partition 4: 
Cache L2_bank_008:
MSHR contents

Cache L2_bank_009:
MSHR contents

In Dram Latency Queue (total = 0): 
DRAM[4]: 16 bks, busW=4 BL=8 CL=12, tRRD=2 tCCD=6, tRCD=12 tRAS=28 tRP=12 tRC=40
n_cmd=593674 n_nop=384804 n_act=31525 n_pre=31509 n_req=72918 n_rd=104168 n_write=41668 bw_util=0.4913
n_activity=579522 dram_eff=0.5033
bk0: 6496a 453041i bk1: 6492a 452492i bk2: 6464a 451993i bk3: 6464a 448508i bk4: 6484a 446106i bk5: 6488a 443493i bk6: 6528a 443442i bk7: 6528a 439833i bk8: 6528a 452883i bk9: 6528a 450444i bk10: 6528a 447798i bk11: 6528a 447291i bk12: 6528a 447735i bk13: 6528a 443717i bk14: 6528a 440593i bk15: 6528a 437889i 
dram_util_bins: 0 0 0 0 0 0 0 0 0 0
dram_eff_bins: 0 0 0 0 0 0 0 0 0 0
mrqq: max=16 avg=4.7892
Memory Partition 5: 
Cache L2_bank_010:
MSHR contents

Cache L2_bank_011:
MSHR contents

In Dram Latency Queue (total = 0): 
DRAM[5]: 16 bks, busW=4 BL=8 CL=12, tRRD=2 tCCD=6, tRCD=12 tRAS=28 tRP=12 tRC=40
n_cmd=593674 n_nop=378510 n_act=34672 n_pre=34656 n_req=72918 n_rd=104168 n_write=41668 bw_util=0.4913
n_activity=582667 dram_eff=0.5006
bk0: 6496a 450970i bk1: 6492a 446066i bk2: 6464a 446593i bk3: 6464a 443947i bk4: 6484a 444095i bk5: 6488a 436657i bk6: 6528a 437374i bk7: 6528a 432151i bk8: 6528a 449003i bk9: 6528a 443725i bk10: 6528a 445701i bk11: 6528a 438971i bk12: 6528a 443138i bk13: 6528a 435723i bk14: 6528a 435732i bk15: 6528a 431641i 
dram_util_bins: 0 0 0 0 0 0 0 0 0 0
dram_eff_bins: 0 0 0 0 0 0 0 0 0 0
mrqq: max=16 avg=4.46068

========= L2 cache stats =========
L2_cache_bank[0]: Access = 26087, Miss = 26045, Miss_rate = 0.998, Pending_hits = 9, Reservation_fails = 512
L2_cache_bank[1]: Access = 26040, Miss = 26040, Miss_rate = 1.000, Pending_hits = 0, Reservation_fails = 135
L2_cache_bank[2]: Access = 26072, Miss = 26044, Miss_rate = 0.999, Pending_hits = 6, Reservation_fails = 465
L2_cache_bank[3]: Access = 26040, Miss = 26040, Miss_rate = 1.000, Pending_hits = 0, Reservation_fails = 101
L2_cache_bank[4]: Access = 26072, Miss = 26044, Miss_rate = 0.999, Pending_hits = 6, Reservation_fails = 327
L2_cache_bank[5]: Access = 26042, Miss = 26042, Miss_rate = 1.000, Pending_hits = 0, Reservation_fails = 228
L2_cache_bank[6]: Access = 26072, Miss = 26044, Miss_rate = 0.999, Pending_hits = 6, Reservation_fails = 374
L2_cache_bank[7]: Access = 26042, Miss = 26042, Miss_rate = 1.000, Pending_hits = 0, Reservation_fails = 360
L2_cache_bank[8]: Access = 26042, Miss = 26042, Miss_rate = 1.000, Pending_hits = 0, Reservation_fails = 115
L2_cache_bank[9]: Access = 26042, Miss = 26042, Miss_rate = 1.000, Pending_hits = 0, Reservation_fails = 161
L2_cache_bank[10]: Access = 26042, Miss = 26042, Miss_rate = 1.000, Pending_hits = 0, Reservation_fails = 117
L2_cache_bank[11]: Access = 26042, Miss = 26042, Miss_rate = 1.000, Pending_hits = 0, Reservation_fails = 222
L2_total_cache_accesses = 312635
L2_total_cache_misses = 312509
L2_total_cache_miss_rate = 0.9996
L2_total_cache_pending_hits = 27
L2_total_cache_reservation_fails = 3117
L2_total_cache_breakdown:
	L2_cache_stats_breakdown[GLOBAL_ACC_R][MISS] = 187500
	L2_cache_stats_breakdown[GLOBAL_ACC_R][RESERVATION_FAIL] = 2096
	L2_cache_stats_breakdown[CONST_ACC_R][HIT] = 11
	L2_cache_stats_breakdown[CONST_ACC_R][HIT_RESERVED] = 3
	L2_cache_stats_breakdown[CONST_ACC_R][MISS] = 1
	L2_cache_stats_breakdown[CONST_ACC_R][RESERVATION_FAIL] = 109
	L2_cache_stats_breakdown[GLOBAL_ACC_W][MISS] = 125000
	L2_cache_stats_breakdown[GLOBAL_ACC_W][RESERVATION_FAIL] = 80
	L2_cache_stats_breakdown[INST_ACC_R][HIT] = 88
	L2_cache_stats_breakdown[INST_ACC_R][HIT_RESERVED] = 24
	L2_cache_stats_breakdown[INST_ACC_R][MISS] = 8
	L2_cache_stats_breakdown[INST_ACC_R][RESERVATION_FAIL] = 832
L2_cache_data_port_util = 0.000
L2_cache_fill_port_util = 0.232

icnt_total_pkts_mem_to_simt=1063145
icnt_total_pkts_simt_to_mem=812635
LD_mem_lat_dist  0 0 0 0 0 0 0 0 0 0 0 0 0 0 0 0 0 0 0 0 0 0 0 0 0 0 0
ST_mem_lat_dist  0 0 0 0 0 0 0 0 0 0 0 0 0 0 0 0 0 0 0 0 0 0 0 0 0 0 0
----------------------------Interconnect-DETAILS--------------------------------
Class 0:
Packet latency average = 10.4307
	minimum = 6
	maximum = 94
Network latency average = 10.1001
	minimum = 6
	maximum = 67
Slowest packet = 374
Flit latency average = 7.98291
	minimum = 6
	maximum = 63
Slowest flit = 340747
Fragmentation average = 0
	minimum = 0
	maximum = 0
Injected packet rate average = 0.0514907
	minimum = 0.046312 (at node 0)
	maximum = 0.0580028 (at node 15)
Accepted packet rate average = 0.0514907
	minimum = 0.046312 (at node 0)
	maximum = 0.0580028 (at node 15)
Injected flit rate average = 0.15447
	minimum = 0.120379 (at node 0)
	maximum = 0.19731 (at node 15)
Accepted flit rate average= 0.15447
	minimum = 0.150536 (at node 16)
	maximum = 0.15764 (at node 1)
Injected packet length average = 2.99995
Accepted packet length average = 2.99995
Total in-flight flits = 0 (0 measured)
====== Overall Traffic Statistics ======
====== Traffic class 0 ======
Packet latency average = 10.4307 (1 samples)
	minimum = 6 (1 samples)
	maximum = 94 (1 samples)
Network latency average = 10.1001 (1 samples)
	minimum = 6 (1 samples)
	maximum = 67 (1 samples)
Flit latency average = 7.98291 (1 samples)
	minimum = 6 (1 samples)
	maximum = 63 (1 samples)
Fragmentation average = 0 (1 samples)
	minimum = 0 (1 samples)
	maximum = 0 (1 samples)
Injected packet rate average = 0.0514907 (1 samples)
	minimum = 0.046312 (1 samples)
	maximum = 0.0580028 (1 samples)
Accepted packet rate average = 0.0514907 (1 samples)
	minimum = 0.046312 (1 samples)
	maximum = 0.0580028 (1 samples)
Injected flit rate average = 0.15447 (1 samples)
	minimum = 0.120379 (1 samples)
	maximum = 0.19731 (1 samples)
Accepted flit rate average = 0.15447 (1 samples)
	minimum = 0.150536 (1 samples)
	maximum = 0.15764 (1 samples)
Injected packet size average = 2.99995 (1 samples)
Accepted packet size average = 2.99995 (1 samples)
Hops average = 1 (1 samples)
----------------------------END-of-Interconnect-DETAILS-------------------------


gpgpu_simulation_time = 0 days, 0 hrs, 6 min, 39 sec (399 sec)
gpgpu_simulation_rate = 490681 (inst/sec)
gpgpu_simulation_rate = 1127 (cycle/sec)
GPGPU-Sim: synchronize waiting for inactive GPU simulation
GPGPU-Sim API: Stream Manager State
GPGPU-Sim: detected inactive GPU simulation thread
Options count             : 4000000     
BlackScholesGPU() time    : 397005.062500 msec
Effective memory bandwidth: 0.000101 GB/s
Gigaoptions per second    : 0.000010     
Reading back GPU results...
Checking the results...
...running CPU calculations.
Comparing the results...
L1 norm: 1.729535E-07
Max absolute error: 1.192093E-05
TEST PASSED
Shutting down...
...releasing GPU memory.
...releasing CPU memory.
Shutdown done.
GPGPU-Sim: exit_simulation called
GPGPU-Sim: simulation thread signaled exit

Press ENTER to exit...
