

        *** GPGPU-Sim Simulator Version 3.2.2  [build 0] ***


GPGPU-Sim PTX: simulation mode 0 (can change with PTX_SIM_MODE_FUNC environment variable:
               1=functional simulation only, 0=detailed performance simulator)
GPGPU-Sim: Configuration options:

-network_mode                           1 # Interconnection network mode
-inter_config_file   config_fermi_islip.icnt # Interconnection network config file
-gpgpu_ptx_use_cuobjdump                    1 # Use cuobjdump to extract ptx and sass from binaries
-gpgpu_experimental_lib_support                    0 # Try to extract code from cuda libraries [Broken because of unknown cudaGetExportTable]
-gpgpu_ptx_convert_to_ptxplus                    0 # Convert SASS (native ISA) to ptxplus and run ptxplus
-gpgpu_ptx_force_max_capability                   20 # Force maximum compute capability
-gpgpu_ptx_inst_debug_to_file                    0 # Dump executed instructions' debug information to file
-gpgpu_ptx_inst_debug_file       inst_debug.txt # Executed instructions' debug output file
-gpgpu_ptx_inst_debug_thread_uid                    1 # Thread UID for executed instructions' debug output
-gpgpu_simd_model                       1 # 1 = post-dominator
-gpgpu_shader_core_pipeline              1536:32 # shader core pipeline config, i.e., {<nthread>:<warpsize>}
-gpgpu_tex_cache:l1  4:128:24,L:R:m:N:L,F:128:4,128:2 # per-shader L1 texture cache  (READ-ONLY) config  {<nsets>:<bsize>:<assoc>,<rep>:<wr>:<alloc>:<wr_alloc>,<mshr>:<N>:<merge>,<mq>:<rf>}
-gpgpu_const_cache:l1 64:64:2,L:R:f:N:L,A:2:32,4 # per-shader L1 constant memory cache  (READ-ONLY) config  {<nsets>:<bsize>:<assoc>,<rep>:<wr>:<alloc>:<wr_alloc>,<mshr>:<N>:<merge>,<mq>} 
-gpgpu_cache:il1     4:128:4,L:R:f:N:L,A:2:32,4 # shader L1 instruction cache config  {<nsets>:<bsize>:<assoc>,<rep>:<wr>:<alloc>:<wr_alloc>,<mshr>:<N>:<merge>,<mq>} 
-gpgpu_cache:dl1     32:128:4,L:L:m:N:H,A:32:8,8:2,0,1:0:1:1:0:1,1:4:8:16:32:64,/sciclone/data10/hwang07/GPU_RESEARCH/swl/swl_outputs/RESULTS/swl2/ # per-shader L1 data cache config  {<nsets>:<bsize>:<assoc>,<rep>:<wr>:<alloc>:<wr_alloc>,<mshr>:<N>:<merge>,<mq> | none}
-gpgpu_cache:dl1PrefL1                 none # per-shader L1 data cache config  {<nsets>:<bsize>:<assoc>,<rep>:<wr>:<alloc>:<wr_alloc>,<mshr>:<N>:<merge>,<mq> | none}
-gpgpu_cache:dl1PreShared                 none # per-shader L1 data cache config  {<nsets>:<bsize>:<assoc>,<rep>:<wr>:<alloc>:<wr_alloc>,<mshr>:<N>:<merge>,<mq> | none}
-gmem_skip_L1D                          0 # global memory access skip L1D cache (implements -Xptxas -dlcm=cg, default=no skip)
-gpgpu_perfect_mem                      0 # enable perfect memory mode (no cache miss)
-n_regfile_gating_group                    4 # group of lanes that should be read/written together)
-gpgpu_clock_gated_reg_file                    0 # enable clock gated reg file for power calculations
-gpgpu_clock_gated_lanes                    0 # enable clock gated lanes for power calculations
-gpgpu_shader_registers                32768 # Number of registers per shader core. Limits number of concurrent CTAs. (default 8192)
-gpgpu_shader_cta                       8 # Maximum number of concurrent CTAs in shader (default 8)
-gpgpu_num_cta_barriers                   16 # Maximum number of named barriers per CTA (default 16)
-gpgpu_n_clusters                      15 # number of processing clusters
-gpgpu_n_cores_per_cluster                    1 # number of simd cores per cluster
-gpgpu_n_cluster_ejection_buffer_size                    8 # number of packets in ejection buffer
-gpgpu_n_ldst_response_buffer_size                    2 # number of response packets in ld/st unit ejection buffer
-gpgpu_shmem_size                   16384 # Size of shared memory per shader core (default 16kB)
-gpgpu_shmem_size                   49152 # Size of shared memory per shader core (default 16kB)
-gpgpu_shmem_size_PrefL1                16384 # Size of shared memory per shader core (default 16kB)
-gpgpu_shmem_size_PrefShared                16384 # Size of shared memory per shader core (default 16kB)
-gpgpu_shmem_num_banks                   32 # Number of banks in the shared memory in each shader core (default 16)
-gpgpu_shmem_limited_broadcast                    0 # Limit shared memory to do one broadcast per cycle (default on)
-gpgpu_shmem_warp_parts                    1 # Number of portions a warp is divided into for shared memory bank conflict check 
-gpgpu_warpdistro_shader                   -1 # Specify which shader core to collect the warp size distribution from
-gpgpu_warp_issue_shader                    0 # Specify which shader core to collect the warp issue distribution from
-gpgpu_local_mem_map                    1 # Mapping from local memory space address to simulated GPU physical address space (default = enabled)
-gpgpu_num_reg_banks                   16 # Number of register banks (default = 8)
-gpgpu_reg_bank_use_warp_id                    0 # Use warp ID in mapping registers to banks (default = off)
-gpgpu_operand_collector_num_units_sp                    6 # number of collector units (default = 4)
-gpgpu_operand_collector_num_units_sfu                    8 # number of collector units (default = 4)
-gpgpu_operand_collector_num_units_mem                    2 # number of collector units (default = 2)
-gpgpu_operand_collector_num_units_gen                    0 # number of collector units (default = 0)
-gpgpu_operand_collector_num_in_ports_sp                    2 # number of collector unit in ports (default = 1)
-gpgpu_operand_collector_num_in_ports_sfu                    1 # number of collector unit in ports (default = 1)
-gpgpu_operand_collector_num_in_ports_mem                    1 # number of collector unit in ports (default = 1)
-gpgpu_operand_collector_num_in_ports_gen                    0 # number of collector unit in ports (default = 0)
-gpgpu_operand_collector_num_out_ports_sp                    2 # number of collector unit in ports (default = 1)
-gpgpu_operand_collector_num_out_ports_sfu                    1 # number of collector unit in ports (default = 1)
-gpgpu_operand_collector_num_out_ports_mem                    1 # number of collector unit in ports (default = 1)
-gpgpu_operand_collector_num_out_ports_gen                    0 # number of collector unit in ports (default = 0)
-gpgpu_coalesce_arch                   13 # Coalescing arch (default = 13, anything else is off for now)
-gpgpu_num_sched_per_core                    2 # Number of warp schedulers per core
-gpgpu_max_insn_issue_per_warp                    1 # Max number of instructions that can be issued per warp in one cycle by scheduler
-gpgpu_simt_core_sim_order                    1 # Select the simulation order of cores in a cluster (0=Fix, 1=Round-Robin)
-gpgpu_pipeline_widths        2,1,1,2,1,1,2 # Pipeline widths ID_OC_SP,ID_OC_SFU,ID_OC_MEM,OC_EX_SP,OC_EX_SFU,OC_EX_MEM,EX_WB
-gpgpu_num_sp_units                     2 # Number of SP units (default=1)
-gpgpu_num_sfu_units                    1 # Number of SF units (default=1)
-gpgpu_num_mem_units                    1 # Number if ldst units (default=1) WARNING: not hooked up to anything
-gpgpu_scheduler        warp_limiting:2:2 # Scheduler configuration: < lrr | gto | two_level_active > If two_level_active:<num_active_warps>:<inner_prioritization>:<outer_prioritization>For complete list of prioritization values see shader.h enum scheduler_prioritization_typeDefault: gto
-gpgpu_dram_scheduler                    1 # 0 = fifo, 1 = FR-FCFS (defaul)
-gpgpu_dram_partition_queues              8:8:8:8 # i2$:$2d:d2$:$2i
-l2_ideal                               0 # Use a ideal L2 cache that always hit
-gpgpu_cache:dl2     64:128:8,L:B:m:W:L,A:32:4,4:0,32 # unified banked L2 data cache config  {<nsets>:<bsize>:<assoc>,<rep>:<wr>:<alloc>:<wr_alloc>,<mshr>:<N>:<merge>,<mq>}
-gpgpu_cache:dl2_texture_only                    0 # L2 cache used for texture only
-gpgpu_n_mem                            6 # number of memory modules (e.g. memory controllers) in gpu
-gpgpu_n_sub_partition_per_mchannel                    2 # number of memory subpartition in each memory module
-gpgpu_n_mem_per_ctrlr                    2 # number of memory chips per memory controller
-gpgpu_memlatency_stat                   14 # track and display latency statistics 0x2 enables MC, 0x4 enables queue logs
-gpgpu_frfcfs_dram_sched_queue_size                   16 # 0 = unlimited (default); # entries per chip
-gpgpu_dram_return_queue_size                  116 # 0 = unlimited (default); # entries per chip
-gpgpu_dram_buswidth                    4 # default = 4 bytes (8 bytes per cycle at DDR)
-gpgpu_dram_burst_length                    8 # Burst length of each DRAM request (default = 4 data bus cycle)
-dram_data_command_freq_ratio                    4 # Frequency ratio between DRAM data bus and command bus (default = 2 times, i.e. DDR)
-gpgpu_dram_timing_opt nbk=16:CCD=2:RRD=6:RCD=12:RAS=28:RP=12:RC=40: CL=12:WL=4:CDLR=5:WR=12:nbkgrp=4:CCDL=3:RTPL=2 # DRAM timing parameters = {nbk:tCCD:tRRD:tRCD:tRAS:tRP:tRC:CL:WL:tCDLR:tWR:nbkgrp:tCCDL:tRTPL}
-rop_latency                          120 # ROP queue latency (default 85)
-dram_latency                         100 # DRAM latency (default 30)
-gpgpu_mem_addr_mapping dramid@8;00000000.00000000.00000000.00000000.0000RRRR.RRRRRRRR.BBBCCCCB.CCSSSSSS # mapping memory address to dram model {dramid@<start bit>;<memory address map>}
-gpgpu_mem_addr_test                    0 # run sweep test to check address mapping for aliased address
-gpgpu_mem_address_mask                    1 # 0 = old addressing mask, 1 = new addressing mask, 2 = new add. mask + flipped bank sel and chip sel bits
-gpuwattch_xml_file  gpuwattch_gtx480.xml # GPUWattch XML file
-power_simulation_enabled                    0 # Turn on power simulator (1=On, 0=Off)
-power_per_cycle_dump                    0 # Dump detailed power output each cycle
-power_trace_enabled                    0 # produce a file for the power trace (1=On, 0=Off)
-power_trace_zlevel                     6 # Compression level of the power trace output log (0=no comp, 9=highest)
-steady_power_levels_enabled                    0 # produce a file for the steady power levels (1=On, 0=Off)
-steady_state_definition                  8:4 # allowed deviation:number of samples
-gpgpu_max_cycle                        0 # terminates gpu simulation early (0 = no limit)
-gpgpu_max_insn                         0 # terminates gpu simulation early (0 = no limit)
-gpgpu_max_cta                          0 # terminates gpu simulation early (0 = no limit)
-gpgpu_runtime_stat                   500 # display runtime statistics such as dram utilization {<freq>:<flag>}
-liveness_message_freq                    1 # Minimum number of seconds between simulation liveness messages (0 = always print)
-gpgpu_flush_l1_cache                    0 # Flush L1 cache at the end of each kernel call
-gpgpu_flush_l2_cache                    0 # Flush L2 cache at the end of each kernel call
-gpgpu_deadlock_detect                    1 # Stop the simulation at deadlock (1=on (default), 0=off)
-gpgpu_ptx_instruction_classification                    0 # if enabled will classify ptx instruction types per kernel (Max 255 kernels now)
-gpgpu_ptx_sim_mode                     0 # Select between Performance (default) or Functional simulation (1)
-gpgpu_clock_domains 700.0:700.0:700.0:924.0 # Clock Domain Frequencies in MhZ {<Core Clock>:<ICNT Clock>:<L2 Clock>:<DRAM Clock>}
-gpgpu_max_concurrent_kernel                    8 # maximum kernels that can run concurrently on GPU
-gpgpu_cflog_interval                    0 # Interval between each snapshot in control flow logger
-visualizer_enabled                     0 # Turn on visualizer output (1=On, 0=Off)
-visualizer_outputfile                 NULL # Specifies the output log file for visualizer
-visualizer_zlevel                      6 # Compression level of the visualizer output log (0=no comp, 9=highest)
-trace_enabled                          0 # Turn on traces
-trace_components                    none # comma seperated list of traces to enable. Complete list found in trace_streams.tup. Default none
-trace_sampling_core                    0 # The core which is printed using CORE_DPRINTF. Default 0
-trace_sampling_memory_partition                   -1 # The memory partition which is printed using MEMPART_DPRINTF. Default -1 (i.e. all)
-enable_ptx_file_line_stats                    1 # Turn on PTX source line statistic profiling. (1 = On)
-ptx_line_stats_filename gpgpu_inst_stats.txt # Output file for PTX source line statistics.
-save_embedded_ptx                      0 # saves ptx files embedded in binary as <n>.ptx
-keep                                   0 # keep intermediate files created by GPGPU-Sim when interfacing with external programs
-gpgpu_ptx_save_converted_ptxplus                    0 # Saved converted ptxplus to a file
-ptx_opcode_latency_int         4,13,4,5,145 # Opcode latencies for integers <ADD,MAX,MUL,MAD,DIV>Default 1,1,19,25,145
-ptx_opcode_latency_fp          4,13,4,5,39 # Opcode latencies for single precision floating points <ADD,MAX,MUL,MAD,DIV>Default 1,1,1,1,30
-ptx_opcode_latency_dp         8,19,8,8,330 # Opcode latencies for double precision floating points <ADD,MAX,MUL,MAD,DIV>Default 8,8,8,8,335
-ptx_opcode_initiation_int            1,2,2,1,8 # Opcode initiation intervals for integers <ADD,MAX,MUL,MAD,DIV>Default 1,1,4,4,32
-ptx_opcode_initiation_fp            1,2,1,1,4 # Opcode initiation intervals for single precision floating points <ADD,MAX,MUL,MAD,DIV>Default 1,1,1,1,5
-ptx_opcode_initiation_dp         8,16,8,8,130 # Opcode initiation intervals for double precision floating points <ADD,MAX,MUL,MAD,DIV>Default 8,8,8,8,130
DRAM Timing Options:
nbk                                    16 # number of banks
CCD                                     2 # column to column delay
RRD                                     6 # minimal delay between activation of rows in different banks
RCD                                    12 # row to column delay
RAS                                    28 # time needed to activate row
RP                                     12 # time needed to precharge (deactivate) row
RC                                     40 # row cycle time
CDLR                                    5 # switching from write to read (changes tWTR)
WR                                     12 # last data-in to row precharge
CL                                     12 # CAS latency
WL                                      4 # Write latency
nbkgrp                                  4 # number of bank groups
CCDL                                    3 # column to column delay between accesses to different bank groups
RTPL                                    2 # read to precharge delay between accesses to different bank groups
Total number of memory sub partition = 12
addr_dec_mask[CHIP]  = 0000000000000000 	high:64 low:0
addr_dec_mask[BK]    = 000000000000e100 	high:16 low:8
addr_dec_mask[ROW]   = 000000000fff0000 	high:28 low:16
addr_dec_mask[COL]   = 0000000000001eff 	high:13 low:0
addr_dec_mask[BURST] = 000000000000003f 	high:6 low:0
sub_partition_id_mask = 0000000000000100
GPGPU-Sim uArch: clock freqs: 700000000.000000:700000000.000000:700000000.000000:924000000.000000
GPGPU-Sim uArch: clock periods: 0.00000000142857142857:0.00000000142857142857:0.00000000142857142857:0.00000000108225108225
*** Initializing Memory Statistics ***
GPGPU-Sim uArch: interconnect node map (shaderID+MemID to icntID)
GPGPU-Sim uArch: Memory nodes ID start from index: 15
GPGPU-Sim uArch:    0   1   2   3   4
GPGPU-Sim uArch:    5   6   7   8   9
GPGPU-Sim uArch:   10  11  12  13  14
GPGPU-Sim uArch:   15  16  17  18  19
GPGPU-Sim uArch:   20  21  22  23  24
GPGPU-Sim uArch:   25  26
GPGPU-Sim uArch: interconnect node reverse map (icntID to shaderID+MemID)
GPGPU-Sim uArch: Memory nodes start from ID: 15
GPGPU-Sim uArch:    0   1   2   3   4
GPGPU-Sim uArch:    5   6   7   8   9
GPGPU-Sim uArch:   10  11  12  13  14
GPGPU-Sim uArch:   15  16  17  18  19
GPGPU-Sim uArch:   20  21  22  23  24
GPGPU-Sim uArch:   25  26
916227844eacf47b27f90dc95594571e  /sciclone/data10/hwang07/adwait/applications/benchmarks/CUDA/kmeans/gpgpu_ptx_sim__kmeans
GPGPU-Sim uArch: performance model initialization complete.
GPGPU-Sim PTX: __cudaRegisterFatBinary, fat_cubin_handle = 1, filename=kmeans_cuda.cu
self exe links to: /sciclone/data10/hwang07/adwait/applications/benchmarks/CUDA/kmeans/gpgpu_ptx_sim__kmeans
Running md5sum using "md5sum /sciclone/data10/hwang07/adwait/applications/benchmarks/CUDA/kmeans/gpgpu_ptx_sim__kmeans "
Parsing file _cuobjdump_complete_output_GhcJPR
######### cuobjdump parser ########
## Adding new section ELF
Adding arch: sm_20
Adding identifier: kmeans_cuda.cu
## Adding new section PTX
Adding ptx filename: _cuobjdump_1.ptx
Adding arch: sm_20
Adding identifier: kmeans_cuda.cu
Done parsing!!!
GPGPU-Sim PTX: __cudaRegisterFunction _Z11kmeansPointPfiiiPiS_S_S0_ : hostFun 0x0x402e47, fat_cubin_handle = 1
GPGPU-Sim PTX: instruction assembly for function '_Z14invert_mappingPfS_ii'...   done.
GPGPU-Sim PTX: finding reconvergence points for '_Z14invert_mappingPfS_ii'...
GPGPU-Sim PTX: Finding dominators for '_Z14invert_mappingPfS_ii'...
GPGPU-Sim PTX: Finding immediate dominators for '_Z14invert_mappingPfS_ii'...
GPGPU-Sim PTX: Finding postdominators for '_Z14invert_mappingPfS_ii'...
GPGPU-Sim PTX: Finding immediate postdominators for '_Z14invert_mappingPfS_ii'...
GPGPU-Sim PTX: pre-decoding instructions for '_Z14invert_mappingPfS_ii'...
GPGPU-Sim PTX: reconvergence points for _Z14invert_mappingPfS_ii...
GPGPU-Sim PTX:  1 (potential) branch divergence @  PC=0x038 (_1.ptx:70) @%p1 bra $Lt_0_2050;
GPGPU-Sim PTX:    immediate post dominator      @  PC=0x110 (_1.ptx:103) exit;
GPGPU-Sim PTX:  2 (potential) branch divergence @  PC=0x058 (_1.ptx:74) @%p2 bra $Lt_0_2562;
GPGPU-Sim PTX:    immediate post dominator      @  PC=0x110 (_1.ptx:103) exit;
GPGPU-Sim PTX:  3 (potential) branch divergence @  PC=0x108 (_1.ptx:99) @%p3 bra $Lt_0_3074;
GPGPU-Sim PTX:    immediate post dominator      @  PC=0x110 (_1.ptx:103) exit;
GPGPU-Sim PTX: ... end of reconvergence points for _Z14invert_mappingPfS_ii
GPGPU-Sim PTX: ... done pre-decoding instructions for '_Z14invert_mappingPfS_ii'.
GPGPU-Sim PTX: allocating global region for "t_features" from 0x100 to 0x104 (global memory space)
GPGPU-Sim PTX: allocating constant region for "c_clusters" from 0x180 to 0x1280 (global memory space) 1
GPGPU-Sim PTX: instruction assembly for function '_Z11kmeansPointPfiiiPiS_S_S0_'...   done.
GPGPU-Sim PTX: finding reconvergence points for '_Z11kmeansPointPfiiiPiS_S_S0_'...
GPGPU-Sim PTX: Finding dominators for '_Z11kmeansPointPfiiiPiS_S_S0_'...
GPGPU-Sim PTX: Finding immediate dominators for '_Z11kmeansPointPfiiiPiS_S_S0_'...
GPGPU-Sim PTX: Finding postdominators for '_Z11kmeansPointPfiiiPiS_S_S0_'...
GPGPU-Sim PTX: Finding immediate postdominators for '_Z11kmeansPointPfiiiPiS_S_S0_'...
GPGPU-Sim PTX: pre-decoding instructions for '_Z11kmeansPointPfiiiPiS_S_S0_'...
GPGPU-Sim PTX: reconvergence points for _Z11kmeansPointPfiiiPiS_S_S0_...
GPGPU-Sim PTX:  1 (potential) branch divergence @  PC=0x180 (_1.ptx:138) @!%p1 bra $Lt_1_4866;
GPGPU-Sim PTX:    immediate post dominator      @  PC=0x338 (_1.ptx:207) @!%p1 bra $Lt_1_7682;
GPGPU-Sim PTX:  2 (potential) branch divergence @  PC=0x1a0 (_1.ptx:142) @%p2 bra $Lt_1_8194;
GPGPU-Sim PTX:    immediate post dominator      @  PC=0x338 (_1.ptx:207) @!%p1 bra $Lt_1_7682;
GPGPU-Sim PTX:  3 (potential) branch divergence @  PC=0x1f0 (_1.ptx:154) @!%p3 bra $Lt_1_8450;
GPGPU-Sim PTX:    immediate post dominator      @  PC=0x2e0 (_1.ptx:190) setp.lt.f32 %p5, %f2, %f1;
GPGPU-Sim PTX:  4 (potential) branch divergence @  PC=0x2c8 (_1.ptx:185) @%p4 bra $Lt_1_6402;
GPGPU-Sim PTX:    immediate post dominator      @  PC=0x2d0 (_1.ptx:186) bra.uni $Lt_1_5890;
GPGPU-Sim PTX:  5 (potential) branch divergence @  PC=0x2d0 (_1.ptx:186) bra.uni $Lt_1_5890;
GPGPU-Sim PTX:    immediate post dominator      @  PC=0x2e0 (_1.ptx:190) setp.lt.f32 %p5, %f2, %f1;
GPGPU-Sim PTX:  6 (potential) branch divergence @  PC=0x2e8 (_1.ptx:191) @!%p5 bra $Lt_1_6914;
GPGPU-Sim PTX:    immediate post dominator      @  PC=0x300 (_1.ptx:197) add.s32 %r18, %r18, 1;
GPGPU-Sim PTX:  7 (potential) branch divergence @  PC=0x310 (_1.ptx:199) @%p6 bra $Lt_1_5634;
GPGPU-Sim PTX:    immediate post dominator      @  PC=0x318 (_1.ptx:200) bra.uni $Lt_1_4610;
GPGPU-Sim PTX:  8 (potential) branch divergence @  PC=0x318 (_1.ptx:200) bra.uni $Lt_1_4610;
GPGPU-Sim PTX:    immediate post dominator      @  PC=0x338 (_1.ptx:207) @!%p1 bra $Lt_1_7682;
GPGPU-Sim PTX:  9 (potential) branch divergence @  PC=0x328 (_1.ptx:203) bra.uni $Lt_1_4610;
GPGPU-Sim PTX:    immediate post dominator      @  PC=0x338 (_1.ptx:207) @!%p1 bra $Lt_1_7682;
GPGPU-Sim PTX: 10 (potential) branch divergence @  PC=0x338 (_1.ptx:207) @!%p1 bra $Lt_1_7682;
GPGPU-Sim PTX:    immediate post dominator      @  PC=0x368 (_1.ptx:216) exit;
GPGPU-Sim PTX: ... end of reconvergence points for _Z11kmeansPointPfiiiPiS_S_S0_
GPGPU-Sim PTX: ... done pre-decoding instructions for '_Z11kmeansPointPfiiiPiS_S_S0_'.
GPGPU-Sim PTX: allocating global region for "t_features_flipped" from 0x1280 to 0x1284 (global memory space)
GPGPU-Sim PTX: allocating global region for "t_clusters" from 0x1284 to 0x1288 (global memory space)
GPGPU-Sim PTX: finished parsing EMBEDDED .ptx file _1.ptx
Adding _cuobjdump_1.ptx with cubin handle 1
GPGPU-Sim PTX: extracting embedded .ptx to temporary file "_ptx_CIeS9C"
Running: cat _ptx_CIeS9C | sed 's/.version 1.5/.version 1.4/' | sed 's/, texmode_independent//' | sed 's/\(\.extern \.const\[1\] .b8 \w\+\)\[\]/\1\[1\]/' | sed 's/const\[.\]/const\[0\]/g' > _ptx2_p7aGIy
GPGPU-Sim PTX: generating ptxinfo using "$CUDA_INSTALL_PATH/bin/ptxas --gpu-name=sm_20 -v _ptx2_p7aGIy --output-file  /dev/null 2> _ptx_CIeS9Cinfo"
GPGPU-Sim PTX: Kernel '_Z11kmeansPointPfiiiPiS_S_S0_' : regs=12, lmem=0, smem=0, cmem=4440
GPGPU-Sim PTX: Kernel '_Z14invert_mappingPfS_ii' : regs=10, lmem=0, smem=0, cmem=4408
GPGPU-Sim PTX: removing ptxinfo using "rm -f _ptx_CIeS9C _ptx2_p7aGIy _ptx_CIeS9Cinfo"
GPGPU-Sim PTX: loading globals with explicit initializers... 
GPGPU-Sim PTX: finished loading globals (0 bytes total).
GPGPU-Sim PTX: loading constants with explicit initializers...  done.
GPGPU-Sim PTX: __cudaRegisterFunction _Z14invert_mappingPfS_ii : hostFun 0x0x402cb7, fat_cubin_handle = 1
GPGPU-Sim PTX: in __cudaRegisterTexture:
GPGPU-Sim PTX:   int dim = 1
GPGPU-Sim PTX:   int norm = 0
GPGPU-Sim PTX:   int ext = 0
GPGPU-Sim PTX:   Execution warning: Not finished implementing "void __cudaRegisterTexture(void**, const textureReference*, const void**, const char*, int, int, int)"
GPGPU-Sim PTX: in __cudaRegisterTexture:
GPGPU-Sim PTX:   int dim = 1
GPGPU-Sim PTX:   int norm = 0
GPGPU-Sim PTX:   int ext = 0
GPGPU-Sim PTX:   Execution warning: Not finished implementing "void __cudaRegisterTexture(void**, const textureReference*, const void**, const char*, int, int, int)"
GPGPU-Sim PTX: in __cudaRegisterTexture:
GPGPU-Sim PTX:   int dim = 1
GPGPU-Sim PTX:   int norm = 0
GPGPU-Sim PTX:   int ext = 0
GPGPU-Sim PTX:   Execution warning: Not finished implementing "void __cudaRegisterTexture(void**, const textureReference*, const void**, const char*, int, int, int)"
GPGPU-Sim PTX: __cudaRegisterVar: hostVar = 0x6085e0; deviceAddress = c_clusters; deviceName = c_clusters
GPGPU-Sim PTX: __cudaRegisterVar: Registering const memory space of 4352 bytes
GPGPU-Sim PTX registering constant c_clusters (4352 bytes) to name mapping

I/O completed

Number of objects: 204800
Number of features: 34

GPGPU-Sim PTX: cudaLaunch for 0x0x402cb7 (mode=performance simulation) on stream 0
GPGPU-Sim PTX: pushing kernel '_Z14invert_mappingPfS_ii' to stream 0, gridDim= (841,1,1) blockDim = (256,1,1) 
kernel '_Z14invert_mappingPfS_ii' transfer to GPU hardware scheduler
GPGPU-Sim uArch: Shader 1 bind to kernel 1 '_Z14invert_mappingPfS_ii'
GPGPU-Sim uArch: CTA/core = 6, limited by: threads
GPGPU-Sim uArch: core:  1, cta: 0 initialized @(1,0)
GPGPU-Sim uArch: Shader 2 bind to kernel 1 '_Z14invert_mappingPfS_ii'
GPGPU-Sim uArch: core:  2, cta: 0 initialized @(1,0)
GPGPU-Sim uArch: Shader 3 bind to kernel 1 '_Z14invert_mappingPfS_ii'
GPGPU-Sim uArch: core:  3, cta: 0 initialized @(1,0)
GPGPU-Sim uArch: Shader 4 bind to kernel 1 '_Z14invert_mappingPfS_ii'
GPGPU-Sim uArch: core:  4, cta: 0 initialized @(1,0)
GPGPU-Sim uArch: Shader 5 bind to kernel 1 '_Z14invert_mappingPfS_ii'
GPGPU-Sim uArch: core:  5, cta: 0 initialized @(1,0)
GPGPU-Sim uArch: Shader 6 bind to kernel 1 '_Z14invert_mappingPfS_ii'
GPGPU-Sim uArch: core:  6, cta: 0 initialized @(1,0)
GPGPU-Sim uArch: Shader 7 bind to kernel 1 '_Z14invert_mappingPfS_ii'
GPGPU-Sim uArch: core:  7, cta: 0 initialized @(1,0)
GPGPU-Sim uArch: Shader 8 bind to kernel 1 '_Z14invert_mappingPfS_ii'
GPGPU-Sim uArch: core:  8, cta: 0 initialized @(1,0)
GPGPU-Sim uArch: Shader 9 bind to kernel 1 '_Z14invert_mappingPfS_ii'
GPGPU-Sim uArch: core:  9, cta: 0 initialized @(1,0)
GPGPU-Sim uArch: Shader 10 bind to kernel 1 '_Z14invert_mappingPfS_ii'
GPGPU-Sim uArch: core: 10, cta: 0 initialized @(1,0)
GPGPU-Sim uArch: Shader 11 bind to kernel 1 '_Z14invert_mappingPfS_ii'
GPGPU-Sim uArch: core: 11, cta: 0 initialized @(1,0)
GPGPU-Sim uArch: Shader 12 bind to kernel 1 '_Z14invert_mappingPfS_ii'
GPGPU-Sim uArch: core: 12, cta: 0 initialized @(1,0)
GPGPU-Sim uArch: Shader 13 bind to kernel 1 '_Z14invert_mappingPfS_ii'
GPGPU-Sim uArch: core: 13, cta: 0 initialized @(1,0)
GPGPU-Sim uArch: Shader 14 bind to kernel 1 '_Z14invert_mappingPfS_ii'
GPGPU-Sim uArch: core: 14, cta: 0 initialized @(1,0)
GPGPU-Sim uArch: Shader 0 bind to kernel 1 '_Z14invert_mappingPfS_ii'
GPGPU-Sim uArch: core:  0, cta: 0 initialized @(1,0)
GPGPU-Sim uArch: core:  1, cta: 1 initialized @(2,0)
GPGPU-Sim uArch: core:  2, cta: 1 initialized @(2,0)
GPGPU-Sim uArch: core:  3, cta: 1 initialized @(2,0)
GPGPU-Sim uArch: core:  4, cta: 1 initialized @(2,0)
GPGPU-Sim uArch: core:  5, cta: 1 initialized @(2,0)
GPGPU-Sim uArch: core:  6, cta: 1 initialized @(2,0)
GPGPU-Sim uArch: core:  7, cta: 1 initialized @(2,0)
GPGPU-Sim uArch: core:  8, cta: 1 initialized @(2,0)
GPGPU-Sim uArch: core:  9, cta: 1 initialized @(2,0)
GPGPU-Sim uArch: core: 10, cta: 1 initialized @(2,0)
GPGPU-Sim uArch: core: 11, cta: 1 initialized @(2,0)
GPGPU-Sim uArch: core: 12, cta: 1 initialized @(2,0)
GPGPU-Sim uArch: core: 13, cta: 1 initialized @(2,0)
GPGPU-Sim uArch: core: 14, cta: 1 initialized @(2,0)
GPGPU-Sim uArch: core:  0, cta: 1 initialized @(2,0)
GPGPU-Sim uArch: core:  1, cta: 2 initialized @(3,0)
GPGPU-Sim uArch: core:  2, cta: 2 initialized @(3,0)
GPGPU-Sim uArch: core:  3, cta: 2 initialized @(3,0)
GPGPU-Sim uArch: core:  4, cta: 2 initialized @(3,0)
GPGPU-Sim uArch: core:  5, cta: 2 initialized @(3,0)
GPGPU-Sim uArch: core:  6, cta: 2 initialized @(3,0)
GPGPU-Sim uArch: core:  7, cta: 2 initialized @(3,0)
GPGPU-Sim uArch: core:  8, cta: 2 initialized @(3,0)
GPGPU-Sim uArch: core:  9, cta: 2 initialized @(3,0)
GPGPU-Sim uArch: core: 10, cta: 2 initialized @(3,0)
GPGPU-Sim uArch: core: 11, cta: 2 initialized @(3,0)
GPGPU-Sim uArch: core: 12, cta: 2 initialized @(3,0)
GPGPU-Sim uArch: core: 13, cta: 2 initialized @(3,0)
GPGPU-Sim uArch: core: 14, cta: 2 initialized @(3,0)
GPGPU-Sim uArch: core:  0, cta: 2 initialized @(3,0)
GPGPU-Sim uArch: core:  1, cta: 3 initialized @(4,0)
GPGPU-Sim uArch: core:  2, cta: 3 initialized @(4,0)
GPGPU-Sim uArch: core:  3, cta: 3 initialized @(4,0)
GPGPU-Sim uArch: core:  4, cta: 3 initialized @(4,0)
GPGPU-Sim uArch: core:  5, cta: 3 initialized @(4,0)
GPGPU-Sim uArch: core:  6, cta: 3 initialized @(4,0)
GPGPU-Sim uArch: core:  7, cta: 3 initialized @(4,0)
GPGPU-Sim uArch: core:  8, cta: 3 initialized @(4,0)
GPGPU-Sim uArch: core:  9, cta: 3 initialized @(4,0)
GPGPU-Sim uArch: core: 10, cta: 3 initialized @(4,0)
GPGPU-Sim uArch: core: 11, cta: 3 initialized @(4,0)
GPGPU-Sim uArch: core: 12, cta: 3 initialized @(4,0)
GPGPU-Sim uArch: core: 13, cta: 3 initialized @(4,0)
GPGPU-Sim uArch: core: 14, cta: 3 initialized @(4,0)
GPGPU-Sim uArch: core:  0, cta: 3 initialized @(4,0)
GPGPU-Sim uArch: core:  1, cta: 4 initialized @(5,0)
GPGPU-Sim uArch: core:  2, cta: 4 initialized @(5,0)
GPGPU-Sim uArch: core:  3, cta: 4 initialized @(5,0)
GPGPU-Sim uArch: core:  4, cta: 4 initialized @(5,0)
GPGPU-Sim uArch: core:  5, cta: 4 initialized @(5,0)
GPGPU-Sim uArch: core:  6, cta: 4 initialized @(5,0)
GPGPU-Sim uArch: core:  7, cta: 4 initialized @(5,0)
GPGPU-Sim uArch: core:  8, cta: 4 initialized @(5,0)
GPGPU-Sim uArch: core:  9, cta: 4 initialized @(5,0)
GPGPU-Sim uArch: core: 10, cta: 4 initialized @(5,0)
GPGPU-Sim uArch: core: 11, cta: 4 initialized @(5,0)
GPGPU-Sim uArch: core: 12, cta: 4 initialized @(5,0)
GPGPU-Sim uArch: core: 13, cta: 4 initialized @(5,0)
GPGPU-Sim uArch: core: 14, cta: 4 initialized @(5,0)
GPGPU-Sim uArch: core:  0, cta: 4 initialized @(5,0)
GPGPU-Sim uArch: core:  1, cta: 5 initialized @(6,0)
GPGPU-Sim uArch: core:  2, cta: 5 initialized @(6,0)
GPGPU-Sim uArch: core:  3, cta: 5 initialized @(6,0)
GPGPU-Sim uArch: core:  4, cta: 5 initialized @(6,0)
GPGPU-Sim uArch: core:  5, cta: 5 initialized @(6,0)
GPGPU-Sim uArch: core:  6, cta: 5 initialized @(6,0)
GPGPU-Sim uArch: core:  7, cta: 5 initialized @(6,0)
GPGPU-Sim uArch: core:  8, cta: 5 initialized @(6,0)
GPGPU-Sim uArch: core:  9, cta: 5 initialized @(6,0)
GPGPU-Sim uArch: core: 10, cta: 5 initialized @(6,0)
GPGPU-Sim uArch: core: 11, cta: 5 initialized @(6,0)
GPGPU-Sim uArch: core: 12, cta: 5 initialized @(6,0)
GPGPU-Sim uArch: core: 13, cta: 5 initialized @(6,0)
GPGPU-Sim uArch: core: 14, cta: 5 initialized @(6,0)
GPGPU-Sim uArch: core:  0, cta: 5 initialized @(6,0)
GPGPU-Sim uArch: cycles simulated: 500  inst.: 9600 (ipc=19.2) sim_rate=1066 (inst/sec) elapsed = 0:0:00:09 / Tue Mar 22 12:44:17 2016
GPGPU-Sim uArch: cycles simulated: 1000  inst.: 40032 (ipc=40.0) sim_rate=2001 (inst/sec) elapsed = 0:0:00:20 / Tue Mar 22 12:44:28 2016
GPGPU-Sim uArch: cycles simulated: 2500  inst.: 55072 (ipc=22.0) sim_rate=2622 (inst/sec) elapsed = 0:0:00:21 / Tue Mar 22 12:44:29 2016
GPGPU-Sim PTX: 100000 instructions simulated : ctaid=(12,0,0) tid=(31,0,0)
GPGPU-Sim uArch: cycles simulated: 4000  inst.: 114688 (ipc=28.7) sim_rate=5213 (inst/sec) elapsed = 0:0:00:22 / Tue Mar 22 12:44:30 2016
GPGPU-Sim uArch: cycles simulated: 5500  inst.: 178208 (ipc=32.4) sim_rate=7748 (inst/sec) elapsed = 0:0:00:23 / Tue Mar 22 12:44:31 2016
GPGPU-Sim PTX: 200000 instructions simulated : ctaid=(10,0,0) tid=(31,0,0)
GPGPU-Sim uArch: cycles simulated: 6500  inst.: 217536 (ipc=33.5) sim_rate=9064 (inst/sec) elapsed = 0:0:00:24 / Tue Mar 22 12:44:32 2016
GPGPU-Sim uArch: cycles simulated: 7500  inst.: 255648 (ipc=34.1) sim_rate=10225 (inst/sec) elapsed = 0:0:00:25 / Tue Mar 22 12:44:33 2016
GPGPU-Sim PTX: 300000 instructions simulated : ctaid=(3,0,0) tid=(31,0,0)
GPGPU-Sim uArch: cycles simulated: 9500  inst.: 334528 (ipc=35.2) sim_rate=12866 (inst/sec) elapsed = 0:0:00:26 / Tue Mar 22 12:44:34 2016
GPGPU-Sim PTX: 400000 instructions simulated : ctaid=(11,0,0) tid=(63,0,0)
GPGPU-Sim uArch: cycles simulated: 11000  inst.: 394144 (ipc=35.8) sim_rate=14597 (inst/sec) elapsed = 0:0:00:27 / Tue Mar 22 12:44:35 2016
GPGPU-Sim uArch: cycles simulated: 13000  inst.: 488768 (ipc=37.6) sim_rate=17456 (inst/sec) elapsed = 0:0:00:28 / Tue Mar 22 12:44:36 2016
GPGPU-Sim PTX: 500000 instructions simulated : ctaid=(2,0,0) tid=(95,0,0)
GPGPU-Sim uArch: cycles simulated: 14500  inst.: 544384 (ipc=37.5) sim_rate=18771 (inst/sec) elapsed = 0:0:00:29 / Tue Mar 22 12:44:37 2016
GPGPU-Sim PTX: 600000 instructions simulated : ctaid=(12,0,0) tid=(159,0,0)
GPGPU-Sim uArch: cycles simulated: 16000  inst.: 596224 (ipc=37.3) sim_rate=19874 (inst/sec) elapsed = 0:0:00:30 / Tue Mar 22 12:44:38 2016
GPGPU-Sim uArch: cycles simulated: 17500  inst.: 666752 (ipc=38.1) sim_rate=21508 (inst/sec) elapsed = 0:0:00:31 / Tue Mar 22 12:44:39 2016
GPGPU-Sim PTX: 700000 instructions simulated : ctaid=(0,0,0) tid=(223,0,0)
GPGPU-Sim uArch: cycles simulated: 19000  inst.: 729760 (ipc=38.4) sim_rate=22805 (inst/sec) elapsed = 0:0:00:32 / Tue Mar 22 12:44:40 2016
GPGPU-Sim PTX: 800000 instructions simulated : ctaid=(5,0,0) tid=(223,0,0)
GPGPU-Sim uArch: cycles simulated: 20500  inst.: 789088 (ipc=38.5) sim_rate=23911 (inst/sec) elapsed = 0:0:00:33 / Tue Mar 22 12:44:41 2016
GPGPU-Sim uArch: cycles simulated: 22000  inst.: 847680 (ipc=38.5) sim_rate=24931 (inst/sec) elapsed = 0:0:00:34 / Tue Mar 22 12:44:42 2016
GPGPU-Sim PTX: 900000 instructions simulated : ctaid=(14,0,0) tid=(223,0,0)
GPGPU-Sim uArch: cycles simulated: 23500  inst.: 910112 (ipc=38.7) sim_rate=26003 (inst/sec) elapsed = 0:0:00:35 / Tue Mar 22 12:44:43 2016
GPGPU-Sim uArch: cycles simulated: 25000  inst.: 971520 (ipc=38.9) sim_rate=26986 (inst/sec) elapsed = 0:0:00:36 / Tue Mar 22 12:44:44 2016
GPGPU-Sim PTX: 1000000 instructions simulated : ctaid=(29,0,0) tid=(63,0,0)
GPGPU-Sim uArch: cycles simulated: 26500  inst.: 1037376 (ipc=39.1) sim_rate=28037 (inst/sec) elapsed = 0:0:00:37 / Tue Mar 22 12:44:45 2016
GPGPU-Sim uArch: Shader 1 finished CTA #0 (26954,0), 5 CTAs running
GPGPU-Sim uArch: core:  1, cta: 0 initialized @(26955,0)
GPGPU-Sim uArch: Shader 13 finished CTA #0 (27112,0), 5 CTAs running
GPGPU-Sim uArch: core: 13, cta: 0 initialized @(27113,0)
GPGPU-Sim uArch: Shader 10 finished CTA #0 (27441,0), 5 CTAs running
GPGPU-Sim uArch: core: 10, cta: 0 initialized @(27442,0)
GPGPU-Sim PTX: 1100000 instructions simulated : ctaid=(18,0,0) tid=(31,0,0)
GPGPU-Sim uArch: Shader 6 finished CTA #0 (27972,0), 5 CTAs running
GPGPU-Sim uArch: core:  6, cta: 0 initialized @(27973,0)
GPGPU-Sim uArch: cycles simulated: 28000  inst.: 1092512 (ipc=39.0) sim_rate=28750 (inst/sec) elapsed = 0:0:00:38 / Tue Mar 22 12:44:46 2016
GPGPU-Sim uArch: Shader 7 finished CTA #0 (28002,0), 5 CTAs running
GPGPU-Sim uArch: core:  7, cta: 0 initialized @(28003,0)
GPGPU-Sim uArch: Shader 11 finished CTA #0 (28008,0), 5 CTAs running
GPGPU-Sim uArch: core: 11, cta: 0 initialized @(28009,0)
GPGPU-Sim uArch: Shader 9 finished CTA #0 (28064,0), 5 CTAs running
GPGPU-Sim uArch: core:  9, cta: 0 initialized @(28065,0)
GPGPU-Sim uArch: Shader 5 finished CTA #0 (28356,0), 5 CTAs running
GPGPU-Sim uArch: core:  5, cta: 0 initialized @(28357,0)
GPGPU-Sim uArch: Shader 4 finished CTA #0 (28738,0), 5 CTAs running
GPGPU-Sim uArch: core:  4, cta: 0 initialized @(28739,0)
GPGPU-Sim uArch: Shader 2 finished CTA #0 (28788,0), 5 CTAs running
GPGPU-Sim uArch: core:  2, cta: 0 initialized @(28789,0)
GPGPU-Sim uArch: Shader 8 finished CTA #0 (28792,0), 5 CTAs running
GPGPU-Sim uArch: core:  8, cta: 0 initialized @(28793,0)
GPGPU-Sim uArch: Shader 0 finished CTA #0 (28848,0), 5 CTAs running
GPGPU-Sim uArch: core:  0, cta: 0 initialized @(28849,0)
GPGPU-Sim uArch: Shader 3 finished CTA #0 (28879,0), 5 CTAs running
GPGPU-Sim uArch: core:  3, cta: 0 initialized @(28880,0)
GPGPU-Sim uArch: Shader 14 finished CTA #0 (29281,0), 5 CTAs running
GPGPU-Sim uArch: core: 14, cta: 0 initialized @(29282,0)
GPGPU-Sim uArch: Shader 12 finished CTA #0 (29355,0), 5 CTAs running
GPGPU-Sim uArch: core: 12, cta: 0 initialized @(29356,0)
GPGPU-Sim uArch: cycles simulated: 29500  inst.: 1148544 (ipc=38.9) sim_rate=29449 (inst/sec) elapsed = 0:0:00:39 / Tue Mar 22 12:44:47 2016
GPGPU-Sim PTX: 1200000 instructions simulated : ctaid=(19,0,0) tid=(127,0,0)
GPGPU-Sim uArch: cycles simulated: 31000  inst.: 1208832 (ipc=39.0) sim_rate=30220 (inst/sec) elapsed = 0:0:00:40 / Tue Mar 22 12:44:48 2016
GPGPU-Sim uArch: cycles simulated: 32500  inst.: 1271840 (ipc=39.1) sim_rate=31020 (inst/sec) elapsed = 0:0:00:41 / Tue Mar 22 12:44:49 2016
GPGPU-Sim PTX: 1300000 instructions simulated : ctaid=(21,0,0) tid=(95,0,0)
GPGPU-Sim uArch: cycles simulated: 34000  inst.: 1332000 (ipc=39.2) sim_rate=31714 (inst/sec) elapsed = 0:0:00:42 / Tue Mar 22 12:44:50 2016
GPGPU-Sim uArch: cycles simulated: 35000  inst.: 1372096 (ipc=39.2) sim_rate=31909 (inst/sec) elapsed = 0:0:00:43 / Tue Mar 22 12:44:51 2016
GPGPU-Sim PTX: 1400000 instructions simulated : ctaid=(28,0,0) tid=(31,0,0)
GPGPU-Sim uArch: cycles simulated: 36500  inst.: 1428544 (ipc=39.1) sim_rate=32466 (inst/sec) elapsed = 0:0:00:44 / Tue Mar 22 12:44:52 2016
GPGPU-Sim PTX: 1500000 instructions simulated : ctaid=(26,0,0) tid=(159,0,0)
GPGPU-Sim uArch: cycles simulated: 38500  inst.: 1502880 (ipc=39.0) sim_rate=33397 (inst/sec) elapsed = 0:0:00:45 / Tue Mar 22 12:44:53 2016
GPGPU-Sim uArch: cycles simulated: 40000  inst.: 1564128 (ipc=39.1) sim_rate=34002 (inst/sec) elapsed = 0:0:00:46 / Tue Mar 22 12:44:54 2016
GPGPU-Sim PTX: 1600000 instructions simulated : ctaid=(24,0,0) tid=(159,0,0)
GPGPU-Sim uArch: cycles simulated: 41500  inst.: 1631552 (ipc=39.3) sim_rate=34713 (inst/sec) elapsed = 0:0:00:47 / Tue Mar 22 12:44:55 2016
GPGPU-Sim uArch: cycles simulated: 42500  inst.: 1672416 (ipc=39.4) sim_rate=34842 (inst/sec) elapsed = 0:0:00:48 / Tue Mar 22 12:44:56 2016
GPGPU-Sim PTX: 1700000 instructions simulated : ctaid=(26,0,0) tid=(255,0,0)
GPGPU-Sim uArch: cycles simulated: 44000  inst.: 1729184 (ipc=39.3) sim_rate=35289 (inst/sec) elapsed = 0:0:00:49 / Tue Mar 22 12:44:57 2016
GPGPU-Sim PTX: 1800000 instructions simulated : ctaid=(27,0,0) tid=(191,0,0)
GPGPU-Sim uArch: cycles simulated: 45500  inst.: 1791328 (ipc=39.4) sim_rate=35826 (inst/sec) elapsed = 0:0:00:50 / Tue Mar 22 12:44:58 2016
GPGPU-Sim uArch: cycles simulated: 47000  inst.: 1854816 (ipc=39.5) sim_rate=36368 (inst/sec) elapsed = 0:0:00:51 / Tue Mar 22 12:44:59 2016
GPGPU-Sim PTX: 1900000 instructions simulated : ctaid=(17,0,0) tid=(223,0,0)
GPGPU-Sim uArch: cycles simulated: 48500  inst.: 1918592 (ipc=39.6) sim_rate=36896 (inst/sec) elapsed = 0:0:00:52 / Tue Mar 22 12:45:00 2016
GPGPU-Sim PTX: 2000000 instructions simulated : ctaid=(21,0,0) tid=(255,0,0)
GPGPU-Sim uArch: cycles simulated: 50500  inst.: 1998048 (ipc=39.6) sim_rate=37699 (inst/sec) elapsed = 0:0:00:53 / Tue Mar 22 12:45:01 2016
GPGPU-Sim uArch: cycles simulated: 52000  inst.: 2055968 (ipc=39.5) sim_rate=38073 (inst/sec) elapsed = 0:0:00:54 / Tue Mar 22 12:45:02 2016
GPGPU-Sim PTX: 2100000 instructions simulated : ctaid=(32,0,0) tid=(31,0,0)
GPGPU-Sim uArch: Shader 13 finished CTA #1 (52583,0), 5 CTAs running
GPGPU-Sim uArch: core: 13, cta: 1 initialized @(52584,0)
GPGPU-Sim uArch: Shader 10 finished CTA #1 (52746,0), 5 CTAs running
GPGPU-Sim uArch: core: 10, cta: 1 initialized @(52747,0)
GPGPU-Sim uArch: Shader 5 finished CTA #1 (53246,0), 5 CTAs running
GPGPU-Sim uArch: core:  5, cta: 1 initialized @(53247,0)
GPGPU-Sim uArch: Shader 4 finished CTA #1 (53434,0), 5 CTAs running
GPGPU-Sim uArch: core:  4, cta: 1 initialized @(53435,0)
GPGPU-Sim uArch: cycles simulated: 53500  inst.: 2116000 (ipc=39.6) sim_rate=38472 (inst/sec) elapsed = 0:0:00:55 / Tue Mar 22 12:45:03 2016
GPGPU-Sim uArch: Shader 11 finished CTA #1 (53510,0), 5 CTAs running
GPGPU-Sim uArch: core: 11, cta: 1 initialized @(53511,0)
GPGPU-Sim uArch: Shader 2 finished CTA #1 (54287,0), 5 CTAs running
GPGPU-Sim uArch: core:  2, cta: 1 initialized @(54288,0)
GPGPU-Sim uArch: Shader 14 finished CTA #1 (54641,0), 5 CTAs running
GPGPU-Sim uArch: core: 14, cta: 1 initialized @(54642,0)
GPGPU-Sim uArch: Shader 7 finished CTA #1 (54741,0), 5 CTAs running
GPGPU-Sim uArch: core:  7, cta: 1 initialized @(54742,0)
GPGPU-Sim PTX: 2200000 instructions simulated : ctaid=(30,0,0) tid=(95,0,0)
GPGPU-Sim uArch: cycles simulated: 55000  inst.: 2174400 (ipc=39.5) sim_rate=38828 (inst/sec) elapsed = 0:0:00:56 / Tue Mar 22 12:45:04 2016
GPGPU-Sim uArch: Shader 1 finished CTA #1 (55834,0), 5 CTAs running
GPGPU-Sim uArch: core:  1, cta: 1 initialized @(55835,0)
GPGPU-Sim uArch: Shader 0 finished CTA #1 (55951,0), 5 CTAs running
GPGPU-Sim uArch: core:  0, cta: 1 initialized @(55952,0)
GPGPU-Sim uArch: Shader 6 finished CTA #1 (55998,0), 5 CTAs running
GPGPU-Sim uArch: core:  6, cta: 1 initialized @(55999,0)
GPGPU-Sim uArch: cycles simulated: 56000  inst.: 2221568 (ipc=39.7) sim_rate=38974 (inst/sec) elapsed = 0:0:00:57 / Tue Mar 22 12:45:05 2016
GPGPU-Sim uArch: Shader 9 finished CTA #1 (56230,0), 5 CTAs running
GPGPU-Sim uArch: core:  9, cta: 1 initialized @(56231,0)
GPGPU-Sim uArch: Shader 8 finished CTA #1 (56368,0), 5 CTAs running
GPGPU-Sim uArch: core:  8, cta: 1 initialized @(56369,0)
GPGPU-Sim uArch: Shader 3 finished CTA #1 (56876,0), 5 CTAs running
GPGPU-Sim uArch: core:  3, cta: 1 initialized @(56877,0)
GPGPU-Sim PTX: 2300000 instructions simulated : ctaid=(26,0,0) tid=(223,0,0)
GPGPU-Sim uArch: Shader 12 finished CTA #1 (57460,0), 5 CTAs running
GPGPU-Sim uArch: core: 12, cta: 1 initialized @(57461,0)
GPGPU-Sim uArch: cycles simulated: 57500  inst.: 2284608 (ipc=39.7) sim_rate=39389 (inst/sec) elapsed = 0:0:00:58 / Tue Mar 22 12:45:06 2016
GPGPU-Sim uArch: cycles simulated: 58500  inst.: 2328512 (ipc=39.8) sim_rate=39466 (inst/sec) elapsed = 0:0:00:59 / Tue Mar 22 12:45:07 2016
GPGPU-Sim PTX: 2400000 instructions simulated : ctaid=(42,0,0) tid=(159,0,0)
GPGPU-Sim uArch: cycles simulated: 60000  inst.: 2390784 (ipc=39.8) sim_rate=39846 (inst/sec) elapsed = 0:0:01:00 / Tue Mar 22 12:45:08 2016
GPGPU-Sim uArch: cycles simulated: 61500  inst.: 2454656 (ipc=39.9) sim_rate=40240 (inst/sec) elapsed = 0:0:01:01 / Tue Mar 22 12:45:09 2016
GPGPU-Sim PTX: 2500000 instructions simulated : ctaid=(34,0,0) tid=(191,0,0)
GPGPU-Sim uArch: cycles simulated: 62500  inst.: 2500416 (ipc=40.0) sim_rate=40329 (inst/sec) elapsed = 0:0:01:02 / Tue Mar 22 12:45:10 2016
GPGPU-Sim uArch: cycles simulated: 64000  inst.: 2558752 (ipc=40.0) sim_rate=40615 (inst/sec) elapsed = 0:0:01:03 / Tue Mar 22 12:45:11 2016
GPGPU-Sim PTX: 2600000 instructions simulated : ctaid=(40,0,0) tid=(95,0,0)
GPGPU-Sim uArch: cycles simulated: 65500  inst.: 2619776 (ipc=40.0) sim_rate=40934 (inst/sec) elapsed = 0:0:01:04 / Tue Mar 22 12:45:12 2016
GPGPU-Sim PTX: 2700000 instructions simulated : ctaid=(44,0,0) tid=(255,0,0)
GPGPU-Sim uArch: cycles simulated: 67000  inst.: 2687008 (ipc=40.1) sim_rate=41338 (inst/sec) elapsed = 0:0:01:05 / Tue Mar 22 12:45:13 2016
GPGPU-Sim uArch: cycles simulated: 68500  inst.: 2753120 (ipc=40.2) sim_rate=41713 (inst/sec) elapsed = 0:0:01:06 / Tue Mar 22 12:45:14 2016
GPGPU-Sim PTX: 2800000 instructions simulated : ctaid=(34,0,0) tid=(255,0,0)
GPGPU-Sim uArch: cycles simulated: 70000  inst.: 2811936 (ipc=40.2) sim_rate=41969 (inst/sec) elapsed = 0:0:01:07 / Tue Mar 22 12:45:15 2016
GPGPU-Sim PTX: 2900000 instructions simulated : ctaid=(38,0,0) tid=(223,0,0)
GPGPU-Sim uArch: cycles simulated: 71500  inst.: 2870880 (ipc=40.2) sim_rate=42218 (inst/sec) elapsed = 0:0:01:08 / Tue Mar 22 12:45:16 2016
GPGPU-Sim uArch: cycles simulated: 73000  inst.: 2933440 (ipc=40.2) sim_rate=42513 (inst/sec) elapsed = 0:0:01:09 / Tue Mar 22 12:45:17 2016
GPGPU-Sim PTX: 3000000 instructions simulated : ctaid=(50,0,0) tid=(31,0,0)
GPGPU-Sim uArch: cycles simulated: 74500  inst.: 2992000 (ipc=40.2) sim_rate=42742 (inst/sec) elapsed = 0:0:01:10 / Tue Mar 22 12:45:18 2016
GPGPU-Sim uArch: cycles simulated: 76000  inst.: 3055744 (ipc=40.2) sim_rate=43038 (inst/sec) elapsed = 0:0:01:11 / Tue Mar 22 12:45:19 2016
GPGPU-Sim PTX: 3100000 instructions simulated : ctaid=(49,0,0) tid=(31,0,0)
GPGPU-Sim uArch: cycles simulated: 77000  inst.: 3098752 (ipc=40.2) sim_rate=43038 (inst/sec) elapsed = 0:0:01:12 / Tue Mar 22 12:45:20 2016
GPGPU-Sim uArch: Shader 13 finished CTA #2 (77434,0), 5 CTAs running
GPGPU-Sim uArch: core: 13, cta: 2 initialized @(77435,0)
GPGPU-Sim uArch: Shader 10 finished CTA #2 (78068,0), 5 CTAs running
GPGPU-Sim uArch: core: 10, cta: 2 initialized @(78069,0)
GPGPU-Sim uArch: Shader 5 finished CTA #2 (78349,0), 5 CTAs running
GPGPU-Sim uArch: core:  5, cta: 2 initialized @(78350,0)
GPGPU-Sim uArch: cycles simulated: 78500  inst.: 3155232 (ipc=40.2) sim_rate=43222 (inst/sec) elapsed = 0:0:01:13 / Tue Mar 22 12:45:21 2016
GPGPU-Sim uArch: Shader 2 finished CTA #2 (78557,0), 5 CTAs running
GPGPU-Sim uArch: core:  2, cta: 2 initialized @(78558,0)
GPGPU-Sim PTX: 3200000 instructions simulated : ctaid=(52,0,0) tid=(95,0,0)
GPGPU-Sim uArch: Shader 6 finished CTA #2 (79078,0), 5 CTAs running
GPGPU-Sim uArch: core:  6, cta: 2 initialized @(79079,0)
GPGPU-Sim uArch: Shader 11 finished CTA #2 (79619,0), 5 CTAs running
GPGPU-Sim uArch: core: 11, cta: 2 initialized @(79620,0)
GPGPU-Sim uArch: Shader 7 finished CTA #2 (79701,0), 5 CTAs running
GPGPU-Sim uArch: core:  7, cta: 2 initialized @(79702,0)
GPGPU-Sim uArch: Shader 4 finished CTA #2 (79908,0), 5 CTAs running
GPGPU-Sim uArch: core:  4, cta: 2 initialized @(79909,0)
GPGPU-Sim uArch: Shader 8 finished CTA #2 (79928,0), 5 CTAs running
GPGPU-Sim uArch: core:  8, cta: 2 initialized @(79929,0)
GPGPU-Sim uArch: Shader 14 finished CTA #2 (79958,0), 5 CTAs running
GPGPU-Sim uArch: core: 14, cta: 2 initialized @(79959,0)
GPGPU-Sim uArch: cycles simulated: 80000  inst.: 3219456 (ipc=40.2) sim_rate=43506 (inst/sec) elapsed = 0:0:01:14 / Tue Mar 22 12:45:22 2016
GPGPU-Sim uArch: Shader 9 finished CTA #2 (80095,0), 5 CTAs running
GPGPU-Sim uArch: core:  9, cta: 2 initialized @(80096,0)
GPGPU-Sim uArch: Shader 0 finished CTA #2 (81015,0), 5 CTAs running
GPGPU-Sim uArch: core:  0, cta: 2 initialized @(81016,0)
GPGPU-Sim PTX: 3300000 instructions simulated : ctaid=(55,0,0) tid=(159,0,0)
GPGPU-Sim uArch: Shader 3 finished CTA #2 (81417,0), 5 CTAs running
GPGPU-Sim uArch: core:  3, cta: 2 initialized @(81418,0)
GPGPU-Sim uArch: cycles simulated: 81500  inst.: 3274880 (ipc=40.2) sim_rate=43665 (inst/sec) elapsed = 0:0:01:15 / Tue Mar 22 12:45:23 2016
GPGPU-Sim uArch: cycles simulated: 82500  inst.: 3311680 (ipc=40.1) sim_rate=43574 (inst/sec) elapsed = 0:0:01:16 / Tue Mar 22 12:45:24 2016
GPGPU-Sim uArch: Shader 1 finished CTA #2 (83502,0), 5 CTAs running
GPGPU-Sim uArch: core:  1, cta: 2 initialized @(83503,0)
GPGPU-Sim PTX: 3400000 instructions simulated : ctaid=(55,0,0) tid=(63,0,0)
GPGPU-Sim uArch: cycles simulated: 84000  inst.: 3374752 (ipc=40.2) sim_rate=43827 (inst/sec) elapsed = 0:0:01:17 / Tue Mar 22 12:45:25 2016
GPGPU-Sim uArch: cycles simulated: 85500  inst.: 3436992 (ipc=40.2) sim_rate=44064 (inst/sec) elapsed = 0:0:01:18 / Tue Mar 22 12:45:26 2016
GPGPU-Sim PTX: 3500000 instructions simulated : ctaid=(57,0,0) tid=(31,0,0)
GPGPU-Sim uArch: Shader 12 finished CTA #2 (86135,0), 5 CTAs running
GPGPU-Sim uArch: core: 12, cta: 2 initialized @(86136,0)
GPGPU-Sim uArch: cycles simulated: 86500  inst.: 3477856 (ipc=40.2) sim_rate=44023 (inst/sec) elapsed = 0:0:01:19 / Tue Mar 22 12:45:27 2016
GPGPU-Sim uArch: cycles simulated: 88000  inst.: 3540352 (ipc=40.2) sim_rate=44254 (inst/sec) elapsed = 0:0:01:20 / Tue Mar 22 12:45:28 2016
GPGPU-Sim PTX: 3600000 instructions simulated : ctaid=(58,0,0) tid=(127,0,0)
GPGPU-Sim uArch: cycles simulated: 89500  inst.: 3604896 (ipc=40.3) sim_rate=44504 (inst/sec) elapsed = 0:0:01:21 / Tue Mar 22 12:45:29 2016
GPGPU-Sim uArch: cycles simulated: 90500  inst.: 3647072 (ipc=40.3) sim_rate=44476 (inst/sec) elapsed = 0:0:01:22 / Tue Mar 22 12:45:30 2016
GPGPU-Sim PTX: 3700000 instructions simulated : ctaid=(51,0,0) tid=(127,0,0)
GPGPU-Sim uArch: cycles simulated: 92000  inst.: 3701312 (ipc=40.2) sim_rate=44594 (inst/sec) elapsed = 0:0:01:23 / Tue Mar 22 12:45:31 2016
GPGPU-Sim PTX: 3800000 instructions simulated : ctaid=(53,0,0) tid=(191,0,0)
GPGPU-Sim uArch: cycles simulated: 93500  inst.: 3760352 (ipc=40.2) sim_rate=44766 (inst/sec) elapsed = 0:0:01:24 / Tue Mar 22 12:45:32 2016
GPGPU-Sim uArch: cycles simulated: 95000  inst.: 3819744 (ipc=40.2) sim_rate=44938 (inst/sec) elapsed = 0:0:01:25 / Tue Mar 22 12:45:33 2016
GPGPU-Sim PTX: 3900000 instructions simulated : ctaid=(56,0,0) tid=(255,0,0)
GPGPU-Sim uArch: cycles simulated: 96000  inst.: 3856768 (ipc=40.2) sim_rate=44846 (inst/sec) elapsed = 0:0:01:26 / Tue Mar 22 12:45:34 2016
GPGPU-Sim uArch: cycles simulated: 97500  inst.: 3922432 (ipc=40.2) sim_rate=45085 (inst/sec) elapsed = 0:0:01:27 / Tue Mar 22 12:45:35 2016
GPGPU-Sim PTX: 4000000 instructions simulated : ctaid=(45,0,0) tid=(255,0,0)
GPGPU-Sim uArch: cycles simulated: 99000  inst.: 3988768 (ipc=40.3) sim_rate=45326 (inst/sec) elapsed = 0:0:01:28 / Tue Mar 22 12:45:36 2016
GPGPU-Sim uArch: cycles simulated: 100000  inst.: 4027296 (ipc=40.3) sim_rate=45250 (inst/sec) elapsed = 0:0:01:29 / Tue Mar 22 12:45:37 2016
GPGPU-Sim uArch: Shader 13 finished CTA #3 (100601,0), 5 CTAs running
GPGPU-Sim uArch: core: 13, cta: 3 initialized @(100602,0)
GPGPU-Sim PTX: 4100000 instructions simulated : ctaid=(56,0,0) tid=(255,0,0)
GPGPU-Sim uArch: cycles simulated: 101500  inst.: 4092032 (ipc=40.3) sim_rate=45467 (inst/sec) elapsed = 0:0:01:30 / Tue Mar 22 12:45:38 2016
GPGPU-Sim uArch: Shader 10 finished CTA #3 (101776,0), 5 CTAs running
GPGPU-Sim uArch: core: 10, cta: 3 initialized @(101777,0)
GPGPU-Sim uArch: Shader 5 finished CTA #3 (101856,0), 5 CTAs running
GPGPU-Sim uArch: core:  5, cta: 3 initialized @(101857,0)
GPGPU-Sim uArch: Shader 14 finished CTA #3 (102639,0), 5 CTAs running
GPGPU-Sim uArch: core: 14, cta: 3 initialized @(102640,0)
GPGPU-Sim PTX: 4200000 instructions simulated : ctaid=(64,0,0) tid=(127,0,0)
GPGPU-Sim uArch: cycles simulated: 103000  inst.: 4153088 (ipc=40.3) sim_rate=45638 (inst/sec) elapsed = 0:0:01:31 / Tue Mar 22 12:45:39 2016
GPGPU-Sim uArch: Shader 11 finished CTA #3 (103985,0), 5 CTAs running
GPGPU-Sim uArch: core: 11, cta: 3 initialized @(103986,0)
GPGPU-Sim uArch: cycles simulated: 104000  inst.: 4193856 (ipc=40.3) sim_rate=45585 (inst/sec) elapsed = 0:0:01:32 / Tue Mar 22 12:45:40 2016
GPGPU-Sim uArch: Shader 2 finished CTA #3 (104211,0), 5 CTAs running
GPGPU-Sim uArch: core:  2, cta: 3 initialized @(104212,0)
GPGPU-Sim uArch: Shader 4 finished CTA #3 (104217,0), 5 CTAs running
GPGPU-Sim uArch: core:  4, cta: 3 initialized @(104218,0)
GPGPU-Sim uArch: Shader 8 finished CTA #3 (104621,0), 5 CTAs running
GPGPU-Sim uArch: core:  8, cta: 3 initialized @(104622,0)
GPGPU-Sim uArch: Shader 7 finished CTA #3 (104843,0), 5 CTAs running
GPGPU-Sim uArch: core:  7, cta: 3 initialized @(104844,0)
GPGPU-Sim uArch: Shader 6 finished CTA #3 (104925,0), 5 CTAs running
GPGPU-Sim uArch: core:  6, cta: 3 initialized @(104926,0)
GPGPU-Sim uArch: Shader 9 finished CTA #3 (105165,0), 5 CTAs running
GPGPU-Sim uArch: core:  9, cta: 3 initialized @(105166,0)
GPGPU-Sim PTX: 4300000 instructions simulated : ctaid=(74,0,0) tid=(63,0,0)
GPGPU-Sim uArch: cycles simulated: 105500  inst.: 4253632 (ipc=40.3) sim_rate=45737 (inst/sec) elapsed = 0:0:01:33 / Tue Mar 22 12:45:41 2016
GPGPU-Sim uArch: cycles simulated: 106500  inst.: 4298688 (ipc=40.4) sim_rate=45730 (inst/sec) elapsed = 0:0:01:34 / Tue Mar 22 12:45:42 2016
GPGPU-Sim uArch: Shader 3 finished CTA #3 (107319,0), 5 CTAs running
GPGPU-Sim uArch: core:  3, cta: 3 initialized @(107320,0)
GPGPU-Sim PTX: 4400000 instructions simulated : ctaid=(59,0,0) tid=(255,0,0)
GPGPU-Sim uArch: Shader 0 finished CTA #3 (107976,0), 5 CTAs running
GPGPU-Sim uArch: core:  0, cta: 3 initialized @(107977,0)
GPGPU-Sim uArch: cycles simulated: 108000  inst.: 4366912 (ipc=40.4) sim_rate=45967 (inst/sec) elapsed = 0:0:01:35 / Tue Mar 22 12:45:43 2016
GPGPU-Sim uArch: Shader 1 finished CTA #3 (108006,0), 5 CTAs running
GPGPU-Sim uArch: core:  1, cta: 3 initialized @(108007,0)
GPGPU-Sim uArch: cycles simulated: 109000  inst.: 4404032 (ipc=40.4) sim_rate=45875 (inst/sec) elapsed = 0:0:01:36 / Tue Mar 22 12:45:44 2016
GPGPU-Sim PTX: 4500000 instructions simulated : ctaid=(72,0,0) tid=(159,0,0)
GPGPU-Sim uArch: cycles simulated: 110500  inst.: 4469056 (ipc=40.4) sim_rate=46072 (inst/sec) elapsed = 0:0:01:37 / Tue Mar 22 12:45:45 2016
GPGPU-Sim uArch: cycles simulated: 111500  inst.: 4513152 (ipc=40.5) sim_rate=46052 (inst/sec) elapsed = 0:0:01:38 / Tue Mar 22 12:45:46 2016
GPGPU-Sim PTX: 4600000 instructions simulated : ctaid=(66,0,0) tid=(95,0,0)
GPGPU-Sim uArch: cycles simulated: 113000  inst.: 4578272 (ipc=40.5) sim_rate=46245 (inst/sec) elapsed = 0:0:01:39 / Tue Mar 22 12:45:47 2016
GPGPU-Sim uArch: Shader 12 finished CTA #3 (113444,0), 5 CTAs running
GPGPU-Sim uArch: core: 12, cta: 3 initialized @(113445,0)
GPGPU-Sim uArch: cycles simulated: 114500  inst.: 4633120 (ipc=40.5) sim_rate=46331 (inst/sec) elapsed = 0:0:01:40 / Tue Mar 22 12:45:48 2016
GPGPU-Sim PTX: 4700000 instructions simulated : ctaid=(66,0,0) tid=(191,0,0)
GPGPU-Sim uArch: cycles simulated: 115500  inst.: 4680384 (ipc=40.5) sim_rate=46340 (inst/sec) elapsed = 0:0:01:41 / Tue Mar 22 12:45:49 2016
GPGPU-Sim uArch: cycles simulated: 117000  inst.: 4740736 (ipc=40.5) sim_rate=46477 (inst/sec) elapsed = 0:0:01:42 / Tue Mar 22 12:45:50 2016
GPGPU-Sim PTX: 4800000 instructions simulated : ctaid=(71,0,0) tid=(191,0,0)
GPGPU-Sim uArch: cycles simulated: 118500  inst.: 4797184 (ipc=40.5) sim_rate=46574 (inst/sec) elapsed = 0:0:01:43 / Tue Mar 22 12:45:51 2016
GPGPU-Sim PTX: 4900000 instructions simulated : ctaid=(63,0,0) tid=(255,0,0)
GPGPU-Sim uArch: cycles simulated: 120000  inst.: 4860576 (ipc=40.5) sim_rate=46736 (inst/sec) elapsed = 0:0:01:44 / Tue Mar 22 12:45:52 2016
GPGPU-Sim uArch: cycles simulated: 121500  inst.: 4920832 (ipc=40.5) sim_rate=46865 (inst/sec) elapsed = 0:0:01:45 / Tue Mar 22 12:45:53 2016
GPGPU-Sim PTX: 5000000 instructions simulated : ctaid=(70,0,0) tid=(223,0,0)
GPGPU-Sim uArch: cycles simulated: 122500  inst.: 4962304 (ipc=40.5) sim_rate=46814 (inst/sec) elapsed = 0:0:01:46 / Tue Mar 22 12:45:54 2016
GPGPU-Sim uArch: cycles simulated: 124000  inst.: 5016992 (ipc=40.5) sim_rate=46887 (inst/sec) elapsed = 0:0:01:47 / Tue Mar 22 12:45:55 2016
GPGPU-Sim PTX: 5100000 instructions simulated : ctaid=(67,0,0) tid=(191,0,0)
GPGPU-Sim uArch: cycles simulated: 125500  inst.: 5084160 (ipc=40.5) sim_rate=47075 (inst/sec) elapsed = 0:0:01:48 / Tue Mar 22 12:45:56 2016
GPGPU-Sim PTX: 5200000 instructions simulated : ctaid=(62,0,0) tid=(255,0,0)
GPGPU-Sim uArch: Shader 13 finished CTA #4 (126722,0), 5 CTAs running
GPGPU-Sim uArch: core: 13, cta: 4 initialized @(126723,0)
GPGPU-Sim uArch: cycles simulated: 127000  inst.: 5151264 (ipc=40.6) sim_rate=47259 (inst/sec) elapsed = 0:0:01:49 / Tue Mar 22 12:45:57 2016
GPGPU-Sim uArch: Shader 10 finished CTA #4 (127199,0), 5 CTAs running
GPGPU-Sim uArch: core: 10, cta: 4 initialized @(127200,0)
GPGPU-Sim uArch: Shader 14 finished CTA #4 (127969,0), 5 CTAs running
GPGPU-Sim uArch: core: 14, cta: 4 initialized @(127970,0)
GPGPU-Sim uArch: cycles simulated: 128000  inst.: 5186912 (ipc=40.5) sim_rate=47153 (inst/sec) elapsed = 0:0:01:50 / Tue Mar 22 12:45:58 2016
GPGPU-Sim uArch: Shader 5 finished CTA #4 (128472,0), 5 CTAs running
GPGPU-Sim uArch: core:  5, cta: 4 initialized @(128473,0)
GPGPU-Sim PTX: 5300000 instructions simulated : ctaid=(87,0,0) tid=(159,0,0)
GPGPU-Sim uArch: Shader 11 finished CTA #4 (129455,0), 5 CTAs running
GPGPU-Sim uArch: core: 11, cta: 4 initialized @(129456,0)
GPGPU-Sim uArch: cycles simulated: 129500  inst.: 5246528 (ipc=40.5) sim_rate=47266 (inst/sec) elapsed = 0:0:01:51 / Tue Mar 22 12:45:59 2016
GPGPU-Sim uArch: Shader 4 finished CTA #4 (130129,0), 5 CTAs running
GPGPU-Sim uArch: core:  4, cta: 4 initialized @(130130,0)
GPGPU-Sim uArch: Shader 2 finished CTA #4 (130205,0), 5 CTAs running
GPGPU-Sim uArch: core:  2, cta: 4 initialized @(130206,0)
GPGPU-Sim uArch: Shader 7 finished CTA #4 (130850,0), 5 CTAs running
GPGPU-Sim uArch: core:  7, cta: 4 initialized @(130851,0)
GPGPU-Sim uArch: cycles simulated: 131000  inst.: 5311168 (ipc=40.5) sim_rate=47421 (inst/sec) elapsed = 0:0:01:52 / Tue Mar 22 12:46:00 2016
GPGPU-Sim uArch: Shader 9 finished CTA #4 (131034,0), 5 CTAs running
GPGPU-Sim uArch: core:  9, cta: 4 initialized @(131035,0)
GPGPU-Sim uArch: Shader 3 finished CTA #4 (131595,0), 5 CTAs running
GPGPU-Sim PTX: 5400000 instructions simulated : ctaid=(84,0,0) tid=(95,0,0)
GPGPU-Sim uArch: core:  3, cta: 4 initialized @(131596,0)
GPGPU-Sim uArch: Shader 8 finished CTA #4 (131836,0), 5 CTAs running
GPGPU-Sim uArch: core:  8, cta: 4 initialized @(131837,0)
GPGPU-Sim uArch: cycles simulated: 132500  inst.: 5376224 (ipc=40.6) sim_rate=47577 (inst/sec) elapsed = 0:0:01:53 / Tue Mar 22 12:46:01 2016
GPGPU-Sim uArch: Shader 1 finished CTA #4 (133720,0), 5 CTAs running
GPGPU-Sim uArch: core:  1, cta: 4 initialized @(133721,0)
GPGPU-Sim uArch: cycles simulated: 134000  inst.: 5434368 (ipc=40.6) sim_rate=47669 (inst/sec) elapsed = 0:0:01:54 / Tue Mar 22 12:46:02 2016
GPGPU-Sim PTX: 5500000 instructions simulated : ctaid=(80,0,0) tid=(95,0,0)
GPGPU-Sim uArch: Shader 6 finished CTA #4 (134825,0), 5 CTAs running
GPGPU-Sim uArch: core:  6, cta: 4 initialized @(134826,0)
GPGPU-Sim uArch: cycles simulated: 136000  inst.: 5517888 (ipc=40.6) sim_rate=47981 (inst/sec) elapsed = 0:0:01:55 / Tue Mar 22 12:46:03 2016
GPGPU-Sim PTX: 5600000 instructions simulated : ctaid=(76,0,0) tid=(127,0,0)
GPGPU-Sim uArch: Shader 0 finished CTA #4 (136415,0), 5 CTAs running
GPGPU-Sim uArch: core:  0, cta: 4 initialized @(136416,0)
GPGPU-Sim uArch: cycles simulated: 137500  inst.: 5577024 (ipc=40.6) sim_rate=48077 (inst/sec) elapsed = 0:0:01:56 / Tue Mar 22 12:46:04 2016
GPGPU-Sim uArch: Shader 12 finished CTA #4 (137980,0), 5 CTAs running
GPGPU-Sim uArch: core: 12, cta: 4 initialized @(137981,0)
GPGPU-Sim PTX: 5700000 instructions simulated : ctaid=(83,0,0) tid=(127,0,0)
GPGPU-Sim uArch: cycles simulated: 139500  inst.: 5655808 (ipc=40.5) sim_rate=48340 (inst/sec) elapsed = 0:0:01:57 / Tue Mar 22 12:46:05 2016
GPGPU-Sim uArch: cycles simulated: 141000  inst.: 5714368 (ipc=40.5) sim_rate=48426 (inst/sec) elapsed = 0:0:01:58 / Tue Mar 22 12:46:06 2016
GPGPU-Sim PTX: 5800000 instructions simulated : ctaid=(88,0,0) tid=(159,0,0)
GPGPU-Sim uArch: cycles simulated: 142500  inst.: 5776544 (ipc=40.5) sim_rate=48542 (inst/sec) elapsed = 0:0:01:59 / Tue Mar 22 12:46:07 2016
GPGPU-Sim PTX: 5900000 instructions simulated : ctaid=(86,0,0) tid=(95,0,0)
GPGPU-Sim uArch: cycles simulated: 144000  inst.: 5837632 (ipc=40.5) sim_rate=48646 (inst/sec) elapsed = 0:0:02:00 / Tue Mar 22 12:46:08 2016
GPGPU-Sim uArch: cycles simulated: 145500  inst.: 5897600 (ipc=40.5) sim_rate=48740 (inst/sec) elapsed = 0:0:02:01 / Tue Mar 22 12:46:09 2016
GPGPU-Sim PTX: 6000000 instructions simulated : ctaid=(88,0,0) tid=(159,0,0)
GPGPU-Sim uArch: cycles simulated: 147000  inst.: 5955552 (ipc=40.5) sim_rate=48816 (inst/sec) elapsed = 0:0:02:02 / Tue Mar 22 12:46:10 2016
GPGPU-Sim uArch: cycles simulated: 148000  inst.: 5996032 (ipc=40.5) sim_rate=48748 (inst/sec) elapsed = 0:0:02:03 / Tue Mar 22 12:46:11 2016
GPGPU-Sim PTX: 6100000 instructions simulated : ctaid=(76,0,0) tid=(255,0,0)
GPGPU-Sim uArch: cycles simulated: 149500  inst.: 6059776 (ipc=40.5) sim_rate=48869 (inst/sec) elapsed = 0:0:02:04 / Tue Mar 22 12:46:12 2016
GPGPU-Sim uArch: cycles simulated: 151000  inst.: 6118144 (ipc=40.5) sim_rate=48945 (inst/sec) elapsed = 0:0:02:05 / Tue Mar 22 12:46:13 2016
GPGPU-Sim uArch: Shader 10 finished CTA #5 (151034,0), 5 CTAs running
GPGPU-Sim uArch: core: 10, cta: 5 initialized @(151035,0)
GPGPU-Sim PTX: 6200000 instructions simulated : ctaid=(75,0,0) tid=(223,0,0)
GPGPU-Sim uArch: Shader 13 finished CTA #5 (152026,0), 5 CTAs running
GPGPU-Sim uArch: core: 13, cta: 5 initialized @(152027,0)
GPGPU-Sim uArch: Shader 5 finished CTA #5 (152326,0), 5 CTAs running
GPGPU-Sim uArch: core:  5, cta: 5 initialized @(152327,0)
GPGPU-Sim uArch: cycles simulated: 152500  inst.: 6172896 (ipc=40.5) sim_rate=48991 (inst/sec) elapsed = 0:0:02:06 / Tue Mar 22 12:46:14 2016
GPGPU-Sim uArch: Shader 2 finished CTA #5 (153144,0), 5 CTAs running
GPGPU-Sim uArch: core:  2, cta: 5 initialized @(153145,0)
GPGPU-Sim uArch: Shader 4 finished CTA #5 (153789,0), 5 CTAs running
GPGPU-Sim uArch: core:  4, cta: 5 initialized @(153790,0)
GPGPU-Sim PTX: 6300000 instructions simulated : ctaid=(103,0,0) tid=(63,0,0)
GPGPU-Sim uArch: cycles simulated: 154000  inst.: 6235456 (ipc=40.5) sim_rate=49098 (inst/sec) elapsed = 0:0:02:07 / Tue Mar 22 12:46:15 2016
GPGPU-Sim uArch: Shader 14 finished CTA #5 (154034,0), 5 CTAs running
GPGPU-Sim uArch: core: 14, cta: 5 initialized @(154035,0)
GPGPU-Sim uArch: Shader 7 finished CTA #5 (154078,0), 5 CTAs running
GPGPU-Sim uArch: core:  7, cta: 5 initialized @(154079,0)
GPGPU-Sim uArch: Shader 11 finished CTA #5 (154668,0), 5 CTAs running
GPGPU-Sim uArch: core: 11, cta: 5 initialized @(154669,0)
GPGPU-Sim uArch: cycles simulated: 155500  inst.: 6293696 (ipc=40.5) sim_rate=49169 (inst/sec) elapsed = 0:0:02:08 / Tue Mar 22 12:46:16 2016
GPGPU-Sim PTX: 6400000 instructions simulated : ctaid=(97,0,0) tid=(159,0,0)
GPGPU-Sim uArch: cycles simulated: 157000  inst.: 6358144 (ipc=40.5) sim_rate=49287 (inst/sec) elapsed = 0:0:02:09 / Tue Mar 22 12:46:17 2016
GPGPU-Sim uArch: Shader 9 finished CTA #5 (157172,0), 5 CTAs running
GPGPU-Sim uArch: core:  9, cta: 5 initialized @(157173,0)
GPGPU-Sim uArch: Shader 3 finished CTA #5 (157558,0), 5 CTAs running
GPGPU-Sim uArch: core:  3, cta: 5 initialized @(157559,0)
GPGPU-Sim uArch: cycles simulated: 158000  inst.: 6398912 (ipc=40.5) sim_rate=49222 (inst/sec) elapsed = 0:0:02:10 / Tue Mar 22 12:46:18 2016
GPGPU-Sim PTX: 6500000 instructions simulated : ctaid=(92,0,0) tid=(159,0,0)
GPGPU-Sim uArch: Shader 8 finished CTA #5 (159109,0), 5 CTAs running
GPGPU-Sim uArch: core:  8, cta: 5 initialized @(159110,0)
GPGPU-Sim uArch: Shader 0 finished CTA #5 (159411,0), 5 CTAs running
GPGPU-Sim uArch: core:  0, cta: 5 initialized @(159412,0)
GPGPU-Sim uArch: cycles simulated: 160000  inst.: 6484544 (ipc=40.5) sim_rate=49500 (inst/sec) elapsed = 0:0:02:11 / Tue Mar 22 12:46:19 2016
GPGPU-Sim PTX: 6600000 instructions simulated : ctaid=(92,0,0) tid=(159,0,0)
GPGPU-Sim uArch: cycles simulated: 161000  inst.: 6525024 (ipc=40.5) sim_rate=49432 (inst/sec) elapsed = 0:0:02:12 / Tue Mar 22 12:46:20 2016
GPGPU-Sim uArch: cycles simulated: 162000  inst.: 6563776 (ipc=40.5) sim_rate=49351 (inst/sec) elapsed = 0:0:02:13 / Tue Mar 22 12:46:21 2016
GPGPU-Sim uArch: Shader 6 finished CTA #5 (162548,0), 5 CTAs running
GPGPU-Sim uArch: core:  6, cta: 5 initialized @(162549,0)
GPGPU-Sim uArch: Shader 12 finished CTA #5 (162616,0), 5 CTAs running
GPGPU-Sim uArch: core: 12, cta: 5 initialized @(162617,0)
GPGPU-Sim PTX: 6700000 instructions simulated : ctaid=(97,0,0) tid=(191,0,0)
GPGPU-Sim uArch: Shader 1 finished CTA #5 (163461,0), 5 CTAs running
GPGPU-Sim uArch: core:  1, cta: 5 initialized @(163462,0)
GPGPU-Sim uArch: cycles simulated: 163500  inst.: 6629440 (ipc=40.5) sim_rate=49473 (inst/sec) elapsed = 0:0:02:14 / Tue Mar 22 12:46:22 2016
GPGPU-Sim uArch: cycles simulated: 164500  inst.: 6667680 (ipc=40.5) sim_rate=49390 (inst/sec) elapsed = 0:0:02:15 / Tue Mar 22 12:46:23 2016
GPGPU-Sim uArch: cycles simulated: 165500  inst.: 6707168 (ipc=40.5) sim_rate=49317 (inst/sec) elapsed = 0:0:02:16 / Tue Mar 22 12:46:24 2016
GPGPU-Sim PTX: 6800000 instructions simulated : ctaid=(101,0,0) tid=(223,0,0)
GPGPU-Sim uArch: cycles simulated: 167000  inst.: 6763872 (ipc=40.5) sim_rate=49371 (inst/sec) elapsed = 0:0:02:17 / Tue Mar 22 12:46:25 2016
GPGPU-Sim uArch: cycles simulated: 168000  inst.: 6805152 (ipc=40.5) sim_rate=49312 (inst/sec) elapsed = 0:0:02:18 / Tue Mar 22 12:46:26 2016
GPGPU-Sim PTX: 6900000 instructions simulated : ctaid=(95,0,0) tid=(223,0,0)
GPGPU-Sim uArch: cycles simulated: 169000  inst.: 6841184 (ipc=40.5) sim_rate=49217 (inst/sec) elapsed = 0:0:02:19 / Tue Mar 22 12:46:27 2016
GPGPU-Sim uArch: cycles simulated: 170000  inst.: 6883872 (ipc=40.5) sim_rate=49170 (inst/sec) elapsed = 0:0:02:20 / Tue Mar 22 12:46:28 2016
GPGPU-Sim PTX: 7000000 instructions simulated : ctaid=(101,0,0) tid=(159,0,0)
GPGPU-Sim uArch: cycles simulated: 171000  inst.: 6928768 (ipc=40.5) sim_rate=49140 (inst/sec) elapsed = 0:0:02:21 / Tue Mar 22 12:46:29 2016
GPGPU-Sim uArch: cycles simulated: 172000  inst.: 6968800 (ipc=40.5) sim_rate=49076 (inst/sec) elapsed = 0:0:02:22 / Tue Mar 22 12:46:30 2016
GPGPU-Sim uArch: Shader 13 finished CTA #0 (172929,0), 5 CTAs running
GPGPU-Sim uArch: core: 13, cta: 0 initialized @(172930,0)
GPGPU-Sim uArch: cycles simulated: 173000  inst.: 7013856 (ipc=40.5) sim_rate=49047 (inst/sec) elapsed = 0:0:02:23 / Tue Mar 22 12:46:31 2016
GPGPU-Sim PTX: 7100000 instructions simulated : ctaid=(96,0,0) tid=(159,0,0)
GPGPU-Sim uArch: Shader 10 finished CTA #0 (173152,0), 5 CTAs running
GPGPU-Sim uArch: core: 10, cta: 0 initialized @(173153,0)
GPGPU-Sim uArch: cycles simulated: 174000  inst.: 7054176 (ipc=40.5) sim_rate=48987 (inst/sec) elapsed = 0:0:02:24 / Tue Mar 22 12:46:32 2016
GPGPU-Sim uArch: cycles simulated: 175500  inst.: 7105952 (ipc=40.5) sim_rate=49006 (inst/sec) elapsed = 0:0:02:25 / Tue Mar 22 12:46:33 2016
GPGPU-Sim uArch: Shader 4 finished CTA #0 (175576,0), 5 CTAs running
GPGPU-Sim uArch: core:  4, cta: 0 initialized @(175577,0)
GPGPU-Sim PTX: 7200000 instructions simulated : ctaid=(95,0,0) tid=(255,0,0)
GPGPU-Sim uArch: cycles simulated: 176500  inst.: 7148032 (ipc=40.5) sim_rate=48959 (inst/sec) elapsed = 0:0:02:26 / Tue Mar 22 12:46:34 2016
GPGPU-Sim uArch: Shader 2 finished CTA #0 (176987,0), 5 CTAs running
GPGPU-Sim uArch: core:  2, cta: 0 initialized @(176988,0)
GPGPU-Sim uArch: cycles simulated: 177500  inst.: 7187968 (ipc=40.5) sim_rate=48897 (inst/sec) elapsed = 0:0:02:27 / Tue Mar 22 12:46:35 2016
GPGPU-Sim uArch: Shader 14 finished CTA #0 (177806,0), 5 CTAs running
GPGPU-Sim uArch: core: 14, cta: 0 initialized @(177807,0)
GPGPU-Sim PTX: 7300000 instructions simulated : ctaid=(107,0,0) tid=(95,0,0)
GPGPU-Sim uArch: cycles simulated: 178500  inst.: 7227200 (ipc=40.5) sim_rate=48832 (inst/sec) elapsed = 0:0:02:28 / Tue Mar 22 12:46:36 2016
GPGPU-Sim uArch: Shader 9 finished CTA #0 (179446,0), 5 CTAs running
GPGPU-Sim uArch: core:  9, cta: 0 initialized @(179447,0)
GPGPU-Sim uArch: cycles simulated: 179500  inst.: 7272576 (ipc=40.5) sim_rate=48809 (inst/sec) elapsed = 0:0:02:29 / Tue Mar 22 12:46:37 2016
GPGPU-Sim uArch: Shader 5 finished CTA #0 (179556,0), 5 CTAs running
GPGPU-Sim uArch: core:  5, cta: 0 initialized @(179557,0)
GPGPU-Sim uArch: Shader 7 finished CTA #0 (179687,0), 5 CTAs running
GPGPU-Sim uArch: core:  7, cta: 0 initialized @(179688,0)
GPGPU-Sim uArch: cycles simulated: 180500  inst.: 7309984 (ipc=40.5) sim_rate=48733 (inst/sec) elapsed = 0:0:02:30 / Tue Mar 22 12:46:38 2016
GPGPU-Sim PTX: 7400000 instructions simulated : ctaid=(112,0,0) tid=(95,0,0)
GPGPU-Sim uArch: Shader 3 finished CTA #0 (181565,0), 5 CTAs running
GPGPU-Sim uArch: core:  3, cta: 0 initialized @(181566,0)
GPGPU-Sim uArch: Shader 11 finished CTA #0 (181819,0), 5 CTAs running
GPGPU-Sim uArch: core: 11, cta: 0 initialized @(181820,0)
GPGPU-Sim uArch: cycles simulated: 182000  inst.: 7376480 (ipc=40.5) sim_rate=48850 (inst/sec) elapsed = 0:0:02:31 / Tue Mar 22 12:46:39 2016
GPGPU-Sim PTX: 7500000 instructions simulated : ctaid=(90,0,0) tid=(223,0,0)
GPGPU-Sim uArch: cycles simulated: 183000  inst.: 7421632 (ipc=40.6) sim_rate=48826 (inst/sec) elapsed = 0:0:02:32 / Tue Mar 22 12:46:40 2016
GPGPU-Sim uArch: cycles simulated: 184000  inst.: 7465888 (ipc=40.6) sim_rate=48796 (inst/sec) elapsed = 0:0:02:33 / Tue Mar 22 12:46:41 2016
GPGPU-Sim uArch: Shader 8 finished CTA #0 (184070,0), 5 CTAs running
GPGPU-Sim uArch: core:  8, cta: 0 initialized @(184071,0)
GPGPU-Sim uArch: Shader 12 finished CTA #0 (184492,0), 5 CTAs running
GPGPU-Sim uArch: core: 12, cta: 0 initialized @(184493,0)
GPGPU-Sim uArch: Shader 0 finished CTA #0 (184721,0), 5 CTAs running
GPGPU-Sim uArch: core:  0, cta: 0 initialized @(184722,0)
GPGPU-Sim PTX: 7600000 instructions simulated : ctaid=(93,0,0) tid=(255,0,0)
GPGPU-Sim uArch: cycles simulated: 185000  inst.: 7511456 (ipc=40.6) sim_rate=48775 (inst/sec) elapsed = 0:0:02:34 / Tue Mar 22 12:46:42 2016
GPGPU-Sim uArch: Shader 1 finished CTA #0 (185870,0), 5 CTAs running
GPGPU-Sim uArch: core:  1, cta: 0 initialized @(185871,0)
GPGPU-Sim uArch: cycles simulated: 186000  inst.: 7550880 (ipc=40.6) sim_rate=48715 (inst/sec) elapsed = 0:0:02:35 / Tue Mar 22 12:46:43 2016
GPGPU-Sim uArch: cycles simulated: 187000  inst.: 7590432 (ipc=40.6) sim_rate=48656 (inst/sec) elapsed = 0:0:02:36 / Tue Mar 22 12:46:44 2016
GPGPU-Sim PTX: 7700000 instructions simulated : ctaid=(105,0,0) tid=(255,0,0)
GPGPU-Sim uArch: cycles simulated: 188000  inst.: 7631712 (ipc=40.6) sim_rate=48609 (inst/sec) elapsed = 0:0:02:37 / Tue Mar 22 12:46:45 2016
GPGPU-Sim uArch: Shader 6 finished CTA #0 (188299,0), 5 CTAs running
GPGPU-Sim uArch: core:  6, cta: 0 initialized @(188300,0)
GPGPU-Sim uArch: cycles simulated: 189000  inst.: 7668128 (ipc=40.6) sim_rate=48532 (inst/sec) elapsed = 0:0:02:38 / Tue Mar 22 12:46:46 2016
GPGPU-Sim PTX: 7800000 instructions simulated : ctaid=(120,0,0) tid=(63,0,0)
GPGPU-Sim uArch: cycles simulated: 190000  inst.: 7709952 (ipc=40.6) sim_rate=48490 (inst/sec) elapsed = 0:0:02:39 / Tue Mar 22 12:46:47 2016
GPGPU-Sim uArch: cycles simulated: 191500  inst.: 7770656 (ipc=40.6) sim_rate=48566 (inst/sec) elapsed = 0:0:02:40 / Tue Mar 22 12:46:48 2016
GPGPU-Sim PTX: 7900000 instructions simulated : ctaid=(121,0,0) tid=(31,0,0)
GPGPU-Sim uArch: cycles simulated: 192500  inst.: 7813728 (ipc=40.6) sim_rate=48532 (inst/sec) elapsed = 0:0:02:41 / Tue Mar 22 12:46:49 2016
GPGPU-Sim uArch: cycles simulated: 193500  inst.: 7859232 (ipc=40.6) sim_rate=48513 (inst/sec) elapsed = 0:0:02:42 / Tue Mar 22 12:46:50 2016
GPGPU-Sim PTX: 8000000 instructions simulated : ctaid=(121,0,0) tid=(63,0,0)
GPGPU-Sim uArch: cycles simulated: 195000  inst.: 7913888 (ipc=40.6) sim_rate=48551 (inst/sec) elapsed = 0:0:02:43 / Tue Mar 22 12:46:51 2016
GPGPU-Sim uArch: cycles simulated: 196000  inst.: 7952512 (ipc=40.6) sim_rate=48490 (inst/sec) elapsed = 0:0:02:44 / Tue Mar 22 12:46:52 2016
GPGPU-Sim uArch: cycles simulated: 197000  inst.: 7998560 (ipc=40.6) sim_rate=48476 (inst/sec) elapsed = 0:0:02:45 / Tue Mar 22 12:46:53 2016
GPGPU-Sim PTX: 8100000 instructions simulated : ctaid=(121,0,0) tid=(95,0,0)
GPGPU-Sim uArch: Shader 10 finished CTA #1 (197904,0), 5 CTAs running
GPGPU-Sim uArch: core: 10, cta: 1 initialized @(197905,0)
GPGPU-Sim uArch: cycles simulated: 198500  inst.: 8064768 (ipc=40.6) sim_rate=48582 (inst/sec) elapsed = 0:0:02:46 / Tue Mar 22 12:46:54 2016
GPGPU-Sim uArch: cycles simulated: 199500  inst.: 8102848 (ipc=40.6) sim_rate=48520 (inst/sec) elapsed = 0:0:02:47 / Tue Mar 22 12:46:55 2016
GPGPU-Sim PTX: 8200000 instructions simulated : ctaid=(116,0,0) tid=(255,0,0)
GPGPU-Sim uArch: cycles simulated: 200500  inst.: 8148224 (ipc=40.6) sim_rate=48501 (inst/sec) elapsed = 0:0:02:48 / Tue Mar 22 12:46:56 2016
GPGPU-Sim uArch: Shader 4 finished CTA #1 (201278,0), 5 CTAs running
GPGPU-Sim uArch: core:  4, cta: 1 initialized @(201279,0)
GPGPU-Sim uArch: cycles simulated: 201500  inst.: 8189824 (ipc=40.6) sim_rate=48460 (inst/sec) elapsed = 0:0:02:49 / Tue Mar 22 12:46:57 2016
GPGPU-Sim uArch: Shader 13 finished CTA #1 (201559,0), 5 CTAs running
GPGPU-Sim uArch: core: 13, cta: 1 initialized @(201560,0)
GPGPU-Sim uArch: Shader 2 finished CTA #1 (201862,0), 5 CTAs running
GPGPU-Sim uArch: core:  2, cta: 1 initialized @(201863,0)
GPGPU-Sim PTX: 8300000 instructions simulated : ctaid=(122,0,0) tid=(159,0,0)
GPGPU-Sim uArch: Shader 5 finished CTA #1 (202624,0), 5 CTAs running
GPGPU-Sim uArch: core:  5, cta: 1 initialized @(202625,0)
GPGPU-Sim uArch: Shader 7 finished CTA #1 (202786,0), 5 CTAs running
GPGPU-Sim uArch: core:  7, cta: 1 initialized @(202787,0)
GPGPU-Sim uArch: cycles simulated: 203000  inst.: 8247072 (ipc=40.6) sim_rate=48512 (inst/sec) elapsed = 0:0:02:50 / Tue Mar 22 12:46:58 2016
GPGPU-Sim uArch: Shader 14 finished CTA #1 (203070,0), 5 CTAs running
GPGPU-Sim uArch: core: 14, cta: 1 initialized @(203071,0)
GPGPU-Sim uArch: cycles simulated: 204000  inst.: 8286560 (ipc=40.6) sim_rate=48459 (inst/sec) elapsed = 0:0:02:51 / Tue Mar 22 12:46:59 2016
GPGPU-Sim PTX: 8400000 instructions simulated : ctaid=(122,0,0) tid=(191,0,0)
GPGPU-Sim uArch: Shader 3 finished CTA #1 (204439,0), 5 CTAs running
GPGPU-Sim uArch: core:  3, cta: 1 initialized @(204440,0)
GPGPU-Sim uArch: cycles simulated: 205000  inst.: 8327904 (ipc=40.6) sim_rate=48418 (inst/sec) elapsed = 0:0:02:52 / Tue Mar 22 12:47:00 2016
GPGPU-Sim uArch: cycles simulated: 206000  inst.: 8366944 (ipc=40.6) sim_rate=48363 (inst/sec) elapsed = 0:0:02:53 / Tue Mar 22 12:47:01 2016
GPGPU-Sim uArch: Shader 9 finished CTA #1 (206136,0), 5 CTAs running
GPGPU-Sim uArch: core:  9, cta: 1 initialized @(206137,0)
GPGPU-Sim PTX: 8500000 instructions simulated : ctaid=(113,0,0) tid=(223,0,0)
GPGPU-Sim uArch: cycles simulated: 207000  inst.: 8408032 (ipc=40.6) sim_rate=48322 (inst/sec) elapsed = 0:0:02:54 / Tue Mar 22 12:47:02 2016
GPGPU-Sim uArch: Shader 0 finished CTA #1 (207379,0), 5 CTAs running
GPGPU-Sim uArch: core:  0, cta: 1 initialized @(207380,0)
GPGPU-Sim uArch: Shader 12 finished CTA #1 (207503,0), 5 CTAs running
GPGPU-Sim uArch: core: 12, cta: 1 initialized @(207504,0)
GPGPU-Sim uArch: cycles simulated: 208000  inst.: 8444736 (ipc=40.6) sim_rate=48255 (inst/sec) elapsed = 0:0:02:55 / Tue Mar 22 12:47:03 2016
GPGPU-Sim uArch: Shader 11 finished CTA #1 (208013,0), 5 CTAs running
GPGPU-Sim uArch: core: 11, cta: 1 initialized @(208014,0)
GPGPU-Sim PTX: 8600000 instructions simulated : ctaid=(133,0,0) tid=(127,0,0)
GPGPU-Sim uArch: cycles simulated: 209500  inst.: 8503744 (ipc=40.6) sim_rate=48316 (inst/sec) elapsed = 0:0:02:56 / Tue Mar 22 12:47:04 2016
GPGPU-Sim uArch: Shader 1 finished CTA #1 (209806,0), 5 CTAs running
GPGPU-Sim uArch: core:  1, cta: 1 initialized @(209807,0)
GPGPU-Sim uArch: Shader 8 finished CTA #1 (209808,0), 5 CTAs running
GPGPU-Sim uArch: core:  8, cta: 1 initialized @(209809,0)
GPGPU-Sim uArch: cycles simulated: 210500  inst.: 8537120 (ipc=40.6) sim_rate=48232 (inst/sec) elapsed = 0:0:02:57 / Tue Mar 22 12:47:05 2016
GPGPU-Sim uArch: cycles simulated: 211500  inst.: 8579968 (ipc=40.6) sim_rate=48202 (inst/sec) elapsed = 0:0:02:58 / Tue Mar 22 12:47:06 2016
GPGPU-Sim PTX: 8700000 instructions simulated : ctaid=(125,0,0) tid=(95,0,0)
GPGPU-Sim uArch: cycles simulated: 212500  inst.: 8625344 (ipc=40.6) sim_rate=48186 (inst/sec) elapsed = 0:0:02:59 / Tue Mar 22 12:47:07 2016
GPGPU-Sim uArch: cycles simulated: 213500  inst.: 8663712 (ipc=40.6) sim_rate=48131 (inst/sec) elapsed = 0:0:03:00 / Tue Mar 22 12:47:08 2016
GPGPU-Sim uArch: Shader 6 finished CTA #1 (213745,0), 5 CTAs running
GPGPU-Sim uArch: core:  6, cta: 1 initialized @(213746,0)
GPGPU-Sim PTX: 8800000 instructions simulated : ctaid=(137,0,0) tid=(31,0,0)
GPGPU-Sim uArch: cycles simulated: 214500  inst.: 8700352 (ipc=40.6) sim_rate=48068 (inst/sec) elapsed = 0:0:03:01 / Tue Mar 22 12:47:09 2016
GPGPU-Sim uArch: cycles simulated: 215500  inst.: 8738848 (ipc=40.6) sim_rate=48015 (inst/sec) elapsed = 0:0:03:02 / Tue Mar 22 12:47:10 2016
GPGPU-Sim uArch: cycles simulated: 216500  inst.: 8777440 (ipc=40.5) sim_rate=47964 (inst/sec) elapsed = 0:0:03:03 / Tue Mar 22 12:47:11 2016
GPGPU-Sim PTX: 8900000 instructions simulated : ctaid=(130,0,0) tid=(223,0,0)
GPGPU-Sim uArch: cycles simulated: 218000  inst.: 8840544 (ipc=40.6) sim_rate=48046 (inst/sec) elapsed = 0:0:03:04 / Tue Mar 22 12:47:12 2016
GPGPU-Sim uArch: cycles simulated: 219000  inst.: 8885312 (ipc=40.6) sim_rate=48028 (inst/sec) elapsed = 0:0:03:05 / Tue Mar 22 12:47:13 2016
GPGPU-Sim PTX: 9000000 instructions simulated : ctaid=(128,0,0) tid=(95,0,0)
GPGPU-Sim uArch: cycles simulated: 220000  inst.: 8926176 (ipc=40.6) sim_rate=47990 (inst/sec) elapsed = 0:0:03:06 / Tue Mar 22 12:47:14 2016
GPGPU-Sim uArch: cycles simulated: 221000  inst.: 8967520 (ipc=40.6) sim_rate=47954 (inst/sec) elapsed = 0:0:03:07 / Tue Mar 22 12:47:15 2016
GPGPU-Sim uArch: Shader 10 finished CTA #2 (221292,0), 5 CTAs running
GPGPU-Sim uArch: core: 10, cta: 2 initialized @(221293,0)
GPGPU-Sim PTX: 9100000 instructions simulated : ctaid=(122,0,0) tid=(255,0,0)
GPGPU-Sim uArch: cycles simulated: 222500  inst.: 9041216 (ipc=40.6) sim_rate=48091 (inst/sec) elapsed = 0:0:03:08 / Tue Mar 22 12:47:16 2016
GPGPU-Sim uArch: Shader 4 finished CTA #2 (222783,0), 5 CTAs running
GPGPU-Sim uArch: core:  4, cta: 2 initialized @(222784,0)
GPGPU-Sim uArch: cycles simulated: 223500  inst.: 9083328 (ipc=40.6) sim_rate=48059 (inst/sec) elapsed = 0:0:03:09 / Tue Mar 22 12:47:17 2016
GPGPU-Sim PTX: 9200000 instructions simulated : ctaid=(134,0,0) tid=(191,0,0)
GPGPU-Sim uArch: cycles simulated: 224500  inst.: 9121600 (ipc=40.6) sim_rate=48008 (inst/sec) elapsed = 0:0:03:10 / Tue Mar 22 12:47:18 2016
GPGPU-Sim uArch: cycles simulated: 225500  inst.: 9163456 (ipc=40.6) sim_rate=47976 (inst/sec) elapsed = 0:0:03:11 / Tue Mar 22 12:47:19 2016
GPGPU-Sim PTX: 9300000 instructions simulated : ctaid=(149,0,0) tid=(63,0,0)
GPGPU-Sim uArch: Shader 2 finished CTA #2 (226700,0), 5 CTAs running
GPGPU-Sim uArch: core:  2, cta: 2 initialized @(226701,0)
GPGPU-Sim uArch: Shader 3 finished CTA #2 (226822,0), 5 CTAs running
GPGPU-Sim uArch: core:  3, cta: 2 initialized @(226823,0)
GPGPU-Sim uArch: Shader 7 finished CTA #2 (226976,0), 5 CTAs running
GPGPU-Sim uArch: core:  7, cta: 2 initialized @(226977,0)
GPGPU-Sim uArch: cycles simulated: 227000  inst.: 9225440 (ipc=40.6) sim_rate=48049 (inst/sec) elapsed = 0:0:03:12 / Tue Mar 22 12:47:20 2016
GPGPU-Sim uArch: Shader 9 finished CTA #2 (227196,0), 5 CTAs running
GPGPU-Sim uArch: core:  9, cta: 2 initialized @(227197,0)
GPGPU-Sim uArch: Shader 5 finished CTA #2 (227668,0), 5 CTAs running
GPGPU-Sim uArch: core:  5, cta: 2 initialized @(227669,0)
GPGPU-Sim uArch: Shader 13 finished CTA #2 (227674,0), 5 CTAs running
GPGPU-Sim uArch: core: 13, cta: 2 initialized @(227675,0)
GPGPU-Sim uArch: cycles simulated: 228000  inst.: 9264480 (ipc=40.6) sim_rate=48002 (inst/sec) elapsed = 0:0:03:13 / Tue Mar 22 12:47:21 2016
GPGPU-Sim uArch: Shader 14 finished CTA #2 (228063,0), 5 CTAs running
GPGPU-Sim uArch: core: 14, cta: 2 initialized @(228064,0)
GPGPU-Sim PTX: 9400000 instructions simulated : ctaid=(145,0,0) tid=(63,0,0)
GPGPU-Sim uArch: cycles simulated: 229000  inst.: 9305984 (ipc=40.6) sim_rate=47968 (inst/sec) elapsed = 0:0:03:14 / Tue Mar 22 12:47:22 2016
GPGPU-Sim uArch: cycles simulated: 230000  inst.: 9346976 (ipc=40.6) sim_rate=47933 (inst/sec) elapsed = 0:0:03:15 / Tue Mar 22 12:47:23 2016
GPGPU-Sim PTX: 9500000 instructions simulated : ctaid=(139,0,0) tid=(31,0,0)
GPGPU-Sim uArch: cycles simulated: 231000  inst.: 9391168 (ipc=40.7) sim_rate=47914 (inst/sec) elapsed = 0:0:03:16 / Tue Mar 22 12:47:24 2016
GPGPU-Sim uArch: Shader 11 finished CTA #2 (231164,0), 5 CTAs running
GPGPU-Sim uArch: core: 11, cta: 2 initialized @(231165,0)
GPGPU-Sim uArch: Shader 0 finished CTA #2 (231204,0), 5 CTAs running
GPGPU-Sim uArch: core:  0, cta: 2 initialized @(231205,0)
GPGPU-Sim uArch: cycles simulated: 232000  inst.: 9430016 (ipc=40.6) sim_rate=47868 (inst/sec) elapsed = 0:0:03:17 / Tue Mar 22 12:47:25 2016
GPGPU-Sim uArch: Shader 8 finished CTA #2 (232355,0), 5 CTAs running
GPGPU-Sim uArch: core:  8, cta: 2 initialized @(232356,0)
GPGPU-Sim uArch: Shader 12 finished CTA #2 (232900,0), 5 CTAs running
GPGPU-Sim uArch: core: 12, cta: 2 initialized @(232901,0)
GPGPU-Sim PTX: 9600000 instructions simulated : ctaid=(135,0,0) tid=(223,0,0)
GPGPU-Sim uArch: cycles simulated: 233500  inst.: 9494048 (ipc=40.7) sim_rate=47949 (inst/sec) elapsed = 0:0:03:18 / Tue Mar 22 12:47:26 2016
GPGPU-Sim uArch: cycles simulated: 234500  inst.: 9534624 (ipc=40.7) sim_rate=47912 (inst/sec) elapsed = 0:0:03:19 / Tue Mar 22 12:47:27 2016
GPGPU-Sim uArch: Shader 6 finished CTA #2 (235004,0), 5 CTAs running
GPGPU-Sim uArch: core:  6, cta: 2 initialized @(235005,0)
GPGPU-Sim uArch: Shader 1 finished CTA #2 (235278,0), 5 CTAs running
GPGPU-Sim uArch: core:  1, cta: 2 initialized @(235279,0)
[...]
GPGPU-Sim uArch: core: 12, cta: 0 initialized @(484316,0)
GPGPU-Sim uArch: cycles simulated: 485500  inst.: 19619072 (ipc=40.4) sim_rate=51224 (inst/sec) elapsed = 0:0:06:23 / Tue Mar 22 12:50:31 2016
GPGPU-Sim uArch: Shader 1 finished CTA #0 (485900,0), 5 CTAs running
GPGPU-Sim uArch: core:  1, cta: 0 initialized @(485901,0)
GPGPU-Sim uArch: cycles simulated: 486500  inst.: 19663392 (ipc=40.4) sim_rate=51206 (inst/sec) elapsed = 0:0:06:24 / Tue Mar 22 12:50:32 2016
GPGPU-Sim PTX: 19900000 instructions simulated : ctaid=(299,0,0) tid=(95,0,0)
GPGPU-Sim uArch: Shader 3 finished CTA #0 (487119,0), 5 CTAs running
GPGPU-Sim uArch: core:  3, cta: 0 initialized @(487120,0)
GPGPU-Sim uArch: Shader 8 finished CTA #0 (487235,0), 5 CTAs running
GPGPU-Sim uArch: core:  8, cta: 0 initialized @(487236,0)
GPGPU-Sim uArch: Shader 11 finished CTA #0 (487979,0), 5 CTAs running
GPGPU-Sim uArch: core: 11, cta: 0 initialized @(487980,0)
GPGPU-Sim uArch: cycles simulated: 488000  inst.: 19720384 (ipc=40.4) sim_rate=51221 (inst/sec) elapsed = 0:0:06:25 / Tue Mar 22 12:50:33 2016
GPGPU-Sim PTX: 20000000 instructions simulated : ctaid=(296,0,0) tid=(31,0,0)
GPGPU-Sim uArch: cycles simulated: 489500  inst.: 19774816 (ipc=40.4) sim_rate=51230 (inst/sec) elapsed = 0:0:06:26 / Tue Mar 22 12:50:34 2016
GPGPU-Sim uArch: cycles simulated: 491000  inst.: 19828352 (ipc=40.4) sim_rate=51236 (inst/sec) elapsed = 0:0:06:27 / Tue Mar 22 12:50:35 2016
GPGPU-Sim PTX: 20100000 instructions simulated : ctaid=(299,0,0) tid=(159,0,0)
GPGPU-Sim uArch: cycles simulated: 492500  inst.: 19888544 (ipc=40.4) sim_rate=51259 (inst/sec) elapsed = 0:0:06:28 / Tue Mar 22 12:50:36 2016
GPGPU-Sim uArch: cycles simulated: 494500  inst.: 19961248 (ipc=40.4) sim_rate=51314 (inst/sec) elapsed = 0:0:06:29 / Tue Mar 22 12:50:37 2016
GPGPU-Sim PTX: 20200000 instructions simulated : ctaid=(286,0,0) tid=(223,0,0)
GPGPU-Sim uArch: cycles simulated: 496000  inst.: 20020064 (ipc=40.4) sim_rate=51333 (inst/sec) elapsed = 0:0:06:30 / Tue Mar 22 12:50:38 2016
GPGPU-Sim uArch: Shader 6 finished CTA #0 (496738,0), 5 CTAs running
GPGPU-Sim uArch: core:  6, cta: 0 initialized @(496739,0)
GPGPU-Sim PTX: 20300000 instructions simulated : ctaid=(293,0,0) tid=(127,0,0)
GPGPU-Sim uArch: cycles simulated: 497500  inst.: 20072928 (ipc=40.3) sim_rate=51337 (inst/sec) elapsed = 0:0:06:31 / Tue Mar 22 12:50:39 2016
GPGPU-Sim uArch: cycles simulated: 499000  inst.: 20130400 (ipc=40.3) sim_rate=51353 (inst/sec) elapsed = 0:0:06:32 / Tue Mar 22 12:50:40 2016
GPGPU-Sim PTX: 20400000 instructions simulated : ctaid=(305,0,0) tid=(95,0,0)
GPGPU-Sim uArch: Shader 9 finished CTA #1 (500028,0), 5 CTAs running
GPGPU-Sim uArch: core:  9, cta: 1 initialized @(500029,0)
GPGPU-Sim uArch: cycles simulated: 500500  inst.: 20191744 (ipc=40.3) sim_rate=51378 (inst/sec) elapsed = 0:0:06:33 / Tue Mar 22 12:50:41 2016
GPGPU-Sim uArch: Shader 10 finished CTA #1 (501160,0), 5 CTAs running
GPGPU-Sim uArch: core: 10, cta: 1 initialized @(501161,0)
GPGPU-Sim uArch: Shader 2 finished CTA #1 (501826,0), 5 CTAs running
GPGPU-Sim uArch: core:  2, cta: 1 initialized @(501827,0)
GPGPU-Sim uArch: Shader 4 finished CTA #1 (501868,0), 5 CTAs running
GPGPU-Sim uArch: core:  4, cta: 1 initialized @(501869,0)
GPGPU-Sim uArch: cycles simulated: 502000  inst.: 20258368 (ipc=40.4) sim_rate=51417 (inst/sec) elapsed = 0:0:06:34 / Tue Mar 22 12:50:42 2016
GPGPU-Sim PTX: 20500000 instructions simulated : ctaid=(290,0,0) tid=(191,0,0)
GPGPU-Sim uArch: cycles simulated: 503500  inst.: 20320256 (ipc=40.4) sim_rate=51443 (inst/sec) elapsed = 0:0:06:35 / Tue Mar 22 12:50:43 2016
GPGPU-Sim PTX: 20600000 instructions simulated : ctaid=(295,0,0) tid=(255,0,0)
GPGPU-Sim uArch: Shader 14 finished CTA #1 (504593,0), 5 CTAs running
GPGPU-Sim uArch: core: 14, cta: 1 initialized @(504594,0)
GPGPU-Sim uArch: cycles simulated: 505000  inst.: 20380000 (ipc=40.4) sim_rate=51464 (inst/sec) elapsed = 0:0:06:36 / Tue Mar 22 12:50:44 2016
GPGPU-Sim uArch: cycles simulated: 506500  inst.: 20438784 (ipc=40.4) sim_rate=51483 (inst/sec) elapsed = 0:0:06:37 / Tue Mar 22 12:50:45 2016
GPGPU-Sim uArch: Shader 13 finished CTA #1 (506940,0), 5 CTAs running
GPGPU-Sim uArch: core: 13, cta: 1 initialized @(506941,0)
GPGPU-Sim PTX: 20700000 instructions simulated : ctaid=(304,0,0) tid=(191,0,0)
GPGPU-Sim uArch: Shader 7 finished CTA #1 (507308,0), 5 CTAs running
GPGPU-Sim uArch: core:  7, cta: 1 initialized @(507309,0)
GPGPU-Sim uArch: cycles simulated: 508000  inst.: 20497568 (ipc=40.3) sim_rate=51501 (inst/sec) elapsed = 0:0:06:38 / Tue Mar 22 12:50:46 2016
GPGPU-Sim PTX: 20800000 instructions simulated : ctaid=(305,0,0) tid=(63,0,0)
GPGPU-Sim uArch: cycles simulated: 509500  inst.: 20562880 (ipc=40.4) sim_rate=51536 (inst/sec) elapsed = 0:0:06:39 / Tue Mar 22 12:50:47 2016
GPGPU-Sim uArch: Shader 12 finished CTA #1 (510200,0), 5 CTAs running
GPGPU-Sim uArch: core: 12, cta: 1 initialized @(510201,0)
GPGPU-Sim uArch: Shader 8 finished CTA #1 (510421,0), 5 CTAs running
GPGPU-Sim uArch: core:  8, cta: 1 initialized @(510422,0)
GPGPU-Sim uArch: Shader 5 finished CTA #1 (510919,0), 5 CTAs running
GPGPU-Sim uArch: core:  5, cta: 1 initialized @(510920,0)
GPGPU-Sim uArch: cycles simulated: 511000  inst.: 20624960 (ipc=40.4) sim_rate=51562 (inst/sec) elapsed = 0:0:06:40 / Tue Mar 22 12:50:48 2016
GPGPU-Sim uArch: Shader 0 finished CTA #1 (511417,0), 5 CTAs running
GPGPU-Sim uArch: core:  0, cta: 1 initialized @(511418,0)
GPGPU-Sim uArch: Shader 1 finished CTA #1 (511537,0), 5 CTAs running
GPGPU-Sim uArch: core:  1, cta: 1 initialized @(511538,0)
GPGPU-Sim PTX: 20900000 instructions simulated : ctaid=(311,0,0) tid=(95,0,0)
GPGPU-Sim uArch: cycles simulated: 512000  inst.: 20664096 (ipc=40.4) sim_rate=51531 (inst/sec) elapsed = 0:0:06:41 / Tue Mar 22 12:50:49 2016
GPGPU-Sim uArch: Shader 11 finished CTA #1 (512606,0), 5 CTAs running
GPGPU-Sim uArch: core: 11, cta: 1 initialized @(512607,0)
GPGPU-Sim uArch: cycles simulated: 513500  inst.: 20724512 (ipc=40.4) sim_rate=51553 (inst/sec) elapsed = 0:0:06:42 / Tue Mar 22 12:50:50 2016
GPGPU-Sim PTX: 21000000 instructions simulated : ctaid=(305,0,0) tid=(127,0,0)
GPGPU-Sim uArch: Shader 3 finished CTA #1 (514523,0), 5 CTAs running
GPGPU-Sim uArch: core:  3, cta: 1 initialized @(514524,0)
GPGPU-Sim uArch: cycles simulated: 515000  inst.: 20789152 (ipc=40.4) sim_rate=51585 (inst/sec) elapsed = 0:0:06:43 / Tue Mar 22 12:50:51 2016
GPGPU-Sim uArch: cycles simulated: 516500  inst.: 20851072 (ipc=40.4) sim_rate=51611 (inst/sec) elapsed = 0:0:06:44 / Tue Mar 22 12:50:52 2016
GPGPU-Sim PTX: 21100000 instructions simulated : ctaid=(311,0,0) tid=(255,0,0)
GPGPU-Sim uArch: cycles simulated: 518000  inst.: 20915360 (ipc=40.4) sim_rate=51642 (inst/sec) elapsed = 0:0:06:45 / Tue Mar 22 12:50:53 2016
GPGPU-Sim PTX: 21200000 instructions simulated : ctaid=(301,0,0) tid=(159,0,0)
GPGPU-Sim uArch: cycles simulated: 519500  inst.: 20972736 (ipc=40.4) sim_rate=51656 (inst/sec) elapsed = 0:0:06:46 / Tue Mar 22 12:50:54 2016
GPGPU-Sim uArch: cycles simulated: 521000  inst.: 21032672 (ipc=40.4) sim_rate=51677 (inst/sec) elapsed = 0:0:06:47 / Tue Mar 22 12:50:55 2016
GPGPU-Sim PTX: 21300000 instructions simulated : ctaid=(310,0,0) tid=(159,0,0)
GPGPU-Sim uArch: cycles simulated: 522500  inst.: 21091840 (ipc=40.4) sim_rate=51695 (inst/sec) elapsed = 0:0:06:48 / Tue Mar 22 12:50:56 2016
GPGPU-Sim uArch: cycles simulated: 523500  inst.: 21131456 (ipc=40.4) sim_rate=51666 (inst/sec) elapsed = 0:0:06:49 / Tue Mar 22 12:50:57 2016
GPGPU-Sim uArch: Shader 6 finished CTA #1 (523988,0), 5 CTAs running
GPGPU-Sim uArch: core:  6, cta: 1 initialized @(523989,0)
GPGPU-Sim PTX: 21400000 instructions simulated : ctaid=(311,0,0) tid=(159,0,0)
GPGPU-Sim uArch: cycles simulated: 525000  inst.: 21190528 (ipc=40.4) sim_rate=51684 (inst/sec) elapsed = 0:0:06:50 / Tue Mar 22 12:50:58 2016
GPGPU-Sim uArch: Shader 4 finished CTA #2 (525292,0), 5 CTAs running
GPGPU-Sim uArch: core:  4, cta: 2 initialized @(525293,0)
GPGPU-Sim uArch: cycles simulated: 526000  inst.: 21227136 (ipc=40.4) sim_rate=51647 (inst/sec) elapsed = 0:0:06:51 / Tue Mar 22 12:50:59 2016
GPGPU-Sim PTX: 21500000 instructions simulated : ctaid=(316,0,0) tid=(191,0,0)
GPGPU-Sim uArch: cycles simulated: 527500  inst.: 21290976 (ipc=40.4) sim_rate=51677 (inst/sec) elapsed = 0:0:06:52 / Tue Mar 22 12:51:00 2016
GPGPU-Sim uArch: Shader 14 finished CTA #2 (528388,0), 5 CTAs running
GPGPU-Sim uArch: core: 14, cta: 2 initialized @(528389,0)
GPGPU-Sim uArch: cycles simulated: 528500  inst.: 21334528 (ipc=40.4) sim_rate=51657 (inst/sec) elapsed = 0:0:06:53 / Tue Mar 22 12:51:01 2016
GPGPU-Sim uArch: Shader 9 finished CTA #2 (528544,0), 5 CTAs running
GPGPU-Sim uArch: core:  9, cta: 2 initialized @(528545,0)
GPGPU-Sim uArch: Shader 13 finished CTA #2 (528688,0), 5 CTAs running
GPGPU-Sim uArch: core: 13, cta: 2 initialized @(528689,0)
GPGPU-Sim PTX: 21600000 instructions simulated : ctaid=(312,0,0) tid=(223,0,0)
GPGPU-Sim uArch: cycles simulated: 529500  inst.: 21373440 (ipc=40.4) sim_rate=51626 (inst/sec) elapsed = 0:0:06:54 / Tue Mar 22 12:51:02 2016
GPGPU-Sim uArch: Shader 10 finished CTA #2 (530169,0), 5 CTAs running
GPGPU-Sim uArch: core: 10, cta: 2 initialized @(530170,0)
GPGPU-Sim uArch: Shader 2 finished CTA #2 (530443,0), 5 CTAs running
GPGPU-Sim uArch: core:  2, cta: 2 initialized @(530444,0)
GPGPU-Sim uArch: cycles simulated: 531000  inst.: 21437920 (ipc=40.4) sim_rate=51657 (inst/sec) elapsed = 0:0:06:55 / Tue Mar 22 12:51:03 2016
GPGPU-Sim PTX: 21700000 instructions simulated : ctaid=(320,0,0) tid=(95,0,0)
GPGPU-Sim uArch: cycles simulated: 532000  inst.: 21480096 (ipc=40.4) sim_rate=51634 (inst/sec) elapsed = 0:0:06:56 / Tue Mar 22 12:51:04 2016
GPGPU-Sim uArch: cycles simulated: 533500  inst.: 21540800 (ipc=40.4) sim_rate=51656 (inst/sec) elapsed = 0:0:06:57 / Tue Mar 22 12:51:05 2016
GPGPU-Sim PTX: 21800000 instructions simulated : ctaid=(326,0,0) tid=(31,0,0)
GPGPU-Sim uArch: Shader 7 finished CTA #2 (534282,0), 5 CTAs running
GPGPU-Sim uArch: core:  7, cta: 2 initialized @(534283,0)
GPGPU-Sim uArch: cycles simulated: 534500  inst.: 21578720 (ipc=40.4) sim_rate=51623 (inst/sec) elapsed = 0:0:06:58 / Tue Mar 22 12:51:06 2016
GPGPU-Sim uArch: Shader 12 finished CTA #2 (535546,0), 5 CTAs running
GPGPU-Sim uArch: core: 12, cta: 2 initialized @(535547,0)
GPGPU-Sim uArch: cycles simulated: 536000  inst.: 21642368 (ipc=40.4) sim_rate=51652 (inst/sec) elapsed = 0:0:06:59 / Tue Mar 22 12:51:07 2016
GPGPU-Sim uArch: Shader 11 finished CTA #2 (536041,0), 5 CTAs running
GPGPU-Sim uArch: core: 11, cta: 2 initialized @(536042,0)
GPGPU-Sim uArch: Shader 1 finished CTA #2 (536047,0), 5 CTAs running
GPGPU-Sim uArch: core:  1, cta: 2 initialized @(536048,0)
GPGPU-Sim PTX: 21900000 instructions simulated : ctaid=(318,0,0) tid=(127,0,0)
GPGPU-Sim uArch: Shader 0 finished CTA #2 (536526,0), 5 CTAs running
GPGPU-Sim uArch: core:  0, cta: 2 initialized @(536527,0)
GPGPU-Sim uArch: Shader 5 finished CTA #2 (536963,0), 5 CTAs running
GPGPU-Sim uArch: core:  5, cta: 2 initialized @(536964,0)
GPGPU-Sim uArch: cycles simulated: 537000  inst.: 21685760 (ipc=40.4) sim_rate=51632 (inst/sec) elapsed = 0:0:07:00 / Tue Mar 22 12:51:08 2016
GPGPU-Sim uArch: Shader 8 finished CTA #2 (537403,0), 5 CTAs running
GPGPU-Sim uArch: core:  8, cta: 2 initialized @(537404,0)
GPGPU-Sim uArch: cycles simulated: 538000  inst.: 21726336 (ipc=40.4) sim_rate=51606 (inst/sec) elapsed = 0:0:07:01 / Tue Mar 22 12:51:09 2016
GPGPU-Sim PTX: 22000000 instructions simulated : ctaid=(320,0,0) tid=(159,0,0)
GPGPU-Sim uArch: cycles simulated: 539000  inst.: 21765472 (ipc=40.4) sim_rate=51576 (inst/sec) elapsed = 0:0:07:02 / Tue Mar 22 12:51:10 2016
GPGPU-Sim uArch: cycles simulated: 540500  inst.: 21826688 (ipc=40.4) sim_rate=51599 (inst/sec) elapsed = 0:0:07:03 / Tue Mar 22 12:51:11 2016
GPGPU-Sim PTX: 22100000 instructions simulated : ctaid=(315,0,0) tid=(191,0,0)
GPGPU-Sim uArch: cycles simulated: 541500  inst.: 21869472 (ipc=40.4) sim_rate=51578 (inst/sec) elapsed = 0:0:07:04 / Tue Mar 22 12:51:12 2016
GPGPU-Sim uArch: Shader 3 finished CTA #2 (542451,0), 5 CTAs running
GPGPU-Sim uArch: core:  3, cta: 2 initialized @(542452,0)
GPGPU-Sim uArch: cycles simulated: 542500  inst.: 21910144 (ipc=40.4) sim_rate=51553 (inst/sec) elapsed = 0:0:07:05 / Tue Mar 22 12:51:13 2016
GPGPU-Sim PTX: 22200000 instructions simulated : ctaid=(323,0,0) tid=(223,0,0)
GPGPU-Sim uArch: cycles simulated: 544000  inst.: 21965376 (ipc=40.4) sim_rate=51561 (inst/sec) elapsed = 0:0:07:06 / Tue Mar 22 12:51:14 2016
GPGPU-Sim uArch: cycles simulated: 545000  inst.: 22004768 (ipc=40.4) sim_rate=51533 (inst/sec) elapsed = 0:0:07:07 / Tue Mar 22 12:51:15 2016
GPGPU-Sim PTX: 22300000 instructions simulated : ctaid=(328,0,0) tid=(127,0,0)
GPGPU-Sim uArch: cycles simulated: 546000  inst.: 22046112 (ipc=40.4) sim_rate=51509 (inst/sec) elapsed = 0:0:07:08 / Tue Mar 22 12:51:16 2016
GPGPU-Sim uArch: cycles simulated: 547500  inst.: 22109632 (ipc=40.4) sim_rate=51537 (inst/sec) elapsed = 0:0:07:09 / Tue Mar 22 12:51:17 2016
GPGPU-Sim PTX: 22400000 instructions simulated : ctaid=(324,0,0) tid=(95,0,0)
GPGPU-Sim uArch: cycles simulated: 549000  inst.: 22160576 (ipc=40.4) sim_rate=51536 (inst/sec) elapsed = 0:0:07:10 / Tue Mar 22 12:51:18 2016
GPGPU-Sim uArch: cycles simulated: 550000  inst.: 22197152 (ipc=40.4) sim_rate=51501 (inst/sec) elapsed = 0:0:07:11 / Tue Mar 22 12:51:19 2016
GPGPU-Sim PTX: 22500000 instructions simulated : ctaid=(335,0,0) tid=(159,0,0)
GPGPU-Sim uArch: cycles simulated: 551500  inst.: 22252448 (ipc=40.3) sim_rate=51510 (inst/sec) elapsed = 0:0:07:12 / Tue Mar 22 12:51:20 2016
GPGPU-Sim uArch: Shader 9 finished CTA #3 (551972,0), 5 CTAs running
GPGPU-Sim uArch: core:  9, cta: 3 initialized @(551973,0)
GPGPU-Sim uArch: Shader 6 finished CTA #2 (552240,0), 5 CTAs running
GPGPU-Sim uArch: core:  6, cta: 2 initialized @(552241,0)
GPGPU-Sim uArch: cycles simulated: 552500  inst.: 22289408 (ipc=40.3) sim_rate=51476 (inst/sec) elapsed = 0:0:07:13 / Tue Mar 22 12:51:21 2016
GPGPU-Sim uArch: Shader 4 finished CTA #3 (552511,0), 5 CTAs running
GPGPU-Sim uArch: core:  4, cta: 3 initialized @(552512,0)
GPGPU-Sim uArch: Shader 14 finished CTA #3 (552985,0), 5 CTAs running
GPGPU-Sim uArch: core: 14, cta: 3 initialized @(552986,0)
GPGPU-Sim uArch: Shader 10 finished CTA #3 (553688,0), 5 CTAs running
GPGPU-Sim uArch: core: 10, cta: 3 initialized @(553689,0)
GPGPU-Sim PTX: 22600000 instructions simulated : ctaid=(323,0,0) tid=(223,0,0)
GPGPU-Sim uArch: cycles simulated: 554000  inst.: 22346528 (ipc=40.3) sim_rate=51489 (inst/sec) elapsed = 0:0:07:14 / Tue Mar 22 12:51:22 2016
GPGPU-Sim uArch: Shader 13 finished CTA #3 (554952,0), 5 CTAs running
GPGPU-Sim uArch: core: 13, cta: 3 initialized @(554953,0)
GPGPU-Sim uArch: cycles simulated: 555000  inst.: 22387872 (ipc=40.3) sim_rate=51466 (inst/sec) elapsed = 0:0:07:15 / Tue Mar 22 12:51:23 2016
GPGPU-Sim uArch: cycles simulated: 556000  inst.: 22429440 (ipc=40.3) sim_rate=51443 (inst/sec) elapsed = 0:0:07:16 / Tue Mar 22 12:51:24 2016
GPGPU-Sim PTX: 22700000 instructions simulated : ctaid=(317,0,0) tid=(223,0,0)
GPGPU-Sim uArch: Shader 2 finished CTA #3 (556504,0), 5 CTAs running
GPGPU-Sim uArch: core:  2, cta: 3 initialized @(556505,0)
GPGPU-Sim uArch: cycles simulated: 557500  inst.: 22491552 (ipc=40.3) sim_rate=51468 (inst/sec) elapsed = 0:0:07:17 / Tue Mar 22 12:51:25 2016
GPGPU-Sim uArch: Shader 12 finished CTA #3 (557735,0), 5 CTAs running
GPGPU-Sim uArch: core: 12, cta: 3 initialized @(557736,0)
GPGPU-Sim uArch: cycles simulated: 558500  inst.: 22531008 (ipc=40.3) sim_rate=51440 (inst/sec) elapsed = 0:0:07:18 / Tue Mar 22 12:51:26 2016
GPGPU-Sim PTX: 22800000 instructions simulated : ctaid=(330,0,0) tid=(95,0,0)
GPGPU-Sim uArch: Shader 7 finished CTA #3 (558756,0), 5 CTAs running
GPGPU-Sim uArch: core:  7, cta: 3 initialized @(558757,0)
GPGPU-Sim uArch: cycles simulated: 560000  inst.: 22594208 (ipc=40.3) sim_rate=51467 (inst/sec) elapsed = 0:0:07:19 / Tue Mar 22 12:51:27 2016
GPGPU-Sim uArch: Shader 8 finished CTA #3 (560527,0), 5 CTAs running
GPGPU-Sim uArch: core:  8, cta: 3 initialized @(560528,0)
GPGPU-Sim uArch: cycles simulated: 561000  inst.: 22627552 (ipc=40.3) sim_rate=51426 (inst/sec) elapsed = 0:0:07:20 / Tue Mar 22 12:51:28 2016
GPGPU-Sim PTX: 22900000 instructions simulated : ctaid=(337,0,0) tid=(127,0,0)
GPGPU-Sim uArch: Shader 1 finished CTA #3 (561960,0), 5 CTAs running
GPGPU-Sim uArch: core:  1, cta: 3 initialized @(561961,0)
GPGPU-Sim uArch: cycles simulated: 562000  inst.: 22670464 (ipc=40.3) sim_rate=51406 (inst/sec) elapsed = 0:0:07:21 / Tue Mar 22 12:51:29 2016
GPGPU-Sim uArch: Shader 11 finished CTA #3 (562075,0), 5 CTAs running
GPGPU-Sim uArch: core: 11, cta: 3 initialized @(562076,0)
GPGPU-Sim uArch: Shader 5 finished CTA #3 (562903,0), 5 CTAs running
GPGPU-Sim uArch: core:  5, cta: 3 initialized @(562904,0)
GPGPU-Sim uArch: cycles simulated: 563500  inst.: 22725056 (ipc=40.3) sim_rate=51414 (inst/sec) elapsed = 0:0:07:22 / Tue Mar 22 12:51:30 2016
GPGPU-Sim PTX: 23000000 instructions simulated : ctaid=(343,0,0) tid=(63,0,0)
GPGPU-Sim uArch: Shader 0 finished CTA #3 (564627,0), 5 CTAs running
GPGPU-Sim uArch: core:  0, cta: 3 initialized @(564628,0)
GPGPU-Sim uArch: cycles simulated: 565000  inst.: 22787264 (ipc=40.3) sim_rate=51438 (inst/sec) elapsed = 0:0:07:23 / Tue Mar 22 12:51:31 2016
GPGPU-Sim uArch: cycles simulated: 566000  inst.: 22825728 (ipc=40.3) sim_rate=51409 (inst/sec) elapsed = 0:0:07:24 / Tue Mar 22 12:51:32 2016
GPGPU-Sim PTX: 23100000 instructions simulated : ctaid=(342,0,0) tid=(127,0,0)
GPGPU-Sim uArch: cycles simulated: 567500  inst.: 22889632 (ipc=40.3) sim_rate=51437 (inst/sec) elapsed = 0:0:07:25 / Tue Mar 22 12:51:33 2016
GPGPU-Sim uArch: cycles simulated: 568500  inst.: 22930880 (ipc=40.3) sim_rate=51414 (inst/sec) elapsed = 0:0:07:26 / Tue Mar 22 12:51:34 2016
GPGPU-Sim PTX: 23200000 instructions simulated : ctaid=(339,0,0) tid=(63,0,0)
GPGPU-Sim uArch: cycles simulated: 570000  inst.: 22989856 (ipc=40.3) sim_rate=51431 (inst/sec) elapsed = 0:0:07:27 / Tue Mar 22 12:51:35 2016
GPGPU-Sim uArch: Shader 3 finished CTA #3 (570506,0), 5 CTAs running
GPGPU-Sim uArch: core:  3, cta: 3 initialized @(570507,0)
GPGPU-Sim PTX: 23300000 instructions simulated : ctaid=(343,0,0) tid=(191,0,0)
GPGPU-Sim uArch: cycles simulated: 571500  inst.: 23051328 (ipc=40.3) sim_rate=51453 (inst/sec) elapsed = 0:0:07:28 / Tue Mar 22 12:51:36 2016
GPGPU-Sim uArch: cycles simulated: 572500  inst.: 23089824 (ipc=40.3) sim_rate=51424 (inst/sec) elapsed = 0:0:07:29 / Tue Mar 22 12:51:37 2016
GPGPU-Sim PTX: 23400000 instructions simulated : ctaid=(349,0,0) tid=(31,0,0)
GPGPU-Sim uArch: cycles simulated: 574000  inst.: 23152896 (ipc=40.3) sim_rate=51450 (inst/sec) elapsed = 0:0:07:30 / Tue Mar 22 12:51:38 2016
GPGPU-Sim uArch: Shader 4 finished CTA #4 (575006,0), 5 CTAs running
GPGPU-Sim uArch: core:  4, cta: 4 initialized @(575007,0)
GPGPU-Sim uArch: Shader 10 finished CTA #4 (575448,0), 5 CTAs running
GPGPU-Sim uArch: core: 10, cta: 4 initialized @(575449,0)
GPGPU-Sim uArch: cycles simulated: 575500  inst.: 23216384 (ipc=40.3) sim_rate=51477 (inst/sec) elapsed = 0:0:07:31 / Tue Mar 22 12:51:39 2016
GPGPU-Sim uArch: Shader 6 finished CTA #3 (575700,0), 5 CTAs running
GPGPU-Sim uArch: core:  6, cta: 3 initialized @(575701,0)
GPGPU-Sim PTX: 23500000 instructions simulated : ctaid=(349,0,0) tid=(127,0,0)
GPGPU-Sim uArch: cycles simulated: 576500  inst.: 23253952 (ipc=40.3) sim_rate=51446 (inst/sec) elapsed = 0:0:07:32 / Tue Mar 22 12:51:40 2016
GPGPU-Sim uArch: Shader 9 finished CTA #4 (577564,0), 5 CTAs running
GPGPU-Sim uArch: core:  9, cta: 4 initialized @(577565,0)
GPGPU-Sim uArch: cycles simulated: 578000  inst.: 23316896 (ipc=40.3) sim_rate=51472 (inst/sec) elapsed = 0:0:07:33 / Tue Mar 22 12:51:41 2016
GPGPU-Sim PTX: 23600000 instructions simulated : ctaid=(346,0,0) tid=(63,0,0)
