

        *** GPGPU-Sim Simulator Version 3.2.2  [build 0] ***


GPGPU-Sim PTX: simulation mode 0 (can change with PTX_SIM_MODE_FUNC environment variable:
               1=functional simulation only, 0=detailed performance simulator)
GPGPU-Sim: Configuration options:

-network_mode                           1 # Interconnection network mode
-inter_config_file   config_fermi_islip.icnt # Interconnection network config file
-gpgpu_ptx_use_cuobjdump                    1 # Use cuobjdump to extract ptx and sass from binaries
-gpgpu_experimental_lib_support                    0 # Try to extract code from cuda libraries [Broken because of unknown cudaGetExportTable]
-gpgpu_ptx_convert_to_ptxplus                    0 # Convert SASS (native ISA) to ptxplus and run ptxplus
-gpgpu_ptx_force_max_capability                   20 # Force maximum compute capability
-gpgpu_ptx_inst_debug_to_file                    0 # Dump executed instructions' debug information to file
-gpgpu_ptx_inst_debug_file       inst_debug.txt # Executed instructions' debug output file
-gpgpu_ptx_inst_debug_thread_uid                    1 # Thread UID for executed instructions' debug output
-gpgpu_simd_model                       1 # 1 = post-dominator
-gpgpu_shader_core_pipeline              1536:32 # shader core pipeline config, i.e., {<nthread>:<warpsize>}
-gpgpu_tex_cache:l1  4:128:24,L:R:m:N:L,F:128:4,128:2 # per-shader L1 texture cache  (READ-ONLY) config  {<nsets>:<bsize>:<assoc>,<rep>:<wr>:<alloc>:<wr_alloc>,<mshr>:<N>:<merge>,<mq>:<rf>}
-gpgpu_const_cache:l1 64:64:2,L:R:f:N:L,A:2:32,4 # per-shader L1 constant memory cache  (READ-ONLY) config  {<nsets>:<bsize>:<assoc>,<rep>:<wr>:<alloc>:<wr_alloc>,<mshr>:<N>:<merge>,<mq>} 
-gpgpu_cache:il1     4:128:4,L:R:f:N:L,A:2:32,4 # shader L1 instruction cache config  {<nsets>:<bsize>:<assoc>,<rep>:<wr>:<alloc>:<wr_alloc>,<mshr>:<N>:<merge>,<mq>} 
-gpgpu_cache:dl1     32:128:4,L:L:m:N:H,A:32:8,8:2,0,0:0:1:1:0:1,1:4:8:16:32:64,/sciclone/data10/hwang07/GPU_RESEARCH/swl/swl_outputs/RESULTS/ # per-shader L1 data cache config  {<nsets>:<bsize>:<assoc>,<rep>:<wr>:<alloc>:<wr_alloc>,<mshr>:<N>:<merge>,<mq> | none}
-gpgpu_cache:dl1PrefL1                 none # per-shader L1 data cache config  {<nsets>:<bsize>:<assoc>,<rep>:<wr>:<alloc>:<wr_alloc>,<mshr>:<N>:<merge>,<mq> | none}
-gpgpu_cache:dl1PreShared                 none # per-shader L1 data cache config  {<nsets>:<bsize>:<assoc>,<rep>:<wr>:<alloc>:<wr_alloc>,<mshr>:<N>:<merge>,<mq> | none}
-gmem_skip_L1D                          0 # global memory access skip L1D cache (implements -Xptxas -dlcm=cg, default=no skip)
-gpgpu_perfect_mem                      0 # enable perfect memory mode (no cache miss)
-n_regfile_gating_group                    4 # group of lanes that should be read/written together)
-gpgpu_clock_gated_reg_file                    0 # enable clock gated reg file for power calculations
-gpgpu_clock_gated_lanes                    0 # enable clock gated lanes for power calculations
-gpgpu_shader_registers                32768 # Number of registers per shader core. Limits number of concurrent CTAs. (default 8192)
-gpgpu_shader_cta                       8 # Maximum number of concurrent CTAs in shader (default 8)
-gpgpu_num_cta_barriers                   16 # Maximum number of named barriers per CTA (default 16)
-gpgpu_n_clusters                      15 # number of processing clusters
-gpgpu_n_cores_per_cluster                    1 # number of simd cores per cluster
-gpgpu_n_cluster_ejection_buffer_size                    8 # number of packets in ejection buffer
-gpgpu_n_ldst_response_buffer_size                    2 # number of response packets in ld/st unit ejection buffer
-gpgpu_shmem_size                   16384 # Size of shared memory per shader core (default 16kB)
-gpgpu_shmem_size                   49152 # Size of shared memory per shader core (default 16kB)
-gpgpu_shmem_size_PrefL1                16384 # Size of shared memory per shader core (default 16kB)
-gpgpu_shmem_size_PrefShared                16384 # Size of shared memory per shader core (default 16kB)
-gpgpu_shmem_num_banks                   32 # Number of banks in the shared memory in each shader core (default 16)
-gpgpu_shmem_limited_broadcast                    0 # Limit shared memory to do one broadcast per cycle (default on)
-gpgpu_shmem_warp_parts                    1 # Number of portions a warp is divided into for shared memory bank conflict check 
-gpgpu_warpdistro_shader                   -1 # Specify which shader core to collect the warp size distribution from
-gpgpu_warp_issue_shader                    0 # Specify which shader core to collect the warp issue distribution from
-gpgpu_local_mem_map                    1 # Mapping from local memory space address to simulated GPU physical address space (default = enabled)
-gpgpu_num_reg_banks                   16 # Number of register banks (default = 8)
-gpgpu_reg_bank_use_warp_id                    0 # Use warp ID in mapping registers to banks (default = off)
-gpgpu_operand_collector_num_units_sp                    6 # number of collector units (default = 4)
-gpgpu_operand_collector_num_units_sfu                    8 # number of collector units (default = 4)
-gpgpu_operand_collector_num_units_mem                    2 # number of collector units (default = 2)
-gpgpu_operand_collector_num_units_gen                    0 # number of collector units (default = 0)
-gpgpu_operand_collector_num_in_ports_sp                    2 # number of collector unit in ports (default = 1)
-gpgpu_operand_collector_num_in_ports_sfu                    1 # number of collector unit in ports (default = 1)
-gpgpu_operand_collector_num_in_ports_mem                    1 # number of collector unit in ports (default = 1)
-gpgpu_operand_collector_num_in_ports_gen                    0 # number of collector unit in ports (default = 0)
-gpgpu_operand_collector_num_out_ports_sp                    2 # number of collector unit in ports (default = 1)
-gpgpu_operand_collector_num_out_ports_sfu                    1 # number of collector unit in ports (default = 1)
-gpgpu_operand_collector_num_out_ports_mem                    1 # number of collector unit in ports (default = 1)
-gpgpu_operand_collector_num_out_ports_gen                    0 # number of collector unit in ports (default = 0)
-gpgpu_coalesce_arch                   13 # Coalescing arch (default = 13, anything else is off for now)
-gpgpu_num_sched_per_core                    2 # Number of warp schedulers per core
-gpgpu_max_insn_issue_per_warp                    1 # Max number of instructions that can be issued per warp in one cycle by scheduler
-gpgpu_simt_core_sim_order                    1 # Select the simulation order of cores in a cluster (0=Fix, 1=Round-Robin)
-gpgpu_pipeline_widths        2,1,1,2,1,1,2 # Pipeline widths ID_OC_SP,ID_OC_SFU,ID_OC_MEM,OC_EX_SP,OC_EX_SFU,OC_EX_MEM,EX_WB
-gpgpu_num_sp_units                     2 # Number of SP units (default=1)
-gpgpu_num_sfu_units                    1 # Number of SF units (default=1)
-gpgpu_num_mem_units                    1 # Number if ldst units (default=1) WARNING: not hooked up to anything
-gpgpu_scheduler      warp_limiting:2:8:0 # Scheduler configuration: < lrr | gto | two_level_active > If two_level_active:<num_active_warps>:<inner_prioritization>:<outer_prioritization>For complete list of prioritization values see shader.h enum scheduler_prioritization_typeDefault: gto
-gpgpu_dram_scheduler                    1 # 0 = fifo, 1 = FR-FCFS (defaul)
-gpgpu_dram_partition_queues              8:8:8:8 # i2$:$2d:d2$:$2i
-l2_ideal                               0 # Use a ideal L2 cache that always hit
-gpgpu_cache:dl2     64:128:8,L:B:m:W:L,A:32:4,4:0,32 # unified banked L2 data cache config  {<nsets>:<bsize>:<assoc>,<rep>:<wr>:<alloc>:<wr_alloc>,<mshr>:<N>:<merge>,<mq>}
-gpgpu_cache:dl2_texture_only                    0 # L2 cache used for texture only
-gpgpu_n_mem                            6 # number of memory modules (e.g. memory controllers) in gpu
-gpgpu_n_sub_partition_per_mchannel                    2 # number of memory subpartition in each memory module
-gpgpu_n_mem_per_ctrlr                    2 # number of memory chips per memory controller
-gpgpu_memlatency_stat                   14 # track and display latency statistics 0x2 enables MC, 0x4 enables queue logs
-gpgpu_frfcfs_dram_sched_queue_size                   16 # 0 = unlimited (default); # entries per chip
-gpgpu_dram_return_queue_size                  116 # 0 = unlimited (default); # entries per chip
-gpgpu_dram_buswidth                    4 # default = 4 bytes (8 bytes per cycle at DDR)
-gpgpu_dram_burst_length                    8 # Burst length of each DRAM request (default = 4 data bus cycle)
-dram_data_command_freq_ratio                    4 # Frequency ratio between DRAM data bus and command bus (default = 2 times, i.e. DDR)
-gpgpu_dram_timing_opt nbk=16:CCD=2:RRD=6:RCD=12:RAS=28:RP=12:RC=40: CL=12:WL=4:CDLR=5:WR=12:nbkgrp=4:CCDL=3:RTPL=2 # DRAM timing parameters = {nbk:tCCD:tRRD:tRCD:tRAS:tRP:tRC:CL:WL:tCDLR:tWR:nbkgrp:tCCDL:tRTPL}
-rop_latency                          120 # ROP queue latency (default 85)
-dram_latency                         100 # DRAM latency (default 30)
-gpgpu_mem_addr_mapping dramid@8;00000000.00000000.00000000.00000000.0000RRRR.RRRRRRRR.BBBCCCCB.CCSSSSSS # mapping memory address to dram model {dramid@<start bit>;<memory address map>}
-gpgpu_mem_addr_test                    0 # run sweep test to check address mapping for aliased address
-gpgpu_mem_address_mask                    1 # 0 = old addressing mask, 1 = new addressing mask, 2 = new add. mask + flipped bank sel and chip sel bits
-gpuwattch_xml_file  gpuwattch_gtx480.xml # GPUWattch XML file
-power_simulation_enabled                    0 # Turn on power simulator (1=On, 0=Off)
-power_per_cycle_dump                    0 # Dump detailed power output each cycle
-power_trace_enabled                    0 # produce a file for the power trace (1=On, 0=Off)
-power_trace_zlevel                     6 # Compression level of the power trace output log (0=no comp, 9=highest)
-steady_power_levels_enabled                    0 # produce a file for the steady power levels (1=On, 0=Off)
-steady_state_definition                  8:4 # allowed deviation:number of samples
-gpgpu_max_cycle                        0 # terminates gpu simulation early (0 = no limit)
-gpgpu_max_insn                         0 # terminates gpu simulation early (0 = no limit)
-gpgpu_max_cta                          0 # terminates gpu simulation early (0 = no limit)
-gpgpu_runtime_stat                   500 # display runtime statistics such as dram utilization {<freq>:<flag>}
-liveness_message_freq                    1 # Minimum number of seconds between simulation liveness messages (0 = always print)
-gpgpu_flush_l1_cache                    0 # Flush L1 cache at the end of each kernel call
-gpgpu_flush_l2_cache                    0 # Flush L2 cache at the end of each kernel call
-gpgpu_deadlock_detect                    1 # Stop the simulation at deadlock (1=on (default), 0=off)
-gpgpu_ptx_instruction_classification                    0 # if enabled will classify ptx instruction types per kernel (Max 255 kernels now)
-gpgpu_ptx_sim_mode                     0 # Select between Performance (default) or Functional simulation (1)
-gpgpu_clock_domains 700.0:700.0:700.0:924.0 # Clock Domain Frequencies in MhZ {<Core Clock>:<ICNT Clock>:<L2 Clock>:<DRAM Clock>}
-gpgpu_max_concurrent_kernel                    8 # maximum kernels that can run concurrently on GPU
-gpgpu_cflog_interval                    0 # Interval between each snapshot in control flow logger
-visualizer_enabled                     0 # Turn on visualizer output (1=On, 0=Off)
-visualizer_outputfile                 NULL # Specifies the output log file for visualizer
-visualizer_zlevel                      6 # Compression level of the visualizer output log (0=no comp, 9=highest)
-trace_enabled                          0 # Turn on traces
-trace_components                    none # comma seperated list of traces to enable. Complete list found in trace_streams.tup. Default none
-trace_sampling_core                    0 # The core which is printed using CORE_DPRINTF. Default 0
-trace_sampling_memory_partition                   -1 # The memory partition which is printed using MEMPART_DPRINTF. Default -1 (i.e. all)
-enable_ptx_file_line_stats                    1 # Turn on PTX source line statistic profiling. (1 = On)
-ptx_line_stats_filename gpgpu_inst_stats.txt # Output file for PTX source line statistics.
-save_embedded_ptx                      0 # saves ptx files embedded in binary as <n>.ptx
-keep                                   0 # keep intermediate files created by GPGPU-Sim when interfacing with external programs
-gpgpu_ptx_save_converted_ptxplus                    0 # Saved converted ptxplus to a file
-ptx_opcode_latency_int         4,13,4,5,145 # Opcode latencies for integers <ADD,MAX,MUL,MAD,DIV>Default 1,1,19,25,145
-ptx_opcode_latency_fp          4,13,4,5,39 # Opcode latencies for single precision floating points <ADD,MAX,MUL,MAD,DIV>Default 1,1,1,1,30
-ptx_opcode_latency_dp         8,19,8,8,330 # Opcode latencies for double precision floating points <ADD,MAX,MUL,MAD,DIV>Default 8,8,8,8,335
-ptx_opcode_initiation_int            1,2,2,1,8 # Opcode initiation intervals for integers <ADD,MAX,MUL,MAD,DIV>Default 1,1,4,4,32
-ptx_opcode_initiation_fp            1,2,1,1,4 # Opcode initiation intervals for single precision floating points <ADD,MAX,MUL,MAD,DIV>Default 1,1,1,1,5
-ptx_opcode_initiation_dp         8,16,8,8,130 # Opcode initiation intervals for double precision floating points <ADD,MAX,MUL,MAD,DIV>Default 8,8,8,8,130
DRAM Timing Options:
nbk                                    16 # number of banks
CCD                                     2 # column to column delay
RRD                                     6 # minimal delay between activation of rows in different banks
RCD                                    12 # row to column delay
RAS                                    28 # time needed to activate row
RP                                     12 # time needed to precharge (deactivate) row
RC                                     40 # row cycle time
CDLR                                    5 # switching from write to read (changes tWTR)
WR                                     12 # last data-in to row precharge
CL                                     12 # CAS latency
WL                                      4 # Write latency
nbkgrp                                  4 # number of bank groups
CCDL                                    3 # column to column delay between accesses to different bank groups
RTPL                                    2 # read to precharge delay between accesses to different bank groups
Total number of memory sub partition = 12
addr_dec_mask[CHIP]  = 0000000000000000 	high:64 low:0
addr_dec_mask[BK]    = 000000000000e100 	high:16 low:8
addr_dec_mask[ROW]   = 000000000fff0000 	high:28 low:16
addr_dec_mask[COL]   = 0000000000001eff 	high:13 low:0
addr_dec_mask[BURST] = 000000000000003f 	high:6 low:0
sub_partition_id_mask = 0000000000000100
GPGPU-Sim uArch: clock freqs: 700000000.000000:700000000.000000:700000000.000000:924000000.000000
GPGPU-Sim uArch: clock periods: 0.00000000142857142857:0.00000000142857142857:0.00000000142857142857:0.00000000108225108225
*** Initializing Memory Statistics ***
GPGPU-Sim uArch: interconnect node map (shaderID+MemID to icntID)
GPGPU-Sim uArch: Memory nodes ID start from index: 15
GPGPU-Sim uArch:    0   1   2   3   4
GPGPU-Sim uArch:    5   6   7   8   9
GPGPU-Sim uArch:   10  11  12  13  14
GPGPU-Sim uArch:   15  16  17  18  19
GPGPU-Sim uArch:   20  21  22  23  24
GPGPU-Sim uArch:   25  26
GPGPU-Sim uArch: interconnect node reverse map (icntID to shaderID+MemID)
GPGPU-Sim uArch: Memory nodes start from ID: 15
GPGPU-Sim uArch:    0   1   2   3   4
GPGPU-Sim uArch:    5   6   7   8   9
GPGPU-Sim uArch:   10  11  12  13  14
GPGPU-Sim uArch:   15  16  17  18  19
GPGPU-Sim uArch:   20  21  22  23  24
GPGPU-Sim uArch:   25  26
8b4aaf7e3609dab37e573b39f9f1cd11  /sciclone/data10/hwang07/adwait/applications/benchmarks/CUDA/BFS2/gpgpu_ptx_sim__BFS2
GPGPU-Sim uArch: performance model initialization complete.
GPGPU-Sim PTX: __cudaRegisterFatBinary, fat_cubin_handle = 1, filename=bfs.cu
self exe links to: /sciclone/data10/hwang07/adwait/applications/benchmarks/CUDA/BFS2/gpgpu_ptx_sim__BFS2
Running md5sum using "md5sum /sciclone/data10/hwang07/adwait/applications/benchmarks/CUDA/BFS2/gpgpu_ptx_sim__BFS2 "
Parsing file _cuobjdump_complete_output_fwnDlU
######### cuobjdump parser ########
## Adding new section ELF
Adding arch: sm_20
Adding identifier: bfs.cu
## Adding new section PTX
Adding ptx filename: _cuobjdump_1.ptx
Adding arch: sm_20
Adding identifier: bfs.cu
Done parsing!!!
GPGPU-Sim PTX: __cudaRegisterFunction _Z7Kernel2PbS_S_S_i : hostFun 0x0x4016ca, fat_cubin_handle = 1
GPGPU-Sim PTX: instruction assembly for function '_Z6KernelP4NodePiPbS2_S2_S1_i'...   done.
GPGPU-Sim PTX: finding reconvergence points for '_Z6KernelP4NodePiPbS2_S2_S1_i'...
GPGPU-Sim PTX: Finding dominators for '_Z6KernelP4NodePiPbS2_S2_S1_i'...
GPGPU-Sim PTX: Finding immediate dominators for '_Z6KernelP4NodePiPbS2_S2_S1_i'...
GPGPU-Sim PTX: Finding postdominators for '_Z6KernelP4NodePiPbS2_S2_S1_i'...
GPGPU-Sim PTX: Finding immediate postdominators for '_Z6KernelP4NodePiPbS2_S2_S1_i'...
GPGPU-Sim PTX: pre-decoding instructions for '_Z6KernelP4NodePiPbS2_S2_S1_i'...
GPGPU-Sim PTX: reconvergence points for _Z6KernelP4NodePiPbS2_S2_S1_i...
GPGPU-Sim PTX:  1 (potential) branch divergence @  PC=0x030 (_1.ptx:73) @%p1 bra $Lt_0_5122;
GPGPU-Sim PTX:    immediate post dominator      @  PC=0x1c0 (_1.ptx:135) exit;
GPGPU-Sim PTX:  2 (potential) branch divergence @  PC=0x068 (_1.ptx:80) @%p2 bra $Lt_0_5122;
GPGPU-Sim PTX:    immediate post dominator      @  PC=0x1c0 (_1.ptx:135) exit;
GPGPU-Sim PTX:  3 (potential) branch divergence @  PC=0x0c0 (_1.ptx:93) @%p3 bra $Lt_0_5122;
GPGPU-Sim PTX:    immediate post dominator      @  PC=0x1c0 (_1.ptx:135) exit;
GPGPU-Sim PTX:  4 (potential) branch divergence @  PC=0x120 (_1.ptx:108) @%p4 bra $Lt_0_4354;
GPGPU-Sim PTX:    immediate post dominator      @  PC=0x1a0 (_1.ptx:128) add.s32 %r10, %r10, 1;
GPGPU-Sim PTX:  5 (potential) branch divergence @  PC=0x1b8 (_1.ptx:131) @%p5 bra $Lt_0_4098;
GPGPU-Sim PTX:    immediate post dominator      @  PC=0x1c0 (_1.ptx:135) exit;
GPGPU-Sim PTX: ... end of reconvergence points for _Z6KernelP4NodePiPbS2_S2_S1_i
GPGPU-Sim PTX: ... done pre-decoding instructions for '_Z6KernelP4NodePiPbS2_S2_S1_i'.
GPGPU-Sim PTX: instruction assembly for function '_Z7Kernel2PbS_S_S_i'...   done.
GPGPU-Sim PTX: finding reconvergence points for '_Z7Kernel2PbS_S_S_i'...
GPGPU-Sim PTX: Finding dominators for '_Z7Kernel2PbS_S_S_i'...
GPGPU-Sim PTX: Finding immediate dominators for '_Z7Kernel2PbS_S_S_i'...
GPGPU-Sim PTX: Finding postdominators for '_Z7Kernel2PbS_S_S_i'...
GPGPU-Sim PTX: Finding immediate postdominators for '_Z7Kernel2PbS_S_S_i'...
GPGPU-Sim PTX: pre-decoding instructions for '_Z7Kernel2PbS_S_S_i'...
GPGPU-Sim PTX: reconvergence points for _Z7Kernel2PbS_S_S_i...
GPGPU-Sim PTX:  1 (potential) branch divergence @  PC=0x1f8 (_1.ptx:157) @%p1 bra $Lt_1_1794;
GPGPU-Sim PTX:    immediate post dominator      @  PC=0x2a0 (_1.ptx:185) exit;
GPGPU-Sim PTX:  2 (potential) branch divergence @  PC=0x230 (_1.ptx:164) @%p2 bra $Lt_1_1794;
GPGPU-Sim PTX:    immediate post dominator      @  PC=0x2a0 (_1.ptx:185) exit;
GPGPU-Sim PTX: ... end of reconvergence points for _Z7Kernel2PbS_S_S_i
GPGPU-Sim PTX: ... done pre-decoding instructions for '_Z7Kernel2PbS_S_S_i'.
GPGPU-Sim PTX: finished parsing EMBEDDED .ptx file _1.ptx
Adding _cuobjdump_1.ptx with cubin handle 1
GPGPU-Sim PTX: extracting embedded .ptx to temporary file "_ptx_VFkD2G"
Running: cat _ptx_VFkD2G | sed 's/.version 1.5/.version 1.4/' | sed 's/, texmode_independent//' | sed 's/\(\.extern \.const\[1\] .b8 \w\+\)\[\]/\1\[1\]/' | sed 's/const\[.\]/const\[0\]/g' > _ptx2_d1Umau
GPGPU-Sim PTX: generating ptxinfo using "$CUDA_INSTALL_PATH/bin/ptxas --gpu-name=sm_20 -v _ptx2_d1Umau --output-file  /dev/null 2> _ptx_VFkD2Ginfo"
GPGPU-Sim PTX: Kernel '_Z7Kernel2PbS_S_S_i' : regs=12, lmem=0, smem=0, cmem=68
GPGPU-Sim PTX: Kernel '_Z6KernelP4NodePiPbS2_S2_S1_i' : regs=15, lmem=0, smem=0, cmem=84
GPGPU-Sim PTX: removing ptxinfo using "rm -f _ptx_VFkD2G _ptx2_d1Umau _ptx_VFkD2Ginfo"
GPGPU-Sim PTX: loading globals with explicit initializers... 
GPGPU-Sim PTX: finished loading globals (0 bytes total).
GPGPU-Sim PTX: loading constants with explicit initializers...  done.
GPGPU-Sim PTX: __cudaRegisterFunction _Z6KernelP4NodePiPbS2_S2_S1_i : hostFun 0x0x40158e, fat_cubin_handle = 1
Input file: ./data/graph32k500kedges_SV.txt
Reading File
Read File
Copied Everything to GPU memory

GPGPU-Sim PTX: cudaLaunch for 0x0x40158e (mode=performance simulation) on stream 0
GPGPU-Sim PTX: pushing kernel '_Z6KernelP4NodePiPbS2_S2_S1_i' to stream 0, gridDim= (63,1,1) blockDim = (512,1,1) 
kernel '_Z6KernelP4NodePiPbS2_S2_S1_i' transfer to GPU hardware scheduler
GPGPU-Sim uArch: Shader 1 bind to kernel 1 '_Z6KernelP4NodePiPbS2_S2_S1_i'
GPGPU-Sim uArch: CTA/core = 3, limited by: threads
GPGPU-Sim uArch: core:  1, cta: 0 initialized @(1,0)
GPGPU-Sim uArch: Shader 2 bind to kernel 1 '_Z6KernelP4NodePiPbS2_S2_S1_i'
GPGPU-Sim uArch: core:  2, cta: 0 initialized @(1,0)
GPGPU-Sim uArch: Shader 3 bind to kernel 1 '_Z6KernelP4NodePiPbS2_S2_S1_i'
GPGPU-Sim uArch: core:  3, cta: 0 initialized @(1,0)
GPGPU-Sim uArch: Shader 4 bind to kernel 1 '_Z6KernelP4NodePiPbS2_S2_S1_i'
GPGPU-Sim uArch: core:  4, cta: 0 initialized @(1,0)
GPGPU-Sim uArch: Shader 5 bind to kernel 1 '_Z6KernelP4NodePiPbS2_S2_S1_i'
GPGPU-Sim uArch: core:  5, cta: 0 initialized @(1,0)
GPGPU-Sim uArch: Shader 6 bind to kernel 1 '_Z6KernelP4NodePiPbS2_S2_S1_i'
GPGPU-Sim uArch: core:  6, cta: 0 initialized @(1,0)
GPGPU-Sim uArch: Shader 7 bind to kernel 1 '_Z6KernelP4NodePiPbS2_S2_S1_i'
GPGPU-Sim uArch: core:  7, cta: 0 initialized @(1,0)
GPGPU-Sim uArch: Shader 8 bind to kernel 1 '_Z6KernelP4NodePiPbS2_S2_S1_i'
GPGPU-Sim uArch: core:  8, cta: 0 initialized @(1,0)
GPGPU-Sim uArch: Shader 9 bind to kernel 1 '_Z6KernelP4NodePiPbS2_S2_S1_i'
GPGPU-Sim uArch: core:  9, cta: 0 initialized @(1,0)
GPGPU-Sim uArch: Shader 10 bind to kernel 1 '_Z6KernelP4NodePiPbS2_S2_S1_i'
GPGPU-Sim uArch: core: 10, cta: 0 initialized @(1,0)
GPGPU-Sim uArch: Shader 11 bind to kernel 1 '_Z6KernelP4NodePiPbS2_S2_S1_i'
GPGPU-Sim uArch: core: 11, cta: 0 initialized @(1,0)
GPGPU-Sim uArch: Shader 12 bind to kernel 1 '_Z6KernelP4NodePiPbS2_S2_S1_i'
GPGPU-Sim uArch: core: 12, cta: 0 initialized @(1,0)
GPGPU-Sim uArch: Shader 13 bind to kernel 1 '_Z6KernelP4NodePiPbS2_S2_S1_i'
GPGPU-Sim uArch: core: 13, cta: 0 initialized @(1,0)
GPGPU-Sim uArch: Shader 14 bind to kernel 1 '_Z6KernelP4NodePiPbS2_S2_S1_i'
GPGPU-Sim uArch: core: 14, cta: 0 initialized @(1,0)
GPGPU-Sim uArch: Shader 0 bind to kernel 1 '_Z6KernelP4NodePiPbS2_S2_S1_i'
GPGPU-Sim uArch: core:  0, cta: 0 initialized @(1,0)
GPGPU-Sim uArch: core:  1, cta: 1 initialized @(2,0)
GPGPU-Sim uArch: core:  2, cta: 1 initialized @(2,0)
GPGPU-Sim uArch: core:  3, cta: 1 initialized @(2,0)
GPGPU-Sim uArch: core:  4, cta: 1 initialized @(2,0)
GPGPU-Sim uArch: core:  5, cta: 1 initialized @(2,0)
GPGPU-Sim uArch: core:  6, cta: 1 initialized @(2,0)
GPGPU-Sim uArch: core:  7, cta: 1 initialized @(2,0)
GPGPU-Sim uArch: core:  8, cta: 1 initialized @(2,0)
GPGPU-Sim uArch: core:  9, cta: 1 initialized @(2,0)
GPGPU-Sim uArch: core: 10, cta: 1 initialized @(2,0)
GPGPU-Sim uArch: core: 11, cta: 1 initialized @(2,0)
GPGPU-Sim uArch: core: 12, cta: 1 initialized @(2,0)
GPGPU-Sim uArch: core: 13, cta: 1 initialized @(2,0)
GPGPU-Sim uArch: core: 14, cta: 1 initialized @(2,0)
GPGPU-Sim uArch: core:  0, cta: 1 initialized @(2,0)
GPGPU-Sim uArch: core:  1, cta: 2 initialized @(3,0)
GPGPU-Sim uArch: core:  2, cta: 2 initialized @(3,0)
GPGPU-Sim uArch: core:  3, cta: 2 initialized @(3,0)
GPGPU-Sim uArch: core:  4, cta: 2 initialized @(3,0)
GPGPU-Sim uArch: core:  5, cta: 2 initialized @(3,0)
GPGPU-Sim uArch: core:  6, cta: 2 initialized @(3,0)
GPGPU-Sim uArch: core:  7, cta: 2 initialized @(3,0)
GPGPU-Sim uArch: core:  8, cta: 2 initialized @(3,0)
GPGPU-Sim uArch: core:  9, cta: 2 initialized @(3,0)
GPGPU-Sim uArch: core: 10, cta: 2 initialized @(3,0)
GPGPU-Sim uArch: core: 11, cta: 2 initialized @(3,0)
GPGPU-Sim uArch: core: 12, cta: 2 initialized @(3,0)
GPGPU-Sim uArch: core: 13, cta: 2 initialized @(3,0)
GPGPU-Sim uArch: core: 14, cta: 2 initialized @(3,0)
GPGPU-Sim uArch: core:  0, cta: 2 initialized @(3,0)
GPGPU-Sim uArch: cycles simulated: 500  inst.: 30720 (ipc=61.4) sim_rate=15360 (inst/sec) elapsed = 0:0:00:02 / Tue Mar 22 07:02:15 2016
GPGPU-Sim PTX: 100000 instructions simulated : ctaid=(11,0,0) tid=(29,0,0)
GPGPU-Sim uArch: Shader 3 finished CTA #0 (1220,0), 2 CTAs running
GPGPU-Sim uArch: core:  3, cta: 0 initialized @(1221,0)
GPGPU-Sim uArch: Shader 4 finished CTA #0 (1226,0), 2 CTAs running
GPGPU-Sim uArch: core:  4, cta: 0 initialized @(1227,0)
GPGPU-Sim uArch: Shader 0 finished CTA #0 (1232,0), 2 CTAs running
GPGPU-Sim uArch: core:  0, cta: 0 initialized @(1233,0)
GPGPU-Sim uArch: Shader 5 finished CTA #0 (1238,0), 2 CTAs running
GPGPU-Sim uArch: core:  5, cta: 0 initialized @(1239,0)
GPGPU-Sim uArch: Shader 2 finished CTA #0 (1244,0), 2 CTAs running
GPGPU-Sim uArch: core:  2, cta: 0 initialized @(1245,0)
GPGPU-Sim uArch: Shader 6 finished CTA #0 (1250,0), 2 CTAs running
GPGPU-Sim uArch: core:  6, cta: 0 initialized @(1251,0)
GPGPU-Sim uArch: Shader 7 finished CTA #0 (1256,0), 2 CTAs running
GPGPU-Sim uArch: core:  7, cta: 0 initialized @(1257,0)
GPGPU-Sim uArch: Shader 9 finished CTA #0 (1262,0), 2 CTAs running
GPGPU-Sim uArch: core:  9, cta: 0 initialized @(1263,0)
GPGPU-Sim uArch: Shader 10 finished CTA #0 (1268,0), 2 CTAs running
GPGPU-Sim uArch: core: 10, cta: 0 initialized @(1269,0)
GPGPU-Sim uArch: Shader 8 finished CTA #0 (1274,0), 2 CTAs running
GPGPU-Sim uArch: core:  8, cta: 0 initialized @(1275,0)
GPGPU-Sim uArch: Shader 11 finished CTA #0 (1280,0), 2 CTAs running
GPGPU-Sim uArch: core: 11, cta: 0 initialized @(1281,0)
GPGPU-Sim uArch: Shader 12 finished CTA #0 (1286,0), 2 CTAs running
GPGPU-Sim uArch: core: 12, cta: 0 initialized @(1287,0)
GPGPU-Sim uArch: Shader 13 finished CTA #0 (1292,0), 2 CTAs running
GPGPU-Sim uArch: core: 13, cta: 0 initialized @(1293,0)
GPGPU-Sim uArch: Shader 14 finished CTA #0 (1298,0), 2 CTAs running
GPGPU-Sim uArch: core: 14, cta: 0 initialized @(1299,0)
GPGPU-Sim PTX: 200000 instructions simulated : ctaid=(28,0,0) tid=(345,0,0)
GPGPU-Sim uArch: Shader 3 finished CTA #1 (1643,0), 2 CTAs running
GPGPU-Sim uArch: core:  3, cta: 1 initialized @(1644,0)
GPGPU-Sim uArch: Shader 1 finished CTA #1 (1644,0), 2 CTAs running
GPGPU-Sim uArch: Shader 5 finished CTA #1 (1644,0), 2 CTAs running
GPGPU-Sim uArch: core:  5, cta: 1 initialized @(1645,0)
GPGPU-Sim uArch: core:  1, cta: 1 initialized @(1645,0)
GPGPU-Sim uArch: Shader 4 finished CTA #1 (1652,0), 2 CTAs running
GPGPU-Sim uArch: core:  4, cta: 1 initialized @(1653,0)
GPGPU-Sim uArch: Shader 0 finished CTA #1 (1658,0), 2 CTAs running
GPGPU-Sim uArch: Shader 2 finished CTA #1 (1665,0), 2 CTAs running
GPGPU-Sim uArch: Shader 6 finished CTA #1 (1673,0), 2 CTAs running
GPGPU-Sim uArch: Shader 7 finished CTA #1 (1683,0), 2 CTAs running
GPGPU-Sim uArch: Shader 9 finished CTA #1 (1686,0), 2 CTAs running
GPGPU-Sim uArch: Shader 10 finished CTA #1 (1688,0), 2 CTAs running
GPGPU-Sim uArch: Shader 12 finished CTA #1 (1691,0), 2 CTAs running
GPGPU-Sim uArch: Shader 8 finished CTA #1 (1692,0), 2 CTAs running
GPGPU-Sim uArch: Shader 11 finished CTA #1 (1694,0), 2 CTAs running
GPGPU-Sim PTX: 300000 instructions simulated : ctaid=(40,0,0) tid=(366,0,0)
GPGPU-Sim uArch: Shader 13 finished CTA #1 (1704,0), 2 CTAs running
GPGPU-Sim uArch: Shader 14 finished CTA #1 (1721,0), 2 CTAs running
GPGPU-Sim uArch: Shader 1 finished CTA #2 (1981,0), 2 CTAs running
GPGPU-Sim uArch: cycles simulated: 2000  inst.: 340208 (ipc=170.1) sim_rate=113402 (inst/sec) elapsed = 0:0:00:03 / Tue Mar 22 07:02:16 2016
GPGPU-Sim uArch: Shader 3 finished CTA #2 (2008,0), 2 CTAs running
GPGPU-Sim uArch: Shader 2 finished CTA #2 (2013,0), 1 CTAs running
GPGPU-Sim uArch: Shader 4 finished CTA #2 (2014,0), 2 CTAs running
GPGPU-Sim uArch: Shader 5 finished CTA #2 (2014,0), 2 CTAs running
GPGPU-Sim uArch: Shader 0 finished CTA #2 (2019,0), 1 CTAs running
GPGPU-Sim uArch: Shader 6 finished CTA #2 (2029,0), 1 CTAs running
GPGPU-Sim PTX: 400000 instructions simulated : ctaid=(56,0,0) tid=(77,0,0)
GPGPU-Sim uArch: Shader 7 finished CTA #2 (2037,0), 1 CTAs running
GPGPU-Sim uArch: Shader 10 finished CTA #2 (2041,0), 1 CTAs running
GPGPU-Sim uArch: Shader 9 finished CTA #2 (2044,0), 1 CTAs running
GPGPU-Sim uArch: Shader 8 finished CTA #2 (2046,0), 1 CTAs running
GPGPU-Sim uArch: Shader 11 finished CTA #2 (2055,0), 1 CTAs running
GPGPU-Sim uArch: Shader 12 finished CTA #2 (2056,0), 1 CTAs running
GPGPU-Sim uArch: Shader 13 finished CTA #2 (2074,0), 1 CTAs running
GPGPU-Sim uArch: Shader 14 finished CTA #2 (2081,0), 1 CTAs running
GPGPU-Sim uArch: Shader 1 finished CTA #1 (2316,0), 1 CTAs running
GPGPU-Sim uArch: Shader 2 finished CTA #0 (2355,0), 0 CTAs running
GPGPU-Sim uArch: Shader 2 empty (release kernel 1 '_Z6KernelP4NodePiPbS2_S2_S1_i').
GPGPU-Sim uArch: Shader 3 finished CTA #0 (2359,0), 1 CTAs running
GPGPU-Sim uArch: Shader 0 finished CTA #0 (2360,0), 0 CTAs running
GPGPU-Sim uArch: Shader 0 empty (release kernel 1 '_Z6KernelP4NodePiPbS2_S2_S1_i').
GPGPU-Sim uArch: Shader 4 finished CTA #0 (2361,0), 1 CTAs running
GPGPU-Sim uArch: Shader 5 finished CTA #0 (2363,0), 1 CTAs running
GPGPU-Sim uArch: Shader 6 finished CTA #0 (2371,0), 0 CTAs running
GPGPU-Sim uArch: Shader 6 empty (release kernel 1 '_Z6KernelP4NodePiPbS2_S2_S1_i').
GPGPU-Sim uArch: Shader 7 finished CTA #0 (2371,0), 0 CTAs running
GPGPU-Sim uArch: Shader 7 empty (release kernel 1 '_Z6KernelP4NodePiPbS2_S2_S1_i').
GPGPU-Sim uArch: Shader 10 finished CTA #0 (2376,0), 0 CTAs running
GPGPU-Sim uArch: Shader 10 empty (release kernel 1 '_Z6KernelP4NodePiPbS2_S2_S1_i').
GPGPU-Sim uArch: Shader 9 finished CTA #0 (2379,0), 0 CTAs running
GPGPU-Sim uArch: Shader 9 empty (release kernel 1 '_Z6KernelP4NodePiPbS2_S2_S1_i').
GPGPU-Sim uArch: Shader 8 finished CTA #0 (2391,0), 0 CTAs running
GPGPU-Sim uArch: Shader 8 empty (release kernel 1 '_Z6KernelP4NodePiPbS2_S2_S1_i').
GPGPU-Sim uArch: Shader 11 finished CTA #0 (2392,0), 0 CTAs running
GPGPU-Sim uArch: Shader 11 empty (release kernel 1 '_Z6KernelP4NodePiPbS2_S2_S1_i').
GPGPU-Sim uArch: Shader 12 finished CTA #0 (2399,0), 0 CTAs running
GPGPU-Sim uArch: Shader 12 empty (release kernel 1 '_Z6KernelP4NodePiPbS2_S2_S1_i').
GPGPU-Sim uArch: Shader 13 finished CTA #0 (2405,0), 0 CTAs running
GPGPU-Sim uArch: Shader 13 empty (release kernel 1 '_Z6KernelP4NodePiPbS2_S2_S1_i').
GPGPU-Sim uArch: Shader 14 finished CTA #0 (2411,0), 0 CTAs running
GPGPU-Sim uArch: Shader 14 empty (release kernel 1 '_Z6KernelP4NodePiPbS2_S2_S1_i').
GPGPU-Sim uArch: Shader 4 finished CTA #1 (2625,0), 0 CTAs running
GPGPU-Sim uArch: Shader 4 empty (release kernel 1 '_Z6KernelP4NodePiPbS2_S2_S1_i').
GPGPU-Sim uArch: Shader 3 finished CTA #1 (2701,0), 0 CTAs running
GPGPU-Sim uArch: Shader 3 empty (release kernel 1 '_Z6KernelP4NodePiPbS2_S2_S1_i').
GPGPU-Sim uArch: Shader 5 finished CTA #1 (2708,0), 0 CTAs running
GPGPU-Sim uArch: Shader 5 empty (release kernel 1 '_Z6KernelP4NodePiPbS2_S2_S1_i').
GPGPU-Sim uArch: Shader 1 finished CTA #0 (8291,0), 0 CTAs running
GPGPU-Sim uArch: Shader 1 empty (release kernel 1 '_Z6KernelP4NodePiPbS2_S2_S1_i').
GPGPU-Sim uArch: GPU detected kernel '_Z6KernelP4NodePiPbS2_S2_S1_i' finished on shader 1.
kernel_name = _Z6KernelP4NodePiPbS2_S2_S1_i 
kernel_launch_uid = 1 
gpu_sim_cycle = 8292
gpu_sim_insn = 450436
gpu_ipc =      54.3218
gpu_tot_sim_cycle = 8292
gpu_tot_sim_insn = 450436
gpu_tot_ipc =      54.3218
gpu_tot_issued_cta = 63
gpu_stall_dramfull = 288
gpu_stall_icnt2sh    = 148
gpu_total_sim_rate=150145

========= Core cache stats =========
L1I_cache:
	L1I_total_cache_accesses = 9256
	L1I_total_cache_misses = 721
	L1I_total_cache_miss_rate = 0.0779
	L1I_total_cache_pending_hits = 0
	L1I_total_cache_reservation_fails = 4140
L1D_cache:
	L1D_cache_core[0]: Access = 64, Miss = 16, Miss_rate = 0.250, Pending_hits = 48, Reservation_fails = 0
	L1D_cache_core[1]: Access = 172, Miss = 63, Miss_rate = 0.366, Pending_hits = 47, Reservation_fails = 0
	L1D_cache_core[2]: Access = 64, Miss = 16, Miss_rate = 0.250, Pending_hits = 48, Reservation_fails = 0
	L1D_cache_core[3]: Access = 80, Miss = 20, Miss_rate = 0.250, Pending_hits = 60, Reservation_fails = 0
	L1D_cache_core[4]: Access = 72, Miss = 18, Miss_rate = 0.250, Pending_hits = 54, Reservation_fails = 0
	L1D_cache_core[5]: Access = 80, Miss = 20, Miss_rate = 0.250, Pending_hits = 60, Reservation_fails = 0
	L1D_cache_core[6]: Access = 64, Miss = 16, Miss_rate = 0.250, Pending_hits = 48, Reservation_fails = 0
	L1D_cache_core[7]: Access = 64, Miss = 16, Miss_rate = 0.250, Pending_hits = 48, Reservation_fails = 0
	L1D_cache_core[8]: Access = 64, Miss = 16, Miss_rate = 0.250, Pending_hits = 48, Reservation_fails = 0
	L1D_cache_core[9]: Access = 64, Miss = 16, Miss_rate = 0.250, Pending_hits = 48, Reservation_fails = 0
	L1D_cache_core[10]: Access = 64, Miss = 16, Miss_rate = 0.250, Pending_hits = 48, Reservation_fails = 0
	L1D_cache_core[11]: Access = 64, Miss = 16, Miss_rate = 0.250, Pending_hits = 48, Reservation_fails = 0
	L1D_cache_core[12]: Access = 64, Miss = 16, Miss_rate = 0.250, Pending_hits = 48, Reservation_fails = 0
	L1D_cache_core[13]: Access = 64, Miss = 16, Miss_rate = 0.250, Pending_hits = 48, Reservation_fails = 0
	L1D_cache_core[14]: Access = 64, Miss = 16, Miss_rate = 0.250, Pending_hits = 48, Reservation_fails = 0
	L1D_total_cache_accesses = 1108
	L1D_total_cache_misses = 297
	L1D_total_cache_miss_rate = 0.2681
	L1D_total_cache_pending_hits = 749
	L1D_total_cache_reservation_fails = 0
	L1D_cache_data_port_util = 0.001
	L1D_cache_fill_port_util = 0.006
L1C_cache:
	L1C_total_cache_accesses = 2041
	L1C_total_cache_misses = 240
	L1C_total_cache_miss_rate = 0.1176
	L1C_total_cache_pending_hits = 0
	L1C_total_cache_reservation_fails = 0
L1T_cache:
	L1T_total_cache_accesses = 0
	L1T_total_cache_misses = 0
	L1T_total_cache_pending_hits = 0
	L1T_total_cache_reservation_fails = 0

Total_core_cache_stats:
	Total_core_cache_stats_breakdown[GLOBAL_ACC_R][HIT] = 61
	Total_core_cache_stats_breakdown[GLOBAL_ACC_R][HIT_RESERVED] = 749
	Total_core_cache_stats_breakdown[GLOBAL_ACC_R][MISS] = 267
	Total_core_cache_stats_breakdown[CONST_ACC_R][HIT] = 1801
	Total_core_cache_stats_breakdown[CONST_ACC_R][MISS] = 240
	Total_core_cache_stats_breakdown[GLOBAL_ACC_W][HIT] = 1
	Total_core_cache_stats_breakdown[GLOBAL_ACC_W][MISS] = 30
	Total_core_cache_stats_breakdown[INST_ACC_R][HIT] = 8535
	Total_core_cache_stats_breakdown[INST_ACC_R][MISS] = 721
	Total_core_cache_stats_breakdown[INST_ACC_R][RESERVATION_FAIL] = 4140
Shader 0 warp_id issue ditsribution:
warp_id:
0, 1, 2, 3, 4, 5, 6, 7, 8, 9, 10, 11, 12, 13, 14, 15, 16, 17, 18, 19, 20, 21, 22, 23, 24, 25, 26, 27, 28, 29, 30, 31, 32, 33, 34, 35, 36, 37, 38, 39, 40, 41, 42, 43, 44, 45, 46, 47, 
distro:
30, 30, 30, 30, 30, 30, 30, 30, 30, 30, 30, 30, 30, 30, 30, 30, 15, 15, 15, 15, 15, 15, 15, 15, 15, 15, 15, 15, 15, 15, 15, 15, 15, 15, 15, 15, 15, 15, 15, 15, 15, 15, 15, 15, 15, 15, 15, 15, 
gpgpu_n_tot_thrd_icount = 495040
gpgpu_n_tot_w_icount = 15470
gpgpu_n_stall_shd_mem = 0
gpgpu_n_mem_read_local = 0
gpgpu_n_mem_write_local = 0
gpgpu_n_mem_read_global = 267
gpgpu_n_mem_write_global = 31
gpgpu_n_mem_texture = 0
gpgpu_n_mem_const = 15
gpgpu_n_load_insn  = 32077
gpgpu_n_store_insn = 31
gpgpu_n_shmem_insn = 0
gpgpu_n_tex_insn = 0
gpgpu_n_const_mem_insn = 0
gpgpu_n_param_mem_insn = 64289
gpgpu_n_shmem_bkconflict = 0
gpgpu_n_cache_bkconflict = 0
gpgpu_n_intrawarp_mshr_merge = 0
gpgpu_n_cmem_portconflict = 0
gpgpu_stall_shd_mem[c_mem][bk_conf] = 0
gpgpu_stall_shd_mem[c_mem][mshr_rc] = 0
gpgpu_stall_shd_mem[c_mem][icnt_rc] = 0
gpgpu_stall_shd_mem[c_mem][data_port_stall] = 0
gpgpu_stall_shd_mem[t_mem][mshr_rc] = 0
gpgpu_stall_shd_mem[t_mem][icnt_rc] = 0
gpgpu_stall_shd_mem[t_mem][data_port_stall] = 0
gpgpu_stall_shd_mem[s_mem][bk_conf] = 0
gpgpu_stall_shd_mem[gl_mem][bk_conf] = 0
gpgpu_stall_shd_mem[gl_mem][coal_stall] = 0
gpgpu_stall_shd_mem[gl_mem][data_port_stall] = 0
gpgpu_stall_shd_mem[g_mem_ld][mshr_rc] = 0
gpgpu_stall_shd_mem[g_mem_ld][icnt_rc] = 0
gpgpu_stall_shd_mem[g_mem_ld][wb_icnt_rc] = 0
gpgpu_stall_shd_mem[g_mem_ld][wb_rsrv_fail] = 0
gpgpu_stall_shd_mem[g_mem_st][mshr_rc] = 0
gpgpu_stall_shd_mem[g_mem_st][icnt_rc] = 0
gpgpu_stall_shd_mem[g_mem_st][wb_icnt_rc] = 0
gpgpu_stall_shd_mem[g_mem_st][wb_rsrv_fail] = 0
gpgpu_stall_shd_mem[l_mem_ld][mshr_rc] = 0
gpgpu_stall_shd_mem[l_mem_ld][icnt_rc] = 0
gpgpu_stall_shd_mem[l_mem_ld][wb_icnt_rc] = 0
gpgpu_stall_shd_mem[l_mem_ld][wb_rsrv_fail] = 0
gpgpu_stall_shd_mem[l_mem_st][mshr_rc] = 0
gpgpu_stall_shd_mem[l_mem_st][icnt_rc] = 0
gpgpu_stall_shd_mem[l_mem_ld][wb_icnt_rc] = 0
gpgpu_stall_shd_mem[l_mem_ld][wb_rsrv_fail] = 0
gpu_reg_bank_conflict_stalls = 0
Warp Occupancy Distribution:
Stall:265	W0_Idle:24467	W0_Scoreboard:44898	W1:406	W2:0	W3:0	W4:0	W5:0	W6:0	W7:0	W8:0	W9:0	W10:0	W11:0	W12:0	W13:0	W14:0	W15:0	W16:0	W17:0	W18:0	W19:0	W20:0	W21:0	W22:0	W23:0	W24:0	W25:0	W26:0	W27:0	W28:0	W29:0	W30:0	W31:0	W32:15064
traffic_breakdown_coretomem[CONST_ACC_R] = 120 {8:15,}
traffic_breakdown_coretomem[GLOBAL_ACC_R] = 2136 {8:267,}
traffic_breakdown_coretomem[GLOBAL_ACC_W] = 1240 {40:31,}
traffic_breakdown_coretomem[INST_ACC_R] = 256 {8:32,}
traffic_breakdown_memtocore[CONST_ACC_R] = 1080 {72:15,}
traffic_breakdown_memtocore[GLOBAL_ACC_R] = 36312 {136:267,}
traffic_breakdown_memtocore[GLOBAL_ACC_W] = 248 {8:31,}
traffic_breakdown_memtocore[INST_ACC_R] = 4352 {136:32,}
maxmrqlatency = 10 
maxdqlatency = 0 
maxmflatency = 278 
averagemflatency = 259 
max_icnt2mem_latency = 36 
max_icnt2sh_latency = 8291 
mrq_lat_table:296 	9 	17 	8 	0 	0 	0 	0 	0 	0 	0 	0 	0 	0 	0 	0 	0 	0 	0 	0 	0 	0 	0 	0 	0 	0 	0 	0 	0 	0 	0 	0 	
dq_lat_table:0 	0 	0 	0 	0 	0 	0 	0 	0 	0 	0 	0 	0 	0 	0 	0 	0 	0 	0 	0 	0 	0 	0 	0 	0 	0 	0 	0 	0 	0 	0 	0 	
mf_lat_table:0 	0 	0 	0 	0 	0 	0 	37 	276 	0 	0 	0 	0 	0 	0 	0 	0 	0 	0 	0 	0 	0 	0 	0 	0 	0 	0 	0 	0 	0 	0 	0 	
icnt2mem_lat_table:0 	0 	0 	334 	8 	3 	0 	0 	0 	0 	0 	0 	0 	0 	0 	0 	0 	0 	0 	0 	0 	0 	0 	0 	
icnt2sh_lat_table:0 	0 	0 	262 	20 	0 	0 	0 	0 	0 	1 	6 	22 	2 	0 	0 	0 	0 	0 	0 	0 	0 	0 	0 	
mf_lat_pw_table:0 	0 	0 	0 	0 	0 	0 	9 	6 	0 	0 	0 	0 	0 	0 	0 	0 	0 	0 	0 	0 	0 	0 	0 	0 	0 	0 	0 	0 	0 	0 	0 	
maximum concurrent accesses to same row:
dram[0]:         1         0         0         0         0         0         0         0         0         0         0         0         0         0         0         0 
dram[1]:         0         0         0         0         0         0         0         0         0         0         0         0         0         0         0         0 
dram[2]:         0         0         0         0         0         1         0         0         0         0         0         0         0         0         0         0 
dram[3]:         0         0         0         0         0         0         0         0         0         0         0         0         0         0         0         0 
dram[4]:         0         0         0         0         0         0         0         0         0         0         0         0         0         0         0         0 
dram[5]:         0         0         0         0         0         0         0         0         0         0         0         0         0         0         0         0 
maximum service time to same row:
dram[0]:       612         0       916       909      1976      2262      2666      5357         0      7463      8260         0         0         0      1816         0 
dram[1]:      1157         0       876       901      1875      2229      3840         0         0         0      2966         0         0         0         0         0 
dram[2]:         0         0       897       921      1912      1491         0      3437      7069         0         0         0         0         0         0         0 
dram[3]:         0         0       881       893      2199      2210         0      3034         0      6538         0      5750         0         0         0         0 
dram[4]:         0         0       901       913      2269      2282         0      2360      3772         0         0         0         0         0         0         0 
dram[5]:         0         0       888       897      2207      2172         0      7532         0         0      7866      3369         0         0         0         0 
average row accesses per activate:
dram[0]:  1.000000      -nan 14.000000 14.000000  8.000000 11.000000  4.000000  2.000000      -nan  2.000000  2.000000      -nan      -nan      -nan  1.000000      -nan 
dram[1]:  2.000000      -nan 14.000000 14.000000 10.000000  9.000000  4.000000      -nan      -nan      -nan  4.000000      -nan      -nan      -nan      -nan      -nan 
dram[2]:      -nan      -nan 14.000000 14.000000  8.000000  6.000000      -nan  3.000000  2.000000      -nan      -nan      -nan      -nan      -nan      -nan      -nan 
dram[3]:      -nan      -nan 14.000000 16.000000 10.000000  6.000000      -nan  2.000000      -nan  2.000000      -nan  2.000000      -nan      -nan      -nan      -nan 
dram[4]:      -nan      -nan 14.000000 16.000000 11.000000  7.000000      -nan  1.000000  2.000000      -nan      -nan      -nan      -nan      -nan      -nan      -nan 
dram[5]:      -nan      -nan 14.000000 16.000000 10.000000  9.000000      -nan  1.000000      -nan      -nan  2.000000  4.000000      -nan      -nan      -nan      -nan 
average row locality = 330/46 = 7.173913
number of total memory accesses made:
dram[0]:         0         0         0         0         0         0         0         0         0         0         0         0         0         0         0         0 
dram[1]:         0         0         0         0         0         0         0         0         0         0         0         0         0         0         0         0 
dram[2]:         0         0         0         0         0         0         0         0         0         0         0         0         0         0         0         0 
dram[3]:         0         0         0         0         0         0         0         0         0         0         0         0         0         0         0         0 
dram[4]:         0         0         0         0         0         0         0         0         0         0         0         0         0         0         0         0 
dram[5]:         0         0         0         0         0         0         0         0         0         0         0         0         0         0         0         0 
total accesses: 0
min_bank_accesses = 0!
min_chip_accesses = 0!
number of total read accesses:
dram[0]:         3         0        14        14         8         9         3         1         0         1         1         0         0         0         1         0 
dram[1]:         2         0        14        14         9         8         3         0         0         0         2         0         0         0         0         0 
dram[2]:         0         0        14        14         7        10         0         2         1         0         0         0         0         0         0         0 
dram[3]:         0         0        14        16         8         6         0         2         0         1         0         1         0         0         0         0 
dram[4]:         0         0        14        16         9         7         0         1         1         0         0         0         0         0         0         0 
dram[5]:         0         0        14        16         8         8         0         1         0         0         1         2         0         0         0         0 
total reads: 301
min_bank_accesses = 0!
chip skew: 55/48 = 1.15
number of total write accesses:
dram[0]:         0         0         0         0         0         2         1         1         0         1         1         0         0         0         0         0 
dram[1]:         0         0         0         0         1         1         1         0         0         0         2         0         0         0         0         0 
dram[2]:         0         0         0         0         1         2         0         1         1         0         0         0         0         0         0         0 
dram[3]:         0         0         0         0         2         0         0         0         0         1         0         1         0         0         0         0 
dram[4]:         0         0         0         0         2         0         0         0         1         0         0         0         0         0         0         0 
dram[5]:         0         0         0         0         2         1         0         0         0         0         1         2         0         0         0         0 
total reads: 29
min_bank_accesses = 0!
chip skew: 6/3 = 2.00
average mf latency per bank:
dram[0]:       1300    none         261       263       260       211       193       126    none         125       125    none      none      none         268    none  
dram[1]:          0    none         262       262       233       231       193    none      none      none         124    none      none      none      none      none  
dram[2]:     none      none         261       260       228       216    none         171       126    none      none      none      none      none      none      none  
dram[3]:     none      none         261       271       206       260    none         263    none         125    none         126    none      none      none      none  
dram[4]:     none      none         259       260       223       261    none         268       126    none      none      none      none      none      none      none  
dram[5]:     none      none         261       263       205       230    none         268    none      none         125       124    none      none      none      none  
maximum mf latency per bank:
dram[0]:        278         0       269       273       275       268       268       252         0       251       251         0         0         0       268         0
dram[1]:          0         0       272       277       276       268       268         0         0         0       252         0         0         0         0         0
dram[2]:          0         0       268       268       268       278         0       268       252         0         0         0         0         0         0         0
dram[3]:          0         0       270       275       268       268         0       268         0       251         0       252         0         0         0         0
dram[4]:          0         0       268       268       268       268         0       268       252         0         0         0         0         0         0         0
dram[5]:          0         0       270       275       268       268         0       268         0         0       251       252         0         0         0         0

Number of Memory Banks Accessed per Memory Operation per Warp (from 0):
0	0	0	0	0	0	0	0	0	0	0	0	0	0	0	0	0	0	0	0	0	0	0	0	0	0	0	0	0	0	0	0	0	0	0	0	0	0	0	0	0	0	0	0	0	0	0	0	0	0	0	0	0	0	0	0	0	0	0	0	0	0	0	0	0	0	0	0	0	0	0	0	0	0	0	0	0	0	0	0	0	0	0	0	0	0	0	0	0	0	0	0	0	0	0	0	
Average # of Memory Banks Accessed per Memory Operation per Warp=-nan

position of mrq chosen
0	0	0	0	0	0	0	0	0	0	0	0	0	0	0	0	

average position of mrq chosen = -nan
Memory Partition 0: 
Cache L2_bank_000:
MSHR contents

Cache L2_bank_001:
MSHR contents

In Dram Latency Queue (total = 0): 
DRAM[0]: 16 bks, busW=4 BL=8 CL=12, tRRD=2 tCCD=6, tRCD=12 tRAS=28 tRP=12 tRC=40
n_cmd=10945 n_nop=10815 n_act=12 n_pre=2 n_req=61 n_rd=110 n_write=6 bw_util=0.0212
n_activity=906 dram_eff=0.2561
bk0: 6a 10872i bk1: 0a 10944i bk2: 28a 10870i bk3: 28a 10819i bk4: 16a 10890i bk5: 18a 10859i bk6: 6a 10911i bk7: 2a 10922i bk8: 0a 10944i bk9: 2a 10921i bk10: 2a 10921i bk11: 0a 10942i bk12: 0a 10944i bk13: 0a 10945i bk14: 2a 10930i bk15: 0a 10945i 
dram_util_bins: 0 0 0 0 0 0 0 0 0 0
dram_eff_bins: 0 0 0 0 0 0 0 0 0 0
mrqq: max=1 avg=0.00338054
Memory Partition 1: 
Cache L2_bank_002:
MSHR contents

Cache L2_bank_003:
MSHR contents

In Dram Latency Queue (total = 0): 
DRAM[1]: 16 bks, busW=4 BL=8 CL=12, tRRD=2 tCCD=6, tRCD=12 tRAS=28 tRP=12 tRC=40
n_cmd=10945 n_nop=10829 n_act=7 n_pre=0 n_req=57 n_rd=104 n_write=5 bw_util=0.01992
n_activity=684 dram_eff=0.3187
bk0: 4a 10926i bk1: 0a 10948i bk2: 28a 10869i bk3: 28a 10849i bk4: 18a 10874i bk5: 16a 10875i bk6: 6a 10907i bk7: 0a 10942i bk8: 0a 10943i bk9: 0a 10943i bk10: 4a 10906i bk11: 0a 10942i bk12: 0a 10942i bk13: 0a 10946i bk14: 0a 10946i bk15: 0a 10947i 
dram_util_bins: 0 0 0 0 0 0 0 0 0 0
dram_eff_bins: 0 0 0 0 0 0 0 0 0 0
mrqq: max=2 avg=0.00539059
Memory Partition 2: 
Cache L2_bank_004:
MSHR contents

Cache L2_bank_005:
MSHR contents
MSHR: tag=0x80240c00, atomic=0 1 entries : 0x7fcb8edf2300 :  mf: uid= 16574, sid01:w00, part=2, addr=0x80240c20, load , size=32, unknown  status = IN_PARTITION_DRAM (8289), 

In Dram Latency Queue (total = 0): 
DRAM[2]: 16 bks, busW=4 BL=8 CL=12, tRRD=2 tCCD=6, tRCD=12 tRAS=28 tRP=12 tRC=40
n_cmd=10945 n_nop=10836 n_act=7 n_pre=1 n_req=53 n_rd=96 n_write=5 bw_util=0.01846
n_activity=683 dram_eff=0.2958
bk0: 0a 10946i bk1: 0a 10949i bk2: 28a 10871i bk3: 28a 10866i bk4: 14a 10879i bk5: 20a 10845i bk6: 0a 10942i bk7: 4a 10913i bk8: 2a 10920i bk9: 0a 10941i bk10: 0a 10942i bk11: 0a 10942i bk12: 0a 10942i bk13: 0a 10943i bk14: 0a 10945i bk15: 0a 10946i 
dram_util_bins: 0 0 0 0 0 0 0 0 0 0
dram_eff_bins: 0 0 0 0 0 0 0 0 0 0
mrqq: max=1 avg=0.00191868
Memory Partition 3: 
Cache L2_bank_006:
MSHR contents

Cache L2_bank_007:
MSHR contents

In Dram Latency Queue (total = 0): 
DRAM[3]: 16 bks, busW=4 BL=8 CL=12, tRRD=2 tCCD=6, tRCD=12 tRAS=28 tRP=12 tRC=40
n_cmd=10945 n_nop=10838 n_act=7 n_pre=0 n_req=52 n_rd=96 n_write=4 bw_util=0.01827
n_activity=656 dram_eff=0.3049
bk0: 0a 10945i bk1: 0a 10948i bk2: 28a 10872i bk3: 32a 10847i bk4: 16a 10875i bk5: 12a 10905i bk6: 0a 10946i bk7: 4a 10925i bk8: 0a 10944i bk9: 2a 10922i bk10: 0a 10943i bk11: 2a 10921i bk12: 0a 10942i bk13: 0a 10943i bk14: 0a 10943i bk15: 0a 10945i 
dram_util_bins: 0 0 0 0 0 0 0 0 0 0
dram_eff_bins: 0 0 0 0 0 0 0 0 0 0
mrqq: max=2 avg=0.00465966
Memory Partition 4: 
Cache L2_bank_008:
MSHR contents

Cache L2_bank_009:
MSHR contents

In Dram Latency Queue (total = 0): 
DRAM[4]: 16 bks, busW=4 BL=8 CL=12, tRRD=2 tCCD=6, tRCD=12 tRAS=28 tRP=12 tRC=40
n_cmd=10945 n_nop=10840 n_act=6 n_pre=0 n_req=51 n_rd=96 n_write=3 bw_util=0.01809
n_activity=647 dram_eff=0.306
bk0: 0a 10945i bk1: 0a 10948i bk2: 28a 10874i bk3: 32a 10859i bk4: 18a 10871i bk5: 14a 10893i bk6: 0a 10946i bk7: 2a 10929i bk8: 2a 10921i bk9: 0a 10943i bk10: 0a 10943i bk11: 0a 10943i bk12: 0a 10943i bk13: 0a 10944i bk14: 0a 10944i bk15: 0a 10945i 
dram_util_bins: 0 0 0 0 0 0 0 0 0 0
dram_eff_bins: 0 0 0 0 0 0 0 0 0 0
mrqq: max=1 avg=0.000730927
Memory Partition 5: 
Cache L2_bank_010:
MSHR contents

Cache L2_bank_011:
MSHR contents

In Dram Latency Queue (total = 0): 
DRAM[5]: 16 bks, busW=4 BL=8 CL=12, tRRD=2 tCCD=6, tRCD=12 tRAS=28 tRP=12 tRC=40
n_cmd=10945 n_nop=10832 n_act=7 n_pre=0 n_req=56 n_rd=100 n_write=6 bw_util=0.01937
n_activity=691 dram_eff=0.3068
bk0: 0a 10944i bk1: 0a 10947i bk2: 28a 10861i bk3: 32a 10823i bk4: 16a 10878i bk5: 16a 10887i bk6: 0a 10944i bk7: 2a 10928i bk8: 0a 10944i bk9: 0a 10945i bk10: 2a 10922i bk11: 4a 10908i bk12: 0a 10943i bk13: 0a 10944i bk14: 0a 10944i bk15: 0a 10944i 
dram_util_bins: 0 0 0 0 0 0 0 0 0 0
dram_eff_bins: 0 0 0 0 0 0 0 0 0 0
mrqq: max=2 avg=0.00465966

========= L2 cache stats =========
L2_cache_bank[0]: Access = 58, Miss = 30, Miss_rate = 0.517, Pending_hits = 6, Reservation_fails = 225
L2_cache_bank[1]: Access = 25, Miss = 25, Miss_rate = 1.000, Pending_hits = 0, Reservation_fails = 0
L2_cache_bank[2]: Access = 44, Miss = 30, Miss_rate = 0.682, Pending_hits = 3, Reservation_fails = 107
L2_cache_bank[3]: Access = 22, Miss = 22, Miss_rate = 1.000, Pending_hits = 0, Reservation_fails = 0
L2_cache_bank[4]: Access = 22, Miss = 22, Miss_rate = 1.000, Pending_hits = 0, Reservation_fails = 0
L2_cache_bank[5]: Access = 26, Miss = 26, Miss_rate = 1.000, Pending_hits = 0, Reservation_fails = 0
L2_cache_bank[6]: Access = 22, Miss = 22, Miss_rate = 1.000, Pending_hits = 0, Reservation_fails = 0
L2_cache_bank[7]: Access = 27, Miss = 26, Miss_rate = 0.963, Pending_hits = 0, Reservation_fails = 0
L2_cache_bank[8]: Access = 25, Miss = 24, Miss_rate = 0.960, Pending_hits = 0, Reservation_fails = 0
L2_cache_bank[9]: Access = 24, Miss = 24, Miss_rate = 1.000, Pending_hits = 0, Reservation_fails = 0
L2_cache_bank[10]: Access = 23, Miss = 23, Miss_rate = 1.000, Pending_hits = 0, Reservation_fails = 0
L2_cache_bank[11]: Access = 27, Miss = 27, Miss_rate = 1.000, Pending_hits = 0, Reservation_fails = 0
L2_total_cache_accesses = 345
L2_total_cache_misses = 301
L2_total_cache_miss_rate = 0.8725
L2_total_cache_pending_hits = 9
L2_total_cache_reservation_fails = 332
L2_total_cache_breakdown:
	L2_cache_stats_breakdown[GLOBAL_ACC_R][MISS] = 267
	L2_cache_stats_breakdown[CONST_ACC_R][HIT] = 11
	L2_cache_stats_breakdown[CONST_ACC_R][HIT_RESERVED] = 3
	L2_cache_stats_breakdown[CONST_ACC_R][MISS] = 1
	L2_cache_stats_breakdown[CONST_ACC_R][RESERVATION_FAIL] = 109
	L2_cache_stats_breakdown[GLOBAL_ACC_W][HIT] = 2
	L2_cache_stats_breakdown[GLOBAL_ACC_W][MISS] = 29
	L2_cache_stats_breakdown[INST_ACC_R][HIT] = 22
	L2_cache_stats_breakdown[INST_ACC_R][HIT_RESERVED] = 6
	L2_cache_stats_breakdown[INST_ACC_R][MISS] = 4
	L2_cache_stats_breakdown[INST_ACC_R][RESERVATION_FAIL] = 223
L2_cache_data_port_util = 0.001
L2_cache_fill_port_util = 0.012

icnt_total_pkts_mem_to_simt=1571
icnt_total_pkts_simt_to_mem=376
LD_mem_lat_dist  0 0 0 0 0 0 0 0 0 0 0 0 0 0 0 0 0 0 0 0 0 0 0 0 0 0 0
ST_mem_lat_dist  0 0 0 0 0 0 0 0 0 0 0 0 0 0 0 0 0 0 0 0 0 0 0 0 0 0 0
----------------------------Interconnect-DETAILS--------------------------------
Class 0:
Packet latency average = 8.9087
	minimum = 6
	maximum = 34
Network latency average = 8.54058
	minimum = 6
	maximum = 34
Slowest packet = 14
Flit latency average = 6.73292
	minimum = 6
	maximum = 34
Slowest flit = 14
Fragmentation average = 0
	minimum = 0
	maximum = 0
Injected packet rate average = 0.00308195
	minimum = 0.00229137 (at node 0)
	maximum = 0.00832127 (at node 1)
Accepted packet rate average = 0.00308195
	minimum = 0.00229137 (at node 0)
	maximum = 0.00832127 (at node 1)
Injected flit rate average = 0.00869647
	minimum = 0.00229137 (at node 0)
	maximum = 0.0303907 (at node 15)
Accepted flit rate average= 0.00869647
	minimum = 0.00277376 (at node 18)
	maximum = 0.026411 (at node 1)
Injected packet length average = 2.82174
Accepted packet length average = 2.82174
Total in-flight flits = 0 (0 measured)
====== Overall Traffic Statistics ======
====== Traffic class 0 ======
Packet latency average = 8.9087 (1 samples)
	minimum = 6 (1 samples)
	maximum = 34 (1 samples)
Network latency average = 8.54058 (1 samples)
	minimum = 6 (1 samples)
	maximum = 34 (1 samples)
Flit latency average = 6.73292 (1 samples)
	minimum = 6 (1 samples)
	maximum = 34 (1 samples)
Fragmentation average = 0 (1 samples)
	minimum = 0 (1 samples)
	maximum = 0 (1 samples)
Injected packet rate average = 0.00308195 (1 samples)
	minimum = 0.00229137 (1 samples)
	maximum = 0.00832127 (1 samples)
Accepted packet rate average = 0.00308195 (1 samples)
	minimum = 0.00229137 (1 samples)
	maximum = 0.00832127 (1 samples)
Injected flit rate average = 0.00869647 (1 samples)
	minimum = 0.00229137 (1 samples)
	maximum = 0.0303907 (1 samples)
Accepted flit rate average = 0.00869647 (1 samples)
	minimum = 0.00277376 (1 samples)
	maximum = 0.026411 (1 samples)
Injected packet size average = 2.82174 (1 samples)
Accepted packet size average = 2.82174 (1 samples)
Hops average = 1 (1 samples)
----------------------------END-of-Interconnect-DETAILS-------------------------


gpgpu_simulation_time = 0 days, 0 hrs, 0 min, 3 sec (3 sec)
gpgpu_simulation_rate = 150145 (inst/sec)
gpgpu_simulation_rate = 2764 (cycle/sec)

GPGPU-Sim PTX: cudaLaunch for 0x0x4016ca (mode=performance simulation) on stream 0
GPGPU-Sim PTX: pushing kernel '_Z7Kernel2PbS_S_S_i' to stream 0, gridDim= (63,1,1) blockDim = (512,1,1) 
kernel '_Z7Kernel2PbS_S_S_i' transfer to GPU hardware scheduler
GPGPU-Sim uArch: Shader 5 bind to kernel 2 '_Z7Kernel2PbS_S_S_i'
GPGPU-Sim uArch: CTA/core = 3, limited by: threads
GPGPU-Sim uArch: core:  5, cta: 0 initialized @(1,8292)
GPGPU-Sim uArch: Shader 6 bind to kernel 2 '_Z7Kernel2PbS_S_S_i'
GPGPU-Sim uArch: core:  6, cta: 0 initialized @(1,8292)
GPGPU-Sim uArch: Shader 7 bind to kernel 2 '_Z7Kernel2PbS_S_S_i'
GPGPU-Sim uArch: core:  7, cta: 0 initialized @(1,8292)
GPGPU-Sim uArch: Shader 8 bind to kernel 2 '_Z7Kernel2PbS_S_S_i'
GPGPU-Sim uArch: core:  8, cta: 0 initialized @(1,8292)
GPGPU-Sim uArch: Shader 9 bind to kernel 2 '_Z7Kernel2PbS_S_S_i'
GPGPU-Sim uArch: core:  9, cta: 0 initialized @(1,8292)
GPGPU-Sim uArch: Shader 10 bind to kernel 2 '_Z7Kernel2PbS_S_S_i'
GPGPU-Sim uArch: core: 10, cta: 0 initialized @(1,8292)
GPGPU-Sim uArch: Shader 11 bind to kernel 2 '_Z7Kernel2PbS_S_S_i'
GPGPU-Sim uArch: core: 11, cta: 0 initialized @(1,8292)
GPGPU-Sim uArch: Shader 12 bind to kernel 2 '_Z7Kernel2PbS_S_S_i'
GPGPU-Sim uArch: core: 12, cta: 0 initialized @(1,8292)
GPGPU-Sim uArch: Shader 13 bind to kernel 2 '_Z7Kernel2PbS_S_S_i'
GPGPU-Sim uArch: core: 13, cta: 0 initialized @(1,8292)
GPGPU-Sim uArch: Shader 14 bind to kernel 2 '_Z7Kernel2PbS_S_S_i'
GPGPU-Sim uArch: core: 14, cta: 0 initialized @(1,8292)
GPGPU-Sim uArch: Shader 0 bind to kernel 2 '_Z7Kernel2PbS_S_S_i'
GPGPU-Sim uArch: core:  0, cta: 0 initialized @(1,8292)
GPGPU-Sim uArch: Shader 1 bind to kernel 2 '_Z7Kernel2PbS_S_S_i'
GPGPU-Sim uArch: core:  1, cta: 0 initialized @(1,8292)
GPGPU-Sim uArch: Shader 2 bind to kernel 2 '_Z7Kernel2PbS_S_S_i'
GPGPU-Sim uArch: core:  2, cta: 0 initialized @(1,8292)
GPGPU-Sim uArch: Shader 3 bind to kernel 2 '_Z7Kernel2PbS_S_S_i'
GPGPU-Sim uArch: core:  3, cta: 0 initialized @(1,8292)
GPGPU-Sim uArch: Shader 4 bind to kernel 2 '_Z7Kernel2PbS_S_S_i'
GPGPU-Sim uArch: core:  4, cta: 0 initialized @(1,8292)
GPGPU-Sim uArch: core:  5, cta: 1 initialized @(2,8292)
GPGPU-Sim uArch: core:  6, cta: 1 initialized @(2,8292)
GPGPU-Sim uArch: core:  7, cta: 1 initialized @(2,8292)
GPGPU-Sim uArch: core:  8, cta: 1 initialized @(2,8292)
GPGPU-Sim uArch: core:  9, cta: 1 initialized @(2,8292)
GPGPU-Sim uArch: core: 10, cta: 1 initialized @(2,8292)
GPGPU-Sim uArch: core: 11, cta: 1 initialized @(2,8292)
GPGPU-Sim uArch: core: 12, cta: 1 initialized @(2,8292)
GPGPU-Sim uArch: core: 13, cta: 1 initialized @(2,8292)
GPGPU-Sim uArch: core: 14, cta: 1 initialized @(2,8292)
GPGPU-Sim uArch: core:  0, cta: 1 initialized @(2,8292)
GPGPU-Sim uArch: core:  1, cta: 1 initialized @(2,8292)
GPGPU-Sim uArch: core:  2, cta: 1 initialized @(2,8292)
GPGPU-Sim uArch: core:  3, cta: 1 initialized @(2,8292)
GPGPU-Sim uArch: core:  4, cta: 1 initialized @(2,8292)
GPGPU-Sim uArch: core:  5, cta: 2 initialized @(3,8292)
GPGPU-Sim uArch: core:  6, cta: 2 initialized @(3,8292)
GPGPU-Sim uArch: core:  7, cta: 2 initialized @(3,8292)
GPGPU-Sim uArch: core:  8, cta: 2 initialized @(3,8292)
GPGPU-Sim uArch: core:  9, cta: 2 initialized @(3,8292)
GPGPU-Sim uArch: core: 10, cta: 2 initialized @(3,8292)
GPGPU-Sim uArch: core: 11, cta: 2 initialized @(3,8292)
GPGPU-Sim uArch: core: 12, cta: 2 initialized @(3,8292)
GPGPU-Sim uArch: core: 13, cta: 2 initialized @(3,8292)
GPGPU-Sim uArch: core: 14, cta: 2 initialized @(3,8292)
GPGPU-Sim uArch: core:  0, cta: 2 initialized @(3,8292)
GPGPU-Sim uArch: core:  1, cta: 2 initialized @(3,8292)
GPGPU-Sim uArch: core:  2, cta: 2 initialized @(3,8292)
GPGPU-Sim uArch: core:  3, cta: 2 initialized @(3,8292)
GPGPU-Sim uArch: core:  4, cta: 2 initialized @(3,8292)
GPGPU-Sim PTX: 500000 instructions simulated : ctaid=(13,0,0) tid=(169,0,0)
GPGPU-Sim uArch: cycles simulated: 8792  inst.: 527236 (ipc=153.6) sim_rate=131809 (inst/sec) elapsed = 0:0:00:04 / Tue Mar 22 07:02:17 2016
GPGPU-Sim PTX: 600000 instructions simulated : ctaid=(14,0,0) tid=(220,0,0)
GPGPU-Sim uArch: Shader 3 finished CTA #0 (853,8292), 2 CTAs running
GPGPU-Sim uArch: core:  3, cta: 0 initialized @(854,8292)
GPGPU-Sim uArch: Shader 4 finished CTA #0 (859,8292), 2 CTAs running
GPGPU-Sim uArch: core:  4, cta: 0 initialized @(860,8292)
GPGPU-Sim uArch: Shader 5 finished CTA #0 (865,8292), 2 CTAs running
GPGPU-Sim uArch: core:  5, cta: 0 initialized @(866,8292)
GPGPU-Sim uArch: Shader 7 finished CTA #0 (871,8292), 2 CTAs running
GPGPU-Sim uArch: core:  7, cta: 0 initialized @(872,8292)
GPGPU-Sim uArch: Shader 8 finished CTA #0 (877,8292), 2 CTAs running
GPGPU-Sim uArch: core:  8, cta: 0 initialized @(878,8292)
GPGPU-Sim uArch: Shader 10 finished CTA #0 (883,8292), 2 CTAs running
GPGPU-Sim uArch: core: 10, cta: 0 initialized @(884,8292)
GPGPU-Sim uArch: Shader 11 finished CTA #0 (889,8292), 2 CTAs running
GPGPU-Sim uArch: core: 11, cta: 0 initialized @(890,8292)
GPGPU-Sim uArch: Shader 12 finished CTA #0 (895,8292), 2 CTAs running
GPGPU-Sim uArch: core: 12, cta: 0 initialized @(896,8292)
GPGPU-Sim uArch: Shader 14 finished CTA #0 (901,8292), 2 CTAs running
GPGPU-Sim uArch: core: 14, cta: 0 initialized @(902,8292)
GPGPU-Sim uArch: Shader 0 finished CTA #0 (907,8292), 2 CTAs running
GPGPU-Sim uArch: core:  0, cta: 0 initialized @(908,8292)
GPGPU-Sim uArch: Shader 1 finished CTA #0 (1059,8292), 2 CTAs running
GPGPU-Sim uArch: core:  1, cta: 0 initialized @(1060,8292)
GPGPU-Sim uArch: Shader 13 finished CTA #0 (1077,8292), 2 CTAs running
GPGPU-Sim uArch: core: 13, cta: 0 initialized @(1078,8292)
GPGPU-Sim uArch: Shader 6 finished CTA #0 (1079,8292), 2 CTAs running
GPGPU-Sim uArch: core:  6, cta: 0 initialized @(1080,8292)
GPGPU-Sim uArch: Shader 2 finished CTA #0 (1081,8292), 2 CTAs running
GPGPU-Sim uArch: core:  2, cta: 0 initialized @(1082,8292)
GPGPU-Sim uArch: Shader 9 finished CTA #0 (1083,8292), 2 CTAs running
GPGPU-Sim uArch: core:  9, cta: 0 initialized @(1084,8292)
GPGPU-Sim PTX: 700000 instructions simulated : ctaid=(34,0,0) tid=(129,0,0)
GPGPU-Sim uArch: Shader 6 finished CTA #1 (1222,8292), 2 CTAs running
GPGPU-Sim uArch: core:  6, cta: 1 initialized @(1223,8292)
GPGPU-Sim uArch: Shader 1 finished CTA #1 (1226,8292), 2 CTAs running
GPGPU-Sim uArch: core:  1, cta: 1 initialized @(1227,8292)
GPGPU-Sim uArch: Shader 9 finished CTA #1 (1240,8292), 2 CTAs running
GPGPU-Sim uArch: core:  9, cta: 1 initialized @(1241,8292)
GPGPU-Sim uArch: Shader 13 finished CTA #1 (1244,8292), 2 CTAs running
GPGPU-Sim uArch: Shader 2 finished CTA #1 (1246,8292), 2 CTAs running
GPGPU-Sim uArch: Shader 3 finished CTA #1 (1261,8292), 2 CTAs running
GPGPU-Sim uArch: Shader 4 finished CTA #1 (1275,8292), 2 CTAs running
GPGPU-Sim uArch: Shader 5 finished CTA #1 (1275,8292), 2 CTAs running
GPGPU-Sim uArch: Shader 7 finished CTA #1 (1280,8292), 2 CTAs running
GPGPU-Sim uArch: Shader 10 finished CTA #1 (1290,8292), 2 CTAs running
GPGPU-Sim uArch: Shader 11 finished CTA #1 (1290,8292), 2 CTAs running
GPGPU-Sim uArch: Shader 12 finished CTA #1 (1302,8292), 2 CTAs running
GPGPU-Sim uArch: Shader 8 finished CTA #1 (1307,8292), 2 CTAs running
GPGPU-Sim uArch: Shader 14 finished CTA #1 (1313,8292), 2 CTAs running
GPGPU-Sim uArch: Shader 0 finished CTA #1 (1320,8292), 2 CTAs running
GPGPU-Sim PTX: 800000 instructions simulated : ctaid=(35,0,0) tid=(417,0,0)
GPGPU-Sim uArch: Shader 1 finished CTA #2 (1578,8292), 2 CTAs running
GPGPU-Sim uArch: Shader 6 finished CTA #2 (1583,8292), 2 CTAs running
GPGPU-Sim uArch: Shader 13 finished CTA #2 (1594,8292), 1 CTAs running
GPGPU-Sim uArch: Shader 9 finished CTA #2 (1601,8292), 2 CTAs running
GPGPU-Sim uArch: Shader 2 finished CTA #2 (1605,8292), 1 CTAs running
GPGPU-Sim uArch: Shader 3 finished CTA #2 (1615,8292), 1 CTAs running
GPGPU-Sim uArch: Shader 4 finished CTA #2 (1625,8292), 1 CTAs running
GPGPU-Sim uArch: Shader 8 finished CTA #2 (1627,8292), 1 CTAs running
GPGPU-Sim uArch: Shader 7 finished CTA #2 (1645,8292), 1 CTAs running
GPGPU-Sim uArch: Shader 10 finished CTA #2 (1651,8292), 1 CTAs running
GPGPU-Sim PTX: 900000 instructions simulated : ctaid=(53,0,0) tid=(340,0,0)
GPGPU-Sim uArch: Shader 5 finished CTA #2 (1660,8292), 1 CTAs running
GPGPU-Sim uArch: Shader 0 finished CTA #2 (1661,8292), 1 CTAs running
GPGPU-Sim uArch: Shader 12 finished CTA #2 (1662,8292), 1 CTAs running
GPGPU-Sim uArch: Shader 14 finished CTA #2 (1675,8292), 1 CTAs running
GPGPU-Sim uArch: Shader 11 finished CTA #2 (1676,8292), 1 CTAs running
GPGPU-Sim uArch: Shader 6 finished CTA #0 (1928,8292), 1 CTAs running
GPGPU-Sim uArch: Shader 13 finished CTA #0 (1932,8292), 0 CTAs running
GPGPU-Sim uArch: Shader 13 empty (release kernel 2 '_Z7Kernel2PbS_S_S_i').
GPGPU-Sim uArch: Shader 9 finished CTA #0 (1944,8292), 1 CTAs running
GPGPU-Sim uArch: Shader 3 finished CTA #0 (1951,8292), 0 CTAs running
GPGPU-Sim uArch: Shader 3 empty (release kernel 2 '_Z7Kernel2PbS_S_S_i').
GPGPU-Sim uArch: Shader 8 finished CTA #0 (1957,8292), 0 CTAs running
GPGPU-Sim uArch: Shader 8 empty (release kernel 2 '_Z7Kernel2PbS_S_S_i').
GPGPU-Sim uArch: Shader 2 finished CTA #0 (1959,8292), 0 CTAs running
GPGPU-Sim uArch: Shader 2 empty (release kernel 2 '_Z7Kernel2PbS_S_S_i').
GPGPU-Sim uArch: Shader 4 finished CTA #0 (1965,8292), 0 CTAs running
GPGPU-Sim uArch: Shader 4 empty (release kernel 2 '_Z7Kernel2PbS_S_S_i').
GPGPU-Sim uArch: Shader 1 finished CTA #0 (1974,8292), 1 CTAs running
GPGPU-Sim uArch: Shader 7 finished CTA #0 (1980,8292), 0 CTAs running
GPGPU-Sim uArch: Shader 7 empty (release kernel 2 '_Z7Kernel2PbS_S_S_i').
GPGPU-Sim uArch: Shader 5 finished CTA #0 (1993,8292), 0 CTAs running
GPGPU-Sim uArch: Shader 5 empty (release kernel 2 '_Z7Kernel2PbS_S_S_i').
GPGPU-Sim uArch: cycles simulated: 10292  inst.: 894872 (ipc=222.2) sim_rate=178974 (inst/sec) elapsed = 0:0:00:05 / Tue Mar 22 07:02:18 2016
GPGPU-Sim uArch: Shader 0 finished CTA #0 (2002,8292), 0 CTAs running
GPGPU-Sim uArch: Shader 0 empty (release kernel 2 '_Z7Kernel2PbS_S_S_i').
GPGPU-Sim uArch: Shader 12 finished CTA #0 (2004,8292), 0 CTAs running
GPGPU-Sim uArch: Shader 12 empty (release kernel 2 '_Z7Kernel2PbS_S_S_i').
GPGPU-Sim uArch: Shader 14 finished CTA #0 (2009,8292), 0 CTAs running
GPGPU-Sim uArch: Shader 14 empty (release kernel 2 '_Z7Kernel2PbS_S_S_i').
GPGPU-Sim uArch: Shader 11 finished CTA #0 (2010,8292), 0 CTAs running
GPGPU-Sim uArch: Shader 11 empty (release kernel 2 '_Z7Kernel2PbS_S_S_i').
GPGPU-Sim uArch: Shader 10 finished CTA #0 (2027,8292), 0 CTAs running
GPGPU-Sim uArch: Shader 10 empty (release kernel 2 '_Z7Kernel2PbS_S_S_i').
GPGPU-Sim uArch: Shader 9 finished CTA #1 (2208,8292), 0 CTAs running
GPGPU-Sim uArch: Shader 9 empty (release kernel 2 '_Z7Kernel2PbS_S_S_i').
GPGPU-Sim uArch: Shader 1 finished CTA #1 (2244,8292), 0 CTAs running
GPGPU-Sim uArch: Shader 1 empty (release kernel 2 '_Z7Kernel2PbS_S_S_i').
GPGPU-Sim uArch: Shader 6 finished CTA #1 (2264,8292), 0 CTAs running
GPGPU-Sim uArch: Shader 6 empty (release kernel 2 '_Z7Kernel2PbS_S_S_i').
GPGPU-Sim uArch: GPU detected kernel '_Z7Kernel2PbS_S_S_i' finished on shader 6.
kernel_name = _Z7Kernel2PbS_S_S_i 
kernel_launch_uid = 2 
gpu_sim_cycle = 2265
gpu_sim_insn = 450228
gpu_ipc =     198.7762
gpu_tot_sim_cycle = 10557
gpu_tot_sim_insn = 900664
gpu_tot_ipc =      85.3144
gpu_tot_issued_cta = 126
gpu_stall_dramfull = 403
gpu_stall_icnt2sh    = 266
gpu_total_sim_rate=180132

========= Core cache stats =========
L1I_cache:
	L1I_total_cache_accesses = 18371
	L1I_total_cache_misses = 1201
	L1I_total_cache_miss_rate = 0.0654
	L1I_total_cache_pending_hits = 0
	L1I_total_cache_reservation_fails = 4140
L1D_cache:
	L1D_cache_core[0]: Access = 132, Miss = 35, Miss_rate = 0.265, Pending_hits = 96, Reservation_fails = 0
	L1D_cache_core[1]: Access = 268, Miss = 93, Miss_rate = 0.347, Pending_hits = 107, Reservation_fails = 0
	L1D_cache_core[2]: Access = 136, Miss = 38, Miss_rate = 0.279, Pending_hits = 96, Reservation_fails = 0
	L1D_cache_core[3]: Access = 148, Miss = 38, Miss_rate = 0.257, Pending_hits = 108, Reservation_fails = 0
	L1D_cache_core[4]: Access = 140, Miss = 37, Miss_rate = 0.264, Pending_hits = 102, Reservation_fails = 0
	L1D_cache_core[5]: Access = 144, Miss = 36, Miss_rate = 0.250, Pending_hits = 108, Reservation_fails = 0
	L1D_cache_core[6]: Access = 148, Miss = 39, Miss_rate = 0.264, Pending_hits = 108, Reservation_fails = 0
	L1D_cache_core[7]: Access = 128, Miss = 32, Miss_rate = 0.250, Pending_hits = 96, Reservation_fails = 0
	L1D_cache_core[8]: Access = 132, Miss = 35, Miss_rate = 0.265, Pending_hits = 96, Reservation_fails = 0
	L1D_cache_core[9]: Access = 140, Miss = 37, Miss_rate = 0.264, Pending_hits = 102, Reservation_fails = 0
	L1D_cache_core[10]: Access = 132, Miss = 35, Miss_rate = 0.265, Pending_hits = 96, Reservation_fails = 0
	L1D_cache_core[11]: Access = 132, Miss = 35, Miss_rate = 0.265, Pending_hits = 96, Reservation_fails = 0
	L1D_cache_core[12]: Access = 128, Miss = 32, Miss_rate = 0.250, Pending_hits = 96, Reservation_fails = 0
	L1D_cache_core[13]: Access = 132, Miss = 35, Miss_rate = 0.265, Pending_hits = 96, Reservation_fails = 0
	L1D_cache_core[14]: Access = 128, Miss = 32, Miss_rate = 0.250, Pending_hits = 96, Reservation_fails = 0
	L1D_total_cache_accesses = 2168
	L1D_total_cache_misses = 589
	L1D_total_cache_miss_rate = 0.2717
	L1D_total_cache_pending_hits = 1499
	L1D_total_cache_reservation_fails = 0
	L1D_cache_data_port_util = 0.001
	L1D_cache_fill_port_util = 0.007
L1C_cache:
	L1C_total_cache_accesses = 4094
	L1C_total_cache_misses = 240
	L1C_total_cache_miss_rate = 0.0586
	L1C_total_cache_pending_hits = 0
	L1C_total_cache_reservation_fails = 0
L1T_cache:
	L1T_total_cache_accesses = 0
	L1T_total_cache_misses = 0
	L1T_total_cache_pending_hits = 0
	L1T_total_cache_reservation_fails = 0

Total_core_cache_stats:
	Total_core_cache_stats_breakdown[GLOBAL_ACC_R][HIT] = 61
	Total_core_cache_stats_breakdown[GLOBAL_ACC_R][HIT_RESERVED] = 1499
	Total_core_cache_stats_breakdown[GLOBAL_ACC_R][MISS] = 517
	Total_core_cache_stats_breakdown[CONST_ACC_R][HIT] = 3854
	Total_core_cache_stats_breakdown[CONST_ACC_R][MISS] = 240
	Total_core_cache_stats_breakdown[GLOBAL_ACC_W][HIT] = 19
	Total_core_cache_stats_breakdown[GLOBAL_ACC_W][MISS] = 72
	Total_core_cache_stats_breakdown[INST_ACC_R][HIT] = 17170
	Total_core_cache_stats_breakdown[INST_ACC_R][MISS] = 1201
	Total_core_cache_stats_breakdown[INST_ACC_R][RESERVATION_FAIL] = 4140
Shader 0 warp_id issue ditsribution:
warp_id:
0, 1, 2, 3, 4, 5, 6, 7, 8, 9, 10, 11, 12, 13, 14, 15, 16, 17, 18, 19, 20, 21, 22, 23, 24, 25, 26, 27, 28, 29, 30, 31, 32, 33, 34, 35, 36, 37, 38, 39, 40, 41, 42, 43, 44, 45, 46, 47, 
distro:
60, 60, 60, 60, 60, 60, 60, 60, 60, 60, 60, 60, 60, 60, 60, 60, 30, 30, 43, 30, 30, 30, 30, 30, 30, 30, 30, 30, 30, 30, 30, 30, 30, 30, 30, 30, 30, 30, 30, 30, 30, 30, 30, 30, 30, 30, 30, 30, 
gpgpu_n_tot_thrd_icount = 983328
gpgpu_n_tot_w_icount = 30729
gpgpu_n_stall_shd_mem = 0
gpgpu_n_mem_read_local = 0
gpgpu_n_mem_write_local = 0
gpgpu_n_mem_read_global = 517
gpgpu_n_mem_write_global = 91
gpgpu_n_mem_texture = 0
gpgpu_n_mem_const = 15
gpgpu_n_load_insn  = 64077
gpgpu_n_store_insn = 91
gpgpu_n_shmem_insn = 0
gpgpu_n_tex_insn = 0
gpgpu_n_const_mem_insn = 0
gpgpu_n_param_mem_insn = 128590
gpgpu_n_shmem_bkconflict = 0
gpgpu_n_cache_bkconflict = 0
gpgpu_n_intrawarp_mshr_merge = 0
gpgpu_n_cmem_portconflict = 0
gpgpu_stall_shd_mem[c_mem][bk_conf] = 0
gpgpu_stall_shd_mem[c_mem][mshr_rc] = 0
gpgpu_stall_shd_mem[c_mem][icnt_rc] = 0
gpgpu_stall_shd_mem[c_mem][data_port_stall] = 0
gpgpu_stall_shd_mem[t_mem][mshr_rc] = 0
gpgpu_stall_shd_mem[t_mem][icnt_rc] = 0
gpgpu_stall_shd_mem[t_mem][data_port_stall] = 0
gpgpu_stall_shd_mem[s_mem][bk_conf] = 0
gpgpu_stall_shd_mem[gl_mem][bk_conf] = 0
gpgpu_stall_shd_mem[gl_mem][coal_stall] = 0
gpgpu_stall_shd_mem[gl_mem][data_port_stall] = 0
gpgpu_stall_shd_mem[g_mem_ld][mshr_rc] = 0
gpgpu_stall_shd_mem[g_mem_ld][icnt_rc] = 0
gpgpu_stall_shd_mem[g_mem_ld][wb_icnt_rc] = 0
gpgpu_stall_shd_mem[g_mem_ld][wb_rsrv_fail] = 0
gpgpu_stall_shd_mem[g_mem_st][mshr_rc] = 0
gpgpu_stall_shd_mem[g_mem_st][icnt_rc] = 0
gpgpu_stall_shd_mem[g_mem_st][wb_icnt_rc] = 0
gpgpu_stall_shd_mem[g_mem_st][wb_rsrv_fail] = 0
gpgpu_stall_shd_mem[l_mem_ld][mshr_rc] = 0
gpgpu_stall_shd_mem[l_mem_ld][icnt_rc] = 0
gpgpu_stall_shd_mem[l_mem_ld][wb_icnt_rc] = 0
gpgpu_stall_shd_mem[l_mem_ld][wb_rsrv_fail] = 0
gpgpu_stall_shd_mem[l_mem_st][mshr_rc] = 0
gpgpu_stall_shd_mem[l_mem_st][icnt_rc] = 0
gpgpu_stall_shd_mem[l_mem_ld][wb_icnt_rc] = 0
gpgpu_stall_shd_mem[l_mem_ld][wb_rsrv_fail] = 0
gpu_reg_bank_conflict_stalls = 0
Warp Occupancy Distribution:
Stall:453	W0_Idle:38572	W0_Scoreboard:76386	W1:601	W2:0	W3:0	W4:0	W5:0	W6:0	W7:0	W8:0	W9:0	W10:0	W11:0	W12:0	W13:0	W14:0	W15:0	W16:0	W17:0	W18:0	W19:0	W20:0	W21:0	W22:0	W23:0	W24:0	W25:0	W26:0	W27:0	W28:0	W29:0	W30:0	W31:0	W32:30128
traffic_breakdown_coretomem[CONST_ACC_R] = 120 {8:15,}
traffic_breakdown_coretomem[GLOBAL_ACC_R] = 4136 {8:517,}
traffic_breakdown_coretomem[GLOBAL_ACC_W] = 3640 {40:91,}
traffic_breakdown_coretomem[INST_ACC_R] = 496 {8:62,}
traffic_breakdown_memtocore[CONST_ACC_R] = 1080 {72:15,}
traffic_breakdown_memtocore[GLOBAL_ACC_R] = 70312 {136:517,}
traffic_breakdown_memtocore[GLOBAL_ACC_W] = 728 {8:91,}
traffic_breakdown_memtocore[INST_ACC_R] = 8432 {136:62,}
maxmrqlatency = 19 
maxdqlatency = 0 
maxmflatency = 321 
averagemflatency = 247 
max_icnt2mem_latency = 36 
max_icnt2sh_latency = 10319 
mrq_lat_table:526 	14 	19 	13 	1 	0 	0 	0 	0 	0 	0 	0 	0 	0 	0 	0 	0 	0 	0 	0 	0 	0 	0 	0 	0 	0 	0 	0 	0 	0 	0 	0 	
dq_lat_table:0 	0 	0 	0 	0 	0 	0 	0 	0 	0 	0 	0 	0 	0 	0 	0 	0 	0 	0 	0 	0 	0 	0 	0 	0 	0 	0 	0 	0 	0 	0 	0 	
mf_lat_table:0 	0 	0 	0 	0 	0 	0 	108 	515 	0 	0 	0 	0 	0 	0 	0 	0 	0 	0 	0 	0 	0 	0 	0 	0 	0 	0 	0 	0 	0 	0 	0 	
icnt2mem_lat_table:0 	0 	0 	663 	17 	5 	0 	0 	0 	0 	0 	0 	0 	0 	0 	0 	0 	0 	0 	0 	0 	0 	0 	0 	
icnt2sh_lat_table:0 	0 	0 	487 	45 	0 	0 	0 	0 	0 	1 	6 	22 	62 	0 	0 	0 	0 	0 	0 	0 	0 	0 	0 	
mf_lat_pw_table:0 	0 	0 	0 	0 	0 	0 	13 	6 	0 	0 	0 	0 	0 	0 	0 	0 	0 	0 	0 	0 	0 	0 	0 	0 	0 	0 	0 	0 	0 	0 	0 	
maximum concurrent accesses to same row:
dram[0]:         1         0         0         0         0         0         0         0         0         0         0         0         0         0         0         0 
dram[1]:         0         0         0         0         0         0         0         0         0         0         0         0         0         0         0         0 
dram[2]:         0         0         0         0         0         1         0         0         0         0         0         0         0         0         0         0 
dram[3]:         0         0         0         0         0         0         0         0         0         0         0         0         0         0         0         0 
dram[4]:         0         0         0         0         0         0         0         0         0         0         0         0         0         0         0         0 
dram[5]:         0         0         0         0         0         0         0         0         0         0         0         0         0         0         0         0 
maximum service time to same row:
dram[0]:       612         0       916       909      1976      2262      2666      5357         0      7463      8260         0         0         0      1816         0 
dram[1]:      1157         0       876       901      1875      2229      3840         0         0         0      2966         0         0         0         0         0 
dram[2]:       319         0       897       921      1912      1491         0      3437      7069         0         0         0         0      1041         0         0 
dram[3]:         0         0       881       893      2199      2210         0      3034         0      6538         0      5750         0         0         0         0 
dram[4]:         0         0       901       913      2269      2282         0      2360      3772         0         0         0         0         0         0         0 
dram[5]:         0         0       888       897      2207      2172         0      7532         0         0      7866      3369         0         0         0         0 
average row accesses per activate:
dram[0]:  1.000000      -nan 14.000000 14.000000 28.000000 31.000000  4.000000  2.000000      -nan  2.000000  2.000000      -nan      -nan      -nan  1.000000      -nan 
dram[1]:  2.000000      -nan 14.000000 14.000000 29.000000 28.000000  4.000000      -nan      -nan      -nan  4.000000      -nan      -nan      -nan      -nan      -nan 
dram[2]:  2.000000      -nan 14.000000 14.000000 29.000000 15.000000      -nan  3.000000  2.000000      -nan      -nan      -nan      -nan  5.000000      -nan      -nan 
dram[3]:      -nan      -nan 14.000000 16.000000 30.000000 26.000000      -nan  2.000000      -nan  2.000000      -nan  2.000000      -nan      -nan      -nan      -nan 
dram[4]:      -nan      -nan 14.000000 16.000000 31.000000 27.000000      -nan  1.000000  2.000000      -nan      -nan      -nan      -nan      -nan      -nan      -nan 
dram[5]:      -nan      -nan 14.000000 16.000000 30.000000 28.000000      -nan  1.000000      -nan      -nan  2.000000  4.000000      -nan      -nan      -nan      -nan 
average row locality = 573/48 = 11.937500
number of total memory accesses made:
dram[0]:         0         0         0         0         0         0         0         0         0         0         0         0         0         0         0         0 
dram[1]:         0         0         0         0         0         0         0         0         0         0         0         0         0         0         0         0 
dram[2]:         0         0         0         0         0         0         0         0         0         0         0         0         0         0         0         0 
dram[3]:         0         0         0         0         0         0         0         0         0         0         0         0         0         0         0         0 
dram[4]:         0         0         0         0         0         0         0         0         0         0         0         0         0         0         0         0 
dram[5]:         0         0         0         0         0         0         0         0         0         0         0         0         0         0         0         0 
total accesses: 0
min_bank_accesses = 0!
min_chip_accesses = 0!
number of total read accesses:
dram[0]:         3         0        14        14        28        29         3         1         0         1         1         0         0         0         1         0 
dram[1]:         2         0        14        14        28        27         3         0         0         0         2         0         0         0         0         0 
dram[2]:         2         0        14        14        28        28         0         2         1         0         0         0         0         1         0         0 
dram[3]:         0         0        14        16        28        26         0         2         0         1         0         1         0         0         0         0 
[...]
traffic_breakdown_coretomem[GLOBAL_ACC_R] = 6063032 {8:757879,}
traffic_breakdown_coretomem[GLOBAL_ACC_W] = 9426304 {40:235338,72:34,136:76,}
traffic_breakdown_coretomem[INST_ACC_R] = 720 {8:90,}
traffic_breakdown_memtocore[CONST_ACC_R] = 1080 {72:15,}
traffic_breakdown_memtocore[GLOBAL_ACC_R] = 103071544 {136:757879,}
traffic_breakdown_memtocore[GLOBAL_ACC_W] = 1883584 {8:235448,}
traffic_breakdown_memtocore[INST_ACC_R] = 12240 {136:90,}
maxmrqlatency = 238 
maxdqlatency = 0 
maxmflatency = 1081 
averagemflatency = 372 
max_icnt2mem_latency = 804 
max_icnt2sh_latency = 769616 
mrq_lat_table:42458 	1799 	1016 	3437 	6837 	989 	374 	228 	0 	0 	0 	0 	0 	0 	0 	0 	0 	0 	0 	0 	0 	0 	0 	0 	0 	0 	0 	0 	0 	0 	0 	0 	
dq_lat_table:0 	0 	0 	0 	0 	0 	0 	0 	0 	0 	0 	0 	0 	0 	0 	0 	0 	0 	0 	0 	0 	0 	0 	0 	0 	0 	0 	0 	0 	0 	0 	0 	
mf_lat_table:0 	0 	0 	0 	0 	0 	0 	181310 	678420 	133610 	2 	0 	0 	0 	0 	0 	0 	0 	0 	0 	0 	0 	0 	0 	0 	0 	0 	0 	0 	0 	0 	0 	
icnt2mem_lat_table:0 	0 	0 	214471 	71250 	107544 	226571 	266234 	106399 	963 	0 	0 	0 	0 	0 	0 	0 	0 	0 	0 	0 	0 	0 	0 	
icnt2sh_lat_table:0 	0 	0 	22712 	395036 	320490 	19170 	485 	1 	0 	1 	6 	22 	400 	8751 	26472 	55717 	47920 	61604 	34555 	0 	0 	0 	0 	
mf_lat_pw_table:0 	0 	0 	0 	0 	0 	0 	254 	1302 	0 	0 	0 	0 	0 	0 	0 	0 	0 	0 	0 	0 	0 	0 	0 	0 	0 	0 	0 	0 	0 	0 	0 	
maximum concurrent accesses to same row:
dram[0]:        17        16        49        43        32        32        28        29        47        27        29        45        29        30        30        23 
dram[1]:        16        21        68        58        31        32        27        34        44        28        38        31        28        30        32        23 
dram[2]:        18        16        42        29        31        30        38        24        42        53        51        33        31        30        28        23 
dram[3]:        18        16        61        66        34        29        26        24        44        54        53        46        29        30        22        21 
dram[4]:        17        16        34        36        33        31        28        26        40        55        55        50        31        30        23        24 
dram[5]:        16        15        61        75        33        29        29        31        47        38        41        45        32        30        22        22 
maximum service time to same row:
dram[0]:     78695     75217     35193     30214     78177     77244     45728     54011     77704     61934     27053     37645     78033     80406     77656     76588 
dram[1]:     60029     92092     32031     48241     78138     81524     62457     36170     75768     82950     17923     42618     77966     82611     77608     77223 
dram[2]:     93313     38276     45204     48437     79908     80298     62740     59497     66053     74659     44047     57161     79631     80042     81827     77265 
dram[3]:     52719     56060     48309     30928     79543     79996     58755     67662     32701     36982     56195     41448     79843     79713     81279     77176 
dram[4]:     76816     78644     29817     52227     75366     79921     66465     25900     52600     64886     25791     55357     79638     79588     50281     77099 
dram[5]:     68997     54832     29788     51963     81672     79890     62114     55849     75232     65461     40244     48787     80463     79756     80323     77085 
average row accesses per activate:
dram[0]:  2.527174  2.382857  2.478992  2.318386  2.358423  2.489451  2.433824  2.494024  2.202046  2.096296  2.214470  2.182796  2.326180  2.266949  2.443877  2.160804 
dram[1]:  2.894366  2.798387  2.669604  2.381395  2.382114  2.563830  2.434164  2.382900  2.208134  2.423221  2.224490  2.241791  2.042802  2.436047  2.521978  2.386740 
dram[2]:  2.569697  2.696629  2.313044  2.162699  2.358490  2.311594  2.401544  2.240924  2.211082  2.305714  2.100000  2.183417  2.162791  2.454545  2.406417  2.220588 
dram[3]:  2.811966  2.637427  2.610000  2.568376  2.383178  2.375465  2.190323  2.281589  2.260274  2.119332  2.046109  2.218837  2.390805  2.087137  2.152284  2.410405 
dram[4]:  2.573864  2.496894  2.147601  2.232068  2.278626  2.412060  2.422939  2.408088  2.301775  2.246246  2.139949  2.125000  2.255507  2.203791  2.181818  2.346154 
dram[5]:  2.638710  2.669065  2.359684  2.666667  2.414815  2.390135  2.507576  2.235088  2.232274  2.308642  2.319209  2.180180  2.099174  2.405882  2.437159  2.223404 
average row locality = 57138/24651 = 2.317878
number of total memory accesses made:
dram[0]:         0         0         0         0         0         0         0         0         0         0         0         0         0         0         0         0 
dram[1]:         0         0         0         0         0         0         0         0         0         0         0         0         0         0         0         0 
dram[2]:         0         0         0         0         0         0         0         0         0         0         0         0         0         0         0         0 
dram[3]:         0         0         0         0         0         0         0         0         0         0         0         0         0         0         0         0 
dram[4]:         0         0         0         0         0         0         0         0         0         0         0         0         0         0         0         0 
dram[5]:         0         0         0         0         0         0         0         0         0         0         0         0         0         0         0         0 
total accesses: 0
min_bank_accesses = 0!
min_chip_accesses = 0!
number of total read accesses:
dram[0]:       465       417       482       429       555       496       561       521       666       626       637       588       508       499       479       430 
dram[1]:       411       347       474       406       500       419       586       542       699       488       627       550       484       401       459       432 
dram[2]:       424       480       441       482       529       554       524       568       620       621       637       637       512       470       450       453 
dram[3]:       329       451       400       454       444       538       577       536       506       685       539       573       400       490       424       417 
dram[4]:       453       402       496       438       495       439       575       536       594       567       615       636       478       460       456       427 
dram[5]:       409       371       473       430       536       472       557       536       703       565       604       538       467       397       446       418 
total reads: 48338
bank skew: 703/329 = 2.14
chip skew: 8402/7763 = 1.08
number of total write accesses:
dram[0]:         0         0       108        88       103        94       101       105       195       223       220       224        34        36         0         0 
dram[1]:         0         0       132       106        86        63        98        99       224       159       245       201        41        18         0         0 
dram[2]:         0         0        91        63        96        84        98       111       218       186       224       232        46        16         0         0 
dram[3]:         0         0       122       147        66       101       102        96       154       203       171       228        16        13         0         0 
dram[4]:         0         0        86        91       102        41       101       119       184       181       226       231        34         5         0         0 
dram[5]:         0         0       124       154       116        61       105       101       210       183       217       188        41        12         0         0 
total reads: 8800
min_bank_accesses = 0!
chip skew: 1531/1401 = 1.09
average mf latency per bank:
dram[0]:       2730      3285      2373      2744     10303     11774     15677     17055      3559      3464      3333      3640      2996      3133      2841      3285
dram[1]:       3081      4286      2124      2985     11138     17113     15049     17829      3207      4836      3264      4216      2994      4100      2831      3487
dram[2]:       3108      3124      2622      2995     11212     13564     17340     17718      3701      4210      3389      3713      2887      5781      3116      3366
dram[3]:       3766      3317      2609      2576     13110     12989     14902     18642      4465      3719      4155      3932      3677      3432      3089      3484
dram[4]:       2955      3540      2527      2855     11825     17975     15875     18175      3996      4542      3579      3760      3232      3675      3098      3584
dram[5]:       3315      3996      2363      2654     11044     16022     16359     18498      3427      4458      3849      4528      3334      4094      3130      3468
maximum mf latency per bank:
dram[0]:        933       922       934       819       849       893       882       879       904       909       853       931       893       833       979       872
dram[1]:        854       895       862      1002       877       994       893       980       836       969       937      1001       929       897       904       915
dram[2]:        998       947       855      1010       965       961       894       974       956       944       947       959       918       984       907       950
dram[3]:        789       926       850       903       876       963       922      1006       834       976       864       976       771       941       815       888
dram[4]:        876      1081       924      1012       943       938       924       993       961       993       952       977      1016       929       894       941
dram[5]:        816       831       830       940       947      1000       857       961       870       947       834       986       882       866       873       904

Number of Memory Banks Accessed per Memory Operation per Warp (from 0):
0	0	0	0	0	0	0	0	0	0	0	0	0	0	0	0	0	0	0	0	0	0	0	0	0	0	0	0	0	0	0	0	0	0	0	0	0	0	0	0	0	0	0	0	0	0	0	0	0	0	0	0	0	0	0	0	0	0	0	0	0	0	0	0	0	0	0	0	0	0	0	0	0	0	0	0	0	0	0	0	0	0	0	0	0	0	0	0	0	0	0	0	0	0	0	0	
Average # of Memory Banks Accessed per Memory Operation per Warp=-nan

position of mrq chosen
0	0	0	0	0	0	0	0	0	0	0	0	0	0	0	0	

average position of mrq chosen = -nan
Memory Partition 0: 
Cache L2_bank_000:
MSHR contents

Cache L2_bank_001:
MSHR contents

In Dram Latency Queue (total = 0): 
DRAM[0]: 16 bks, busW=4 BL=8 CL=12, tRRD=2 tCCD=6, tRCD=12 tRAS=28 tRP=12 tRC=40
n_cmd=1025933 n_nop=998387 n_act=4278 n_pre=4262 n_req=9890 n_rd=16718 n_write=2288 bw_util=0.03705
n_activity=199656 dram_eff=0.1904
bk0: 930a 1018666i bk1: 834a 1019249i bk2: 964a 1016267i bk3: 858a 1016913i bk4: 1110a 1014795i bk5: 992a 1016074i bk6: 1122a 1014609i bk7: 1042a 1014662i bk8: 1332a 1010564i bk9: 1252a 1009639i bk10: 1274a 1009686i bk11: 1176a 1010154i bk12: 1016a 1016278i bk13: 998a 1016400i bk14: 958a 1018141i bk15: 860a 1018326i 
dram_util_bins: 0 0 0 0 0 0 0 0 0 0
dram_eff_bins: 0 0 0 0 0 0 0 0 0 0
mrqq: max=16 avg=0.0623608
Memory Partition 1: 
Cache L2_bank_002:
MSHR contents

Cache L2_bank_003:
MSHR contents

In Dram Latency Queue (total = 0): 
DRAM[1]: 16 bks, busW=4 BL=8 CL=12, tRRD=2 tCCD=6, tRCD=12 tRAS=28 tRP=12 tRC=40
n_cmd=1025933 n_nop=1000359 n_act=3896 n_pre=3880 n_req=9297 n_rd=15650 n_write=2148 bw_util=0.0347
n_activity=191950 dram_eff=0.1854
bk0: 822a 1019893i bk1: 694a 1020850i bk2: 948a 1016493i bk3: 812a 1017264i bk4: 1000a 1016373i bk5: 838a 1018318i bk6: 1172a 1013996i bk7: 1084a 1014287i bk8: 1398a 1009576i bk9: 976a 1014291i bk10: 1254a 1009896i bk11: 1100a 1011721i bk12: 968a 1015835i bk13: 802a 1018827i bk14: 918a 1018485i bk15: 864a 1018746i 
dram_util_bins: 0 0 0 0 0 0 0 0 0 0
dram_eff_bins: 0 0 0 0 0 0 0 0 0 0
mrqq: max=16 avg=0.0682549
Memory Partition 2: 
Cache L2_bank_004:
MSHR contents

Cache L2_bank_005:
MSHR contents

In Dram Latency Queue (total = 0): 
DRAM[2]: 16 bks, busW=4 BL=8 CL=12, tRRD=2 tCCD=6, tRCD=12 tRAS=28 tRP=12 tRC=40
n_cmd=1025933 n_nop=998330 n_act=4312 n_pre=4296 n_req=9867 n_rd=16804 n_write=2191 bw_util=0.03703
n_activity=202386 dram_eff=0.1877
bk0: 848a 1019365i bk1: 960a 1018963i bk2: 882a 1016727i bk3: 964a 1016316i bk4: 1058a 1015056i bk5: 1108a 1014657i bk6: 1048a 1014514i bk7: 1136a 1013144i bk8: 1240a 1010756i bk9: 1242a 1011420i bk10: 1274a 1009236i bk11: 1274a 1009320i bk12: 1024a 1015457i bk13: 940a 1017655i bk14: 900a 1018298i bk15: 906a 1017998i 
dram_util_bins: 0 0 0 0 0 0 0 0 0 0
dram_eff_bins: 0 0 0 0 0 0 0 0 0 0
mrqq: max=16 avg=0.0642644
Memory Partition 3: 
Cache L2_bank_006:
MSHR contents

Cache L2_bank_007:
MSHR contents

In Dram Latency Queue (total = 0): 
DRAM[3]: 16 bks, busW=4 BL=8 CL=12, tRRD=2 tCCD=6, tRCD=12 tRAS=28 tRP=12 tRC=40
n_cmd=1025933 n_nop=1000327 n_act=3996 n_pre=3980 n_req=9182 n_rd=15526 n_write=2104 bw_util=0.03437
n_activity=193259 dram_eff=0.1824
bk0: 658a 1021089i bk1: 902a 1019151i bk2: 800a 1017521i bk3: 908a 1015819i bk4: 888a 1017573i bk5: 1076a 1014959i bk6: 1154a 1013451i bk7: 1072a 1013603i bk8: 1012a 1014221i bk9: 1370a 1009433i bk10: 1078a 1012015i bk11: 1146a 1010572i bk12: 800a 1018558i bk13: 980a 1016670i bk14: 848a 1018230i bk15: 834a 1018872i 
dram_util_bins: 0 0 0 0 0 0 0 0 0 0
dram_eff_bins: 0 0 0 0 0 0 0 0 0 0
mrqq: max=16 avg=0.0623355
Memory Partition 4: 
Cache L2_bank_008:
MSHR contents

Cache L2_bank_009:
MSHR contents

In Dram Latency Queue (total = 0): 
DRAM[4]: 16 bks, busW=4 BL=8 CL=12, tRRD=2 tCCD=6, tRCD=12 tRAS=28 tRP=12 tRC=40
n_cmd=1025933 n_nop=999401 n_act=4158 n_pre=4142 n_req=9468 n_rd=16134 n_write=2098 bw_util=0.03554
n_activity=196846 dram_eff=0.1852
bk0: 906a 1019182i bk1: 804a 1019829i bk2: 992a 1015862i bk3: 876a 1016396i bk4: 990a 1015445i bk5: 878a 1017878i bk6: 1150a 1014656i bk7: 1072a 1014163i bk8: 1188a 1012148i bk9: 1134a 1012199i bk10: 1230a 1009143i bk11: 1272a 1009080i bk12: 956a 1016670i bk13: 920a 1017655i bk14: 912a 1017850i bk15: 854a 1018817i 
dram_util_bins: 0 0 0 0 0 0 0 0 0 0
dram_eff_bins: 0 0 0 0 0 0 0 0 0 0
mrqq: max=16 avg=0.0625499
Memory Partition 5: 
Cache L2_bank_010:
MSHR contents

Cache L2_bank_011:
MSHR contents

In Dram Latency Queue (total = 0): 
DRAM[5]: 16 bks, busW=4 BL=8 CL=12, tRRD=2 tCCD=6, tRCD=12 tRAS=28 tRP=12 tRC=40
n_cmd=1025933 n_nop=999883 n_act=4011 n_pre=3995 n_req=9434 n_rd=15844 n_write=2200 bw_util=0.03518
n_activity=195586 dram_eff=0.1845
bk0: 818a 1019893i bk1: 742a 1020466i bk2: 946a 1016094i bk3: 860a 1016682i bk4: 1072a 1015183i bk5: 944a 1017007i bk6: 1114a 1014699i bk7: 1072a 1013900i bk8: 1406a 1009809i bk9: 1130a 1012494i bk10: 1208a 1011310i bk11: 1076a 1011527i bk12: 934a 1016505i bk13: 794a 1018980i bk14: 892a 1018894i bk15: 836a 1018750i 
dram_util_bins: 0 0 0 0 0 0 0 0 0 0
dram_eff_bins: 0 0 0 0 0 0 0 0 0 0
mrqq: max=16 avg=0.0637956

========= L2 cache stats =========
L2_cache_bank[0]: Access = 81611, Miss = 4353, Miss_rate = 0.053, Pending_hits = 52, Reservation_fails = 226
L2_cache_bank[1]: Access = 81739, Miss = 4006, Miss_rate = 0.049, Pending_hits = 35, Reservation_fails = 98
L2_cache_bank[2]: Access = 80986, Miss = 4240, Miss_rate = 0.052, Pending_hits = 79, Reservation_fails = 156
L2_cache_bank[3]: Access = 83212, Miss = 3585, Miss_rate = 0.043, Pending_hits = 66, Reservation_fails = 228
L2_cache_bank[4]: Access = 81897, Miss = 4137, Miss_rate = 0.051, Pending_hits = 45, Reservation_fails = 231
L2_cache_bank[5]: Access = 86765, Miss = 4265, Miss_rate = 0.049, Pending_hits = 28, Reservation_fails = 230
L2_cache_bank[6]: Access = 81278, Miss = 3619, Miss_rate = 0.045, Pending_hits = 68, Reservation_fails = 15
L2_cache_bank[7]: Access = 83758, Miss = 4144, Miss_rate = 0.049, Pending_hits = 77, Reservation_fails = 8
L2_cache_bank[8]: Access = 81655, Miss = 4162, Miss_rate = 0.051, Pending_hits = 32, Reservation_fails = 1
L2_cache_bank[9]: Access = 83943, Miss = 3905, Miss_rate = 0.047, Pending_hits = 28, Reservation_fails = 4
L2_cache_bank[10]: Access = 82191, Miss = 4195, Miss_rate = 0.051, Pending_hits = 78, Reservation_fails = 8
L2_cache_bank[11]: Access = 84397, Miss = 3727, Miss_rate = 0.044, Pending_hits = 95, Reservation_fails = 107
L2_total_cache_accesses = 993432
L2_total_cache_misses = 48338
L2_total_cache_miss_rate = 0.0487
L2_total_cache_pending_hits = 683
L2_total_cache_reservation_fails = 1312
L2_total_cache_breakdown:
	L2_cache_stats_breakdown[GLOBAL_ACC_R][HIT] = 713454
	L2_cache_stats_breakdown[GLOBAL_ACC_R][HIT_RESERVED] = 35
	L2_cache_stats_breakdown[GLOBAL_ACC_R][MISS] = 44390
	L2_cache_stats_breakdown[GLOBAL_ACC_R][RESERVATION_FAIL] = 604
	L2_cache_stats_breakdown[CONST_ACC_R][HIT] = 11
	L2_cache_stats_breakdown[CONST_ACC_R][HIT_RESERVED] = 3
	L2_cache_stats_breakdown[CONST_ACC_R][MISS] = 1
	L2_cache_stats_breakdown[CONST_ACC_R][RESERVATION_FAIL] = 109
	L2_cache_stats_breakdown[GLOBAL_ACC_W][HIT] = 230874
	L2_cache_stats_breakdown[GLOBAL_ACC_W][HIT_RESERVED] = 633
	L2_cache_stats_breakdown[GLOBAL_ACC_W][MISS] = 3941
	L2_cache_stats_breakdown[GLOBAL_ACC_W][RESERVATION_FAIL] = 232
	L2_cache_stats_breakdown[INST_ACC_R][HIT] = 72
	L2_cache_stats_breakdown[INST_ACC_R][HIT_RESERVED] = 12
	L2_cache_stats_breakdown[INST_ACC_R][MISS] = 6
	L2_cache_stats_breakdown[INST_ACC_R][RESERVATION_FAIL] = 367
L2_cache_data_port_util = 0.333
L2_cache_fill_port_util = 0.021

icnt_total_pkts_mem_to_simt=4025338
icnt_total_pkts_simt_to_mem=1229142
LD_mem_lat_dist  0 0 0 0 0 0 0 0 0 0 0 0 0 0 0 0 0 0 0 0 0 0 0 0 0 0 0
ST_mem_lat_dist  0 0 0 0 0 0 0 0 0 0 0 0 0 0 0 0 0 0 0 0 0 0 0 0 0 0 0
----------------------------Interconnect-DETAILS--------------------------------
Class 0:
Packet latency average = 8.466
	minimum = 6
	maximum = 26
Network latency average = 8.396
	minimum = 6
	maximum = 22
Slowest packet = 1986477
Flit latency average = 6.48533
	minimum = 6
	maximum = 18
Slowest flit = 5253289
Fragmentation average = 0
	minimum = 0
	maximum = 0
Injected packet rate average = 0.0104388
	minimum = 0.00901917 (at node 0)
	maximum = 0.0124014 (at node 16)
Accepted packet rate average = 0.0104388
	minimum = 0.00901917 (at node 0)
	maximum = 0.0124014 (at node 16)
Injected flit rate average = 0.0313165
	minimum = 0.00901917 (at node 0)
	maximum = 0.0620068 (at node 16)
Accepted flit rate average= 0.0313165
	minimum = 0.011274 (at node 15)
	maximum = 0.0563698 (at node 1)
Injected packet length average = 3
Accepted packet length average = 3
Total in-flight flits = 0 (0 measured)
====== Overall Traffic Statistics ======
====== Traffic class 0 ======
Packet latency average = 30.4887 (12 samples)
	minimum = 6 (12 samples)
	maximum = 248.833 (12 samples)
Network latency average = 20.0355 (12 samples)
	minimum = 6 (12 samples)
	maximum = 200.083 (12 samples)
Flit latency average = 18.0252 (12 samples)
	minimum = 6 (12 samples)
	maximum = 198.667 (12 samples)
Fragmentation average = 0.0177691 (12 samples)
	minimum = 0 (12 samples)
	maximum = 78.3333 (12 samples)
Injected packet rate average = 0.0558437 (12 samples)
	minimum = 0.0436605 (12 samples)
	maximum = 0.128296 (12 samples)
Accepted packet rate average = 0.0558437 (12 samples)
	minimum = 0.0436605 (12 samples)
	maximum = 0.128296 (12 samples)
Injected flit rate average = 0.121606 (12 samples)
	minimum = 0.0585818 (12 samples)
	maximum = 0.25081 (12 samples)
Accepted flit rate average = 0.121606 (12 samples)
	minimum = 0.0709246 (12 samples)
	maximum = 0.310145 (12 samples)
Injected packet size average = 2.17761 (12 samples)
Accepted packet size average = 2.17761 (12 samples)
Hops average = 1 (12 samples)
----------------------------END-of-Interconnect-DETAILS-------------------------


gpgpu_simulation_time = 0 days, 0 hrs, 5 min, 37 sec (337 sec)
gpgpu_simulation_rate = 39677 (inst/sec)
gpgpu_simulation_rate = 2306 (cycle/sec)
Kernel Executed 6 times
Result stored in result.txt
