

        *** GPGPU-Sim Simulator Version 3.2.2  [build 0] ***


GPGPU-Sim PTX: simulation mode 0 (can change with PTX_SIM_MODE_FUNC environment variable:
               1=functional simulation only, 0=detailed performance simulator)
GPGPU-Sim: Configuration options:

-network_mode                           1 # Interconnection network mode
-inter_config_file   config_fermi_islip.icnt # Interconnection network config file
-gpgpu_ptx_use_cuobjdump                    1 # Use cuobjdump to extract ptx and sass from binaries
-gpgpu_experimental_lib_support                    0 # Try to extract code from cuda libraries [Broken because of unknown cudaGetExportTable]
-gpgpu_ptx_convert_to_ptxplus                    0 # Convert SASS (native ISA) to ptxplus and run ptxplus
-gpgpu_ptx_force_max_capability                   20 # Force maximum compute capability
-gpgpu_ptx_inst_debug_to_file                    0 # Dump executed instructions' debug information to file
-gpgpu_ptx_inst_debug_file       inst_debug.txt # Executed instructions' debug output file
-gpgpu_ptx_inst_debug_thread_uid                    1 # Thread UID for executed instructions' debug output
-gpgpu_simd_model                       1 # 1 = post-dominator
-gpgpu_shader_core_pipeline              1536:32 # shader core pipeline config, i.e., {<nthread>:<warpsize>}
-gpgpu_tex_cache:l1  4:128:24,L:R:m:N:L,F:128:4,128:2 # per-shader L1 texture cache  (READ-ONLY) config  {<nsets>:<bsize>:<assoc>,<rep>:<wr>:<alloc>:<wr_alloc>,<mshr>:<N>:<merge>,<mq>:<rf>}
-gpgpu_const_cache:l1 64:64:2,L:R:f:N:L,A:2:32,4 # per-shader L1 constant memory cache  (READ-ONLY) config  {<nsets>:<bsize>:<assoc>,<rep>:<wr>:<alloc>:<wr_alloc>,<mshr>:<N>:<merge>,<mq>} 
-gpgpu_cache:il1     4:128:4,L:R:f:N:L,A:2:32,4 # shader L1 instruction cache config  {<nsets>:<bsize>:<assoc>,<rep>:<wr>:<alloc>:<wr_alloc>,<mshr>:<N>:<merge>,<mq>} 
-gpgpu_cache:dl1     32:128:4,L:L:m:N:H,A:32:8,8:2,0,1:0:1:1:0:1,1:4:8:16:32:64,/sciclone/data10/hwang07/GPU_RESEARCH/swl/swl_outputs/RESULTS/swl8/ # per-shader L1 data cache config  {<nsets>:<bsize>:<assoc>,<rep>:<wr>:<alloc>:<wr_alloc>,<mshr>:<N>:<merge>,<mq> | none}
-gpgpu_cache:dl1PrefL1                 none # per-shader L1 data cache config  {<nsets>:<bsize>:<assoc>,<rep>:<wr>:<alloc>:<wr_alloc>,<mshr>:<N>:<merge>,<mq> | none}
-gpgpu_cache:dl1PreShared                 none # per-shader L1 data cache config  {<nsets>:<bsize>:<assoc>,<rep>:<wr>:<alloc>:<wr_alloc>,<mshr>:<N>:<merge>,<mq> | none}
-gmem_skip_L1D                          0 # global memory access skip L1D cache (implements -Xptxas -dlcm=cg, default=no skip)
-gpgpu_perfect_mem                      0 # enable perfect memory mode (no cache miss)
-n_regfile_gating_group                    4 # group of lanes that should be read/written together)
-gpgpu_clock_gated_reg_file                    0 # enable clock gated reg file for power calculations
-gpgpu_clock_gated_lanes                    0 # enable clock gated lanes for power calculations
-gpgpu_shader_registers                32768 # Number of registers per shader core. Limits number of concurrent CTAs. (default 8192)
-gpgpu_shader_cta                       8 # Maximum number of concurrent CTAs in shader (default 8)
-gpgpu_num_cta_barriers                   16 # Maximum number of named barriers per CTA (default 16)
-gpgpu_n_clusters                      15 # number of processing clusters
-gpgpu_n_cores_per_cluster                    1 # number of simd cores per cluster
-gpgpu_n_cluster_ejection_buffer_size                    8 # number of packets in ejection buffer
-gpgpu_n_ldst_response_buffer_size                    2 # number of response packets in ld/st unit ejection buffer
-gpgpu_shmem_size                   16384 # Size of shared memory per shader core (default 16kB)
-gpgpu_shmem_size                   49152 # Size of shared memory per shader core (default 16kB)
-gpgpu_shmem_size_PrefL1                16384 # Size of shared memory per shader core (default 16kB)
-gpgpu_shmem_size_PrefShared                16384 # Size of shared memory per shader core (default 16kB)
-gpgpu_shmem_num_banks                   32 # Number of banks in the shared memory in each shader core (default 16)
-gpgpu_shmem_limited_broadcast                    0 # Limit shared memory to do one broadcast per cycle (default on)
-gpgpu_shmem_warp_parts                    1 # Number of portions a warp is divided into for shared memory bank conflict check 
-gpgpu_warpdistro_shader                   -1 # Specify which shader core to collect the warp size distribution from
-gpgpu_warp_issue_shader                    0 # Specify which shader core to collect the warp issue distribution from
-gpgpu_local_mem_map                    1 # Mapping from local memory space address to simulated GPU physical address space (default = enabled)
-gpgpu_num_reg_banks                   16 # Number of register banks (default = 8)
-gpgpu_reg_bank_use_warp_id                    0 # Use warp ID in mapping registers to banks (default = off)
-gpgpu_operand_collector_num_units_sp                    6 # number of collector units (default = 4)
-gpgpu_operand_collector_num_units_sfu                    8 # number of collector units (default = 4)
-gpgpu_operand_collector_num_units_mem                    2 # number of collector units (default = 2)
-gpgpu_operand_collector_num_units_gen                    0 # number of collector units (default = 0)
-gpgpu_operand_collector_num_in_ports_sp                    2 # number of collector unit in ports (default = 1)
-gpgpu_operand_collector_num_in_ports_sfu                    1 # number of collector unit in ports (default = 1)
-gpgpu_operand_collector_num_in_ports_mem                    1 # number of collector unit in ports (default = 1)
-gpgpu_operand_collector_num_in_ports_gen                    0 # number of collector unit in ports (default = 0)
-gpgpu_operand_collector_num_out_ports_sp                    2 # number of collector unit in ports (default = 1)
-gpgpu_operand_collector_num_out_ports_sfu                    1 # number of collector unit in ports (default = 1)
-gpgpu_operand_collector_num_out_ports_mem                    1 # number of collector unit in ports (default = 1)
-gpgpu_operand_collector_num_out_ports_gen                    0 # number of collector unit in ports (default = 0)
-gpgpu_coalesce_arch                   13 # Coalescing arch (default = 13, anything else is off for now)
-gpgpu_num_sched_per_core                    2 # Number of warp schedulers per core
-gpgpu_max_insn_issue_per_warp                    1 # Max number of instructions that can be issued per warp in one cycle by scheduler
-gpgpu_simt_core_sim_order                    1 # Select the simulation order of cores in a cluster (0=Fix, 1=Round-Robin)
-gpgpu_pipeline_widths        2,1,1,2,1,1,2 # Pipeline widths ID_OC_SP,ID_OC_SFU,ID_OC_MEM,OC_EX_SP,OC_EX_SFU,OC_EX_MEM,EX_WB
-gpgpu_num_sp_units                     2 # Number of SP units (default=1)
-gpgpu_num_sfu_units                    1 # Number of SF units (default=1)
-gpgpu_num_mem_units                    1 # Number if ldst units (default=1) WARNING: not hooked up to anything
-gpgpu_scheduler        warp_limiting:2:8 # Scheduler configuration: < lrr | gto | two_level_active > If two_level_active:<num_active_warps>:<inner_prioritization>:<outer_prioritization>For complete list of prioritization values see shader.h enum scheduler_prioritization_typeDefault: gto
-gpgpu_dram_scheduler                    1 # 0 = fifo, 1 = FR-FCFS (defaul)
-gpgpu_dram_partition_queues              8:8:8:8 # i2$:$2d:d2$:$2i
-l2_ideal                               0 # Use a ideal L2 cache that always hit
-gpgpu_cache:dl2     64:128:8,L:B:m:W:L,A:32:4,4:0,32 # unified banked L2 data cache config  {<nsets>:<bsize>:<assoc>,<rep>:<wr>:<alloc>:<wr_alloc>,<mshr>:<N>:<merge>,<mq>}
-gpgpu_cache:dl2_texture_only                    0 # L2 cache used for texture only
-gpgpu_n_mem                            6 # number of memory modules (e.g. memory controllers) in gpu
-gpgpu_n_sub_partition_per_mchannel                    2 # number of memory subpartition in each memory module
-gpgpu_n_mem_per_ctrlr                    2 # number of memory chips per memory controller
-gpgpu_memlatency_stat                   14 # track and display latency statistics 0x2 enables MC, 0x4 enables queue logs
-gpgpu_frfcfs_dram_sched_queue_size                   16 # 0 = unlimited (default); # entries per chip
-gpgpu_dram_return_queue_size                  116 # 0 = unlimited (default); # entries per chip
-gpgpu_dram_buswidth                    4 # default = 4 bytes (8 bytes per cycle at DDR)
-gpgpu_dram_burst_length                    8 # Burst length of each DRAM request (default = 4 data bus cycle)
-dram_data_command_freq_ratio                    4 # Frequency ratio between DRAM data bus and command bus (default = 2 times, i.e. DDR)
-gpgpu_dram_timing_opt nbk=16:CCD=2:RRD=6:RCD=12:RAS=28:RP=12:RC=40: CL=12:WL=4:CDLR=5:WR=12:nbkgrp=4:CCDL=3:RTPL=2 # DRAM timing parameters = {nbk:tCCD:tRRD:tRCD:tRAS:tRP:tRC:CL:WL:tCDLR:tWR:nbkgrp:tCCDL:tRTPL}
-rop_latency                          120 # ROP queue latency (default 85)
-dram_latency                         100 # DRAM latency (default 30)
-gpgpu_mem_addr_mapping dramid@8;00000000.00000000.00000000.00000000.0000RRRR.RRRRRRRR.BBBCCCCB.CCSSSSSS # mapping memory address to dram model {dramid@<start bit>;<memory address map>}
-gpgpu_mem_addr_test                    0 # run sweep test to check address mapping for aliased address
-gpgpu_mem_address_mask                    1 # 0 = old addressing mask, 1 = new addressing mask, 2 = new add. mask + flipped bank sel and chip sel bits
-gpuwattch_xml_file  gpuwattch_gtx480.xml # GPUWattch XML file
-power_simulation_enabled                    0 # Turn on power simulator (1=On, 0=Off)
-power_per_cycle_dump                    0 # Dump detailed power output each cycle
-power_trace_enabled                    0 # produce a file for the power trace (1=On, 0=Off)
-power_trace_zlevel                     6 # Compression level of the power trace output log (0=no comp, 9=highest)
-steady_power_levels_enabled                    0 # produce a file for the steady power levels (1=On, 0=Off)
-steady_state_definition                  8:4 # allowed deviation:number of samples
-gpgpu_max_cycle                        0 # terminates gpu simulation early (0 = no limit)
-gpgpu_max_insn                         0 # terminates gpu simulation early (0 = no limit)
-gpgpu_max_cta                          0 # terminates gpu simulation early (0 = no limit)
-gpgpu_runtime_stat                   500 # display runtime statistics such as dram utilization {<freq>:<flag>}
-liveness_message_freq                    1 # Minimum number of seconds between simulation liveness messages (0 = always print)
-gpgpu_flush_l1_cache                    0 # Flush L1 cache at the end of each kernel call
-gpgpu_flush_l2_cache                    0 # Flush L2 cache at the end of each kernel call
-gpgpu_deadlock_detect                    1 # Stop the simulation at deadlock (1=on (default), 0=off)
-gpgpu_ptx_instruction_classification                    0 # if enabled will classify ptx instruction types per kernel (Max 255 kernels now)
-gpgpu_ptx_sim_mode                     0 # Select between Performance (default) or Functional simulation (1)
-gpgpu_clock_domains 700.0:700.0:700.0:924.0 # Clock Domain Frequencies in MhZ {<Core Clock>:<ICNT Clock>:<L2 Clock>:<DRAM Clock>}
-gpgpu_max_concurrent_kernel                    8 # maximum kernels that can run concurrently on GPU
-gpgpu_cflog_interval                    0 # Interval between each snapshot in control flow logger
-visualizer_enabled                     0 # Turn on visualizer output (1=On, 0=Off)
-visualizer_outputfile                 NULL # Specifies the output log file for visualizer
-visualizer_zlevel                      6 # Compression level of the visualizer output log (0=no comp, 9=highest)
-trace_enabled                          0 # Turn on traces
-trace_components                    none # comma seperated list of traces to enable. Complete list found in trace_streams.tup. Default none
-trace_sampling_core                    0 # The core which is printed using CORE_DPRINTF. Default 0
-trace_sampling_memory_partition                   -1 # The memory partition which is printed using MEMPART_DPRINTF. Default -1 (i.e. all)
-enable_ptx_file_line_stats                    1 # Turn on PTX source line statistic profiling. (1 = On)
-ptx_line_stats_filename gpgpu_inst_stats.txt # Output file for PTX source line statistics.
-save_embedded_ptx                      0 # saves ptx files embedded in binary as <n>.ptx
-keep                                   0 # keep intermediate files created by GPGPU-Sim when interfacing with external programs
-gpgpu_ptx_save_converted_ptxplus                    0 # Saved converted ptxplus to a file
-ptx_opcode_latency_int         4,13,4,5,145 # Opcode latencies for integers <ADD,MAX,MUL,MAD,DIV>Default 1,1,19,25,145
-ptx_opcode_latency_fp          4,13,4,5,39 # Opcode latencies for single precision floating points <ADD,MAX,MUL,MAD,DIV>Default 1,1,1,1,30
-ptx_opcode_latency_dp         8,19,8,8,330 # Opcode latencies for double precision floating points <ADD,MAX,MUL,MAD,DIV>Default 8,8,8,8,335
-ptx_opcode_initiation_int            1,2,2,1,8 # Opcode initiation intervals for integers <ADD,MAX,MUL,MAD,DIV>Default 1,1,4,4,32
-ptx_opcode_initiation_fp            1,2,1,1,4 # Opcode initiation intervals for single precision floating points <ADD,MAX,MUL,MAD,DIV>Default 1,1,1,1,5
-ptx_opcode_initiation_dp         8,16,8,8,130 # Opcode initiation intervals for double precision floating points <ADD,MAX,MUL,MAD,DIV>Default 8,8,8,8,130
DRAM Timing Options:
nbk                                    16 # number of banks
CCD                                     2 # column to column delay
RRD                                     6 # minimal delay between activation of rows in different banks
RCD                                    12 # row to column delay
RAS                                    28 # time needed to activate row
RP                                     12 # time needed to precharge (deactivate) row
RC                                     40 # row cycle time
CDLR                                    5 # switching from write to read (changes tWTR)
WR                                     12 # last data-in to row precharge
CL                                     12 # CAS latency
WL                                      4 # Write latency
nbkgrp                                  4 # number of bank groups
CCDL                                    3 # column to column delay between accesses to different bank groups
RTPL                                    2 # read to precharge delay between accesses to different bank groups
Total number of memory sub partition = 12
addr_dec_mask[CHIP]  = 0000000000000000 	high:64 low:0
addr_dec_mask[BK]    = 000000000000e100 	high:16 low:8
addr_dec_mask[ROW]   = 000000000fff0000 	high:28 low:16
addr_dec_mask[COL]   = 0000000000001eff 	high:13 low:0
addr_dec_mask[BURST] = 000000000000003f 	high:6 low:0
sub_partition_id_mask = 0000000000000100
GPGPU-Sim uArch: clock freqs: 700000000.000000:700000000.000000:700000000.000000:924000000.000000
GPGPU-Sim uArch: clock periods: 0.00000000142857142857:0.00000000142857142857:0.00000000142857142857:0.00000000108225108225
*** Initializing Memory Statistics ***
GPGPU-Sim uArch: interconnect node map (shaderID+MemID to icntID)
GPGPU-Sim uArch: Memory nodes ID start from index: 15
GPGPU-Sim uArch:    0   1   2   3   4
GPGPU-Sim uArch:    5   6   7   8   9
GPGPU-Sim uArch:   10  11  12  13  14
GPGPU-Sim uArch:   15  16  17  18  19
GPGPU-Sim uArch:   20  21  22  23  24
GPGPU-Sim uArch:   25  26
GPGPU-Sim uArch: interconnect node reverse map (icntID to shaderID+MemID)
GPGPU-Sim uArch: Memory nodes start from ID: 15
GPGPU-Sim uArch:    0   1   2   3   4
GPGPU-Sim uArch:    5   6   7   8   9
GPGPU-Sim uArch:   10  11  12  13  14
GPGPU-Sim uArch:   15  16  17  18  19
GPGPU-Sim uArch:   20  21  22  23  24
GPGPU-Sim uArch:   25  26
af04f0b458cb08397a3295dafdcb0262  /sciclone/data10/hwang07/adwait/applications/benchmarks/CUDA/TRA/gpgpu_ptx_sim__TRA
GPGPU-Sim uArch: performance model initialization complete.
GPGPU-Sim PTX: __cudaRegisterFatBinary, fat_cubin_handle = 1, filename=transpose.cu
self exe links to: /sciclone/data10/hwang07/adwait/applications/benchmarks/CUDA/TRA/gpgpu_ptx_sim__TRA
Running md5sum using "md5sum /sciclone/data10/hwang07/adwait/applications/benchmarks/CUDA/TRA/gpgpu_ptx_sim__TRA "
Parsing file _cuobjdump_complete_output_PwLuRR
######### cuobjdump parser ########
## Adding new section ELF
Adding arch: sm_20
Adding identifier: transpose.cu
## Adding new section PTX
Adding ptx filename: _cuobjdump_1.ptx
Adding arch: sm_20
Adding identifier: transpose.cu
Done parsing!!!
GPGPU-Sim PTX: __cudaRegisterFunction _Z15transpose_naivePfS_ii : hostFun 0x0x404f49, fat_cubin_handle = 1
GPGPU-Sim PTX: allocating shared region for "__cuda___cuda_local_var_42235_32_non_const_block24" from 0x0 to 0x440 (shared memory space)
GPGPU-Sim PTX: instruction assembly for function '_Z9transposePfS_ii'...   done.
GPGPU-Sim PTX: finding reconvergence points for '_Z9transposePfS_ii'...
GPGPU-Sim PTX: Finding dominators for '_Z9transposePfS_ii'...
GPGPU-Sim PTX: Finding immediate dominators for '_Z9transposePfS_ii'...
GPGPU-Sim PTX: Finding postdominators for '_Z9transposePfS_ii'...
GPGPU-Sim PTX: Finding immediate postdominators for '_Z9transposePfS_ii'...
GPGPU-Sim PTX: pre-decoding instructions for '_Z9transposePfS_ii'...
GPGPU-Sim PTX: reconvergence points for _Z9transposePfS_ii...
GPGPU-Sim PTX:  1 (potential) branch divergence @  PC=0x088 (_1.ptx:81) @%p1 bra $Lt_0_2306;
GPGPU-Sim PTX:    immediate post dominator      @  PC=0x108 (_1.ptx:99) mov.u64 %rd1, __cuda___cuda_local_var_42235_32_non_const_block24;
GPGPU-Sim PTX:  2 (potential) branch divergence @  PC=0x160 (_1.ptx:111) @%p2 bra $Lt_0_2818;
GPGPU-Sim PTX:    immediate post dominator      @  PC=0x1d8 (_1.ptx:129) exit;
GPGPU-Sim PTX: ... end of reconvergence points for _Z9transposePfS_ii
GPGPU-Sim PTX: ... done pre-decoding instructions for '_Z9transposePfS_ii'.
GPGPU-Sim PTX: instruction assembly for function '_Z15transpose_naivePfS_ii'...   done.
GPGPU-Sim PTX: finding reconvergence points for '_Z15transpose_naivePfS_ii'...
GPGPU-Sim PTX: Finding dominators for '_Z15transpose_naivePfS_ii'...
GPGPU-Sim PTX: Finding immediate dominators for '_Z15transpose_naivePfS_ii'...
GPGPU-Sim PTX: Finding postdominators for '_Z15transpose_naivePfS_ii'...
GPGPU-Sim PTX: Finding immediate postdominators for '_Z15transpose_naivePfS_ii'...
GPGPU-Sim PTX: pre-decoding instructions for '_Z15transpose_naivePfS_ii'...
GPGPU-Sim PTX: reconvergence points for _Z15transpose_naivePfS_ii...
GPGPU-Sim PTX:  1 (potential) branch divergence @  PC=0x278 (_1.ptx:164) @%p1 bra $Lt_1_1282;
GPGPU-Sim PTX:    immediate post dominator      @  PC=0x2f0 (_1.ptx:182) exit;
GPGPU-Sim PTX: ... end of reconvergence points for _Z15transpose_naivePfS_ii
GPGPU-Sim PTX: ... done pre-decoding instructions for '_Z15transpose_naivePfS_ii'.
GPGPU-Sim PTX: finished parsing EMBEDDED .ptx file _1.ptx
Adding _cuobjdump_1.ptx with cubin handle 1
GPGPU-Sim PTX: extracting embedded .ptx to temporary file "_ptx_SrQxUg"
Running: cat _ptx_SrQxUg | sed 's/.version 1.5/.version 1.4/' | sed 's/, texmode_independent//' | sed 's/\(\.extern \.const\[1\] .b8 \w\+\)\[\]/\1\[1\]/' | sed 's/const\[.\]/const\[0\]/g' > _ptx2_MB4aKG
GPGPU-Sim PTX: generating ptxinfo using "$CUDA_INSTALL_PATH/bin/ptxas --gpu-name=sm_20 -v _ptx2_MB4aKG --output-file  /dev/null 2> _ptx_SrQxUginfo"
GPGPU-Sim PTX: Kernel '_Z15transpose_naivePfS_ii' : regs=8, lmem=0, smem=0, cmem=56
GPGPU-Sim PTX: Kernel '_Z9transposePfS_ii' : regs=9, lmem=0, smem=1088, cmem=56
GPGPU-Sim PTX: removing ptxinfo using "rm -f _ptx_SrQxUg _ptx2_MB4aKG _ptx_SrQxUginfo"
GPGPU-Sim PTX: loading globals with explicit initializers... 
GPGPU-Sim PTX: finished loading globals (0 bytes total).
GPGPU-Sim PTX: loading constants with explicit initializers...  done.
GPGPU-Sim PTX: __cudaRegisterFunction _Z9transposePfS_ii : hostFun 0x0x404e59, fat_cubin_handle = 1

GPGPU-Sim PTX: cudaLaunch for 0x0x404f49 (mode=performance simulation) on stream 0
GPGPU-Sim PTX: pushing kernel '_Z15transpose_naivePfS_ii' to stream 0, gridDim= (16,256,1) blockDim = (16,16,1) 
kernel '_Z15transpose_naivePfS_ii' transfer to GPU hardware scheduler
GPGPU-Sim uArch: Shader 1 bind to kernel 1 '_Z15transpose_naivePfS_ii'
GPGPU-Sim uArch: CTA/core = 6, limited by: threads
GPGPU-Sim uArch: core:  1, cta: 0 initialized @(1,0)
GPGPU-Sim uArch: Shader 2 bind to kernel 1 '_Z15transpose_naivePfS_ii'
GPGPU-Sim uArch: core:  2, cta: 0 initialized @(1,0)
GPGPU-Sim uArch: Shader 3 bind to kernel 1 '_Z15transpose_naivePfS_ii'
GPGPU-Sim uArch: core:  3, cta: 0 initialized @(1,0)
GPGPU-Sim uArch: Shader 4 bind to kernel 1 '_Z15transpose_naivePfS_ii'
GPGPU-Sim uArch: core:  4, cta: 0 initialized @(1,0)
GPGPU-Sim uArch: Shader 5 bind to kernel 1 '_Z15transpose_naivePfS_ii'
GPGPU-Sim uArch: core:  5, cta: 0 initialized @(1,0)
GPGPU-Sim uArch: Shader 6 bind to kernel 1 '_Z15transpose_naivePfS_ii'
GPGPU-Sim uArch: core:  6, cta: 0 initialized @(1,0)
GPGPU-Sim uArch: Shader 7 bind to kernel 1 '_Z15transpose_naivePfS_ii'
GPGPU-Sim uArch: core:  7, cta: 0 initialized @(1,0)
GPGPU-Sim uArch: Shader 8 bind to kernel 1 '_Z15transpose_naivePfS_ii'
GPGPU-Sim uArch: core:  8, cta: 0 initialized @(1,0)
GPGPU-Sim uArch: Shader 9 bind to kernel 1 '_Z15transpose_naivePfS_ii'
GPGPU-Sim uArch: core:  9, cta: 0 initialized @(1,0)
GPGPU-Sim uArch: Shader 10 bind to kernel 1 '_Z15transpose_naivePfS_ii'
GPGPU-Sim uArch: core: 10, cta: 0 initialized @(1,0)
GPGPU-Sim uArch: Shader 11 bind to kernel 1 '_Z15transpose_naivePfS_ii'
GPGPU-Sim uArch: core: 11, cta: 0 initialized @(1,0)
GPGPU-Sim uArch: Shader 12 bind to kernel 1 '_Z15transpose_naivePfS_ii'
GPGPU-Sim uArch: core: 12, cta: 0 initialized @(1,0)
GPGPU-Sim uArch: Shader 13 bind to kernel 1 '_Z15transpose_naivePfS_ii'
GPGPU-Sim uArch: core: 13, cta: 0 initialized @(1,0)
GPGPU-Sim uArch: Shader 14 bind to kernel 1 '_Z15transpose_naivePfS_ii'
GPGPU-Sim uArch: core: 14, cta: 0 initialized @(1,0)
GPGPU-Sim uArch: Shader 0 bind to kernel 1 '_Z15transpose_naivePfS_ii'
GPGPU-Sim uArch: core:  0, cta: 0 initialized @(1,0)
GPGPU-Sim uArch: core:  1, cta: 1 initialized @(2,0)
GPGPU-Sim uArch: core:  2, cta: 1 initialized @(2,0)
GPGPU-Sim uArch: core:  3, cta: 1 initialized @(2,0)
GPGPU-Sim uArch: core:  4, cta: 1 initialized @(2,0)
GPGPU-Sim uArch: core:  5, cta: 1 initialized @(2,0)
GPGPU-Sim uArch: core:  6, cta: 1 initialized @(2,0)
GPGPU-Sim uArch: core:  7, cta: 1 initialized @(2,0)
GPGPU-Sim uArch: core:  8, cta: 1 initialized @(2,0)
GPGPU-Sim uArch: core:  9, cta: 1 initialized @(2,0)
GPGPU-Sim uArch: core: 10, cta: 1 initialized @(2,0)
GPGPU-Sim uArch: core: 11, cta: 1 initialized @(2,0)
GPGPU-Sim uArch: core: 12, cta: 1 initialized @(2,0)
GPGPU-Sim uArch: core: 13, cta: 1 initialized @(2,0)
GPGPU-Sim uArch: core: 14, cta: 1 initialized @(2,0)
GPGPU-Sim uArch: core:  0, cta: 1 initialized @(2,0)
GPGPU-Sim uArch: core:  1, cta: 2 initialized @(3,0)
GPGPU-Sim uArch: core:  2, cta: 2 initialized @(3,0)
GPGPU-Sim uArch: core:  3, cta: 2 initialized @(3,0)
GPGPU-Sim uArch: core:  4, cta: 2 initialized @(3,0)
GPGPU-Sim uArch: core:  5, cta: 2 initialized @(3,0)
GPGPU-Sim uArch: core:  6, cta: 2 initialized @(3,0)
GPGPU-Sim uArch: core:  7, cta: 2 initialized @(3,0)
GPGPU-Sim uArch: core:  8, cta: 2 initialized @(3,0)
GPGPU-Sim uArch: core:  9, cta: 2 initialized @(3,0)
GPGPU-Sim uArch: core: 10, cta: 2 initialized @(3,0)
GPGPU-Sim uArch: core: 11, cta: 2 initialized @(3,0)
GPGPU-Sim uArch: core: 12, cta: 2 initialized @(3,0)
GPGPU-Sim uArch: core: 13, cta: 2 initialized @(3,0)
GPGPU-Sim uArch: core: 14, cta: 2 initialized @(3,0)
GPGPU-Sim uArch: core:  0, cta: 2 initialized @(3,0)
GPGPU-Sim uArch: core:  1, cta: 3 initialized @(4,0)
GPGPU-Sim uArch: core:  2, cta: 3 initialized @(4,0)
GPGPU-Sim uArch: core:  3, cta: 3 initialized @(4,0)
GPGPU-Sim uArch: core:  4, cta: 3 initialized @(4,0)
GPGPU-Sim uArch: core:  5, cta: 3 initialized @(4,0)
GPGPU-Sim uArch: core:  6, cta: 3 initialized @(4,0)
GPGPU-Sim uArch: core:  7, cta: 3 initialized @(4,0)
GPGPU-Sim uArch: core:  8, cta: 3 initialized @(4,0)
GPGPU-Sim uArch: core:  9, cta: 3 initialized @(4,0)
GPGPU-Sim uArch: core: 10, cta: 3 initialized @(4,0)
GPGPU-Sim uArch: core: 11, cta: 3 initialized @(4,0)
GPGPU-Sim uArch: core: 12, cta: 3 initialized @(4,0)
GPGPU-Sim uArch: core: 13, cta: 3 initialized @(4,0)
GPGPU-Sim uArch: core: 14, cta: 3 initialized @(4,0)
GPGPU-Sim uArch: core:  0, cta: 3 initialized @(4,0)
GPGPU-Sim uArch: core:  1, cta: 4 initialized @(5,0)
GPGPU-Sim uArch: core:  2, cta: 4 initialized @(5,0)
GPGPU-Sim uArch: core:  3, cta: 4 initialized @(5,0)
GPGPU-Sim uArch: core:  4, cta: 4 initialized @(5,0)
GPGPU-Sim uArch: core:  5, cta: 4 initialized @(5,0)
GPGPU-Sim uArch: core:  6, cta: 4 initialized @(5,0)
GPGPU-Sim uArch: core:  7, cta: 4 initialized @(5,0)
GPGPU-Sim uArch: core:  8, cta: 4 initialized @(5,0)
GPGPU-Sim uArch: core:  9, cta: 4 initialized @(5,0)
GPGPU-Sim uArch: core: 10, cta: 4 initialized @(5,0)
GPGPU-Sim uArch: core: 11, cta: 4 initialized @(5,0)
GPGPU-Sim uArch: core: 12, cta: 4 initialized @(5,0)
GPGPU-Sim uArch: core: 13, cta: 4 initialized @(5,0)
GPGPU-Sim uArch: core: 14, cta: 4 initialized @(5,0)
GPGPU-Sim uArch: core:  0, cta: 4 initialized @(5,0)
GPGPU-Sim uArch: core:  1, cta: 5 initialized @(6,0)
GPGPU-Sim uArch: core:  2, cta: 5 initialized @(6,0)
GPGPU-Sim uArch: core:  3, cta: 5 initialized @(6,0)
GPGPU-Sim uArch: core:  4, cta: 5 initialized @(6,0)
GPGPU-Sim uArch: core:  5, cta: 5 initialized @(6,0)
GPGPU-Sim uArch: core:  6, cta: 5 initialized @(6,0)
GPGPU-Sim uArch: core:  7, cta: 5 initialized @(6,0)
GPGPU-Sim uArch: core:  8, cta: 5 initialized @(6,0)
GPGPU-Sim uArch: core:  9, cta: 5 initialized @(6,0)
GPGPU-Sim uArch: core: 10, cta: 5 initialized @(6,0)
GPGPU-Sim uArch: core: 11, cta: 5 initialized @(6,0)
GPGPU-Sim uArch: core: 12, cta: 5 initialized @(6,0)
GPGPU-Sim uArch: core: 13, cta: 5 initialized @(6,0)
GPGPU-Sim uArch: core: 14, cta: 5 initialized @(6,0)
GPGPU-Sim uArch: core:  0, cta: 5 initialized @(6,0)
GPGPU-Sim uArch: cycles simulated: 500  inst.: 30720 (ipc=61.4) sim_rate=6144 (inst/sec) elapsed = 0:0:00:05 / Tue Mar 22 12:49:07 2016
GPGPU-Sim PTX: 100000 instructions simulated : ctaid=(6,0,0) tid=(15,3,0)
GPGPU-Sim uArch: cycles simulated: 1000  inst.: 125056 (ipc=125.1) sim_rate=20842 (inst/sec) elapsed = 0:0:00:06 / Tue Mar 22 12:49:08 2016
GPGPU-Sim PTX: 200000 instructions simulated : ctaid=(2,1,0) tid=(15,5,0)
GPGPU-Sim uArch: cycles simulated: 2500  inst.: 272192 (ipc=108.9) sim_rate=38884 (inst/sec) elapsed = 0:0:00:07 / Tue Mar 22 12:49:09 2016
GPGPU-Sim PTX: 300000 instructions simulated : ctaid=(12,0,0) tid=(15,1,0)
GPGPU-Sim uArch: cycles simulated: 4000  inst.: 290688 (ipc=72.7) sim_rate=36336 (inst/sec) elapsed = 0:0:00:08 / Tue Mar 22 12:49:10 2016
GPGPU-Sim uArch: cycles simulated: 6000  inst.: 303616 (ipc=50.6) sim_rate=33735 (inst/sec) elapsed = 0:0:00:09 / Tue Mar 22 12:49:11 2016
GPGPU-Sim uArch: cycles simulated: 8000  inst.: 316768 (ipc=39.6) sim_rate=31676 (inst/sec) elapsed = 0:0:00:10 / Tue Mar 22 12:49:12 2016
GPGPU-Sim uArch: cycles simulated: 9500  inst.: 329056 (ipc=34.6) sim_rate=29914 (inst/sec) elapsed = 0:0:00:11 / Tue Mar 22 12:49:13 2016
GPGPU-Sim uArch: cycles simulated: 11000  inst.: 355616 (ipc=32.3) sim_rate=29634 (inst/sec) elapsed = 0:0:00:12 / Tue Mar 22 12:49:14 2016
GPGPU-Sim uArch: Shader 0 finished CTA #0 (12298,0), 5 CTAs running
GPGPU-Sim uArch: core:  0, cta: 0 initialized @(12299,0)
GPGPU-Sim uArch: Shader 13 finished CTA #0 (12447,0), 5 CTAs running
GPGPU-Sim uArch: core: 13, cta: 0 initialized @(12448,0)
GPGPU-Sim uArch: Shader 2 finished CTA #0 (12450,0), 5 CTAs running
GPGPU-Sim uArch: core:  2, cta: 0 initialized @(12451,0)
GPGPU-Sim uArch: cycles simulated: 12500  inst.: 385216 (ipc=30.8) sim_rate=29632 (inst/sec) elapsed = 0:0:00:13 / Tue Mar 22 12:49:15 2016
GPGPU-Sim PTX: 400000 instructions simulated : ctaid=(5,4,0) tid=(15,1,0)
GPGPU-Sim uArch: Shader 3 finished CTA #0 (12929,0), 5 CTAs running
GPGPU-Sim uArch: core:  3, cta: 0 initialized @(12930,0)
GPGPU-Sim uArch: Shader 6 finished CTA #0 (12971,0), 5 CTAs running
GPGPU-Sim uArch: core:  6, cta: 0 initialized @(12972,0)
GPGPU-Sim uArch: Shader 5 finished CTA #0 (13235,0), 5 CTAs running
GPGPU-Sim uArch: core:  5, cta: 0 initialized @(13236,0)
GPGPU-Sim uArch: Shader 4 finished CTA #0 (13237,0), 5 CTAs running
GPGPU-Sim uArch: core:  4, cta: 0 initialized @(13238,0)
GPGPU-Sim uArch: Shader 9 finished CTA #0 (13263,0), 5 CTAs running
GPGPU-Sim uArch: core:  9, cta: 0 initialized @(13264,0)
GPGPU-Sim uArch: Shader 7 finished CTA #0 (13272,0), 5 CTAs running
GPGPU-Sim uArch: core:  7, cta: 0 initialized @(13273,0)
GPGPU-Sim uArch: Shader 12 finished CTA #0 (13318,0), 5 CTAs running
GPGPU-Sim uArch: core: 12, cta: 0 initialized @(13319,0)
GPGPU-Sim uArch: Shader 1 finished CTA #0 (13359,0), 5 CTAs running
GPGPU-Sim uArch: core:  1, cta: 0 initialized @(13360,0)
GPGPU-Sim uArch: Shader 11 finished CTA #0 (13564,0), 5 CTAs running
GPGPU-Sim uArch: core: 11, cta: 0 initialized @(13565,0)
GPGPU-Sim uArch: Shader 14 finished CTA #0 (13612,0), 5 CTAs running
GPGPU-Sim uArch: core: 14, cta: 0 initialized @(13613,0)
GPGPU-Sim uArch: Shader 8 finished CTA #0 (13750,0), 5 CTAs running
GPGPU-Sim uArch: core:  8, cta: 0 initialized @(13751,0)
GPGPU-Sim uArch: cycles simulated: 14000  inst.: 406336 (ipc=29.0) sim_rate=29024 (inst/sec) elapsed = 0:0:00:14 / Tue Mar 22 12:49:16 2016
GPGPU-Sim uArch: Shader 10 finished CTA #0 (14056,0), 5 CTAs running
GPGPU-Sim uArch: core: 10, cta: 0 initialized @(14057,0)
GPGPU-Sim uArch: cycles simulated: 15000  inst.: 421408 (ipc=28.1) sim_rate=28093 (inst/sec) elapsed = 0:0:00:15 / Tue Mar 22 12:49:17 2016
GPGPU-Sim uArch: cycles simulated: 16500  inst.: 446368 (ipc=27.1) sim_rate=27898 (inst/sec) elapsed = 0:0:00:16 / Tue Mar 22 12:49:18 2016
GPGPU-Sim uArch: Shader 0 finished CTA #1 (16569,0), 5 CTAs running
GPGPU-Sim uArch: core:  0, cta: 1 initialized @(16570,0)
GPGPU-Sim uArch: Shader 7 finished CTA #1 (17940,0), 5 CTAs running
GPGPU-Sim uArch: core:  7, cta: 1 initialized @(17941,0)
GPGPU-Sim uArch: cycles simulated: 18000  inst.: 472992 (ipc=26.3) sim_rate=27823 (inst/sec) elapsed = 0:0:00:17 / Tue Mar 22 12:49:19 2016
GPGPU-Sim PTX: 500000 instructions simulated : ctaid=(3,3,0) tid=(15,13,0)
GPGPU-Sim uArch: Shader 3 finished CTA #1 (18397,0), 5 CTAs running
GPGPU-Sim uArch: core:  3, cta: 1 initialized @(18398,0)
GPGPU-Sim uArch: Shader 12 finished CTA #1 (18508,0), 5 CTAs running
GPGPU-Sim uArch: core: 12, cta: 1 initialized @(18509,0)
GPGPU-Sim uArch: Shader 13 finished CTA #1 (18513,0), 5 CTAs running
GPGPU-Sim uArch: core: 13, cta: 1 initialized @(18514,0)
GPGPU-Sim uArch: Shader 9 finished CTA #1 (18656,0), 5 CTAs running
GPGPU-Sim uArch: core:  9, cta: 1 initialized @(18657,0)
GPGPU-Sim uArch: Shader 4 finished CTA #1 (18728,0), 5 CTAs running
GPGPU-Sim uArch: core:  4, cta: 1 initialized @(18729,0)
GPGPU-Sim uArch: Shader 8 finished CTA #1 (18800,0), 5 CTAs running
GPGPU-Sim uArch: core:  8, cta: 1 initialized @(18801,0)
GPGPU-Sim uArch: Shader 11 finished CTA #1 (18856,0), 5 CTAs running
GPGPU-Sim uArch: core: 11, cta: 1 initialized @(18857,0)
GPGPU-Sim uArch: Shader 1 finished CTA #1 (19002,0), 5 CTAs running
GPGPU-Sim uArch: core:  1, cta: 1 initialized @(19003,0)
GPGPU-Sim uArch: Shader 10 finished CTA #1 (19105,0), 5 CTAs running
GPGPU-Sim uArch: core: 10, cta: 1 initialized @(19106,0)
GPGPU-Sim uArch: Shader 14 finished CTA #1 (19148,0), 5 CTAs running
GPGPU-Sim uArch: core: 14, cta: 1 initialized @(19149,0)
GPGPU-Sim uArch: cycles simulated: 19500  inst.: 516544 (ipc=26.5) sim_rate=28696 (inst/sec) elapsed = 0:0:00:18 / Tue Mar 22 12:49:20 2016
GPGPU-Sim uArch: Shader 6 finished CTA #1 (19939,0), 5 CTAs running
GPGPU-Sim uArch: core:  6, cta: 1 initialized @(19940,0)
GPGPU-Sim uArch: Shader 2 finished CTA #1 (20430,0), 5 CTAs running
GPGPU-Sim uArch: core:  2, cta: 1 initialized @(20431,0)
GPGPU-Sim uArch: cycles simulated: 21000  inst.: 549024 (ipc=26.1) sim_rate=28896 (inst/sec) elapsed = 0:0:00:19 / Tue Mar 22 12:49:21 2016
GPGPU-Sim PTX: 600000 instructions simulated : ctaid=(6,5,0) tid=(15,5,0)
GPGPU-Sim uArch: cycles simulated: 22500  inst.: 588544 (ipc=26.2) sim_rate=29427 (inst/sec) elapsed = 0:0:00:20 / Tue Mar 22 12:49:22 2016
GPGPU-Sim uArch: cycles simulated: 23500  inst.: 624352 (ipc=26.6) sim_rate=29731 (inst/sec) elapsed = 0:0:00:21 / Tue Mar 22 12:49:23 2016
GPGPU-Sim uArch: Shader 5 finished CTA #1 (23510,0), 5 CTAs running
GPGPU-Sim uArch: core:  5, cta: 1 initialized @(23511,0)
GPGPU-Sim PTX: 700000 instructions simulated : ctaid=(1,7,0) tid=(15,1,0)
GPGPU-Sim uArch: cycles simulated: 25000  inst.: 684032 (ipc=27.4) sim_rate=31092 (inst/sec) elapsed = 0:0:00:22 / Tue Mar 22 12:49:24 2016
GPGPU-Sim uArch: Shader 12 finished CTA #2 (25358,0), 5 CTAs running
GPGPU-Sim uArch: core: 12, cta: 2 initialized @(25359,0)
GPGPU-Sim uArch: Shader 0 finished CTA #2 (25458,0), 5 CTAs running
GPGPU-Sim uArch: core:  0, cta: 2 initialized @(25459,0)
GPGPU-Sim uArch: Shader 14 finished CTA #2 (25497,0), 5 CTAs running
GPGPU-Sim uArch: core: 14, cta: 2 initialized @(25498,0)
GPGPU-Sim uArch: Shader 11 finished CTA #2 (25992,0), 5 CTAs running
GPGPU-Sim uArch: core: 11, cta: 2 initialized @(25993,0)
GPGPU-Sim uArch: cycles simulated: 26000  inst.: 727008 (ipc=28.0) sim_rate=31609 (inst/sec) elapsed = 0:0:00:23 / Tue Mar 22 12:49:25 2016
GPGPU-Sim uArch: Shader 13 finished CTA #2 (26425,0), 5 CTAs running
GPGPU-Sim uArch: core: 13, cta: 2 initialized @(26426,0)
GPGPU-Sim uArch: Shader 9 finished CTA #2 (26500,0), 5 CTAs running
GPGPU-Sim uArch: core:  9, cta: 2 initialized @(26501,0)
GPGPU-Sim uArch: Shader 7 finished CTA #2 (26662,0), 5 CTAs running
GPGPU-Sim uArch: core:  7, cta: 2 initialized @(26663,0)
GPGPU-Sim PTX: 800000 instructions simulated : ctaid=(10,6,0) tid=(15,9,0)
GPGPU-Sim uArch: Shader 3 finished CTA #2 (26891,0), 5 CTAs running
GPGPU-Sim uArch: core:  3, cta: 2 initialized @(26892,0)
GPGPU-Sim uArch: Shader 2 finished CTA #2 (27161,0), 5 CTAs running
GPGPU-Sim uArch: core:  2, cta: 2 initialized @(27162,0)
GPGPU-Sim uArch: Shader 14 finished CTA #3 (27178,0), 5 CTAs running
GPGPU-Sim uArch: core: 14, cta: 3 initialized @(27179,0)
GPGPU-Sim uArch: Shader 4 finished CTA #2 (27270,0), 5 CTAs running
GPGPU-Sim uArch: core:  4, cta: 2 initialized @(27271,0)
GPGPU-Sim uArch: cycles simulated: 27500  inst.: 794496 (ipc=28.9) sim_rate=33104 (inst/sec) elapsed = 0:0:00:24 / Tue Mar 22 12:49:26 2016
GPGPU-Sim uArch: Shader 10 finished CTA #2 (27599,0), 5 CTAs running
GPGPU-Sim uArch: core: 10, cta: 2 initialized @(27600,0)
GPGPU-Sim uArch: Shader 6 finished CTA #2 (28202,0), 5 CTAs running
GPGPU-Sim uArch: core:  6, cta: 2 initialized @(28203,0)
GPGPU-Sim uArch: Shader 0 finished CTA #3 (28349,0), 5 CTAs running
GPGPU-Sim uArch: core:  0, cta: 3 initialized @(28350,0)
GPGPU-Sim uArch: Shader 6 finished CTA #3 (28513,0), 5 CTAs running
GPGPU-Sim uArch: core:  6, cta: 3 initialized @(28514,0)
GPGPU-Sim uArch: cycles simulated: 29000  inst.: 826784 (ipc=28.5) sim_rate=33071 (inst/sec) elapsed = 0:0:00:25 / Tue Mar 22 12:49:27 2016
GPGPU-Sim uArch: Shader 11 finished CTA #3 (29389,0), 5 CTAs running
GPGPU-Sim uArch: core: 11, cta: 3 initialized @(29390,0)
GPGPU-Sim uArch: Shader 1 finished CTA #2 (29680,0), 5 CTAs running
GPGPU-Sim uArch: core:  1, cta: 2 initialized @(29681,0)
GPGPU-Sim uArch: cycles simulated: 30000  inst.: 860384 (ipc=28.7) sim_rate=33091 (inst/sec) elapsed = 0:0:00:26 / Tue Mar 22 12:49:28 2016
GPGPU-Sim PTX: 900000 instructions simulated : ctaid=(0,8,0) tid=(15,1,0)
GPGPU-Sim uArch: Shader 9 finished CTA #3 (30441,0), 5 CTAs running
GPGPU-Sim uArch: core:  9, cta: 3 initialized @(30442,0)
GPGPU-Sim uArch: cycles simulated: 31500  inst.: 888128 (ipc=28.2) sim_rate=32893 (inst/sec) elapsed = 0:0:00:27 / Tue Mar 22 12:49:29 2016
GPGPU-Sim uArch: Shader 2 finished CTA #3 (31543,0), 5 CTAs running
GPGPU-Sim uArch: core:  2, cta: 3 initialized @(31544,0)
GPGPU-Sim uArch: Shader 8 finished CTA #2 (32361,0), 5 CTAs running
GPGPU-Sim uArch: core:  8, cta: 2 initialized @(32362,0)
GPGPU-Sim uArch: Shader 5 finished CTA #2 (32612,0), 5 CTAs running
GPGPU-Sim uArch: core:  5, cta: 2 initialized @(32613,0)
GPGPU-Sim uArch: Shader 8 finished CTA #3 (32924,0), 5 CTAs running
GPGPU-Sim uArch: core:  8, cta: 3 initialized @(32925,0)
GPGPU-Sim uArch: cycles simulated: 33000  inst.: 928960 (ipc=28.2) sim_rate=33177 (inst/sec) elapsed = 0:0:00:28 / Tue Mar 22 12:49:30 2016
GPGPU-Sim uArch: Shader 5 finished CTA #3 (33127,0), 5 CTAs running
GPGPU-Sim uArch: core:  5, cta: 3 initialized @(33128,0)
GPGPU-Sim uArch: Shader 1 finished CTA #3 (33273,0), 5 CTAs running
GPGPU-Sim uArch: core:  1, cta: 3 initialized @(33274,0)
GPGPU-Sim uArch: Shader 12 finished CTA #3 (33547,0), 5 CTAs running
GPGPU-Sim uArch: core: 12, cta: 3 initialized @(33548,0)
GPGPU-Sim uArch: Shader 13 finished CTA #3 (33999,0), 5 CTAs running
GPGPU-Sim uArch: core: 13, cta: 3 initialized @(34000,0)
GPGPU-Sim uArch: Shader 10 finished CTA #3 (34060,0), 5 CTAs running
GPGPU-Sim uArch: core: 10, cta: 3 initialized @(34061,0)
GPGPU-Sim PTX: 1000000 instructions simulated : ctaid=(11,4,0) tid=(15,3,0)
GPGPU-Sim uArch: cycles simulated: 34500  inst.: 970336 (ipc=28.1) sim_rate=33459 (inst/sec) elapsed = 0:0:00:29 / Tue Mar 22 12:49:31 2016
GPGPU-Sim uArch: Shader 1 finished CTA #4 (34708,0), 5 CTAs running
GPGPU-Sim uArch: core:  1, cta: 4 initialized @(34709,0)
GPGPU-Sim uArch: Shader 2 finished CTA #4 (35489,0), 5 CTAs running
GPGPU-Sim uArch: core:  2, cta: 4 initialized @(35490,0)
GPGPU-Sim uArch: Shader 7 finished CTA #3 (35641,0), 5 CTAs running
GPGPU-Sim uArch: core:  7, cta: 3 initialized @(35642,0)
GPGPU-Sim uArch: Shader 4 finished CTA #3 (35769,0), 5 CTAs running
GPGPU-Sim uArch: core:  4, cta: 3 initialized @(35770,0)
GPGPU-Sim uArch: cycles simulated: 36000  inst.: 1020288 (ipc=28.3) sim_rate=34009 (inst/sec) elapsed = 0:0:00:30 / Tue Mar 22 12:49:32 2016
GPGPU-Sim uArch: Shader 3 finished CTA #3 (36110,0), 5 CTAs running
GPGPU-Sim uArch: core:  3, cta: 3 initialized @(36111,0)
GPGPU-Sim uArch: cycles simulated: 37000  inst.: 1059872 (ipc=28.6) sim_rate=34189 (inst/sec) elapsed = 0:0:00:31 / Tue Mar 22 12:49:33 2016
GPGPU-Sim uArch: Shader 13 finished CTA #4 (37062,0), 5 CTAs running
GPGPU-Sim uArch: core: 13, cta: 4 initialized @(37063,0)
GPGPU-Sim PTX: 1100000 instructions simulated : ctaid=(14,5,0) tid=(15,7,0)
GPGPU-Sim uArch: Shader 12 finished CTA #4 (37213,0), 5 CTAs running
GPGPU-Sim uArch: core: 12, cta: 4 initialized @(37214,0)
GPGPU-Sim uArch: Shader 0 finished CTA #4 (37294,0), 5 CTAs running
GPGPU-Sim uArch: core:  0, cta: 4 initialized @(37295,0)
GPGPU-Sim uArch: Shader 4 finished CTA #4 (37301,0), 5 CTAs running
GPGPU-Sim uArch: core:  4, cta: 4 initialized @(37302,0)
GPGPU-Sim uArch: Shader 3 finished CTA #4 (38053,0), 5 CTAs running
GPGPU-Sim uArch: core:  3, cta: 4 initialized @(38054,0)
GPGPU-Sim uArch: Shader 1 finished CTA #5 (38357,0), 5 CTAs running
GPGPU-Sim uArch: core:  1, cta: 5 initialized @(38358,0)
GPGPU-Sim uArch: Shader 8 finished CTA #4 (38366,0), 5 CTAs running
GPGPU-Sim uArch: core:  8, cta: 4 initialized @(38367,0)
GPGPU-Sim uArch: cycles simulated: 38500  inst.: 1103712 (ipc=28.7) sim_rate=34491 (inst/sec) elapsed = 0:0:00:32 / Tue Mar 22 12:49:34 2016
GPGPU-Sim uArch: Shader 11 finished CTA #4 (38546,0), 5 CTAs running
GPGPU-Sim uArch: core: 11, cta: 4 initialized @(38547,0)
GPGPU-Sim uArch: Shader 14 finished CTA #4 (38810,0), 5 CTAs running
GPGPU-Sim uArch: core: 14, cta: 4 initialized @(38811,0)
GPGPU-Sim uArch: Shader 6 finished CTA #4 (38872,0), 5 CTAs running
GPGPU-Sim uArch: core:  6, cta: 4 initialized @(38873,0)
GPGPU-Sim uArch: Shader 4 finished CTA #5 (39002,0), 5 CTAs running
GPGPU-Sim uArch: core:  4, cta: 5 initialized @(39003,0)
GPGPU-Sim uArch: Shader 7 finished CTA #4 (39068,0), 5 CTAs running
GPGPU-Sim uArch: core:  7, cta: 4 initialized @(39069,0)
GPGPU-Sim uArch: Shader 2 finished CTA #5 (39375,0), 5 CTAs running
GPGPU-Sim uArch: core:  2, cta: 5 initialized @(39376,0)
GPGPU-Sim uArch: Shader 5 finished CTA #4 (39712,0), 5 CTAs running
GPGPU-Sim uArch: core:  5, cta: 4 initialized @(39713,0)
GPGPU-Sim uArch: Shader 10 finished CTA #4 (39796,0), 5 CTAs running
GPGPU-Sim uArch: core: 10, cta: 4 initialized @(39797,0)
GPGPU-Sim PTX: 1200000 instructions simulated : ctaid=(1,5,0) tid=(15,15,0)
GPGPU-Sim uArch: Shader 9 finished CTA #4 (39918,0), 5 CTAs running
GPGPU-Sim uArch: core:  9, cta: 4 initialized @(39919,0)
GPGPU-Sim uArch: cycles simulated: 40000  inst.: 1168096 (ipc=29.2) sim_rate=35396 (inst/sec) elapsed = 0:0:00:33 / Tue Mar 22 12:49:35 2016
GPGPU-Sim uArch: Shader 0 finished CTA #5 (40236,0), 5 CTAs running
GPGPU-Sim uArch: core:  0, cta: 5 initialized @(40237,0)
GPGPU-Sim uArch: Shader 1 finished CTA #0 (40609,0), 5 CTAs running
GPGPU-Sim uArch: core:  1, cta: 0 initialized @(40610,0)
GPGPU-Sim uArch: Shader 6 finished CTA #5 (40678,0), 5 CTAs running
GPGPU-Sim uArch: core:  6, cta: 5 initialized @(40679,0)
GPGPU-Sim uArch: Shader 8 finished CTA #5 (40719,0), 5 CTAs running
GPGPU-Sim uArch: core:  8, cta: 5 initialized @(40720,0)
GPGPU-Sim uArch: cycles simulated: 41000  inst.: 1218944 (ipc=29.7) sim_rate=35851 (inst/sec) elapsed = 0:0:00:34 / Tue Mar 22 12:49:36 2016
GPGPU-Sim uArch: Shader 14 finished CTA #5 (41119,0), 5 CTAs running
GPGPU-Sim uArch: core: 14, cta: 5 initialized @(41120,0)
GPGPU-Sim uArch: Shader 2 finished CTA #0 (41263,0), 5 CTAs running
GPGPU-Sim uArch: core:  2, cta: 0 initialized @(41264,0)
GPGPU-Sim uArch: Shader 5 finished CTA #5 (41313,0), 5 CTAs running
GPGPU-Sim uArch: core:  5, cta: 5 initialized @(41314,0)
GPGPU-Sim PTX: 1300000 instructions simulated : ctaid=(10,6,0) tid=(15,15,0)
GPGPU-Sim uArch: Shader 4 finished CTA #0 (42159,0), 5 CTAs running
GPGPU-Sim uArch: core:  4, cta: 0 initialized @(42160,0)
GPGPU-Sim uArch: Shader 3 finished CTA #5 (42170,0), 5 CTAs running
GPGPU-Sim uArch: core:  3, cta: 5 initialized @(42171,0)
GPGPU-Sim uArch: cycles simulated: 42500  inst.: 1291008 (ipc=30.4) sim_rate=36885 (inst/sec) elapsed = 0:0:00:35 / Tue Mar 22 12:49:37 2016
GPGPU-Sim uArch: Shader 7 finished CTA #5 (42599,0), 5 CTAs running
GPGPU-Sim uArch: core:  7, cta: 5 initialized @(42600,0)
GPGPU-Sim uArch: Shader 9 finished CTA #5 (42738,0), 5 CTAs running
GPGPU-Sim uArch: core:  9, cta: 5 initialized @(42739,0)
GPGPU-Sim uArch: Shader 1 finished CTA #1 (42939,0), 5 CTAs running
GPGPU-Sim uArch: core:  1, cta: 1 initialized @(42940,0)
GPGPU-Sim uArch: Shader 10 finished CTA #5 (42953,0), 5 CTAs running
GPGPU-Sim uArch: core: 10, cta: 5 initialized @(42954,0)
GPGPU-Sim uArch: Shader 13 finished CTA #5 (43057,0), 5 CTAs running
GPGPU-Sim uArch: core: 13, cta: 5 initialized @(43058,0)
GPGPU-Sim uArch: Shader 6 finished CTA #0 (43151,0), 5 CTAs running
GPGPU-Sim uArch: core:  6, cta: 0 initialized @(43152,0)
GPGPU-Sim uArch: Shader 11 finished CTA #5 (43178,0), 5 CTAs running
GPGPU-Sim uArch: core: 11, cta: 5 initialized @(43179,0)
GPGPU-Sim uArch: Shader 0 finished CTA #0 (43184,0), 5 CTAs running
GPGPU-Sim uArch: core:  0, cta: 0 initialized @(43185,0)
GPGPU-Sim PTX: 1400000 instructions simulated : ctaid=(1,11,0) tid=(15,9,0)
GPGPU-Sim uArch: Shader 12 finished CTA #5 (43614,0), 5 CTAs running
GPGPU-Sim uArch: core: 12, cta: 5 initialized @(43615,0)
GPGPU-Sim uArch: cycles simulated: 44000  inst.: 1373952 (ipc=31.2) sim_rate=38165 (inst/sec) elapsed = 0:0:00:36 / Tue Mar 22 12:49:38 2016
GPGPU-Sim uArch: Shader 8 finished CTA #0 (44044,0), 5 CTAs running
GPGPU-Sim uArch: core:  8, cta: 0 initialized @(44045,0)
GPGPU-Sim uArch: Shader 11 finished CTA #0 (44246,0), 5 CTAs running
GPGPU-Sim uArch: core: 11, cta: 0 initialized @(44247,0)
GPGPU-Sim uArch: Shader 13 finished CTA #0 (44269,0), 5 CTAs running
GPGPU-Sim uArch: core: 13, cta: 0 initialized @(44270,0)
GPGPU-Sim uArch: Shader 5 finished CTA #0 (44481,0), 5 CTAs running
GPGPU-Sim uArch: core:  5, cta: 0 initialized @(44482,0)
GPGPU-Sim uArch: Shader 7 finished CTA #0 (44507,0), 5 CTAs running
GPGPU-Sim uArch: core:  7, cta: 0 initialized @(44508,0)
GPGPU-Sim uArch: Shader 9 finished CTA #0 (44741,0), 5 CTAs running
GPGPU-Sim uArch: core:  9, cta: 0 initialized @(44742,0)
GPGPU-Sim uArch: cycles simulated: 45000  inst.: 1409952 (ipc=31.3) sim_rate=38106 (inst/sec) elapsed = 0:0:00:37 / Tue Mar 22 12:49:39 2016
GPGPU-Sim uArch: Shader 13 finished CTA #1 (45097,0), 5 CTAs running
GPGPU-Sim uArch: core: 13, cta: 1 initialized @(45098,0)
GPGPU-Sim uArch: Shader 12 finished CTA #0 (45302,0), 5 CTAs running
GPGPU-Sim uArch: core: 12, cta: 0 initialized @(45303,0)
GPGPU-Sim uArch: Shader 0 finished CTA #1 (45402,0), 5 CTAs running
GPGPU-Sim uArch: core:  0, cta: 1 initialized @(45403,0)
GPGPU-Sim uArch: Shader 1 finished CTA #3 (45479,0), 5 CTAs running
GPGPU-Sim uArch: core:  1, cta: 3 initialized @(45480,0)
GPGPU-Sim uArch: Shader 6 finished CTA #1 (45593,0), 5 CTAs running
GPGPU-Sim uArch: core:  6, cta: 1 initialized @(45594,0)
GPGPU-Sim uArch: Shader 11 finished CTA #1 (45656,0), 5 CTAs running
GPGPU-Sim uArch: core: 11, cta: 1 initialized @(45657,0)
GPGPU-Sim PTX: 1500000 instructions simulated : ctaid=(6,8,0) tid=(15,11,0)
GPGPU-Sim uArch: Shader 8 finished CTA #1 (45858,0), 5 CTAs running
GPGPU-Sim uArch: core:  8, cta: 1 initialized @(45859,0)
GPGPU-Sim uArch: Shader 2 finished CTA #1 (46276,0), 5 CTAs running
GPGPU-Sim uArch: core:  2, cta: 1 initialized @(46277,0)
GPGPU-Sim uArch: Shader 14 finished CTA #0 (46343,0), 5 CTAs running
GPGPU-Sim uArch: core: 14, cta: 0 initialized @(46344,0)
GPGPU-Sim uArch: Shader 4 finished CTA #1 (46391,0), 5 CTAs running
GPGPU-Sim uArch: core:  4, cta: 1 initialized @(46392,0)
GPGPU-Sim uArch: cycles simulated: 46500  inst.: 1481408 (ipc=31.9) sim_rate=38984 (inst/sec) elapsed = 0:0:00:38 / Tue Mar 22 12:49:40 2016
GPGPU-Sim uArch: Shader 0 finished CTA #2 (46705,0), 5 CTAs running
GPGPU-Sim uArch: core:  0, cta: 2 initialized @(46706,0)
GPGPU-Sim uArch: Shader 12 finished CTA #1 (46905,0), 5 CTAs running
GPGPU-Sim uArch: core: 12, cta: 1 initialized @(46906,0)
GPGPU-Sim uArch: Shader 13 finished CTA #2 (47072,0), 5 CTAs running
GPGPU-Sim uArch: core: 13, cta: 2 initialized @(47073,0)
GPGPU-Sim uArch: Shader 7 finished CTA #1 (47119,0), 5 CTAs running
GPGPU-Sim uArch: core:  7, cta: 1 initialized @(47120,0)
GPGPU-Sim uArch: Shader 14 finished CTA #1 (47195,0), 5 CTAs running
GPGPU-Sim uArch: core: 14, cta: 1 initialized @(47196,0)
GPGPU-Sim uArch: Shader 5 finished CTA #1 (47525,0), 5 CTAs running
GPGPU-Sim uArch: core:  5, cta: 1 initialized @(47526,0)
GPGPU-Sim uArch: Shader 3 finished CTA #0 (47545,0), 5 CTAs running
GPGPU-Sim uArch: core:  3, cta: 0 initialized @(47546,0)
GPGPU-Sim uArch: Shader 3 finished CTA #1 (47721,0), 5 CTAs running
GPGPU-Sim uArch: core:  3, cta: 1 initialized @(47722,0)
GPGPU-Sim PTX: 1600000 instructions simulated : ctaid=(15,11,0) tid=(15,9,0)
GPGPU-Sim uArch: Shader 3 finished CTA #2 (47958,0), 5 CTAs running
GPGPU-Sim uArch: core:  3, cta: 2 initialized @(47959,0)
GPGPU-Sim uArch: cycles simulated: 48000  inst.: 1558848 (ipc=32.5) sim_rate=39970 (inst/sec) elapsed = 0:0:00:39 / Tue Mar 22 12:49:41 2016
GPGPU-Sim uArch: Shader 1 finished CTA #2 (48231,0), 5 CTAs running
GPGPU-Sim uArch: core:  1, cta: 2 initialized @(48232,0)
GPGPU-Sim uArch: Shader 9 finished CTA #1 (48242,0), 5 CTAs running
GPGPU-Sim uArch: core:  9, cta: 1 initialized @(48243,0)
GPGPU-Sim uArch: Shader 4 finished CTA #2 (48478,0), 5 CTAs running
GPGPU-Sim uArch: core:  4, cta: 2 initialized @(48479,0)
GPGPU-Sim uArch: Shader 7 finished CTA #2 (48563,0), 5 CTAs running
GPGPU-Sim uArch: core:  7, cta: 2 initialized @(48564,0)
GPGPU-Sim uArch: cycles simulated: 49000  inst.: 1579936 (ipc=32.2) sim_rate=39498 (inst/sec) elapsed = 0:0:00:40 / Tue Mar 22 12:49:42 2016
GPGPU-Sim uArch: Shader 11 finished CTA #2 (49087,0), 5 CTAs running
GPGPU-Sim uArch: core: 11, cta: 2 initialized @(49088,0)
GPGPU-Sim uArch: Shader 12 finished CTA #2 (49689,0), 5 CTAs running
GPGPU-Sim uArch: core: 12, cta: 2 initialized @(49690,0)
GPGPU-Sim uArch: Shader 14 finished CTA #2 (49691,0), 5 CTAs running
GPGPU-Sim uArch: core: 14, cta: 2 initialized @(49692,0)
GPGPU-Sim uArch: Shader 10 finished CTA #0 (49939,0), 5 CTAs running
GPGPU-Sim uArch: core: 10, cta: 0 initialized @(49940,0)
GPGPU-Sim uArch: Shader 10 finished CTA #1 (50190,0), 5 CTAs running
GPGPU-Sim uArch: core: 10, cta: 1 initialized @(50191,0)
GPGPU-Sim uArch: cycles simulated: 50500  inst.: 1642816 (ipc=32.5) sim_rate=40068 (inst/sec) elapsed = 0:0:00:41 / Tue Mar 22 12:49:43 2016
GPGPU-Sim PTX: 1700000 instructions simulated : ctaid=(11,13,0) tid=(15,9,0)
GPGPU-Sim uArch: Shader 2 finished CTA #2 (51051,0), 5 CTAs running
GPGPU-Sim uArch: core:  2, cta: 2 initialized @(51052,0)
GPGPU-Sim uArch: Shader 8 finished CTA #2 (51305,0), 5 CTAs running
GPGPU-Sim uArch: core:  8, cta: 2 initialized @(51306,0)
GPGPU-Sim uArch: Shader 4 finished CTA #3 (51360,0), 5 CTAs running
GPGPU-Sim uArch: core:  4, cta: 3 initialized @(51361,0)
GPGPU-Sim uArch: Shader 9 finished CTA #2 (51570,0), 5 CTAs running
GPGPU-Sim uArch: core:  9, cta: 2 initialized @(51571,0)
GPGPU-Sim uArch: Shader 3 finished CTA #3 (51643,0), 5 CTAs running
GPGPU-Sim uArch: core:  3, cta: 3 initialized @(51644,0)
GPGPU-Sim uArch: Shader 6 finished CTA #2 (51866,0), 5 CTAs running
GPGPU-Sim uArch: core:  6, cta: 2 initialized @(51867,0)
GPGPU-Sim uArch: Shader 14 finished CTA #3 (51988,0), 5 CTAs running
GPGPU-Sim uArch: core: 14, cta: 3 initialized @(51989,0)
GPGPU-Sim uArch: cycles simulated: 52000  inst.: 1692864 (ipc=32.6) sim_rate=40306 (inst/sec) elapsed = 0:0:00:42 / Tue Mar 22 12:49:44 2016
GPGPU-Sim uArch: Shader 7 finished CTA #3 (52463,0), 5 CTAs running
GPGPU-Sim uArch: core:  7, cta: 3 initialized @(52464,0)
GPGPU-Sim uArch: Shader 8 finished CTA #3 (52669,0), 5 CTAs running
GPGPU-Sim uArch: core:  8, cta: 3 initialized @(52670,0)
GPGPU-Sim uArch: Shader 6 finished CTA #3 (52708,0), 5 CTAs running
GPGPU-Sim uArch: core:  6, cta: 3 initialized @(52709,0)
GPGPU-Sim uArch: Shader 5 finished CTA #2 (52883,0), 5 CTAs running
GPGPU-Sim uArch: core:  5, cta: 2 initialized @(52884,0)
GPGPU-Sim PTX: 1800000 instructions simulated : ctaid=(8,10,0) tid=(15,15,0)
GPGPU-Sim uArch: cycles simulated: 53000  inst.: 1745568 (ipc=32.9) sim_rate=40594 (inst/sec) elapsed = 0:0:00:43 / Tue Mar 22 12:49:45 2016
GPGPU-Sim uArch: Shader 12 finished CTA #3 (53233,0), 5 CTAs running
GPGPU-Sim uArch: core: 12, cta: 3 initialized @(53234,0)
GPGPU-Sim uArch: Shader 0 finished CTA #3 (53392,0), 5 CTAs running
GPGPU-Sim uArch: core:  0, cta: 3 initialized @(53393,0)
GPGPU-Sim uArch: Shader 13 finished CTA #3 (53566,0), 5 CTAs running
GPGPU-Sim uArch: core: 13, cta: 3 initialized @(53567,0)
GPGPU-Sim uArch: Shader 5 finished CTA #3 (53726,0), 5 CTAs running
GPGPU-Sim uArch: core:  5, cta: 3 initialized @(53727,0)
GPGPU-Sim uArch: Shader 6 finished CTA #4 (53843,0), 5 CTAs running
GPGPU-Sim uArch: core:  6, cta: 4 initialized @(53844,0)
GPGPU-Sim uArch: Shader 9 finished CTA #3 (54181,0), 5 CTAs running
GPGPU-Sim uArch: core:  9, cta: 3 initialized @(54182,0)
GPGPU-Sim uArch: Shader 1 finished CTA #4 (54216,0), 5 CTAs running
GPGPU-Sim uArch: core:  1, cta: 4 initialized @(54217,0)
GPGPU-Sim uArch: Shader 2 finished CTA #3 (54315,0), 5 CTAs running
GPGPU-Sim uArch: core:  2, cta: 3 initialized @(54316,0)
GPGPU-Sim uArch: cycles simulated: 54500  inst.: 1811328 (ipc=33.2) sim_rate=41166 (inst/sec) elapsed = 0:0:00:44 / Tue Mar 22 12:49:46 2016
GPGPU-Sim uArch: Shader 1 finished CTA #5 (54721,0), 5 CTAs running
GPGPU-Sim uArch: core:  1, cta: 5 initialized @(54722,0)
GPGPU-Sim uArch: Shader 11 finished CTA #3 (54794,0), 5 CTAs running
GPGPU-Sim uArch: core: 11, cta: 3 initialized @(54795,0)
GPGPU-Sim uArch: Shader 10 finished CTA #2 (54847,0), 5 CTAs running
GPGPU-Sim uArch: core: 10, cta: 2 initialized @(54848,0)
GPGPU-Sim uArch: Shader 0 finished CTA #4 (54896,0), 5 CTAs running
GPGPU-Sim uArch: core:  0, cta: 4 initialized @(54897,0)
GPGPU-Sim uArch: Shader 3 finished CTA #4 (54995,0), 5 CTAs running
GPGPU-Sim uArch: core:  3, cta: 4 initialized @(54996,0)
GPGPU-Sim uArch: Shader 7 finished CTA #4 (55216,0), 5 CTAs running
GPGPU-Sim uArch: core:  7, cta: 4 initialized @(55217,0)
GPGPU-Sim uArch: Shader 5 finished CTA #4 (55244,0), 5 CTAs running
GPGPU-Sim uArch: core:  5, cta: 4 initialized @(55245,0)
GPGPU-Sim PTX: 1900000 instructions simulated : ctaid=(12,14,0) tid=(15,13,0)
GPGPU-Sim uArch: Shader 1 finished CTA #1 (55787,0), 5 CTAs running
GPGPU-Sim uArch: core:  1, cta: 1 initialized @(55788,0)
GPGPU-Sim uArch: Shader 4 finished CTA #4 (56315,0), 5 CTAs running
GPGPU-Sim uArch: core:  4, cta: 4 initialized @(56316,0)
GPGPU-Sim uArch: Shader 4 finished CTA #5 (56475,0), 5 CTAs running
GPGPU-Sim uArch: core:  4, cta: 5 initialized @(56476,0)
GPGPU-Sim uArch: cycles simulated: 56500  inst.: 1873408 (ipc=33.2) sim_rate=41631 (inst/sec) elapsed = 0:0:00:45 / Tue Mar 22 12:49:47 2016
GPGPU-Sim uArch: Shader 13 finished CTA #4 (56898,0), 5 CTAs running
GPGPU-Sim uArch: core: 13, cta: 4 initialized @(56899,0)
GPGPU-Sim uArch: Shader 2 finished CTA #4 (57331,0), 5 CTAs running
GPGPU-Sim uArch: core:  2, cta: 4 initialized @(57332,0)
GPGPU-Sim uArch: Shader 11 finished CTA #4 (57520,0), 5 CTAs running
GPGPU-Sim uArch: core: 11, cta: 4 initialized @(57521,0)
GPGPU-Sim PTX: 2000000 instructions simulated : ctaid=(14,12,0) tid=(15,15,0)
GPGPU-Sim uArch: Shader 10 finished CTA #3 (57988,0), 5 CTAs running
GPGPU-Sim uArch: core: 10, cta: 3 initialized @(57989,0)
GPGPU-Sim uArch: cycles simulated: 58000  inst.: 1940704 (ipc=33.5) sim_rate=42189 (inst/sec) elapsed = 0:0:00:46 / Tue Mar 22 12:49:48 2016
GPGPU-Sim uArch: Shader 14 finished CTA #4 (58137,0), 5 CTAs running
GPGPU-Sim uArch: core: 14, cta: 4 initialized @(58138,0)
GPGPU-Sim uArch: Shader 14 finished CTA #5 (58372,0), 5 CTAs running
GPGPU-Sim uArch: core: 14, cta: 5 initialized @(58373,0)
GPGPU-Sim uArch: Shader 2 finished CTA #5 (58617,0), 5 CTAs running
GPGPU-Sim uArch: core:  2, cta: 5 initialized @(58618,0)
GPGPU-Sim uArch: Shader 12 finished CTA #4 (58649,0), 5 CTAs running
GPGPU-Sim uArch: core: 12, cta: 4 initialized @(58650,0)
GPGPU-Sim uArch: Shader 4 finished CTA #0 (58684,0), 5 CTAs running
GPGPU-Sim uArch: core:  4, cta: 0 initialized @(58685,0)
GPGPU-Sim uArch: Shader 6 finished CTA #5 (59052,0), 5 CTAs running
GPGPU-Sim uArch: core:  6, cta: 5 initialized @(59053,0)
GPGPU-Sim uArch: Shader 11 finished CTA #5 (59098,0), 5 CTAs running
GPGPU-Sim uArch: core: 11, cta: 5 initialized @(59099,0)
GPGPU-Sim uArch: Shader 8 finished CTA #4 (59120,0), 5 CTAs running
GPGPU-Sim uArch: core:  8, cta: 4 initialized @(59121,0)
GPGPU-Sim uArch: Shader 8 finished CTA #5 (59261,0), 5 CTAs running
GPGPU-Sim uArch: core:  8, cta: 5 initialized @(59262,0)
GPGPU-Sim uArch: cycles simulated: 59500  inst.: 1997696 (ipc=33.6) sim_rate=42504 (inst/sec) elapsed = 0:0:00:47 / Tue Mar 22 12:49:49 2016
GPGPU-Sim uArch: Shader 9 finished CTA #4 (59631,0), 5 CTAs running
GPGPU-Sim uArch: core:  9, cta: 4 initialized @(59632,0)
GPGPU-Sim uArch: Shader 1 finished CTA #0 (60226,0), 5 CTAs running
GPGPU-Sim uArch: core:  1, cta: 0 initialized @(60227,0)
GPGPU-Sim uArch: Shader 3 finished CTA #5 (60303,0), 5 CTAs running
GPGPU-Sim uArch: core:  3, cta: 5 initialized @(60304,0)
GPGPU-Sim uArch: Shader 5 finished CTA #5 (60378,0), 5 CTAs running
GPGPU-Sim uArch: core:  5, cta: 5 initialized @(60379,0)
GPGPU-Sim uArch: Shader 8 finished CTA #0 (60381,0), 5 CTAs running
GPGPU-Sim uArch: core:  8, cta: 0 initialized @(60382,0)
GPGPU-Sim PTX: 2100000 instructions simulated : ctaid=(14,14,0) tid=(15,3,0)
GPGPU-Sim uArch: Shader 13 finished CTA #5 (60776,0), 5 CTAs running
GPGPU-Sim uArch: core: 13, cta: 5 initialized @(60777,0)
GPGPU-Sim uArch: cycles simulated: 61000  inst.: 2054432 (ipc=33.7) sim_rate=42800 (inst/sec) elapsed = 0:0:00:48 / Tue Mar 22 12:49:50 2016
GPGPU-Sim uArch: Shader 2 finished CTA #0 (61066,0), 5 CTAs running
GPGPU-Sim uArch: core:  2, cta: 0 initialized @(61067,0)
GPGPU-Sim uArch: Shader 10 finished CTA #4 (61107,0), 5 CTAs running
GPGPU-Sim uArch: core: 10, cta: 4 initialized @(61108,0)
GPGPU-Sim uArch: Shader 7 finished CTA #5 (61175,0), 5 CTAs running
GPGPU-Sim uArch: core:  7, cta: 5 initialized @(61176,0)
GPGPU-Sim uArch: Shader 11 finished CTA #0 (61185,0), 5 CTAs running
GPGPU-Sim uArch: core: 11, cta: 0 initialized @(61186,0)
GPGPU-Sim uArch: Shader 13 finished CTA #0 (61254,0), 5 CTAs running
GPGPU-Sim uArch: core: 13, cta: 0 initialized @(61255,0)
GPGPU-Sim uArch: Shader 10 finished CTA #5 (61337,0), 5 CTAs running
GPGPU-Sim uArch: core: 10, cta: 5 initialized @(61338,0)
GPGPU-Sim uArch: Shader 1 finished CTA #3 (61755,0), 5 CTAs running
GPGPU-Sim uArch: core:  1, cta: 3 initialized @(61756,0)
GPGPU-Sim uArch: Shader 12 finished CTA #5 (62346,0), 5 CTAs running
GPGPU-Sim uArch: core: 12, cta: 5 initialized @(62347,0)
GPGPU-Sim uArch: Shader 7 finished CTA #0 (62441,0), 5 CTAs running
GPGPU-Sim uArch: core:  7, cta: 0 initialized @(62442,0)
GPGPU-Sim uArch: cycles simulated: 62500  inst.: 2102240 (ipc=33.6) sim_rate=42902 (inst/sec) elapsed = 0:0:00:49 / Tue Mar 22 12:49:51 2016
GPGPU-Sim uArch: Shader 8 finished CTA #1 (62653,0), 5 CTAs running
GPGPU-Sim uArch: core:  8, cta: 1 initialized @(62654,0)
GPGPU-Sim uArch: Shader 6 finished CTA #0 (62684,0), 5 CTAs running
GPGPU-Sim uArch: core:  6, cta: 0 initialized @(62685,0)
GPGPU-Sim uArch: Shader 0 finished CTA #5 (62744,0), 5 CTAs running
GPGPU-Sim uArch: core:  0, cta: 5 initialized @(62745,0)
GPGPU-Sim uArch: Shader 9 finished CTA #5 (62806,0), 5 CTAs running
GPGPU-Sim uArch: core:  9, cta: 5 initialized @(62807,0)
GPGPU-Sim uArch: Shader 0 finished CTA #0 (63020,0), 5 CTAs running
GPGPU-Sim uArch: core:  0, cta: 0 initialized @(63021,0)
GPGPU-Sim PTX: 2200000 instructions simulated : ctaid=(4,16,0) tid=(15,1,0)
GPGPU-Sim uArch: Shader 9 finished CTA #0 (63069,0), 5 CTAs running
GPGPU-Sim uArch: core:  9, cta: 0 initialized @(63070,0)
GPGPU-Sim uArch: Shader 11 finished CTA #1 (63586,0), 5 CTAs running
GPGPU-Sim uArch: core: 11, cta: 1 initialized @(63587,0)
GPGPU-Sim uArch: Shader 5 finished CTA #0 (63861,0), 5 CTAs running
GPGPU-Sim uArch: core:  5, cta: 0 initialized @(63862,0)
GPGPU-Sim uArch: cycles simulated: 64000  inst.: 2166144 (ipc=33.8) sim_rate=43322 (inst/sec) elapsed = 0:0:00:50 / Tue Mar 22 12:49:52 2016
GPGPU-Sim uArch: Shader 14 finished CTA #0 (64224,0), 5 CTAs running
GPGPU-Sim uArch: core: 14, cta: 0 initialized @(64225,0)
GPGPU-Sim uArch: Shader 6 finished CTA #1 (64666,0), 5 CTAs running
GPGPU-Sim uArch: core:  6, cta: 1 initialized @(64667,0)
GPGPU-Sim uArch: Shader 12 finished CTA #0 (65373,0), 5 CTAs running
GPGPU-Sim uArch: core: 12, cta: 0 initialized @(65374,0)
GPGPU-Sim uArch: Shader 4 finished CTA #1 (65443,0), 5 CTAs running
GPGPU-Sim uArch: core:  4, cta: 1 initialized @(65444,0)
GPGPU-Sim uArch: cycles simulated: 65500  inst.: 2226528 (ipc=34.0) sim_rate=43657 (inst/sec) elapsed = 0:0:00:51 / Tue Mar 22 12:49:53 2016
GPGPU-Sim PTX: 2300000 instructions simulated : ctaid=(14,17,0) tid=(15,5,0)
GPGPU-Sim uArch: Shader 9 finished CTA #1 (66223,0), 5 CTAs running
GPGPU-Sim uArch: core:  9, cta: 1 initialized @(66224,0)
GPGPU-Sim uArch: Shader 7 finished CTA #1 (66398,0), 5 CTAs running
GPGPU-Sim uArch: core:  7, cta: 1 initialized @(66399,0)
GPGPU-Sim uArch: Shader 3 finished CTA #0 (66447,0), 5 CTAs running
GPGPU-Sim uArch: core:  3, cta: 0 initialized @(66448,0)
GPGPU-Sim uArch: Shader 5 finished CTA #1 (66765,0), 5 CTAs running
GPGPU-Sim uArch: core:  5, cta: 1 initialized @(66766,0)
GPGPU-Sim uArch: Shader 0 finished CTA #1 (66921,0), 5 CTAs running
GPGPU-Sim uArch: core:  0, cta: 1 initialized @(66922,0)
GPGPU-Sim uArch: cycles simulated: 67000  inst.: 2277280 (ipc=34.0) sim_rate=43793 (inst/sec) elapsed = 0:0:00:52 / Tue Mar 22 12:49:54 2016
GPGPU-Sim uArch: Shader 8 finished CTA #2 (67057,0), 5 CTAs running
GPGPU-Sim uArch: core:  8, cta: 2 initialized @(67058,0)
GPGPU-Sim uArch: Shader 13 finished CTA #1 (67650,0), 5 CTAs running
GPGPU-Sim uArch: core: 13, cta: 1 initialized @(67651,0)
GPGPU-Sim uArch: Shader 6 finished CTA #2 (68028,0), 5 CTAs running
GPGPU-Sim uArch: core:  6, cta: 2 initialized @(68029,0)
GPGPU-Sim uArch: Shader 4 finished CTA #2 (68160,0), 5 CTAs running
GPGPU-Sim uArch: core:  4, cta: 2 initialized @(68161,0)
GPGPU-Sim uArch: Shader 3 finished CTA #1 (68170,0), 5 CTAs running
GPGPU-Sim uArch: core:  3, cta: 1 initialized @(68171,0)
GPGPU-Sim uArch: cycles simulated: 68500  inst.: 2327136 (ipc=34.0) sim_rate=43908 (inst/sec) elapsed = 0:0:00:53 / Tue Mar 22 12:49:55 2016
GPGPU-Sim PTX: 2400000 instructions simulated : ctaid=(2,13,0) tid=(15,15,0)
GPGPU-Sim uArch: Shader 0 finished CTA #2 (68648,0), 5 CTAs running
GPGPU-Sim uArch: core:  0, cta: 2 initialized @(68649,0)
GPGPU-Sim uArch: Shader 2 finished CTA #1 (68676,0), 5 CTAs running
GPGPU-Sim uArch: core:  2, cta: 1 initialized @(68677,0)
GPGPU-Sim uArch: Shader 7 finished CTA #2 (68756,0), 5 CTAs running
GPGPU-Sim uArch: core:  7, cta: 2 initialized @(68757,0)
GPGPU-Sim uArch: Shader 8 finished CTA #3 (68771,0), 5 CTAs running
GPGPU-Sim uArch: core:  8, cta: 3 initialized @(68772,0)
GPGPU-Sim uArch: Shader 12 finished CTA #1 (68857,0), 5 CTAs running
GPGPU-Sim uArch: core: 12, cta: 1 initialized @(68858,0)
GPGPU-Sim uArch: Shader 5 finished CTA #2 (69138,0), 5 CTAs running
GPGPU-Sim uArch: core:  5, cta: 2 initialized @(69139,0)
GPGPU-Sim uArch: cycles simulated: 69500  inst.: 2375744 (ipc=34.2) sim_rate=43995 (inst/sec) elapsed = 0:0:00:54 / Tue Mar 22 12:49:56 2016
GPGPU-Sim uArch: Shader 1 finished CTA #2 (69572,0), 5 CTAs running
GPGPU-Sim uArch: core:  1, cta: 2 initialized @(69573,0)
GPGPU-Sim uArch: Shader 14 finished CTA #1 (69612,0), 5 CTAs running
GPGPU-Sim uArch: core: 14, cta: 1 initialized @(69613,0)
GPGPU-Sim uArch: Shader 10 finished CTA #0 (69688,0), 5 CTAs running
GPGPU-Sim uArch: core: 10, cta: 0 initialized @(69689,0)
GPGPU-Sim uArch: Shader 11 finished CTA #2 (69863,0), 5 CTAs running
GPGPU-Sim uArch: core: 11, cta: 2 initialized @(69864,0)
GPGPU-Sim uArch: Shader 13 finished CTA #2 (70135,0), 5 CTAs running
GPGPU-Sim uArch: core: 13, cta: 2 initialized @(70136,0)
GPGPU-Sim uArch: Shader 9 finished CTA #2 (70190,0), 5 CTAs running
GPGPU-Sim uArch: core:  9, cta: 2 initialized @(70191,0)
GPGPU-Sim PTX: 2500000 instructions simulated : ctaid=(13,16,0) tid=(15,7,0)
GPGPU-Sim uArch: Shader 8 finished CTA #4 (70353,0), 5 CTAs running
GPGPU-Sim uArch: core:  8, cta: 4 initialized @(70354,0)
GPGPU-Sim uArch: Shader 8 finished CTA #5 (70431,0), 5 CTAs running
GPGPU-Sim uArch: core:  8, cta: 5 initialized @(70432,0)
GPGPU-Sim uArch: Shader 3 finished CTA #2 (70517,0), 5 CTAs running
GPGPU-Sim uArch: core:  3, cta: 2 initialized @(70518,0)
GPGPU-Sim uArch: Shader 12 finished CTA #2 (70563,0), 5 CTAs running
GPGPU-Sim uArch: core: 12, cta: 2 initialized @(70564,0)
GPGPU-Sim uArch: Shader 4 finished CTA #3 (70605,0), 5 CTAs running
GPGPU-Sim uArch: core:  4, cta: 3 initialized @(70606,0)
GPGPU-Sim uArch: Shader 10 finished CTA #1 (70668,0), 5 CTAs running
GPGPU-Sim uArch: core: 10, cta: 1 initialized @(70669,0)
GPGPU-Sim uArch: cycles simulated: 71000  inst.: 2485728 (ipc=35.0) sim_rate=45195 (inst/sec) elapsed = 0:0:00:55 / Tue Mar 22 12:49:57 2016
GPGPU-Sim uArch: Shader 7 finished CTA #3 (71302,0), 5 CTAs running
GPGPU-Sim uArch: core:  7, cta: 3 initialized @(71303,0)
GPGPU-Sim PTX: 2600000 instructions simulated : ctaid=(7,17,0) tid=(15,3,0)
GPGPU-Sim uArch: Shader 11 finished CTA #3 (71667,0), 5 CTAs running
GPGPU-Sim uArch: core: 11, cta: 3 initialized @(71668,0)
GPGPU-Sim uArch: Shader 6 finished CTA #3 (71771,0), 5 CTAs running
GPGPU-Sim uArch: core:  6, cta: 3 initialized @(71772,0)
GPGPU-Sim uArch: Shader 0 finished CTA #3 (71810,0), 5 CTAs running
GPGPU-Sim uArch: core:  0, cta: 3 initialized @(71811,0)
GPGPU-Sim uArch: Shader 5 finished CTA #3 (71950,0), 5 CTAs running
GPGPU-Sim uArch: core:  5, cta: 3 initialized @(71951,0)
GPGPU-Sim uArch: cycles simulated: 72000  inst.: 2536128 (ipc=35.2) sim_rate=45288 (inst/sec) elapsed = 0:0:00:56 / Tue Mar 22 12:49:58 2016
GPGPU-Sim uArch: Shader 0 finished CTA #4 (72263,0), 5 CTAs running
GPGPU-Sim uArch: core:  0, cta: 4 initialized @(72264,0)
GPGPU-Sim uArch: Shader 13 finished CTA #3 (72384,0), 5 CTAs running
GPGPU-Sim uArch: core: 13, cta: 3 initialized @(72385,0)
GPGPU-Sim uArch: Shader 12 finished CTA #3 (72532,0), 5 CTAs running
GPGPU-Sim uArch: core: 12, cta: 3 initialized @(72533,0)
GPGPU-Sim uArch: Shader 9 finished CTA #3 (73503,0), 5 CTAs running
GPGPU-Sim uArch: core:  9, cta: 3 initialized @(73504,0)
GPGPU-Sim uArch: Shader 1 finished CTA #4 (73692,0), 5 CTAs running
GPGPU-Sim uArch: core:  1, cta: 4 initialized @(73693,0)
GPGPU-Sim uArch: Shader 8 finished CTA #0 (73700,0), 5 CTAs running
GPGPU-Sim uArch: core:  8, cta: 0 initialized @(73701,0)
GPGPU-Sim uArch: Shader 10 finished CTA #2 (73805,0), 5 CTAs running
GPGPU-Sim uArch: core: 10, cta: 2 initialized @(73806,0)
GPGPU-Sim uArch: Shader 2 finished CTA #2 (73935,0), 5 CTAs running
GPGPU-Sim uArch: core:  2, cta: 2 initialized @(73936,0)
GPGPU-Sim uArch: cycles simulated: 74000  inst.: 2588640 (ipc=35.0) sim_rate=45414 (inst/sec) elapsed = 0:0:00:57 / Tue Mar 22 12:49:59 2016
GPGPU-Sim uArch: Shader 2 finished CTA #3 (74230,0), 5 CTAs running
GPGPU-Sim uArch: core:  2, cta: 3 initialized @(74231,0)
GPGPU-Sim uArch: Shader 14 finished CTA #2 (74288,0), 5 CTAs running
GPGPU-Sim uArch: core: 14, cta: 2 initialized @(74289,0)
GPGPU-Sim uArch: Shader 2 finished CTA #4 (74478,0), 5 CTAs running
GPGPU-Sim uArch: core:  2, cta: 4 initialized @(74479,0)
GPGPU-Sim uArch: Shader 6 finished CTA #4 (74534,0), 5 CTAs running
GPGPU-Sim uArch: core:  6, cta: 4 initialized @(74535,0)
GPGPU-Sim PTX: 2700000 instructions simulated : ctaid=(12,20,0) tid=(15,13,0)
GPGPU-Sim uArch: Shader 3 finished CTA #3 (75011,0), 5 CTAs running
GPGPU-Sim uArch: core:  3, cta: 3 initialized @(75012,0)
GPGPU-Sim uArch: Shader 8 finished CTA #1 (75102,0), 5 CTAs running
GPGPU-Sim uArch: core:  8, cta: 1 initialized @(75103,0)
GPGPU-Sim uArch: Shader 0 finished CTA #5 (75371,0), 5 CTAs running
GPGPU-Sim uArch: core:  0, cta: 5 initialized @(75372,0)
GPGPU-Sim uArch: Shader 3 finished CTA #4 (75378,0), 5 CTAs running
GPGPU-Sim uArch: core:  3, cta: 4 initialized @(75379,0)
GPGPU-Sim uArch: Shader 13 finished CTA #4 (75380,0), 5 CTAs running
GPGPU-Sim uArch: core: 13, cta: 4 initialized @(75381,0)
GPGPU-Sim uArch: Shader 5 finished CTA #4 (75447,0), 5 CTAs running
GPGPU-Sim uArch: core:  5, cta: 4 initialized @(75448,0)
GPGPU-Sim uArch: cycles simulated: 75500  inst.: 2646656 (ipc=35.1) sim_rate=45632 (inst/sec) elapsed = 0:0:00:58 / Tue Mar 22 12:50:00 2016
GPGPU-Sim uArch: Shader 2 finished CTA #5 (75573,0), 5 CTAs running
GPGPU-Sim uArch: core:  2, cta: 5 initialized @(75574,0)
GPGPU-Sim uArch: Shader 4 finished CTA #4 (76649,0), 5 CTAs running
GPGPU-Sim uArch: core:  4, cta: 4 initialized @(76650,0)
GPGPU-Sim uArch: cycles simulated: 77000  inst.: 2693152 (ipc=35.0) sim_rate=45646 (inst/sec) elapsed = 0:0:00:59 / Tue Mar 22 12:50:01 2016
GPGPU-Sim uArch: Shader 10 finished CTA #3 (77200,0), 5 CTAs running
GPGPU-Sim uArch: core: 10, cta: 3 initialized @(77201,0)
GPGPU-Sim uArch: Shader 14 finished CTA #3 (77299,0), 5 CTAs running
GPGPU-Sim uArch: core: 14, cta: 3 initialized @(77300,0)
GPGPU-Sim uArch: Shader 6 finished CTA #5 (77394,0), 5 CTAs running
GPGPU-Sim uArch: core:  6, cta: 5 initialized @(77395,0)
GPGPU-Sim PTX: 2800000 instructions simulated : ctaid=(12,18,0) tid=(15,11,0)
GPGPU-Sim uArch: Shader 5 finished CTA #5 (77497,0), 5 CTAs running
GPGPU-Sim uArch: core:  5, cta: 5 initialized @(77498,0)
GPGPU-Sim uArch: Shader 7 finished CTA #4 (77547,0), 5 CTAs running
GPGPU-Sim uArch: core:  7, cta: 4 initialized @(77548,0)
GPGPU-Sim uArch: Shader 4 finished CTA #5 (77728,0), 5 CTAs running
GPGPU-Sim uArch: core:  4, cta: 5 initialized @(77729,0)
GPGPU-Sim uArch: Shader 2 finished CTA #0 (77733,0), 5 CTAs running
GPGPU-Sim uArch: core:  2, cta: 0 initialized @(77734,0)
GPGPU-Sim uArch: Shader 14 finished CTA #4 (77987,0), 5 CTAs running
GPGPU-Sim uArch: core: 14, cta: 4 initialized @(77988,0)
GPGPU-Sim uArch: Shader 14 finished CTA #5 (78170,0), 5 CTAs running
GPGPU-Sim uArch: core: 14, cta: 5 initialized @(78171,0)
GPGPU-Sim uArch: Shader 0 finished CTA #0 (78307,0), 5 CTAs running
GPGPU-Sim uArch: core:  0, cta: 0 initialized @(78308,0)
GPGPU-Sim uArch: Shader 3 finished CTA #5 (78454,0), 5 CTAs running
GPGPU-Sim uArch: core:  3, cta: 5 initialized @(78455,0)
GPGPU-Sim uArch: cycles simulated: 78500  inst.: 2797920 (ipc=35.6) sim_rate=46632 (inst/sec) elapsed = 0:0:01:00 / Tue Mar 22 12:50:02 2016
GPGPU-Sim uArch: Shader 1 finished CTA #5 (78562,0), 5 CTAs running
GPGPU-Sim uArch: core:  1, cta: 5 initialized @(78563,0)
GPGPU-Sim uArch: Shader 10 finished CTA #4 (78790,0), 5 CTAs running
GPGPU-Sim uArch: core: 10, cta: 4 initialized @(78791,0)
GPGPU-Sim PTX: 2900000 instructions simulated : ctaid=(5,19,0) tid=(15,3,0)
GPGPU-Sim uArch: Shader 11 finished CTA #4 (78834,0), 5 CTAs running
GPGPU-Sim uArch: core: 11, cta: 4 initialized @(78835,0)
GPGPU-Sim uArch: Shader 9 finished CTA #4 (78901,0), 5 CTAs running
GPGPU-Sim uArch: core:  9, cta: 4 initialized @(78902,0)
GPGPU-Sim uArch: Shader 13 finished CTA #5 (79024,0), 5 CTAs running
GPGPU-Sim uArch: core: 13, cta: 5 initialized @(79025,0)
GPGPU-Sim uArch: Shader 12 finished CTA #4 (79194,0), 5 CTAs running
GPGPU-Sim uArch: core: 12, cta: 4 initialized @(79195,0)
GPGPU-Sim uArch: Shader 9 finished CTA #5 (79929,0), 5 CTAs running
GPGPU-Sim uArch: core:  9, cta: 5 initialized @(79930,0)
GPGPU-Sim uArch: Shader 11 finished CTA #5 (79975,0), 5 CTAs running
GPGPU-Sim uArch: core: 11, cta: 5 initialized @(79976,0)
GPGPU-Sim uArch: cycles simulated: 80000  inst.: 2869376 (ipc=35.9) sim_rate=47038 (inst/sec) elapsed = 0:0:01:01 / Tue Mar 22 12:50:03 2016
GPGPU-Sim uArch: Shader 1 finished CTA #1 (80093,0), 5 CTAs running
GPGPU-Sim uArch: core:  1, cta: 1 initialized @(80094,0)
GPGPU-Sim uArch: Shader 7 finished CTA #5 (80114,0), 5 CTAs running
GPGPU-Sim uArch: core:  7, cta: 5 initialized @(80115,0)
GPGPU-Sim uArch: Shader 4 finished CTA #0 (80192,0), 5 CTAs running
GPGPU-Sim uArch: core:  4, cta: 0 initialized @(80193,0)
GPGPU-Sim uArch: Shader 4 finished CTA #1 (80346,0), 5 CTAs running
GPGPU-Sim uArch: core:  4, cta: 1 initialized @(80347,0)
GPGPU-Sim uArch: Shader 11 finished CTA #0 (80498,0), 5 CTAs running
GPGPU-Sim uArch: core: 11, cta: 0 initialized @(80499,0)
GPGPU-Sim uArch: Shader 1 finished CTA #0 (80771,0), 5 CTAs running
GPGPU-Sim uArch: core:  1, cta: 0 initialized @(80772,0)
GPGPU-Sim PTX: 3000000 instructions simulated : ctaid=(10,18,0) tid=(15,7,0)
GPGPU-Sim uArch: Shader 13 finished CTA #0 (81007,0), 5 CTAs running
GPGPU-Sim uArch: core: 13, cta: 0 initialized @(81008,0)
GPGPU-Sim uArch: cycles simulated: 82000  inst.: 2938976 (ipc=35.8) sim_rate=47402 (inst/sec) elapsed = 0:0:01:02 / Tue Mar 22 12:50:04 2016
GPGPU-Sim uArch: Shader 2 finished CTA #1 (82195,0), 5 CTAs running
GPGPU-Sim uArch: core:  2, cta: 1 initialized @(82196,0)
GPGPU-Sim uArch: Shader 3 finished CTA #0 (82231,0), 5 CTAs running
GPGPU-Sim uArch: core:  3, cta: 0 initialized @(82232,0)
GPGPU-Sim uArch: Shader 5 finished CTA #0 (82357,0), 5 CTAs running
GPGPU-Sim uArch: core:  5, cta: 0 initialized @(82358,0)
GPGPU-Sim uArch: Shader 8 finished CTA #2 (82511,0), 5 CTAs running
GPGPU-Sim uArch: core:  8, cta: 2 initialized @(82512,0)
GPGPU-Sim uArch: Shader 8 finished CTA #3 (82655,0), 5 CTAs running
GPGPU-Sim uArch: core:  8, cta: 3 initialized @(82656,0)
GPGPU-Sim uArch: Shader 3 finished CTA #1 (82728,0), 5 CTAs running
GPGPU-Sim uArch: core:  3, cta: 1 initialized @(82729,0)
GPGPU-Sim uArch: Shader 9 finished CTA #0 (82820,0), 5 CTAs running
GPGPU-Sim uArch: core:  9, cta: 0 initialized @(82821,0)
GPGPU-Sim uArch: Shader 11 finished CTA #1 (82865,0), 5 CTAs running
GPGPU-Sim uArch: core: 11, cta: 1 initialized @(82866,0)
GPGPU-Sim uArch: Shader 6 finished CTA #0 (83264,0), 5 CTAs running
GPGPU-Sim uArch: core:  6, cta: 0 initialized @(83265,0)
GPGPU-Sim uArch: Shader 8 finished CTA #5 (83333,0), 5 CTAs running
GPGPU-Sim uArch: core:  8, cta: 5 initialized @(83334,0)
GPGPU-Sim PTX: 3100000 instructions simulated : ctaid=(8,20,0) tid=(15,3,0)
GPGPU-Sim uArch: Shader 6 finished CTA #1 (83495,0), 5 CTAs running
GPGPU-Sim uArch: core:  6, cta: 1 initialized @(83496,0)
GPGPU-Sim uArch: cycles simulated: 83500  inst.: 3017376 (ipc=36.1) sim_rate=47894 (inst/sec) elapsed = 0:0:01:03 / Tue Mar 22 12:50:05 2016
GPGPU-Sim uArch: Shader 4 finished CTA #2 (83627,0), 5 CTAs running
GPGPU-Sim uArch: core:  4, cta: 2 initialized @(83628,0)
GPGPU-Sim uArch: Shader 7 finished CTA #0 (83754,0), 5 CTAs running
GPGPU-Sim uArch: core:  7, cta: 0 initialized @(83755,0)
GPGPU-Sim uArch: Shader 7 finished CTA #1 (83873,0), 5 CTAs running
GPGPU-Sim uArch: core:  7, cta: 1 initialized @(83874,0)
GPGPU-Sim uArch: Shader 4 finished CTA #3 (83881,0), 5 CTAs running
GPGPU-Sim uArch: core:  4, cta: 3 initialized @(83882,0)
GPGPU-Sim uArch: Shader 2 finished CTA #2 (84039,0), 5 CTAs running
GPGPU-Sim uArch: core:  2, cta: 2 initialized @(84040,0)
GPGPU-Sim uArch: Shader 8 finished CTA #4 (84060,0), 5 CTAs running
GPGPU-Sim uArch: core:  8, cta: 4 initialized @(84061,0)
GPGPU-Sim uArch: Shader 10 finished CTA #5 (84472,0), 5 CTAs running
GPGPU-Sim uArch: core: 10, cta: 5 initialized @(84473,0)
GPGPU-Sim uArch: Shader 10 finished CTA #0 (84507,0), 5 CTAs running
GPGPU-Sim uArch: core: 10, cta: 0 initialized @(84508,0)
GPGPU-Sim uArch: Shader 7 finished CTA #2 (84551,0), 5 CTAs running
GPGPU-Sim uArch: core:  7, cta: 2 initialized @(84552,0)
GPGPU-Sim uArch: Shader 13 finished CTA #1 (84595,0), 5 CTAs running
GPGPU-Sim uArch: core: 13, cta: 1 initialized @(84596,0)
GPGPU-Sim uArch: Shader 12 finished CTA #5 (84665,0), 5 CTAs running
GPGPU-Sim uArch: core: 12, cta: 5 initialized @(84666,0)
GPGPU-Sim uArch: Shader 0 finished CTA #1 (84723,0), 5 CTAs running
GPGPU-Sim uArch: core:  0, cta: 1 initialized @(84724,0)
GPGPU-Sim uArch: Shader 0 finished CTA #2 (84828,0), 5 CTAs running
GPGPU-Sim uArch: core:  0, cta: 2 initialized @(84829,0)
GPGPU-Sim uArch: cycles simulated: 85000  inst.: 3076832 (ipc=36.2) sim_rate=48075 (inst/sec) elapsed = 0:0:01:04 / Tue Mar 22 12:50:06 2016
GPGPU-Sim uArch: Shader 3 finished CTA #2 (85189,0), 5 CTAs running
GPGPU-Sim uArch: core:  3, cta: 2 initialized @(85190,0)
GPGPU-Sim PTX: 3200000 instructions simulated : ctaid=(12,23,0) tid=(15,1,0)
GPGPU-Sim uArch: Shader 12 finished CTA #0 (85930,0), 5 CTAs running
GPGPU-Sim uArch: core: 12, cta: 0 initialized @(85931,0)
GPGPU-Sim uArch: Shader 14 finished CTA #0 (86158,0), 5 CTAs running
GPGPU-Sim uArch: core: 14, cta: 0 initialized @(86159,0)
GPGPU-Sim uArch: Shader 12 finished CTA #1 (86215,0), 5 CTAs running
GPGPU-Sim uArch: core: 12, cta: 1 initialized @(86216,0)
GPGPU-Sim uArch: Shader 14 finished CTA #1 (86342,0), 5 CTAs running
GPGPU-Sim uArch: core: 14, cta: 1 initialized @(86343,0)
GPGPU-Sim uArch: cycles simulated: 86500  inst.: 3142144 (ipc=36.3) sim_rate=48340 (inst/sec) elapsed = 0:0:01:05 / Tue Mar 22 12:50:07 2016
GPGPU-Sim uArch: Shader 12 finished CTA #2 (86542,0), 5 CTAs running
GPGPU-Sim uArch: core: 12, cta: 2 initialized @(86543,0)
GPGPU-Sim uArch: Shader 5 finished CTA #1 (86781,0), 5 CTAs running
GPGPU-Sim uArch: core:  5, cta: 1 initialized @(86782,0)
GPGPU-Sim uArch: Shader 7 finished CTA #3 (87044,0), 5 CTAs running
GPGPU-Sim uArch: core:  7, cta: 3 initialized @(87045,0)
GPGPU-Sim uArch: Shader 1 finished CTA #3 (87239,0), 5 CTAs running
GPGPU-Sim uArch: core:  1, cta: 3 initialized @(87240,0)
GPGPU-Sim uArch: Shader 13 finished CTA #2 (87534,0), 5 CTAs running
GPGPU-Sim uArch: core: 13, cta: 2 initialized @(87535,0)
GPGPU-Sim uArch: Shader 1 finished CTA #2 (87546,0), 5 CTAs running
GPGPU-Sim uArch: core:  1, cta: 2 initialized @(87547,0)
GPGPU-Sim uArch: Shader 10 finished CTA #1 (87772,0), 5 CTAs running
GPGPU-Sim uArch: core: 10, cta: 1 initialized @(87773,0)
GPGPU-Sim uArch: cycles simulated: 88000  inst.: 3193792 (ipc=36.3) sim_rate=48390 (inst/sec) elapsed = 0:0:01:06 / Tue Mar 22 12:50:08 2016
GPGPU-Sim PTX: 3300000 instructions simulated : ctaid=(7,23,0) tid=(15,13,0)
GPGPU-Sim uArch: Shader 0 finished CTA #3 (88863,0), 5 CTAs running
GPGPU-Sim uArch: core:  0, cta: 3 initialized @(88864,0)
GPGPU-Sim uArch: Shader 11 finished CTA #2 (89323,0), 5 CTAs running
GPGPU-Sim uArch: core: 11, cta: 2 initialized @(89324,0)
GPGPU-Sim uArch: cycles simulated: 89500  inst.: 3253888 (ipc=36.4) sim_rate=48565 (inst/sec) elapsed = 0:0:01:07 / Tue Mar 22 12:50:09 2016
GPGPU-Sim uArch: Shader 9 finished CTA #1 (89582,0), 5 CTAs running
GPGPU-Sim uArch: core:  9, cta: 1 initialized @(89583,0)
GPGPU-Sim uArch: Shader 9 finished CTA #2 (89653,0), 5 CTAs running
GPGPU-Sim uArch: core:  9, cta: 2 initialized @(89654,0)
GPGPU-Sim uArch: Shader 11 finished CTA #3 (89671,0), 5 CTAs running
GPGPU-Sim uArch: core: 11, cta: 3 initialized @(89672,0)
GPGPU-Sim uArch: Shader 12 finished CTA #3 (90017,0), 5 CTAs running
GPGPU-Sim uArch: core: 12, cta: 3 initialized @(90018,0)
GPGPU-Sim uArch: Shader 5 finished CTA #2 (90049,0), 5 CTAs running
GPGPU-Sim uArch: core:  5, cta: 2 initialized @(90050,0)
GPGPU-Sim uArch: Shader 6 finished CTA #2 (90786,0), 5 CTAs running
GPGPU-Sim uArch: core:  6, cta: 2 initialized @(90787,0)
GPGPU-Sim PTX: 3400000 instructions simulated : ctaid=(6,21,0) tid=(15,11,0)
GPGPU-Sim uArch: cycles simulated: 91000  inst.: 3305696 (ipc=36.3) sim_rate=48613 (inst/sec) elapsed = 0:0:01:08 / Tue Mar 22 12:50:10 2016
GPGPU-Sim uArch: Shader 6 finished CTA #3 (91026,0), 5 CTAs running
GPGPU-Sim uArch: core:  6, cta: 3 initialized @(91027,0)
GPGPU-Sim uArch: Shader 14 finished CTA #2 (91080,0), 5 CTAs running
GPGPU-Sim uArch: core: 14, cta: 2 initialized @(91081,0)
GPGPU-Sim uArch: Shader 0 finished CTA #4 (91137,0), 5 CTAs running
GPGPU-Sim uArch: core:  0, cta: 4 initialized @(91138,0)
GPGPU-Sim uArch: Shader 10 finished CTA #2 (91189,0), 5 CTAs running
GPGPU-Sim uArch: core: 10, cta: 2 initialized @(91190,0)
GPGPU-Sim uArch: Shader 13 finished CTA #3 (91813,0), 5 CTAs running
GPGPU-Sim uArch: core: 13, cta: 3 initialized @(91814,0)
GPGPU-Sim uArch: cycles simulated: 92000  inst.: 3347168 (ipc=36.4) sim_rate=48509 (inst/sec) elapsed = 0:0:01:09 / Tue Mar 22 12:50:11 2016
GPGPU-Sim uArch: Shader 12 finished CTA #4 (92345,0), 5 CTAs running
GPGPU-Sim uArch: core: 12, cta: 4 initialized @(92346,0)
GPGPU-Sim uArch: Shader 5 finished CTA #3 (92538,0), 5 CTAs running
GPGPU-Sim uArch: core:  5, cta: 3 initialized @(92539,0)
GPGPU-Sim uArch: Shader 4 finished CTA #4 (92763,0), 5 CTAs running
GPGPU-Sim uArch: core:  4, cta: 4 initialized @(92764,0)
GPGPU-Sim uArch: Shader 1 finished CTA #4 (93189,0), 5 CTAs running
GPGPU-Sim uArch: core:  1, cta: 4 initialized @(93190,0)
GPGPU-Sim PTX: 3500000 instructions simulated : ctaid=(9,21,0) tid=(15,3,0)
GPGPU-Sim uArch: Shader 12 finished CTA #0 (93311,0), 5 CTAs running
GPGPU-Sim uArch: core: 12, cta: 0 initialized @(93312,0)
[...]
mf_lat_pw_table:0 	0 	0 	0 	0 	0 	0 	1 	70 	1950 	117 	0 	0 	0 	0 	0 	0 	0 	0 	0 	0 	0 	0 	0 	0 	0 	0 	0 	0 	0 	0 	0 	
maximum concurrent accesses to same row:
dram[0]:        29        32        32        32        32        32        32        32        32        32        30        29        32        32        32        32 
dram[1]:        32        32        30        26        32        32        32        32        32        32        32        32        32        31        32        32 
dram[2]:        32        30        32        32        32        32        32        32        32        32        31        32        32        32        32        32 
dram[3]:        32        32        29        30        32        32        32        32        32        31        32        32        32        32        32        32 
dram[4]:        29        32        32        32        32        32        32        32        32        32        29        30        32        32        32        32 
dram[5]:        32        32        29        28        32        32        32        32        30        32        32        32        32        31        32        32 
maximum service time to same row:
dram[0]:     27232     35084     27231     35075     27231     33499     25773     32890     25335     26475     25069     28172     25186     34481     25186     34472 
dram[1]:     24376     47969     24552     47960     25737     46439     26103     46399     25050     27709     25726     28057     25725     42552     25725     49374 
dram[2]:     34524     27241     35078     25374     33498     25782     32906     25782     25125     24278     28168     25070     34484     25187     34475     25186 
dram[3]:     47972     24486     47963     24559     46438     25147     46401     25059     27721     26113     28031     25676     42554     25663     49377     25870 
dram[4]:     27241     35081     27241     35072     27240     32948     25782     32894     24287     26251     24378     28169     25375     34478     25177     34469 
dram[5]:     24477     47966     27925     47957     24891     46439     25059     46393     26076     27712     25725     33838     25770     42635     26331     49371 
average row accesses per activate:
dram[0]:  2.180863  2.186941  2.152352  2.163919  2.169501  2.189476  2.182147  2.208413  2.138956  2.173521  2.175488  2.195657  2.174147  2.186399  2.176276  2.183716 
dram[1]:  2.178652  2.157034  2.182493  2.168326  2.187913  2.166048  2.200418  2.173856  2.183330  2.177691  2.177550  2.170246  2.224622  2.188962  2.232661  2.180208 
dram[2]:  2.174201  2.191061  2.159872  2.143234  2.189864  2.182841  2.213068  2.171234  2.182418  2.144536  2.196764  2.184909  2.189805  2.175253  2.186427  2.186061 
dram[3]:  2.159582  2.171772  2.170341  2.189333  2.159213  2.188862  2.194481  2.193395  2.182345  2.175828  2.173666  2.192400  2.199175  2.228037  2.183969  2.233417 
dram[4]:  2.180294  2.181404  2.154940  2.169415  2.156115  2.194450  2.174645  2.212627  2.141109  2.186086  2.189666  2.194216  2.178201  2.186515  2.191277  2.179905 
dram[5]:  2.183824  2.154503  2.176169  2.174044  2.180229  2.161481  2.185671  2.194513  2.171294  2.186081  2.181529  2.171141  2.221641  2.199135  2.216729  2.177501 
average row locality = 1077802/494070 = 2.181476
number of total memory accesses made:
dram[0]:         0         0         0         0         0         0         0         0         0         0         0         0         0         0         0         0 
dram[1]:         0         0         0         0         0         0         0         0         0         0         0         0         0         0         0         0 
dram[2]:         0         0         0         0         0         0         0         0         0         0         0         0         0         0         0         0 
dram[3]:         0         0         0         0         0         0         0         0         0         0         0         0         0         0         0         0 
dram[4]:         0         0         0         0         0         0         0         0         0         0         0         0         0         0         0         0 
dram[5]:         0         0         0         0         0         0         0         0         0         0         0         0         0         0         0         0 
total accesses: 0
min_bank_accesses = 0!
min_chip_accesses = 0!
number of total read accesses:
dram[0]:      5293      5361      5210      5324      5330      5418      5357      5367      5399      5436      5149      5134      4946      4962      4946      4978 
dram[1]:      5420      5469      5348      5419      5431      5519      5418      5458      5421      5496      5216      5253      5004      5084      5013      5103 
dram[2]:      5363      5294      5329      5255      5413      5318      5397      5367      5429      5387      5174      5105      4984      4937      4969      4957 
dram[3]:      5457      5406      5416      5365      5493      5411      5477      5415      5518      5436      5257      5179      5079      5003      5102      5025 
dram[4]:      5298      5358      5255      5333      5337      5397      5370      5388      5417      5453      5141      5148      4942      4961      4962      4967 
dram[5]:      5418      5457      5343      5418      5447      5508      5388      5462      5433      5511      5171      5239      5017      5088      5022      5095 
total reads: 506143
bank skew: 5519/4937 = 1.12
chip skew: 85072/83610 = 1.02
number of total write accesses:
dram[0]:      6126      6127      6092      6095      6151      6149      6108      6130      6115      6138      5785      5785      5566      5583      5585      5589 
dram[1]:      6153      6138      6121      6123      6154      6156      6154      6133      6131      6159      5822      5761      5603      5585      5610      5604 
dram[2]:      6132      6128      6114      6102      6167      6131      6153      6121      6140      6112      5823      5754      5584      5576      5598      5582 
dram[3]:      6127      6150      6102      6129      6143      6144      6134      6142      6151      6122      5820      5783      5587      5598      5606      5615 
dram[4]:      6142      6138      6108      6115      6140      6148      6123      6142      6130      6142      5792      5777      5570      5578      5589      5599 
dram[5]:      6165      6145      6108      6124      6154      6164      6113      6136      6140      6143      5789      5760      5598      5591      5605      5590 
total reads: 571659
bank skew: 6167/5566 = 1.11
chip skew: 95407/95124 = 1.00
average mf latency per bank:
dram[0]:        478       469       486       471       482       466       490       479       491       474       483       467       484       472       487       476
dram[1]:        474       473       470       471       475       472       477       483       475       474       481       480       479       476       477       478
dram[2]:        476       476       480       483       473       482       482       487       481       487       480       482       482       482       484       486
dram[3]:        475       478       472       473       473       476       481       479       473       475       480       480       477       478       480       481
dram[4]:        480       467       487       470       487       466       491       472       488       469       482       466       485       468       488       471
dram[5]:        474       471       471       470       474       473       483       480       473       470       477       478       478       473       477       477
maximum mf latency per bank:
dram[0]:       1870      1756      1838      1686      1843      1598      1835      1652      1826      1684      1863      1730      1829      1579      1850      1757
dram[1]:       1686      1641      1676      1817      1697      1708      1665      1692      1654      1656      1652      1698      1737      1594      1661      1681
dram[2]:       1735      1949      1729      1956      1716      1925      1851      1794      1668      2007      1797      1944      1809      1963      1711      1974
dram[3]:       1673      1858      1656      1785      1633      1796      1609      1703      1715      1728      1627      1681      1710      1707      1762      1796
dram[4]:       1934      1783      1941      1686      1787      1630      1846      1606      1883      1638      1987      1697      1969      1644      1826      1708
dram[5]:       1632      1589      1702      1623      1613      1588      1633      1605      1667      1603      1608      1592      1686      1563      1646      1620

Number of Memory Banks Accessed per Memory Operation per Warp (from 0):
0	0	0	0	0	0	0	0	0	0	0	0	0	0	0	0	0	0	0	0	0	0	0	0	0	0	0	0	0	0	0	0	0	0	0	0	0	0	0	0	0	0	0	0	0	0	0	0	0	0	0	0	0	0	0	0	0	0	0	0	0	0	0	0	0	0	0	0	0	0	0	0	0	0	0	0	0	0	0	0	0	0	0	0	0	0	0	0	0	0	0	0	0	0	0	0	
Average # of Memory Banks Accessed per Memory Operation per Warp=-nan

position of mrq chosen
0	0	0	0	0	0	0	0	0	0	0	0	0	0	0	0	

average position of mrq chosen = -nan
Memory Partition 0: 
Cache L2_bank_000:
MSHR contents

Cache L2_bank_001:
MSHR contents

In Dram Latency Queue (total = 0): 
DRAM[0]: 16 bks, busW=4 BL=8 CL=12, tRRD=2 tCCD=6, tRCD=12 tRAS=28 tRP=12 tRC=40
n_cmd=1413442 n_nop=981413 n_act=82096 n_pre=82080 n_req=178734 n_rd=167220 n_write=100633 bw_util=0.379
n_activity=1169348 dram_eff=0.4581
bk0: 10586a 1069849i bk1: 10722a 1062976i bk2: 10420a 1058864i bk3: 10648a 1053518i bk4: 10660a 1051042i bk5: 10836a 1044843i bk6: 10714a 1044075i bk7: 10734a 1041133i bk8: 10798a 1058481i bk9: 10872a 1052908i bk10: 10298a 1072118i bk11: 10268a 1071532i bk12: 9892a 1076537i bk13: 9924a 1074570i bk14: 9892a 1073956i bk15: 9956a 1072336i 
dram_util_bins: 0 0 0 0 0 0 0 0 0 0
dram_eff_bins: 0 0 0 0 0 0 0 0 0 0
mrqq: max=16 avg=6.37618
Memory Partition 1: 
Cache L2_bank_002:
MSHR contents

Cache L2_bank_003:
MSHR contents
MSHR: tag=0x807aff80, atomic=0 1 entries : 0x7f0b26768c90 :  mf: uid=16844090, sid09:w05, part=1, addr=0x807affc0, load , size=64, unknown  status = IN_PARTITION_DRAM (1070784), 
MSHR: tag=0x807bbf80, atomic=0 1 entries : 0x7f0b27582eb0 :  mf: uid=16844089, sid09:w07, part=1, addr=0x807bbfc0, load , size=64, unknown  status = IN_PARTITION_DRAM (1070789), 

In Dram Latency Queue (total = 0): 
DRAM[1]: 16 bks, busW=4 BL=8 CL=12, tRRD=2 tCCD=6, tRCD=12 tRAS=28 tRP=12 tRC=40
n_cmd=1413442 n_nop=977651 n_act=82645 n_pre=82629 n_req=180479 n_rd=170144 n_write=100373 bw_util=0.3828
n_activity=1163933 dram_eff=0.4648
bk0: 10840a 1059799i bk1: 10938a 1053559i bk2: 10696a 1054212i bk3: 10838a 1046375i bk4: 10862a 1042421i bk5: 11038a 1039302i bk6: 10836a 1038388i bk7: 10916a 1032883i bk8: 10842a 1057900i bk9: 10992a 1050241i bk10: 10432a 1064650i bk11: 10506a 1061994i bk12: 10008a 1073545i bk13: 10168a 1068559i bk14: 10026a 1071120i bk15: 10206a 1064168i 
dram_util_bins: 0 0 0 0 0 0 0 0 0 0
dram_eff_bins: 0 0 0 0 0 0 0 0 0 0
mrqq: max=16 avg=6.64987
Memory Partition 2: 
Cache L2_bank_004:
MSHR contents

Cache L2_bank_005:
MSHR contents

In Dram Latency Queue (total = 0): 
DRAM[2]: 16 bks, busW=4 BL=8 CL=12, tRRD=2 tCCD=6, tRCD=12 tRAS=28 tRP=12 tRC=40
n_cmd=1413442 n_nop=981204 n_act=82092 n_pre=82076 n_req=178895 n_rd=167356 n_write=100714 bw_util=0.3793
n_activity=1168220 dram_eff=0.4589
bk0: 10726a 1062193i bk1: 10588a 1066479i bk2: 10658a 1051599i bk3: 10510a 1056919i bk4: 10826a 1045175i bk5: 10636a 1050417i bk6: 10794a 1040618i bk7: 10734a 1040917i bk8: 10858a 1055836i bk9: 10774a 1056347i bk10: 10348a 1068595i bk11: 10210a 1073815i bk12: 9968a 1074735i bk13: 9874a 1077677i bk14: 9938a 1071387i bk15: 9914a 1073615i 
dram_util_bins: 0 0 0 0 0 0 0 0 0 0
dram_eff_bins: 0 0 0 0 0 0 0 0 0 0
mrqq: max=16 avg=6.4375
Memory Partition 3: 
Cache L2_bank_006:
MSHR contents
MSHR: tag=0x8079ff80, atomic=0 1 entries : 0x7f0b27437e10 :  mf: uid=16844086, sid09:w03, part=3, addr=0x8079ffc0, load , size=64, unknown  status = IN_PARTITION_DRAM (1070788), 
MSHR: tag=0x807abf80, atomic=0 1 entries : 0x7f0b272c9380 :  mf: uid=16844091, sid09:w05, part=3, addr=0x807abfc0, load , size=64, unknown  status = IN_PARTITION_DRAM (1070790), 

Cache L2_bank_007:
MSHR contents

In Dram Latency Queue (total = 0): 
DRAM[3]: 16 bks, busW=4 BL=8 CL=12, tRRD=2 tCCD=6, tRCD=12 tRAS=28 tRP=12 tRC=40
n_cmd=1413442 n_nop=978086 n_act=82500 n_pre=82484 n_req=180392 n_rd=170076 n_write=100296 bw_util=0.3826
n_activity=1163127 dram_eff=0.4649
bk0: 10914a 1054889i bk1: 10812a 1056498i bk2: 10832a 1050452i bk3: 10730a 1051287i bk4: 10986a 1039730i bk5: 10822a 1043705i bk6: 10954a 1035998i bk7: 10830a 1038335i bk8: 11036a 1050871i bk9: 10872a 1058313i bk10: 10514a 1058962i bk11: 10358a 1068612i bk12: 10156a 1069037i bk13: 10006a 1075441i bk14: 10204a 1063515i bk15: 10050a 1071178i 
dram_util_bins: 0 0 0 0 0 0 0 0 0 0
dram_eff_bins: 0 0 0 0 0 0 0 0 0 0
mrqq: max=16 avg=6.66649
Memory Partition 4: 
Cache L2_bank_008:
MSHR contents

Cache L2_bank_009:
MSHR contents

In Dram Latency Queue (total = 0): 
DRAM[4]: 16 bks, busW=4 BL=8 CL=12, tRRD=2 tCCD=6, tRCD=12 tRAS=28 tRP=12 tRC=40
n_cmd=1413442 n_nop=981112 n_act=82124 n_pre=82108 n_req=178960 n_rd=167454 n_write=100644 bw_util=0.3794
n_activity=1168696 dram_eff=0.4588
bk0: 10596a 1067075i bk1: 10716a 1061077i bk2: 10510a 1059493i bk3: 10666a 1051970i bk4: 10674a 1049739i bk5: 10794a 1044818i bk6: 10740a 1041543i bk7: 10776a 1039635i bk8: 10834a 1058753i bk9: 10906a 1055826i bk10: 10282a 1070750i bk11: 10296a 1070705i bk12: 9884a 1079263i bk13: 9922a 1074059i bk14: 9924a 1075406i bk15: 9934a 1070994i 
dram_util_bins: 0 0 0 0 0 0 0 0 0 0
dram_eff_bins: 0 0 0 0 0 0 0 0 0 0
mrqq: max=16 avg=6.396
Memory Partition 5: 
Cache L2_bank_010:
MSHR contents

Cache L2_bank_011:
MSHR contents
MSHR: tag=0x807bff80, atomic=0 1 entries : 0x7f0b26b10720 :  mf: uid=16844088, sid09:w07, part=5, addr=0x807bffc0, load , size=64, unknown  status = IN_PARTITION_DRAM (1070788), 
MSHR: tag=0x807b3f80, atomic=0 1 entries : 0x7f0b27083de0 :  mf: uid=16844085, sid09:w06, part=5, addr=0x807b3fc0, load , size=64, unknown  status = IN_PARTITION_DRAM (1070783), 

In Dram Latency Queue (total = 0): 
DRAM[5]: 16 bks, busW=4 BL=8 CL=12, tRRD=2 tCCD=6, tRCD=12 tRAS=28 tRP=12 tRC=40
n_cmd=1413442 n_nop=977966 n_act=82614 n_pre=82598 n_req=180342 n_rd=170034 n_write=100230 bw_util=0.3824
n_activity=1162412 dram_eff=0.465
bk0: 10836a 1056389i bk1: 10914a 1053784i bk2: 10686a 1054434i bk3: 10836a 1047218i bk4: 10894a 1043707i bk5: 11016a 1036116i bk6: 10776a 1037371i bk7: 10924a 1034347i bk8: 10866a 1055350i bk9: 11022a 1051578i bk10: 10342a 1067182i bk11: 10478a 1063181i bk12: 10034a 1074730i bk13: 10176a 1068572i bk14: 10044a 1074193i bk15: 10190a 1063518i 
dram_util_bins: 0 0 0 0 0 0 0 0 0 0
dram_eff_bins: 0 0 0 0 0 0 0 0 0 0
mrqq: max=16 avg=6.66653

========= L2 cache stats =========
L2_cache_bank[0]: Access = 59915, Miss = 41630, Miss_rate = 0.695, Pending_hits = 9461, Reservation_fails = 230013
L2_cache_bank[1]: Access = 59861, Miss = 41980, Miss_rate = 0.701, Pending_hits = 9188, Reservation_fails = 228951
L2_cache_bank[2]: Access = 59910, Miss = 42271, Miss_rate = 0.706, Pending_hits = 9359, Reservation_fails = 226266
L2_cache_bank[3]: Access = 59791, Miss = 42801, Miss_rate = 0.716, Pending_hits = 8643, Reservation_fails = 235019
L2_cache_bank[4]: Access = 59930, Miss = 42058, Miss_rate = 0.702, Pending_hits = 9309, Reservation_fails = 231124
L2_cache_bank[5]: Access = 59848, Miss = 41620, Miss_rate = 0.695, Pending_hits = 9431, Reservation_fails = 232209
L2_cache_bank[6]: Access = 59836, Miss = 42799, Miss_rate = 0.715, Pending_hits = 8603, Reservation_fails = 232539
L2_cache_bank[7]: Access = 59853, Miss = 42240, Miss_rate = 0.706, Pending_hits = 9363, Reservation_fails = 226123
L2_cache_bank[8]: Access = 59838, Miss = 41722, Miss_rate = 0.697, Pending_hits = 9453, Reservation_fails = 232702
L2_cache_bank[9]: Access = 59871, Miss = 42005, Miss_rate = 0.702, Pending_hits = 9298, Reservation_fails = 227368
L2_cache_bank[10]: Access = 59851, Miss = 42239, Miss_rate = 0.706, Pending_hits = 9317, Reservation_fails = 226386
L2_cache_bank[11]: Access = 59797, Miss = 42778, Miss_rate = 0.715, Pending_hits = 8702, Reservation_fails = 233517
L2_total_cache_accesses = 718301
L2_total_cache_misses = 506143
L2_total_cache_miss_rate = 0.7046
L2_total_cache_pending_hits = 110127
L2_total_cache_reservation_fails = 2762217
L2_total_cache_breakdown:
	L2_cache_stats_breakdown[GLOBAL_ACC_R][HIT] = 52558
	L2_cache_stats_breakdown[GLOBAL_ACC_R][HIT_RESERVED] = 9127
	L2_cache_stats_breakdown[GLOBAL_ACC_R][MISS] = 66687
	L2_cache_stats_breakdown[GLOBAL_ACC_R][RESERVATION_FAIL] = 14619
	L2_cache_stats_breakdown[CONST_ACC_R][HIT] = 11
	L2_cache_stats_breakdown[CONST_ACC_R][HIT_RESERVED] = 3
	L2_cache_stats_breakdown[CONST_ACC_R][MISS] = 1
	L2_cache_stats_breakdown[CONST_ACC_R][RESERVATION_FAIL] = 100
	L2_cache_stats_breakdown[GLOBAL_ACC_W][HIT] = 49396
	L2_cache_stats_breakdown[GLOBAL_ACC_W][HIT_RESERVED] = 100979
	L2_cache_stats_breakdown[GLOBAL_ACC_W][MISS] = 439449
	L2_cache_stats_breakdown[GLOBAL_ACC_W][RESERVATION_FAIL] = 2746919
	L2_cache_stats_breakdown[INST_ACC_R][HIT] = 66
	L2_cache_stats_breakdown[INST_ACC_R][HIT_RESERVED] = 18
	L2_cache_stats_breakdown[INST_ACC_R][MISS] = 6
	L2_cache_stats_breakdown[INST_ACC_R][RESERVATION_FAIL] = 579
L2_cache_data_port_util = 0.021
L2_cache_fill_port_util = 0.158

icnt_total_pkts_mem_to_simt=1232179
icnt_total_pkts_simt_to_mem=1373661
LD_mem_lat_dist  0 0 0 0 0 0 0 0 0 0 0 0 0 0 0 0 0 0 0 0 0 0 0 0 0 0 0
ST_mem_lat_dist  0 0 0 0 0 0 0 0 0 0 0 0 0 0 0 0 0 0 0 0 0 0 0 0 0 0 0
----------------------------Interconnect-DETAILS--------------------------------
Class 0:
Packet latency average = 81.0059
	minimum = 6
	maximum = 1044
Network latency average = 48.2711
	minimum = 6
	maximum = 734
Slowest packet = 1177120
Flit latency average = 39.6413
	minimum = 6
	maximum = 734
Slowest flit = 2358732
Fragmentation average = 0.442393
	minimum = 0
	maximum = 414
Injected packet rate average = 0.0519939
	minimum = 0.0446463 (at node 8)
	maximum = 0.0586471 (at node 15)
Accepted packet rate average = 0.0519939
	minimum = 0.0446463 (at node 8)
	maximum = 0.0586471 (at node 15)
Injected flit rate average = 0.129841
	minimum = 0.0894488 (at node 8)
	maximum = 0.175543 (at node 15)
Accepted flit rate average= 0.129841
	minimum = 0.11709 (at node 26)
	maximum = 0.145086 (at node 13)
Injected packet length average = 2.49723
Accepted packet length average = 2.49723
Total in-flight flits = 0 (0 measured)
====== Overall Traffic Statistics ======
====== Traffic class 0 ======
Packet latency average = 92.7696 (2 samples)
	minimum = 6 (2 samples)
	maximum = 1062.5 (2 samples)
Network latency average = 52.8164 (2 samples)
	minimum = 6 (2 samples)
	maximum = 820.5 (2 samples)
Flit latency average = 51.3549 (2 samples)
	minimum = 6 (2 samples)
	maximum = 820.5 (2 samples)
Fragmentation average = 0.317139 (2 samples)
	minimum = 0 (2 samples)
	maximum = 474.5 (2 samples)
Injected packet rate average = 0.0506002 (2 samples)
	minimum = 0.0439188 (2 samples)
	maximum = 0.0570316 (2 samples)
Accepted packet rate average = 0.0506002 (2 samples)
	minimum = 0.0439188 (2 samples)
	maximum = 0.0570316 (2 samples)
Injected flit rate average = 0.105821 (2 samples)
	minimum = 0.0843307 (2 samples)
	maximum = 0.131295 (2 samples)
Accepted flit rate average = 0.105821 (2 samples)
	minimum = 0.0895214 (2 samples)
	maximum = 0.124944 (2 samples)
Injected packet size average = 2.09131 (2 samples)
Accepted packet size average = 2.09131 (2 samples)
Hops average = 1 (2 samples)
----------------------------END-of-Interconnect-DETAILS-------------------------
GPGPU-Sim API: Stream Manager State
