

        *** GPGPU-Sim Simulator Version 3.2.2  [build 0] ***


GPGPU-Sim PTX: simulation mode 0 (can change with PTX_SIM_MODE_FUNC environment variable:
               1=functional simulation only, 0=detailed performance simulator)
GPGPU-Sim: Configuration options:

-network_mode                           1 # Interconnection network mode
-inter_config_file   config_fermi_islip.icnt # Interconnection network config file
-gpgpu_ptx_use_cuobjdump                    1 # Use cuobjdump to extract ptx and sass from binaries
-gpgpu_experimental_lib_support                    0 # Try to extract code from cuda libraries [Broken because of unknown cudaGetExportTable]
-gpgpu_ptx_convert_to_ptxplus                    0 # Convert SASS (native ISA) to ptxplus and run ptxplus
-gpgpu_ptx_force_max_capability                   20 # Force maximum compute capability
-gpgpu_ptx_inst_debug_to_file                    0 # Dump executed instructions' debug information to file
-gpgpu_ptx_inst_debug_file       inst_debug.txt # Executed instructions' debug output file
-gpgpu_ptx_inst_debug_thread_uid                    1 # Thread UID for executed instructions' debug output
-gpgpu_simd_model                       1 # 1 = post-dominator
-gpgpu_shader_core_pipeline              1536:32 # shader core pipeline config, i.e., {<nthread>:<warpsize>}
-gpgpu_tex_cache:l1  4:128:24,L:R:m:N:L,F:128:4,128:2 # per-shader L1 texture cache  (READ-ONLY) config  {<nsets>:<bsize>:<assoc>,<rep>:<wr>:<alloc>:<wr_alloc>,<mshr>:<N>:<merge>,<mq>:<rf>}
-gpgpu_const_cache:l1 64:64:2,L:R:f:N:L,A:2:32,4 # per-shader L1 constant memory cache  (READ-ONLY) config  {<nsets>:<bsize>:<assoc>,<rep>:<wr>:<alloc>:<wr_alloc>,<mshr>:<N>:<merge>,<mq>} 
-gpgpu_cache:il1     4:128:4,L:R:f:N:L,A:2:32,4 # shader L1 instruction cache config  {<nsets>:<bsize>:<assoc>,<rep>:<wr>:<alloc>:<wr_alloc>,<mshr>:<N>:<merge>,<mq>} 
-gpgpu_cache:dl1     32:128:4,L:L:m:N:H,A:32:8,8:2,0,1:0:1:1:0:1,1:4:8:16:32:64,/sciclone/data10/hwang07/GPU_RESEARCH/swl/swl_outputs/RESULTS/swl24/ # per-shader L1 data cache config  {<nsets>:<bsize>:<assoc>,<rep>:<wr>:<alloc>:<wr_alloc>,<mshr>:<N>:<merge>,<mq> | none}
-gpgpu_cache:dl1PrefL1                 none # per-shader L1 data cache config  {<nsets>:<bsize>:<assoc>,<rep>:<wr>:<alloc>:<wr_alloc>,<mshr>:<N>:<merge>,<mq> | none}
-gpgpu_cache:dl1PreShared                 none # per-shader L1 data cache config  {<nsets>:<bsize>:<assoc>,<rep>:<wr>:<alloc>:<wr_alloc>,<mshr>:<N>:<merge>,<mq> | none}
-gmem_skip_L1D                          0 # global memory access skip L1D cache (implements -Xptxas -dlcm=cg, default=no skip)
-gpgpu_perfect_mem                      0 # enable perfect memory mode (no cache miss)
-n_regfile_gating_group                    4 # group of lanes that should be read/written together)
-gpgpu_clock_gated_reg_file                    0 # enable clock gated reg file for power calculations
-gpgpu_clock_gated_lanes                    0 # enable clock gated lanes for power calculations
-gpgpu_shader_registers                32768 # Number of registers per shader core. Limits number of concurrent CTAs. (default 8192)
-gpgpu_shader_cta                       8 # Maximum number of concurrent CTAs in shader (default 8)
-gpgpu_num_cta_barriers                   16 # Maximum number of named barriers per CTA (default 16)
-gpgpu_n_clusters                      15 # number of processing clusters
-gpgpu_n_cores_per_cluster                    1 # number of simd cores per cluster
-gpgpu_n_cluster_ejection_buffer_size                    8 # number of packets in ejection buffer
-gpgpu_n_ldst_response_buffer_size                    2 # number of response packets in ld/st unit ejection buffer
-gpgpu_shmem_size                   16384 # Size of shared memory per shader core (default 16kB)
-gpgpu_shmem_size                   49152 # Size of shared memory per shader core (default 16kB)
-gpgpu_shmem_size_PrefL1                16384 # Size of shared memory per shader core (default 16kB)
-gpgpu_shmem_size_PrefShared                16384 # Size of shared memory per shader core (default 16kB)
-gpgpu_shmem_num_banks                   32 # Number of banks in the shared memory in each shader core (default 16)
-gpgpu_shmem_limited_broadcast                    0 # Limit shared memory to do one broadcast per cycle (default on)
-gpgpu_shmem_warp_parts                    1 # Number of portions a warp is divided into for shared memory bank conflict check 
-gpgpu_warpdistro_shader                   -1 # Specify which shader core to collect the warp size distribution from
-gpgpu_warp_issue_shader                    0 # Specify which shader core to collect the warp issue distribution from
-gpgpu_local_mem_map                    1 # Mapping from local memory space address to simulated GPU physical address space (default = enabled)
-gpgpu_num_reg_banks                   16 # Number of register banks (default = 8)
-gpgpu_reg_bank_use_warp_id                    0 # Use warp ID in mapping registers to banks (default = off)
-gpgpu_operand_collector_num_units_sp                    6 # number of collector units (default = 4)
-gpgpu_operand_collector_num_units_sfu                    8 # number of collector units (default = 4)
-gpgpu_operand_collector_num_units_mem                    2 # number of collector units (default = 2)
-gpgpu_operand_collector_num_units_gen                    0 # number of collector units (default = 0)
-gpgpu_operand_collector_num_in_ports_sp                    2 # number of collector unit in ports (default = 1)
-gpgpu_operand_collector_num_in_ports_sfu                    1 # number of collector unit in ports (default = 1)
-gpgpu_operand_collector_num_in_ports_mem                    1 # number of collector unit in ports (default = 1)
-gpgpu_operand_collector_num_in_ports_gen                    0 # number of collector unit in ports (default = 0)
-gpgpu_operand_collector_num_out_ports_sp                    2 # number of collector unit in ports (default = 1)
-gpgpu_operand_collector_num_out_ports_sfu                    1 # number of collector unit in ports (default = 1)
-gpgpu_operand_collector_num_out_ports_mem                    1 # number of collector unit in ports (default = 1)
-gpgpu_operand_collector_num_out_ports_gen                    0 # number of collector unit in ports (default = 0)
-gpgpu_coalesce_arch                   13 # Coalescing arch (default = 13, anything else is off for now)
-gpgpu_num_sched_per_core                    2 # Number of warp schedulers per core
-gpgpu_max_insn_issue_per_warp                    1 # Max number of instructions that can be issued per warp in one cycle by scheduler
-gpgpu_simt_core_sim_order                    1 # Select the simulation order of cores in a cluster (0=Fix, 1=Round-Robin)
-gpgpu_pipeline_widths        2,1,1,2,1,1,2 # Pipeline widths ID_OC_SP,ID_OC_SFU,ID_OC_MEM,OC_EX_SP,OC_EX_SFU,OC_EX_MEM,EX_WB
-gpgpu_num_sp_units                     2 # Number of SP units (default=1)
-gpgpu_num_sfu_units                    1 # Number of SF units (default=1)
-gpgpu_num_mem_units                    1 # Number if ldst units (default=1) WARNING: not hooked up to anything
-gpgpu_scheduler       warp_limiting:2:24 # Scheduler configuration: < lrr | gto | two_level_active > If two_level_active:<num_active_warps>:<inner_prioritization>:<outer_prioritization>For complete list of prioritization values see shader.h enum scheduler_prioritization_typeDefault: gto
-gpgpu_dram_scheduler                    1 # 0 = fifo, 1 = FR-FCFS (defaul)
-gpgpu_dram_partition_queues              8:8:8:8 # i2$:$2d:d2$:$2i
-l2_ideal                               0 # Use a ideal L2 cache that always hit
-gpgpu_cache:dl2     64:128:8,L:B:m:W:L,A:32:4,4:0,32 # unified banked L2 data cache config  {<nsets>:<bsize>:<assoc>,<rep>:<wr>:<alloc>:<wr_alloc>,<mshr>:<N>:<merge>,<mq>}
-gpgpu_cache:dl2_texture_only                    0 # L2 cache used for texture only
-gpgpu_n_mem                            6 # number of memory modules (e.g. memory controllers) in gpu
-gpgpu_n_sub_partition_per_mchannel                    2 # number of memory subpartition in each memory module
-gpgpu_n_mem_per_ctrlr                    2 # number of memory chips per memory controller
-gpgpu_memlatency_stat                   14 # track and display latency statistics 0x2 enables MC, 0x4 enables queue logs
-gpgpu_frfcfs_dram_sched_queue_size                   16 # 0 = unlimited (default); # entries per chip
-gpgpu_dram_return_queue_size                  116 # 0 = unlimited (default); # entries per chip
-gpgpu_dram_buswidth                    4 # default = 4 bytes (8 bytes per cycle at DDR)
-gpgpu_dram_burst_length                    8 # Burst length of each DRAM request (default = 4 data bus cycle)
-dram_data_command_freq_ratio                    4 # Frequency ratio between DRAM data bus and command bus (default = 2 times, i.e. DDR)
-gpgpu_dram_timing_opt nbk=16:CCD=2:RRD=6:RCD=12:RAS=28:RP=12:RC=40: CL=12:WL=4:CDLR=5:WR=12:nbkgrp=4:CCDL=3:RTPL=2 # DRAM timing parameters = {nbk:tCCD:tRRD:tRCD:tRAS:tRP:tRC:CL:WL:tCDLR:tWR:nbkgrp:tCCDL:tRTPL}
-rop_latency                          120 # ROP queue latency (default 85)
-dram_latency                         100 # DRAM latency (default 30)
-gpgpu_mem_addr_mapping dramid@8;00000000.00000000.00000000.00000000.0000RRRR.RRRRRRRR.BBBCCCCB.CCSSSSSS # mapping memory address to dram model {dramid@<start bit>;<memory address map>}
-gpgpu_mem_addr_test                    0 # run sweep test to check address mapping for aliased address
-gpgpu_mem_address_mask                    1 # 0 = old addressing mask, 1 = new addressing mask, 2 = new add. mask + flipped bank sel and chip sel bits
-gpuwattch_xml_file  gpuwattch_gtx480.xml # GPUWattch XML file
-power_simulation_enabled                    0 # Turn on power simulator (1=On, 0=Off)
-power_per_cycle_dump                    0 # Dump detailed power output each cycle
-power_trace_enabled                    0 # produce a file for the power trace (1=On, 0=Off)
-power_trace_zlevel                     6 # Compression level of the power trace output log (0=no comp, 9=highest)
-steady_power_levels_enabled                    0 # produce a file for the steady power levels (1=On, 0=Off)
-steady_state_definition                  8:4 # allowed deviation:number of samples
-gpgpu_max_cycle                        0 # terminates gpu simulation early (0 = no limit)
-gpgpu_max_insn                         0 # terminates gpu simulation early (0 = no limit)
-gpgpu_max_cta                          0 # terminates gpu simulation early (0 = no limit)
-gpgpu_runtime_stat                   500 # display runtime statistics such as dram utilization {<freq>:<flag>}
-liveness_message_freq                    1 # Minimum number of seconds between simulation liveness messages (0 = always print)
-gpgpu_flush_l1_cache                    0 # Flush L1 cache at the end of each kernel call
-gpgpu_flush_l2_cache                    0 # Flush L2 cache at the end of each kernel call
-gpgpu_deadlock_detect                    1 # Stop the simulation at deadlock (1=on (default), 0=off)
-gpgpu_ptx_instruction_classification                    0 # if enabled will classify ptx instruction types per kernel (Max 255 kernels now)
-gpgpu_ptx_sim_mode                     0 # Select between Performance (default) or Functional simulation (1)
-gpgpu_clock_domains 700.0:700.0:700.0:924.0 # Clock Domain Frequencies in MhZ {<Core Clock>:<ICNT Clock>:<L2 Clock>:<DRAM Clock>}
-gpgpu_max_concurrent_kernel                    8 # maximum kernels that can run concurrently on GPU
-gpgpu_cflog_interval                    0 # Interval between each snapshot in control flow logger
-visualizer_enabled                     0 # Turn on visualizer output (1=On, 0=Off)
-visualizer_outputfile                 NULL # Specifies the output log file for visualizer
-visualizer_zlevel                      6 # Compression level of the visualizer output log (0=no comp, 9=highest)
-trace_enabled                          0 # Turn on traces
-trace_components                    none # comma seperated list of traces to enable. Complete list found in trace_streams.tup. Default none
-trace_sampling_core                    0 # The core which is printed using CORE_DPRINTF. Default 0
-trace_sampling_memory_partition                   -1 # The memory partition which is printed using MEMPART_DPRINTF. Default -1 (i.e. all)
-enable_ptx_file_line_stats                    1 # Turn on PTX source line statistic profiling. (1 = On)
-ptx_line_stats_filename gpgpu_inst_stats.txt # Output file for PTX source line statistics.
-save_embedded_ptx                      0 # saves ptx files embedded in binary as <n>.ptx
-keep                                   0 # keep intermediate files created by GPGPU-Sim when interfacing with external programs
-gpgpu_ptx_save_converted_ptxplus                    0 # Saved converted ptxplus to a file
-ptx_opcode_latency_int         4,13,4,5,145 # Opcode latencies for integers <ADD,MAX,MUL,MAD,DIV>Default 1,1,19,25,145
-ptx_opcode_latency_fp          4,13,4,5,39 # Opcode latencies for single precision floating points <ADD,MAX,MUL,MAD,DIV>Default 1,1,1,1,30
-ptx_opcode_latency_dp         8,19,8,8,330 # Opcode latencies for double precision floating points <ADD,MAX,MUL,MAD,DIV>Default 8,8,8,8,335
-ptx_opcode_initiation_int            1,2,2,1,8 # Opcode initiation intervals for integers <ADD,MAX,MUL,MAD,DIV>Default 1,1,4,4,32
-ptx_opcode_initiation_fp            1,2,1,1,4 # Opcode initiation intervals for single precision floating points <ADD,MAX,MUL,MAD,DIV>Default 1,1,1,1,5
-ptx_opcode_initiation_dp         8,16,8,8,130 # Opcode initiation intervals for double precision floating points <ADD,MAX,MUL,MAD,DIV>Default 8,8,8,8,130
DRAM Timing Options:
nbk                                    16 # number of banks
CCD                                     2 # column to column delay
RRD                                     6 # minimal delay between activation of rows in different banks
RCD                                    12 # row to column delay
RAS                                    28 # time needed to activate row
RP                                     12 # time needed to precharge (deactivate) row
RC                                     40 # row cycle time
CDLR                                    5 # switching from write to read (changes tWTR)
WR                                     12 # last data-in to row precharge
CL                                     12 # CAS latency
WL                                      4 # Write latency
nbkgrp                                  4 # number of bank groups
CCDL                                    3 # column to column delay between accesses to different bank groups
RTPL                                    2 # read to precharge delay between accesses to different bank groups
Total number of memory sub partition = 12
addr_dec_mask[CHIP]  = 0000000000000000 	high:64 low:0
addr_dec_mask[BK]    = 000000000000e100 	high:16 low:8
addr_dec_mask[ROW]   = 000000000fff0000 	high:28 low:16
addr_dec_mask[COL]   = 0000000000001eff 	high:13 low:0
addr_dec_mask[BURST] = 000000000000003f 	high:6 low:0
sub_partition_id_mask = 0000000000000100
GPGPU-Sim uArch: clock freqs: 700000000.000000:700000000.000000:700000000.000000:924000000.000000
GPGPU-Sim uArch: clock periods: 0.00000000142857142857:0.00000000142857142857:0.00000000142857142857:0.00000000108225108225
*** Initializing Memory Statistics ***
GPGPU-Sim uArch: interconnect node map (shaderID+MemID to icntID)
GPGPU-Sim uArch: Memory nodes ID start from index: 15
GPGPU-Sim uArch:    0   1   2   3   4
GPGPU-Sim uArch:    5   6   7   8   9
GPGPU-Sim uArch:   10  11  12  13  14
GPGPU-Sim uArch:   15  16  17  18  19
GPGPU-Sim uArch:   20  21  22  23  24
GPGPU-Sim uArch:   25  26
GPGPU-Sim uArch: interconnect node reverse map (icntID to shaderID+MemID)
GPGPU-Sim uArch: Memory nodes start from ID: 15
GPGPU-Sim uArch:    0   1   2   3   4
GPGPU-Sim uArch:    5   6   7   8   9
GPGPU-Sim uArch:   10  11  12  13  14
GPGPU-Sim uArch:   15  16  17  18  19
GPGPU-Sim uArch:   20  21  22  23  24
GPGPU-Sim uArch:   25  26
3ac84fa4a7694480acfeeecc44658c10  /sciclone/data10/hwang07/adwait/applications/benchmarks/lonestar/bin/mst
GPGPU-Sim uArch: performance model initialization complete.
GPGPU-Sim PTX: __cudaRegisterFatBinary, fat_cubin_handle = 1, filename=apps/mst/./main.cu
self exe links to: /sciclone/data10/hwang07/adwait/applications/benchmarks/lonestar/bin/mst
Running md5sum using "md5sum /sciclone/data10/hwang07/adwait/applications/benchmarks/lonestar/bin/mst "
Parsing file _cuobjdump_complete_output_05X7Yg
######### cuobjdump parser ########
## Adding new section PTX
Adding ptx filename: _cuobjdump_1.ptx
Adding arch: sm_20
Adding identifier: apps/mst/./main.cu
## Adding new section ELF
Adding arch: sm_20
Adding identifier: apps/mst/./main.cu
Done parsing!!!
GPGPU-Sim PTX: __cudaRegisterFunction _Z18dfindcompminatomicPf5Graph14ComponentSpacePjS2_S2_S2_Pbi : hostFun 0x0x402390, fat_cubin_handle = 1
GPGPU-Sim PTX: allocating stack frame region for .param "__cudaparmf1__Z11global_syncjPVjS0_" from 0x0 to 0x4
GPGPU-Sim PTX: allocating stack frame region for .param "__cudaparmf2__Z11global_syncjPVjS0_" from 0x4 to 0xc
GPGPU-Sim PTX: allocating stack frame region for .param "__cudaparmf3__Z11global_syncjPVjS0_" from 0xc to 0x14
GPGPU-Sim PTX: allocating stack frame region for .param "__cudaparmf1__ZN5Graph13printStats1x1Ev" from 0x0 to 0x8
GPGPU-Sim PTX: allocating stack frame region for .param "__cudaretf__ZN5Graph13computeLevelsEv" from 0x0 to 0x4
GPGPU-Sim PTX: allocating stack frame region for .param "__cudaparmf1__ZN5Graph13computeLevelsEv" from 0x4 to 0xc
GPGPU-Sim PTX: allocating stack frame region for .param "__cudaparmf1__ZN5Graph10initLevelsEv" from 0x0 to 0x8
GPGPU-Sim PTX: allocating stack frame region for .param "__cudaparmf1__ZN5Graph8print1x1Ev" from 0x0 to 0x8
GPGPU-Sim PTX: allocating stack frame region for .param "__cudaparmf1__ZN14ComponentSpace8print1x1Ev" from 0x0 to 0x8
GPGPU-Sim PTX: allocating stack frame region for .param "__cudaretf__ZN14ComponentSpace4findEjb" from 0x0 to 0x4
GPGPU-Sim PTX: allocating stack frame region for .param "__cudaparmf1__ZN14ComponentSpace4findEjb" from 0x4 to 0xc
GPGPU-Sim PTX: allocating stack frame region for .param "__cudaparmf2__ZN14ComponentSpace4findEjb" from 0xc to 0x10
GPGPU-Sim PTX: allocating stack frame region for .param "__cudaparmf3__ZN14ComponentSpace4findEjb" from 0x10 to 0x14
GPGPU-Sim PTX: allocating stack frame region for .param "__cudaretf__ZN5Graph12getOutDegreeEj" from 0x0 to 0x4
GPGPU-Sim PTX: allocating stack frame region for .param "__cudaparmf1__ZN5Graph12getOutDegreeEj" from 0x4 to 0xc
GPGPU-Sim PTX: allocating stack frame region for .param "__cudaparmf2__ZN5Graph12getOutDegreeEj" from 0xc to 0x10
GPGPU-Sim PTX: allocating stack frame region for .param "__cudaretf__ZN5Graph9getWeightEjj" from 0x0 to 0x4
GPGPU-Sim PTX: allocating stack frame region for .param "__cudaparmf1__ZN5Graph9getWeightEjj" from 0x4 to 0xc
GPGPU-Sim PTX: allocating stack frame region for .param "__cudaparmf2__ZN5Graph9getWeightEjj" from 0xc to 0x10
GPGPU-Sim PTX: allocating stack frame region for .param "__cudaparmf3__ZN5Graph9getWeightEjj" from 0x10 to 0x14
GPGPU-Sim PTX: allocating stack frame region for .param "__cudaretf__ZN5Graph14getDestinationEjj" from 0x0 to 0x4
GPGPU-Sim PTX: allocating stack frame region for .param "__cudaparmf1__ZN5Graph14getDestinationEjj" from 0x4 to 0xc
GPGPU-Sim PTX: allocating stack frame region for .param "__cudaparmf2__ZN5Graph14getDestinationEjj" from 0xc to 0x10
GPGPU-Sim PTX: allocating stack frame region for .param "__cudaparmf3__ZN5Graph14getDestinationEjj" from 0x10 to 0x14
GPGPU-Sim PTX: allocating stack frame region for .param "__cudaretf_printf" from 0x0 to 0x4
GPGPU-Sim PTX: allocating stack frame region for .param "__cudaparmf1_printf" from 0x4 to 0xc
GPGPU-Sim PTX: allocating stack frame region for .param "__cudaretf_vprintf" from 0x0 to 0x4
GPGPU-Sim PTX: allocating stack frame region for .param "__cudaparmf1_vprintf" from 0x4 to 0xc
GPGPU-Sim PTX: allocating stack frame region for .param "__cudaparmf2_vprintf" from 0xc to 0x14
GPGPU-Sim PTX: allocating stack frame region for .param "__cudaretf__ZN14ComponentSpace5unifyEjj" from 0x0 to 0x4
GPGPU-Sim PTX: allocating stack frame region for .param "__cudaparmf1__ZN14ComponentSpace5unifyEjj" from 0x4 to 0xc
GPGPU-Sim PTX: allocating stack frame region for .param "__cudaparmf2__ZN14ComponentSpace5unifyEjj" from 0xc to 0x10
GPGPU-Sim PTX: allocating stack frame region for .param "__cudaparmf3__ZN14ComponentSpace5unifyEjj" from 0x10 to 0x14
GPGPU-Sim PTX: allocating stack frame region for .param "__cudaparmf1__ZN5Graph12computeStatsEv" from 0x0 to 0x8
GPGPU-Sim PTX: allocating stack frame region for .param "__cudaretf__ZN5Graph11getInDegreeEj" from 0x0 to 0x4
GPGPU-Sim PTX: allocating stack frame region for .param "__cudaparmf1__ZN5Graph11getInDegreeEj" from 0x4 to 0xc
GPGPU-Sim PTX: allocating stack frame region for .param "__cudaparmf2__ZN5Graph11getInDegreeEj" from 0xc to 0x10
GPGPU-Sim PTX: allocating stack frame region for .param "__cudaretf__ZN5Graph12getFirstEdgeEj" from 0x0 to 0x4
GPGPU-Sim PTX: allocating stack frame region for .param "__cudaparmf1__ZN5Graph12getFirstEdgeEj" from 0x4 to 0xc
GPGPU-Sim PTX: allocating stack frame region for .param "__cudaparmf2__ZN5Graph12getFirstEdgeEj" from 0xc to 0x10
GPGPU-Sim PTX: allocating stack frame region for .param "__cudaretf__ZN5Graph10getMinEdgeEj" from 0x0 to 0x4
GPGPU-Sim PTX: allocating stack frame region for .param "__cudaparmf1__ZN5Graph10getMinEdgeEj" from 0x4 to 0xc
GPGPU-Sim PTX: allocating stack frame region for .param "__cudaparmf2__ZN5Graph10getMinEdgeEj" from 0xc to 0x10
GPGPU-Sim PTX: allocating stack frame region for .param "__cudaparmf1__ZN5Graph12computeInOutEv" from 0x0 to 0x8
GPGPU-Sim PTX: allocating stack frame region for .param "__cudaparmf1__ZN5Graph15computeDiameterEv" from 0x0 to 0x8
GPGPU-Sim PTX: allocating stack frame region for .param "__cudaretf__ZN5Graph12findMaxLevelEv" from 0x0 to 0x4
GPGPU-Sim PTX: allocating stack frame region for .param "__cudaparmf1__ZN5Graph12findMaxLevelEv" from 0x4 to 0xc
GPGPU-Sim PTX: allocating stack frame region for .param "__cudaparmf1__ZN4ListC1Ej" from 0x0 to 0x8
GPGPU-Sim PTX: allocating stack frame region for .param "__cudaparmf2__ZN4ListC1Ej" from 0x8 to 0xc
GPGPU-Sim PTX: allocating stack frame region for .param "__cudaretf_malloc" from 0x0 to 0x8
GPGPU-Sim PTX: allocating stack frame region for .param "__cudaparmf1_malloc" from 0x8 to 0x10
GPGPU-Sim PTX: allocating stack frame region for .param "__cudaparmf1__ZN4List4initEPjjj" from 0x0 to 0x8
GPGPU-Sim PTX: allocating stack frame region for .param "__cudaparmf2__ZN4List4initEPjjj" from 0x8 to 0x10
GPGPU-Sim PTX: allocating stack frame region for .param "__cudaparmf3__ZN4List4initEPjjj" from 0x10 to 0x14
GPGPU-Sim PTX: allocating stack frame region for .param "__cudaparmf4__ZN4List4initEPjjj" from 0x14 to 0x18
GPGPU-Sim PTX: allocating stack frame region for .param "__cudaparmf1__ZN4List4pushEj" from 0x0 to 0x8
GPGPU-Sim PTX: allocating stack frame region for .param "__cudaparmf2__ZN4List4pushEj" from 0x8 to 0xc
GPGPU-Sim PTX: allocating stack frame region for .param "__cudaretf__ZN4List7toArrayEv" from 0x0 to 0x8
GPGPU-Sim PTX: allocating stack frame region for .param "__cudaparmf1__ZN4List7toArrayEv" from 0x8 to 0x10
GPGPU-Sim PTX: allocating stack frame region for .param "__cudaparmf1__ZN4List5clearEv" from 0x0 to 0x8
GPGPU-Sim PTX: allocating stack frame region for .param "__cudaparmf1_free" from 0x0 to 0x8
GPGPU-Sim PTX: allocating stack frame region for .param "__cudaretf__ZN4List4sizeEv" from 0x0 to 0x4
GPGPU-Sim PTX: allocating stack frame region for .param "__cudaparmf1__ZN4List4sizeEv" from 0x4 to 0xc
GPGPU-Sim PTX: allocating stack frame region for .param "__cudaparmf1__ZN4List4uniqEPjj" from 0x0 to 0x8
GPGPU-Sim PTX: allocating stack frame region for .param "__cudaparmf2__ZN4List4uniqEPjj" from 0x8 to 0x10
GPGPU-Sim PTX: allocating stack frame region for .param "__cudaparmf3__ZN4List4uniqEPjj" from 0x10 to 0x14
GPGPU-Sim PTX: allocating stack frame region for .param "__cudaretf__ZN14ComponentSpace16numberOfElementsEv" from 0x0 to 0x4
GPGPU-Sim PTX: allocating stack frame region for .param "__cudaparmf1__ZN14ComponentSpace16numberOfElementsEv" from 0x4 to 0xc
GPGPU-Sim PTX: allocating stack frame region for .param "__cudaretf__ZN14ComponentSpace18numberOfComponentsEv" from 0x0 to 0x4
GPGPU-Sim PTX: allocating stack frame region for .param "__cudaparmf1__ZN14ComponentSpace18numberOfComponentsEv" from 0x4 to 0xc
GPGPU-Sim PTX: allocating stack frame region for .param "__cudaretf__ZN14ComponentSpace6isBossEj" from 0x0 to 0x4
GPGPU-Sim PTX: allocating stack frame region for .param "__cudaparmf1__ZN14ComponentSpace6isBossEj" from 0x4 to 0xc
GPGPU-Sim PTX: allocating stack frame region for .param "__cudaparmf2__ZN14ComponentSpace6isBossEj" from 0xc to 0x10
GPGPU-Sim PTX: instruction assembly for function '_Z11global_syncjPVjS0_'...   done.
GPGPU-Sim PTX: finding reconvergence points for '_Z11global_syncjPVjS0_'...
GPGPU-Sim PTX: Finding dominators for '_Z11global_syncjPVjS0_'...
GPGPU-Sim PTX: Finding immediate dominators for '_Z11global_syncjPVjS0_'...
GPGPU-Sim PTX: Finding postdominators for '_Z11global_syncjPVjS0_'...
GPGPU-Sim PTX: Finding immediate postdominators for '_Z11global_syncjPVjS0_'...
GPGPU-Sim PTX: pre-decoding instructions for '_Z11global_syncjPVjS0_'...
GPGPU-Sim PTX: reconvergence points for _Z11global_syncjPVjS0_...
GPGPU-Sim PTX:  1 (potential) branch divergence @  PC=0x090 (_1.ptx:144) @!%p1 bra $Lt_0_6146;
GPGPU-Sim PTX:    immediate post dominator      @  PC=0x0c0 (_1.ptx:153) mov.u32 %r14, 0;
GPGPU-Sim PTX:  2 (potential) branch divergence @  PC=0x0d0 (_1.ptx:155) @%p2 bra $Lt_0_6658;
GPGPU-Sim PTX:    immediate post dominator      @  PC=0x178 (_1.ptx:184) @!%p1 bra $Lt_0_9218;
GPGPU-Sim PTX:  3 (potential) branch divergence @  PC=0x0f0 (_1.ptx:159) @!%p3 bra $Lt_0_7170;
GPGPU-Sim PTX:    immediate post dominator      @  PC=0x140 (_1.ptx:173) bar.sync 0;
GPGPU-Sim PTX:  4 (potential) branch divergence @  PC=0x120 (_1.ptx:165) @%p4 bra $Lt_0_7682;
GPGPU-Sim PTX:    immediate post dominator      @  PC=0x140 (_1.ptx:173) bar.sync 0;
GPGPU-Sim PTX:  5 (potential) branch divergence @  PC=0x138 (_1.ptx:169) @%p5 bra $Lt_0_8194;
GPGPU-Sim PTX:    immediate post dominator      @  PC=0x140 (_1.ptx:173) bar.sync 0;
GPGPU-Sim PTX:  6 (potential) branch divergence @  PC=0x148 (_1.ptx:174) @!%p3 bra $Lt_0_8706;
GPGPU-Sim PTX:    immediate post dominator      @  PC=0x178 (_1.ptx:184) @!%p1 bra $Lt_0_9218;
GPGPU-Sim PTX:  7 (potential) branch divergence @  PC=0x178 (_1.ptx:184) @!%p1 bra $Lt_0_9218;
GPGPU-Sim PTX:    immediate post dominator      @  PC=0x1c8 (_1.ptx:198) ret;
GPGPU-Sim PTX:  8 (potential) branch divergence @  PC=0x1a8 (_1.ptx:190) @%p6 bra $Lt_0_9730;
GPGPU-Sim PTX:    immediate post dominator      @  PC=0x1c8 (_1.ptx:198) ret;
GPGPU-Sim PTX:  9 (potential) branch divergence @  PC=0x1c0 (_1.ptx:194) @%p7 bra $Lt_0_10242;
GPGPU-Sim PTX:    immediate post dominator      @  PC=0x1c8 (_1.ptx:198) ret;
GPGPU-Sim PTX: ... end of reconvergence points for _Z11global_syncjPVjS0_
GPGPU-Sim PTX: ... done pre-decoding instructions for '_Z11global_syncjPVjS0_'.
GPGPU-Sim PTX: allocating global region for "__constant880" from 0x100 to 0x11c (global memory space)
GPGPU-Sim PTX: allocating global region for "__constant881" from 0x180 to 0x19c (global memory space)
GPGPU-Sim PTX: allocating global region for "__constant882" from 0x200 to 0x222 (global memory space)
GPGPU-Sim PTX: allocating global region for "__constant883" from 0x280 to 0x2a2 (global memory space)
GPGPU-Sim PTX: allocating global region for "__constant884" from 0x300 to 0x31c (global memory space)
GPGPU-Sim PTX: allocating global region for "__constant888" from 0x380 to 0x3b5 (global memory space)
GPGPU-Sim PTX: allocating global region for "__constant889" from 0x400 to 0x412 (global memory space)
GPGPU-Sim PTX: allocating stack frame region for .local "__cuda___cuda__temp__valist_array_53_40104" from 0x0 to 0x18
GPGPU-Sim PTX: allocating stack frame region for .local "__cuda___cuda__temp__valist_array_47_64128" from 0x80 to 0x94
GPGPU-Sim PTX: allocating stack frame region for .local "__cuda___cuda_local_var_75906_7_non_const_prefix_320" from 0x94 to 0x96
GPGPU-Sim PTX: allocating stack frame region for .param "__cudaparma1_vprintf" from 0x96 to 0x9e
GPGPU-Sim PTX: allocating stack frame region for .param "__cudaparma2_vprintf" from 0x9e to 0xa6
GPGPU-Sim PTX: instruction assembly for function '_Z11dprintstats5Graph'...   done.
GPGPU-Sim PTX: finding reconvergence points for '_Z11dprintstats5Graph'...
GPGPU-Sim PTX: Finding dominators for '_Z11dprintstats5Graph'...
GPGPU-Sim PTX: Finding immediate dominators for '_Z11dprintstats5Graph'...
GPGPU-Sim PTX: Finding postdominators for '_Z11dprintstats5Graph'...
GPGPU-Sim PTX: Finding immediate postdominators for '_Z11dprintstats5Graph'...
GPGPU-Sim PTX: pre-decoding instructions for '_Z11dprintstats5Graph'...
GPGPU-Sim PTX: reconvergence points for _Z11dprintstats5Graph...
GPGPU-Sim PTX:  1 (potential) branch divergence @  PC=0x208 (_1.ptx:232) @!%p1 bra $Lt_1_12034;
GPGPU-Sim PTX:    immediate post dominator      @  PC=0x398 (_1.ptx:299) @!%p1 bra $Lt_1_12290;
GPGPU-Sim PTX:  2 (potential) branch divergence @  PC=0x270 (_1.ptx:248) @%p2 bra $Lt_1_9218;
GPGPU-Sim PTX:    immediate post dominator      @  PC=0x280 (_1.ptx:253) setp.le.u32 %p3, %r3, %r6;
GPGPU-Sim PTX:  3 (potential) branch divergence @  PC=0x288 (_1.ptx:254) @%p3 bra $Lt_1_9730;
GPGPU-Sim PTX:    immediate post dominator      @  PC=0x338 (_1.ptx:282) ld.global.u32 %r17, [%rd3+0];
GPGPU-Sim PTX:  4 (potential) branch divergence @  PC=0x2a8 (_1.ptx:259) bra.uni $LDWendi__ZN5Graph11getInDegreeEj_184_1;
GPGPU-Sim PTX:    immediate post dominator      @  PC=0x338 (_1.ptx:282) ld.global.u32 %r17, [%rd3+0];
GPGPU-Sim PTX:  5 (potential) branch divergence @  PC=0x350 (_1.ptx:285) @%p4 bra $Lt_1_10242;
GPGPU-Sim PTX:    immediate post dominator      @  PC=0x360 (_1.ptx:289) add.u32 %r6, %r6, 1;
GPGPU-Sim PTX:  6 (potential) branch divergence @  PC=0x378 (_1.ptx:292) @%p5 bra $Lt_1_8962;
GPGPU-Sim PTX:    immediate post dominator      @  PC=0x380 (_1.ptx:293) bra.uni $Lt_1_8450;
GPGPU-Sim PTX:  7 (potential) branch divergence @  PC=0x380 (_1.ptx:293) bra.uni $Lt_1_8450;
GPGPU-Sim PTX:    immediate post dominator      @  PC=0x398 (_1.ptx:299) @!%p1 bra $Lt_1_12290;
GPGPU-Sim PTX:  8 (potential) branch divergence @  PC=0x398 (_1.ptx:299) @!%p1 bra $Lt_1_12290;
GPGPU-Sim PTX:    immediate post dominator      @  PC=0x440 (_1.ptx:329) cvta.local.u64 %rd12, __cuda___cuda_local_var_75906_7_non_const_prefix_320;
GPGPU-Sim PTX:  9 (potential) branch divergence @  PC=0x3d8 (_1.ptx:310) @%p6 bra $Lt_1_12546;
GPGPU-Sim PTX:    immediate post dominator      @  PC=0x408 (_1.ptx:319) mov.s32 %r21, %r24;
GPGPU-Sim PTX: 10 (potential) branch divergence @  PC=0x3e8 (_1.ptx:312) @%p7 bra $Lt_1_12546;
GPGPU-Sim PTX:    immediate post dominator      @  PC=0x408 (_1.ptx:319) mov.s32 %r21, %r24;
GPGPU-Sim PTX: 11 (potential) branch divergence @  PC=0x3f8 (_1.ptx:314) bra.uni $L_1_7682;
GPGPU-Sim PTX:    immediate post dominator      @  PC=0x408 (_1.ptx:319) mov.s32 %r21, %r24;
GPGPU-Sim PTX: 12 (potential) branch divergence @  PC=0x428 (_1.ptx:323) @%p8 bra $Lt_1_11522;
GPGPU-Sim PTX:    immediate post dominator      @  PC=0x430 (_1.ptx:324) bra.uni $Lt_1_11010;
GPGPU-Sim PTX: 13 (potential) branch divergence @  PC=0x430 (_1.ptx:324) bra.uni $Lt_1_11010;
GPGPU-Sim PTX:    immediate post dominator      @  PC=0x440 (_1.ptx:329) cvta.local.u64 %rd12, __cuda___cuda_local_var_75906_7_non_const_prefix_320;
GPGPU-Sim PTX: ... end of reconvergence points for _Z11dprintstats5Graph
GPGPU-Sim PTX: ... done pre-decoding instructions for '_Z11dprintstats5Graph'.
GPGPU-Sim PTX: allocating global region for "__constant892" from 0x480 to 0x4be (global memory space)
GPGPU-Sim PTX: allocating global region for "__constant894" from 0x500 to 0x535 (global memory space)
GPGPU-Sim PTX: allocating global region for "__constant897" from 0x580 to 0x59f (global memory space)
GPGPU-Sim PTX: allocating stack frame region for .local "__cuda___cuda__temp__valist_array_61_16264" from 0x0 to 0x18
GPGPU-Sim PTX: allocating stack frame region for .local "__cuda___cuda__temp__valist_array_55_40288" from 0x80 to 0x9c
GPGPU-Sim PTX: allocating stack frame region for .local "__cuda___cuda__temp__valist_array_63_72320" from 0x100 to 0x114
GPGPU-Sim PTX: allocating stack frame region for .param "__cudaparma1_vprintf" from 0x114 to 0x11c
GPGPU-Sim PTX: allocating stack frame region for .param "__cudaparma2_vprintf" from 0x11c to 0x124
GPGPU-Sim PTX: instruction assembly for function '_Z14dcomputelevels5GraphPb'...   done.
GPGPU-Sim PTX: finding reconvergence points for '_Z14dcomputelevels5GraphPb'...
GPGPU-Sim PTX: Finding dominators for '_Z14dcomputelevels5GraphPb'...
GPGPU-Sim PTX: Finding immediate dominators for '_Z14dcomputelevels5GraphPb'...
GPGPU-Sim PTX: Finding postdominators for '_Z14dcomputelevels5GraphPb'...
GPGPU-Sim PTX: Finding immediate postdominators for '_Z14dcomputelevels5GraphPb'...
GPGPU-Sim PTX: pre-decoding instructions for '_Z14dcomputelevels5GraphPb'...
GPGPU-Sim PTX: reconvergence points for _Z14dcomputelevels5GraphPb...
GPGPU-Sim PTX:  1 (potential) branch divergence @  PC=0x5e0 (_1.ptx:408) @%p1 bra $Lt_2_17410;
GPGPU-Sim PTX:    immediate post dominator      @  PC=0x960 (_1.ptx:555) mov.u32 %r36, 0;
GPGPU-Sim PTX:  2 (potential) branch divergence @  PC=0x638 (_1.ptx:421) @%p2 bra $Lt_2_22018;
GPGPU-Sim PTX:    immediate post dominator      @  PC=0x960 (_1.ptx:555) mov.u32 %r36, 0;
GPGPU-Sim PTX:  3 (potential) branch divergence @  PC=0x678 (_1.ptx:432) @%p3 bra $Lt_2_7170;
GPGPU-Sim PTX:    immediate post dominator      @  PC=0x868 (_1.ptx:511) setp.ge.u32 %p7, %r30, %r6;
GPGPU-Sim PTX:  4 (potential) branch divergence @  PC=0x690 (_1.ptx:436) @%p4 bra $Lt_2_22274;
GPGPU-Sim PTX:    immediate post dominator      @  PC=0x758 (_1.ptx:468) add.u32 %r20, %r17, %r11;
GPGPU-Sim PTX:  5 (potential) branch divergence @  PC=0x6b8 (_1.ptx:441) @%p5 bra $Lt_2_22274;
GPGPU-Sim PTX:    immediate post dominator      @  PC=0x758 (_1.ptx:468) add.u32 %r20, %r17, %r11;
GPGPU-Sim PTX:  6 (potential) branch divergence @  PC=0x6e8 (_1.ptx:448) bra.uni $LDWendi__ZN5Graph12getFirstEdgeEj_186_4;
GPGPU-Sim PTX:    immediate post dominator      @  PC=0x758 (_1.ptx:468) add.u32 %r20, %r17, %r11;
GPGPU-Sim PTX:  7 (potential) branch divergence @  PC=0x7b0 (_1.ptx:479) @%p6 bra $Lt_2_18946;
GPGPU-Sim PTX:    immediate post dominator      @  PC=0x868 (_1.ptx:511) setp.ge.u32 %p7, %r30, %r6;
GPGPU-Sim PTX:  8 (potential) branch divergence @  PC=0x7e0 (_1.ptx:486) bra.uni $LDWendi__ZN5Graph14getDestinationEjj_186_1;
GPGPU-Sim PTX:    immediate post dominator      @  PC=0x868 (_1.ptx:511) setp.ge.u32 %p7, %r30, %r6;
GPGPU-Sim PTX:  9 (potential) branch divergence @  PC=0x7f0 (_1.ptx:490) bra.uni $LDWendi__ZN5Graph14getDestinationEjj_186_1;
GPGPU-Sim PTX:    immediate post dominator      @  PC=0x868 (_1.ptx:511) setp.ge.u32 %p7, %r30, %r6;
GPGPU-Sim PTX: 10 (potential) branch divergence @  PC=0x870 (_1.ptx:512) @%p7 bra $Lt_2_22786;
GPGPU-Sim PTX:    immediate post dominator      @  PC=0x928 (_1.ptx:544) add.u32 %r11, %r11, 1;
GPGPU-Sim PTX: 11 (potential) branch divergence @  PC=0x8a8 (_1.ptx:519) @%p8 bra $Lt_2_22786;
GPGPU-Sim PTX:    immediate post dominator      @  PC=0x928 (_1.ptx:544) add.u32 %r11, %r11, 1;
GPGPU-Sim PTX: 12 (potential) branch divergence @  PC=0x8c0 (_1.ptx:524) bra.uni $Lt_2_20482;
GPGPU-Sim PTX:    immediate post dominator      @  PC=0x928 (_1.ptx:544) add.u32 %r11, %r11, 1;
GPGPU-Sim PTX: 13 (potential) branch divergence @  PC=0x8d0 (_1.ptx:529) @%p9 bra $Lt_2_20482;
GPGPU-Sim PTX:    immediate post dominator      @  PC=0x928 (_1.ptx:544) add.u32 %r11, %r11, 1;
GPGPU-Sim PTX: 14 (potential) branch divergence @  PC=0x938 (_1.ptx:546) @%p10 bra $Lt_2_18178;
GPGPU-Sim PTX:    immediate post dominator      @  PC=0x940 (_1.ptx:547) bra.uni $Lt_2_17154;
GPGPU-Sim PTX: 15 (potential) branch divergence @  PC=0x940 (_1.ptx:547) bra.uni $Lt_2_17154;
GPGPU-Sim PTX:    immediate post dominator      @  PC=0x960 (_1.ptx:555) mov.u32 %r36, 0;
GPGPU-Sim PTX: 16 (potential) branch divergence @  PC=0x950 (_1.ptx:550) bra.uni $Lt_2_17154;
GPGPU-Sim PTX:    immediate post dominator      @  PC=0x960 (_1.ptx:555) mov.u32 %r36, 0;
GPGPU-Sim PTX: 17 (potential) branch divergence @  PC=0x970 (_1.ptx:557) @%p11 bra $Lt_2_21250;
GPGPU-Sim PTX:    immediate post dominator      @  PC=0x990 (_1.ptx:564) exit;
GPGPU-Sim PTX: ... end of reconvergence points for _Z14dcomputelevels5GraphPb
GPGPU-Sim PTX: ... done pre-decoding instructions for '_Z14dcomputelevels5GraphPb'.
GPGPU-Sim PTX: instruction assembly for function '_Z11dinitlevels5Graph'...   done.
GPGPU-Sim PTX: finding reconvergence points for '_Z11dinitlevels5Graph'...
GPGPU-Sim PTX: Finding dominators for '_Z11dinitlevels5Graph'...
GPGPU-Sim PTX: Finding immediate dominators for '_Z11dinitlevels5Graph'...
GPGPU-Sim PTX: Finding postdominators for '_Z11dinitlevels5Graph'...
GPGPU-Sim PTX: Finding immediate postdominators for '_Z11dinitlevels5Graph'...
GPGPU-Sim PTX: pre-decoding instructions for '_Z11dinitlevels5Graph'...
GPGPU-Sim PTX: reconvergence points for _Z11dinitlevels5Graph...
GPGPU-Sim PTX:  1 (potential) branch divergence @  PC=0x9d0 (_1.ptx:584) @%p1 bra $Lt_3_1026;
GPGPU-Sim PTX:    immediate post dominator      @  PC=0xa00 (_1.ptx:593) exit;
GPGPU-Sim PTX: ... end of reconvergence points for _Z11dinitlevels5Graph
GPGPU-Sim PTX: ... done pre-decoding instructions for '_Z11dinitlevels5Graph'.
GPGPU-Sim PTX: allocating global region for "__constant885" from 0x600 to 0x607 (global memory space)
GPGPU-Sim PTX: allocating global region for "__constant886" from 0x680 to 0x68a (global memory space)
GPGPU-Sim PTX: allocating global region for "__constant887" from 0x700 to 0x724 (global memory space)
GPGPU-Sim PTX: allocating stack frame region for .local "__cuda___cuda__temp__valist_array_49_16552" from 0x0 to 0xc
GPGPU-Sim PTX: allocating stack frame region for .local "__cuda___cuda__temp__valist_array_61_32568" from 0x80 to 0x98
GPGPU-Sim PTX: allocating stack frame region for .local "__cuda___cuda__temp__valist_array_55_56592" from 0x100 to 0x11c
GPGPU-Sim PTX: allocating stack frame region for .local "__cuda___cuda__temp__valist_array_61_88624" from 0x180 to 0x198
GPGPU-Sim PTX: allocating stack frame region for .local "__cuda___cuda__temp__valist_array_57_112648" from 0x200 to 0x21c
GPGPU-Sim PTX: allocating stack frame region for .param "__cudaparma1_vprintf" from 0x21c to 0x224
GPGPU-Sim PTX: allocating stack frame region for .param "__cudaparma2_vprintf" from 0x224 to 0x22c
GPGPU-Sim PTX: instruction assembly for function '_Z9dprint1x15Graph'...   done.
GPGPU-Sim PTX: finding reconvergence points for '_Z9dprint1x15Graph'...
GPGPU-Sim PTX: Finding dominators for '_Z9dprint1x15Graph'...
GPGPU-Sim PTX: Finding immediate dominators for '_Z9dprint1x15Graph'...
GPGPU-Sim PTX: Finding postdominators for '_Z9dprint1x15Graph'...
GPGPU-Sim PTX: Finding immediate postdominators for '_Z9dprint1x15Graph'...
GPGPU-Sim PTX: pre-decoding instructions for '_Z9dprint1x15Graph'...
GPGPU-Sim PTX: reconvergence points for _Z9dprint1x15Graph...
GPGPU-Sim PTX:  1 (potential) branch divergence @  PC=0xa60 (_1.ptx:628) @%p1 bra $Lt_4_32002;
GPGPU-Sim PTX:    immediate post dominator      @  PC=0x10e8 (_1.ptx:890) setp.eq.u32 %p14, %r2, %r6;
GPGPU-Sim PTX:  2 (potential) branch divergence @  PC=0xac0 (_1.ptx:643) @%p2 bra $Lt_4_25858;
GPGPU-Sim PTX:    immediate post dominator      @  PC=0x10b8 (_1.ptx:882) add.u32 %r5, %r5, 1;
GPGPU-Sim PTX:  3 (potential) branch divergence @  PC=0xae8 (_1.ptx:651) @!%p3 bra $Lt_4_32514;
GPGPU-Sim PTX:    immediate post dominator      @  PC=0xda0 (_1.ptx:759) @!%p3 bra $Lt_4_33538;
GPGPU-Sim PTX:  4 (potential) branch divergence @  PC=0xb00 (_1.ptx:655) @%p4 bra $Lt_4_32514;
GPGPU-Sim PTX:    immediate post dominator      @  PC=0xda0 (_1.ptx:759) @!%p3 bra $Lt_4_33538;
GPGPU-Sim PTX:  5 (potential) branch divergence @  PC=0xb18 (_1.ptx:659) @%p5 bra $Lt_4_33026;
GPGPU-Sim PTX:    immediate post dominator      @  PC=0xc08 (_1.ptx:696) add.u32 %r24, %r16, %r11;
GPGPU-Sim PTX:  6 (potential) branch divergence @  PC=0xb40 (_1.ptx:664) @%p6 bra $Lt_4_33026;
GPGPU-Sim PTX:    immediate post dominator      @  PC=0xc08 (_1.ptx:696) add.u32 %r24, %r16, %r11;
GPGPU-Sim PTX:  7 (potential) branch divergence @  PC=0xb70 (_1.ptx:671) bra.uni $LDWendi__ZN5Graph12getFirstEdgeEj_190_14;
GPGPU-Sim PTX:    immediate post dominator      @  PC=0xc08 (_1.ptx:696) add.u32 %r24, %r16, %r11;
GPGPU-Sim PTX:  8 (potential) branch divergence @  PC=0xc58 (_1.ptx:706) @%p7 bra $Lt_4_27138;
GPGPU-Sim PTX:    immediate post dominator      @  PC=0xda0 (_1.ptx:759) @!%p3 bra $Lt_4_33538;
GPGPU-Sim PTX:  9 (potential) branch divergence @  PC=0xc88 (_1.ptx:713) bra.uni $LDWendi__ZN5Graph14getDestinationEjj_190_11;
GPGPU-Sim PTX:    immediate post dominator      @  PC=0xda0 (_1.ptx:759) @!%p3 bra $Lt_4_33538;
GPGPU-Sim PTX: 10 (potential) branch divergence @  PC=0xc98 (_1.ptx:717) bra.uni $LDWendi__ZN5Graph14getDestinationEjj_190_11;
GPGPU-Sim PTX:    immediate post dominator      @  PC=0xda0 (_1.ptx:759) @!%p3 bra $Lt_4_33538;
GPGPU-Sim PTX: 11 (potential) branch divergence @  PC=0xcc8 (_1.ptx:725) @!%p3 bra $Lt_4_27906;
GPGPU-Sim PTX:    immediate post dominator      @  PC=0xd98 (_1.ptx:756) mov.s32 %r33, %r1;
GPGPU-Sim PTX: 12 (potential) branch divergence @  PC=0xd38 (_1.ptx:740) bra.uni $Lt_4_27650;
GPGPU-Sim PTX:    immediate post dominator      @  PC=0xd98 (_1.ptx:756) mov.s32 %r33, %r1;
GPGPU-Sim PTX: 13 (potential) branch divergence @  PC=0xda0 (_1.ptx:759) @!%p3 bra $Lt_4_33538;
GPGPU-Sim PTX:    immediate post dominator      @  PC=0x1058 (_1.ptx:867) st.local.u32 [__cuda___cuda__temp__valist_array_49_16552+0], %r5;
GPGPU-Sim PTX: 14 (potential) branch divergence @  PC=0xdb8 (_1.ptx:763) @%p8 bra $Lt_4_33538;
GPGPU-Sim PTX:    immediate post dominator      @  PC=0x1058 (_1.ptx:867) st.local.u32 [__cuda___cuda__temp__valist_array_49_16552+0], %r5;
GPGPU-Sim PTX: 15 (potential) branch divergence @  PC=0xdd0 (_1.ptx:767) @%p9 bra $Lt_4_34050;
GPGPU-Sim PTX:    immediate post dominator      @  PC=0xec0 (_1.ptx:804) add.u32 %r52, %r44, %r11;
GPGPU-Sim PTX: 16 (potential) branch divergence @  PC=0xdf8 (_1.ptx:772) @%p10 bra $Lt_4_34050;
GPGPU-Sim PTX:    immediate post dominator      @  PC=0xec0 (_1.ptx:804) add.u32 %r52, %r44, %r11;
GPGPU-Sim PTX: 17 (potential) branch divergence @  PC=0xe28 (_1.ptx:779) bra.uni $LDWendi__ZN5Graph12getFirstEdgeEj_190_4;
GPGPU-Sim PTX:    immediate post dominator      @  PC=0xec0 (_1.ptx:804) add.u32 %r52, %r44, %r11;
GPGPU-Sim PTX: 18 (potential) branch divergence @  PC=0xf10 (_1.ptx:814) @%p11 bra $Lt_4_29186;
GPGPU-Sim PTX:    immediate post dominator      @  PC=0x1058 (_1.ptx:867) st.local.u32 [__cuda___cuda__temp__valist_array_49_16552+0], %r5;
GPGPU-Sim PTX: 19 (potential) branch divergence @  PC=0xf40 (_1.ptx:821) bra.uni $LDWendi__ZN5Graph9getWeightEjj_190_1;
GPGPU-Sim PTX:    immediate post dominator      @  PC=0x1058 (_1.ptx:867) st.local.u32 [__cuda___cuda__temp__valist_array_49_16552+0], %r5;
GPGPU-Sim PTX: 20 (potential) branch divergence @  PC=0xf50 (_1.ptx:825) bra.uni $LDWendi__ZN5Graph9getWeightEjj_190_1;
GPGPU-Sim PTX:    immediate post dominator      @  PC=0x1058 (_1.ptx:867) st.local.u32 [__cuda___cuda__temp__valist_array_49_16552+0], %r5;
GPGPU-Sim PTX: 21 (potential) branch divergence @  PC=0xf80 (_1.ptx:833) @!%p3 bra $Lt_4_29954;
GPGPU-Sim PTX:    immediate post dominator      @  PC=0x1050 (_1.ptx:864) mov.u32 %r61, 1000000000;
GPGPU-Sim PTX: 22 (potential) branch divergence @  PC=0xff0 (_1.ptx:848) bra.uni $Lt_4_29698;
GPGPU-Sim PTX:    immediate post dominator      @  PC=0x1050 (_1.ptx:864) mov.u32 %r61, 1000000000;
GPGPU-Sim PTX: 23 (potential) branch divergence @  PC=0x10b0 (_1.ptx:880) @%p12 bra $Lt_4_26370;
GPGPU-Sim PTX:    immediate post dominator      @  PC=0x10b8 (_1.ptx:882) add.u32 %r5, %r5, 1;
GPGPU-Sim PTX: 24 (potential) branch divergence @  PC=0x10d0 (_1.ptx:885) @%p13 bra $Lt_4_25602;
GPGPU-Sim PTX:    immediate post dominator      @  PC=0x10d8 (_1.ptx:886) bra.uni $Lt_4_25090;
GPGPU-Sim PTX: 25 (potential) branch divergence @  PC=0x10d8 (_1.ptx:886) bra.uni $Lt_4_25090;
GPGPU-Sim PTX:    immediate post dominator      @  PC=0x10e8 (_1.ptx:890) setp.eq.u32 %p14, %r2, %r6;
GPGPU-Sim PTX: 26 (potential) branch divergence @  PC=0x10f0 (_1.ptx:891) @%p14 bra $Lt_4_31234;
GPGPU-Sim PTX:    immediate post dominator      @  PC=0x1130 (_1.ptx:902) exit;
GPGPU-Sim PTX: ... end of reconvergence points for _Z9dprint1x15Graph
GPGPU-Sim PTX: ... done pre-decoding instructions for '_Z9dprint1x15Graph'.
GPGPU-Sim PTX: allocating global region for "__constant916" from 0x780 to 0x795 (global memory space)
GPGPU-Sim PTX: allocating global region for "__constant917" from 0x800 to 0x80c (global memory space)
GPGPU-Sim PTX: allocating stack frame region for .local "__cuda___cuda__temp__valist_array_74_2456" from 0x0 to 0x8
GPGPU-Sim PTX: allocating stack frame region for .param "__cudaparma1_vprintf" from 0x8 to 0x10
GPGPU-Sim PTX: allocating stack frame region for .param "__cudaparma2_vprintf" from 0x10 to 0x18
GPGPU-Sim PTX: instruction assembly for function '_Z8print1x114ComponentSpace'...   done.
GPGPU-Sim PTX: finding reconvergence points for '_Z8print1x114ComponentSpace'...
GPGPU-Sim PTX: Finding dominators for '_Z8print1x114ComponentSpace'...
GPGPU-Sim PTX: Finding immediate dominators for '_Z8print1x114ComponentSpace'...
GPGPU-Sim PTX: Finding postdominators for '_Z8print1x114ComponentSpace'...
GPGPU-Sim PTX: Finding immediate postdominators for '_Z8print1x114ComponentSpace'...
GPGPU-Sim PTX: pre-decoding instructions for '_Z8print1x114ComponentSpace'...
GPGPU-Sim PTX: reconvergence points for _Z8print1x114ComponentSpace...
GPGPU-Sim PTX:  1 (potential) branch divergence @  PC=0x1180 (_1.ptx:930) @%p1 bra $Lt_5_1282;
GPGPU-Sim PTX:    immediate post dominator      @  PC=0x1210 (_1.ptx:953) cvta.global.u64 %rd8, __constant916;
GPGPU-Sim PTX:  2 (potential) branch divergence @  PC=0x1200 (_1.ptx:949) @%p2 bra $Lt_5_1794;
GPGPU-Sim PTX:    immediate post dominator      @  PC=0x1208 (_1.ptx:950) cvta.local.u64 %rd1, __cuda___cuda__temp__valist_array_74_2456;
GPGPU-Sim PTX: ... end of reconvergence points for _Z8print1x114ComponentSpace
GPGPU-Sim PTX: ... done pre-decoding instructions for '_Z8print1x114ComponentSpace'.
GPGPU-Sim PTX: instruction assembly for function '_Z7dinitcsjPjS_'...   done.
GPGPU-Sim PTX: finding reconvergence points for '_Z7dinitcsjPjS_'...
GPGPU-Sim PTX: Finding dominators for '_Z7dinitcsjPjS_'...
GPGPU-Sim PTX: Finding immediate dominators for '_Z7dinitcsjPjS_'...
GPGPU-Sim PTX: Finding postdominators for '_Z7dinitcsjPjS_'...
GPGPU-Sim PTX: Finding immediate postdominators for '_Z7dinitcsjPjS_'...
GPGPU-Sim PTX: pre-decoding instructions for '_Z7dinitcsjPjS_'...
GPGPU-Sim PTX: reconvergence points for _Z7dinitcsjPjS_...
GPGPU-Sim PTX:  1 (potential) branch divergence @  PC=0x1278 (_1.ptx:980) @%p1 bra $Lt_6_1026;
GPGPU-Sim PTX:    immediate post dominator      @  PC=0x12c8 (_1.ptx:994) exit;
GPGPU-Sim PTX: ... end of reconvergence points for _Z7dinitcsjPjS_
GPGPU-Sim PTX: ... done pre-decoding instructions for '_Z7dinitcsjPjS_'.
GPGPU-Sim PTX: instruction assembly for function '_Z5dinitPf5Graph14ComponentSpacePjS2_S2_S2_PbS2_j'...   done.
GPGPU-Sim PTX: finding reconvergence points for '_Z5dinitPf5Graph14ComponentSpacePjS2_S2_S2_PbS2_j'...
GPGPU-Sim PTX: Finding dominators for '_Z5dinitPf5Graph14ComponentSpacePjS2_S2_S2_PbS2_j'...
GPGPU-Sim PTX: Finding immediate dominators for '_Z5dinitPf5Graph14ComponentSpacePjS2_S2_S2_PbS2_j'...
GPGPU-Sim PTX: Finding postdominators for '_Z5dinitPf5Graph14ComponentSpacePjS2_S2_S2_PbS2_j'...
GPGPU-Sim PTX: Finding immediate postdominators for '_Z5dinitPf5Graph14ComponentSpacePjS2_S2_S2_PbS2_j'...
GPGPU-Sim PTX: pre-decoding instructions for '_Z5dinitPf5Graph14ComponentSpacePjS2_S2_S2_PbS2_j'...
GPGPU-Sim PTX: reconvergence points for _Z5dinitPf5Graph14ComponentSpacePjS2_S2_S2_PbS2_j...
GPGPU-Sim PTX:  1 (potential) branch divergence @  PC=0x1320 (_1.ptx:1025) @%p2 bra $Lt_7_1794;
GPGPU-Sim PTX:    immediate post dominator      @  PC=0x13e8 (_1.ptx:1058) exit;
GPGPU-Sim PTX: ... end of reconvergence points for _Z5dinitPf5Graph14ComponentSpacePjS2_S2_S2_PbS2_j
GPGPU-Sim PTX: ... done pre-decoding instructions for '_Z5dinitPf5Graph14ComponentSpacePjS2_S2_S2_PbS2_j'.
GPGPU-Sim PTX: allocating stack frame region for .local "__cuda___cuda__temp__valist_array_61_161136" from 0x0 to 0x18
GPGPU-Sim PTX: allocating stack frame region for .local "__cuda___cuda__temp__valist_array_57_401160" from 0x80 to 0x9c
GPGPU-Sim PTX: allocating stack frame region for .local "__cuda___cuda__temp__valist_array_61_721192" from 0x100 to 0x118
GPGPU-Sim PTX: allocating stack frame region for .local "__cuda___cuda__temp__valist_array_55_961216" from 0x180 to 0x19c
GPGPU-Sim PTX: allocating stack frame region for .param "__cudaparma1_vprintf" from 0x19c to 0x1a4
GPGPU-Sim PTX: allocating stack frame region for .param "__cudaparma2_vprintf" from 0x1a4 to 0x1ac
GPGPU-Sim PTX: instruction assembly for function '_Z11dfindeleminPf5Graph14ComponentSpacePjS2_S2_S2_PbS2_j'...   done.
GPGPU-Sim PTX: finding reconvergence points for '_Z11dfindeleminPf5Graph14ComponentSpacePjS2_S2_S2_PbS2_j'...
GPGPU-Sim PTX: Finding dominators for '_Z11dfindeleminPf5Graph14ComponentSpacePjS2_S2_S2_PbS2_j'...
GPGPU-Sim PTX: Finding immediate dominators for '_Z11dfindeleminPf5Graph14ComponentSpacePjS2_S2_S2_PbS2_j'...
GPGPU-Sim PTX: Finding postdominators for '_Z11dfindeleminPf5Graph14ComponentSpacePjS2_S2_S2_PbS2_j'...
GPGPU-Sim PTX: Finding immediate postdominators for '_Z11dfindeleminPf5Graph14ComponentSpacePjS2_S2_S2_PbS2_j'...
GPGPU-Sim PTX: pre-decoding instructions for '_Z11dfindeleminPf5Graph14ComponentSpacePjS2_S2_S2_PbS2_j'...
GPGPU-Sim PTX: reconvergence points for _Z11dfindeleminPf5Graph14ComponentSpacePjS2_S2_S2_PbS2_j...
GPGPU-Sim PTX:  1 (potential) branch divergence @  PC=0x1440 (_1.ptx:1095) @%p2 bra $Lt_8_45826;
GPGPU-Sim PTX:    immediate post dominator      @  PC=0x1af0 (_1.ptx:1379) exit;
GPGPU-Sim PTX:  2 (potential) branch divergence @  PC=0x1480 (_1.ptx:1105) @%p3 bra $Lt_8_34562;
GPGPU-Sim PTX:    immediate post dominator      @  PC=0x14e0 (_1.ptx:1123) mov.s32 %r15, %r9;
GPGPU-Sim PTX:  3 (potential) branch divergence @  PC=0x14d8 (_1.ptx:1120) @%p4 bra $Lt_8_35074;
GPGPU-Sim PTX:    immediate post dominator      @  PC=0x14e0 (_1.ptx:1123) mov.s32 %r15, %r9;
GPGPU-Sim PTX:  4 (potential) branch divergence @  PC=0x1520 (_1.ptx:1133) @%p5 bra $Lt_8_44290;
GPGPU-Sim PTX:    immediate post dominator      @  PC=0x1a40 (_1.ptx:1350) ld.param.u64 %rd45, [__cudaparm__Z11dfindeleminPf5Graph14ComponentSpacePjS2_S2_S2_PbS2_j_eleminwts];
GPGPU-Sim PTX:  5 (potential) branch divergence @  PC=0x1560 (_1.ptx:1144) @%p6 bra $Lt_8_10754;
GPGPU-Sim PTX:    immediate post dominator      @  PC=0x1750 (_1.ptx:1223) setp.ge.u32 %p10, %r39, %r21;
GPGPU-Sim PTX:  6 (potential) branch divergence @  PC=0x1578 (_1.ptx:1148) @%p7 bra $Lt_8_44546;
GPGPU-Sim PTX:    immediate post dominator      @  PC=0x1640 (_1.ptx:1180) add.u32 %r29, %r26, %r20;
GPGPU-Sim PTX:  7 (potential) branch divergence @  PC=0x15a0 (_1.ptx:1153) @%p8 bra $Lt_8_44546;
GPGPU-Sim PTX:    immediate post dominator      @  PC=0x1640 (_1.ptx:1180) add.u32 %r29, %r26, %r20;
GPGPU-Sim PTX:  8 (potential) branch divergence @  PC=0x15d0 (_1.ptx:1160) bra.uni $LDWendi__ZN5Graph12getFirstEdgeEj_196_14;
GPGPU-Sim PTX:    immediate post dominator      @  PC=0x1640 (_1.ptx:1180) add.u32 %r29, %r26, %r20;
GPGPU-Sim PTX:  9 (potential) branch divergence @  PC=0x1698 (_1.ptx:1191) @%p9 bra $Lt_8_37378;
GPGPU-Sim PTX:    immediate post dominator      @  PC=0x1750 (_1.ptx:1223) setp.ge.u32 %p10, %r39, %r21;
GPGPU-Sim PTX: 10 (potential) branch divergence @  PC=0x16c8 (_1.ptx:1198) bra.uni $LDWendi__ZN5Graph9getWeightEjj_196_11;
GPGPU-Sim PTX:    immediate post dominator      @  PC=0x1750 (_1.ptx:1223) setp.ge.u32 %p10, %r39, %r21;
GPGPU-Sim PTX: 11 (potential) branch divergence @  PC=0x16d8 (_1.ptx:1202) bra.uni $LDWendi__ZN5Graph9getWeightEjj_196_11;
GPGPU-Sim PTX:    immediate post dominator      @  PC=0x1750 (_1.ptx:1223) setp.ge.u32 %p10, %r39, %r21;
GPGPU-Sim PTX: 12 (potential) branch divergence @  PC=0x1758 (_1.ptx:1224) @%p10 bra $Lt_8_42498;
GPGPU-Sim PTX:    immediate post dominator      @  PC=0x1a18 (_1.ptx:1342) add.u32 %r20, %r20, 1;
GPGPU-Sim PTX: 13 (potential) branch divergence @  PC=0x1770 (_1.ptx:1228) @%p11 bra $Lt_8_15618;
GPGPU-Sim PTX:    immediate post dominator      @  PC=0x1960 (_1.ptx:1307) mov.s32 %r9, %r57;
GPGPU-Sim PTX: 14 (potential) branch divergence @  PC=0x1788 (_1.ptx:1232) @%p12 bra $Lt_8_45058;
GPGPU-Sim PTX:    immediate post dominator      @  PC=0x1850 (_1.ptx:1264) add.u32 %r47, %r44, %r20;
GPGPU-Sim PTX: 15 (potential) branch divergence @  PC=0x17b0 (_1.ptx:1237) @%p13 bra $Lt_8_45058;
GPGPU-Sim PTX:    immediate post dominator      @  PC=0x1850 (_1.ptx:1264) add.u32 %r47, %r44, %r20;
GPGPU-Sim PTX: 16 (potential) branch divergence @  PC=0x17e0 (_1.ptx:1244) bra.uni $LDWendi__ZN5Graph12getFirstEdgeEj_196_4;
GPGPU-Sim PTX:    immediate post dominator      @  PC=0x1850 (_1.ptx:1264) add.u32 %r47, %r44, %r20;
GPGPU-Sim PTX: 17 (potential) branch divergence @  PC=0x18a8 (_1.ptx:1275) @%p14 bra $Lt_8_39938;
GPGPU-Sim PTX:    immediate post dominator      @  PC=0x1960 (_1.ptx:1307) mov.s32 %r9, %r57;
GPGPU-Sim PTX: 18 (potential) branch divergence @  PC=0x18d8 (_1.ptx:1282) bra.uni $LDWendi__ZN5Graph14getDestinationEjj_196_1;
GPGPU-Sim PTX:    immediate post dominator      @  PC=0x1960 (_1.ptx:1307) mov.s32 %r9, %r57;
GPGPU-Sim PTX: 19 (potential) branch divergence @  PC=0x18e8 (_1.ptx:1286) bra.uni $LDWendi__ZN5Graph14getDestinationEjj_196_1;
GPGPU-Sim PTX:    immediate post dominator      @  PC=0x1960 (_1.ptx:1307) mov.s32 %r9, %r57;
GPGPU-Sim PTX: 20 (potential) branch divergence @  PC=0x1990 (_1.ptx:1314) @%p15 bra $Lt_8_41474;
GPGPU-Sim PTX:    immediate post dominator      @  PC=0x19f0 (_1.ptx:1332) st.global.u32 [%rd41+0], %r9;
GPGPU-Sim PTX: 21 (potential) branch divergence @  PC=0x19e8 (_1.ptx:1329) @%p16 bra $Lt_8_41986;
GPGPU-Sim PTX:    immediate post dominator      @  PC=0x19f0 (_1.ptx:1332) st.global.u32 [%rd41+0], %r9;
GPGPU-Sim PTX: 22 (potential) branch divergence @  PC=0x1a00 (_1.ptx:1335) @%p17 bra $Lt_8_42498;
GPGPU-Sim PTX:    immediate post dominator      @  PC=0x1a18 (_1.ptx:1342) add.u32 %r20, %r20, 1;
GPGPU-Sim PTX: 23 (potential) branch divergence @  PC=0x1a28 (_1.ptx:1344) @%p18 bra $Lt_8_36610;
GPGPU-Sim PTX:    immediate post dominator      @  PC=0x1a30 (_1.ptx:1345) bra.uni $Lt_8_36098;
GPGPU-Sim PTX: 24 (potential) branch divergence @  PC=0x1a30 (_1.ptx:1345) bra.uni $Lt_8_36098;
GPGPU-Sim PTX:    immediate post dominator      @  PC=0x1a40 (_1.ptx:1350) ld.param.u64 %rd45, [__cudaparm__Z11dfindeleminPf5Graph14ComponentSpacePjS2_S2_S2_PbS2_j_eleminwts];
GPGPU-Sim PTX: 25 (potential) branch divergence @  PC=0x1a88 (_1.ptx:1359) @%p19 bra $Lt_8_45826;
GPGPU-Sim PTX:    immediate post dominator      @  PC=0x1af0 (_1.ptx:1379) exit;
GPGPU-Sim PTX: 26 (potential) branch divergence @  PC=0x1a98 (_1.ptx:1361) @%p20 bra $Lt_8_45826;
GPGPU-Sim PTX:    immediate post dominator      @  PC=0x1af0 (_1.ptx:1379) exit;
GPGPU-Sim PTX: 27 (potential) branch divergence @  PC=0x1ab8 (_1.ptx:1366) @%p21 bra $Lt_8_45826;
GPGPU-Sim PTX:    immediate post dominator      @  PC=0x1af0 (_1.ptx:1379) exit;
GPGPU-Sim PTX: ... end of reconvergence points for _Z11dfindeleminPf5Graph14ComponentSpacePjS2_S2_S2_PbS2_j
GPGPU-Sim PTX: ... done pre-decoding instructions for '_Z11dfindeleminPf5Graph14ComponentSpacePjS2_S2_S2_PbS2_j'.
GPGPU-Sim PTX: instruction assembly for function '_Z12dfindcompminPf5Graph14ComponentSpacePjS2_S2_S2_PbS2_j'...   done.
GPGPU-Sim PTX: finding reconvergence points for '_Z12dfindcompminPf5Graph14ComponentSpacePjS2_S2_S2_PbS2_j'...
GPGPU-Sim PTX: Finding dominators for '_Z12dfindcompminPf5Graph14ComponentSpacePjS2_S2_S2_PbS2_j'...
GPGPU-Sim PTX: Finding immediate dominators for '_Z12dfindcompminPf5Graph14ComponentSpacePjS2_S2_S2_PbS2_j'...
GPGPU-Sim PTX: Finding postdominators for '_Z12dfindcompminPf5Graph14ComponentSpacePjS2_S2_S2_PbS2_j'...
GPGPU-Sim PTX: Finding immediate postdominators for '_Z12dfindcompminPf5Graph14ComponentSpacePjS2_S2_S2_PbS2_j'...
GPGPU-Sim PTX: pre-decoding instructions for '_Z12dfindcompminPf5Graph14ComponentSpacePjS2_S2_S2_PbS2_j'...
GPGPU-Sim PTX: reconvergence points for _Z12dfindcompminPf5Graph14ComponentSpacePjS2_S2_S2_PbS2_j...
GPGPU-Sim PTX:  1 (potential) branch divergence @  PC=0x1b48 (_1.ptx:1410) @%p2 bra $Lt_9_13058;
GPGPU-Sim PTX:    immediate post dominator      @  PC=0x1d90 (_1.ptx:1506) exit;
GPGPU-Sim PTX:  2 (potential) branch divergence @  PC=0x1b88 (_1.ptx:1420) @%p3 bra $Lt_9_9474;
GPGPU-Sim PTX:    immediate post dominator      @  PC=0x1be8 (_1.ptx:1438) mov.s32 %r15, %r9;
GPGPU-Sim PTX:  3 (potential) branch divergence @  PC=0x1be0 (_1.ptx:1435) @%p4 bra $Lt_9_9986;
GPGPU-Sim PTX:    immediate post dominator      @  PC=0x1be8 (_1.ptx:1438) mov.s32 %r15, %r9;
GPGPU-Sim PTX:  4 (potential) branch divergence @  PC=0x1c40 (_1.ptx:1452) @%p5 bra $Lt_9_10498;
GPGPU-Sim PTX:    immediate post dominator      @  PC=0x1ca0 (_1.ptx:1470) st.global.u32 [%rd12+0], %r9;
GPGPU-Sim PTX:  5 (potential) branch divergence @  PC=0x1c98 (_1.ptx:1467) @%p6 bra $Lt_9_11010;
GPGPU-Sim PTX:    immediate post dominator      @  PC=0x1ca0 (_1.ptx:1470) st.global.u32 [%rd12+0], %r9;
GPGPU-Sim PTX:  6 (potential) branch divergence @  PC=0x1cb8 (_1.ptx:1474) @%p7 bra $Lt_9_13058;
GPGPU-Sim PTX:    immediate post dominator      @  PC=0x1d90 (_1.ptx:1506) exit;
GPGPU-Sim PTX:  7 (potential) branch divergence @  PC=0x1cc8 (_1.ptx:1476) @%p8 bra $Lt_9_13058;
GPGPU-Sim PTX:    immediate post dominator      @  PC=0x1d90 (_1.ptx:1506) exit;
GPGPU-Sim PTX:  8 (potential) branch divergence @  PC=0x1cf8 (_1.ptx:1482) @%p9 bra $Lt_9_13058;
GPGPU-Sim PTX:    immediate post dominator      @  PC=0x1d90 (_1.ptx:1506) exit;
GPGPU-Sim PTX:  9 (potential) branch divergence @  PC=0x1d30 (_1.ptx:1489) @%p10 bra $Lt_9_13058;
GPGPU-Sim PTX:    immediate post dominator      @  PC=0x1d90 (_1.ptx:1506) exit;
GPGPU-Sim PTX: 10 (potential) branch divergence @  PC=0x1d40 (_1.ptx:1491) @%p11 bra $Lt_9_13058;
GPGPU-Sim PTX:    immediate post dominator      @  PC=0x1d90 (_1.ptx:1506) exit;
GPGPU-Sim PTX: 11 (potential) branch divergence @  PC=0x1d68 (_1.ptx:1496) @%p12 bra $Lt_9_13058;
GPGPU-Sim PTX:    immediate post dominator      @  PC=0x1d90 (_1.ptx:1506) exit;
GPGPU-Sim PTX: ... end of reconvergence points for _Z12dfindcompminPf5Graph14ComponentSpacePjS2_S2_S2_PbS2_j
GPGPU-Sim PTX: ... done pre-decoding instructions for '_Z12dfindcompminPf5Graph14ComponentSpacePjS2_S2_S2_PbS2_j'.
GPGPU-Sim PTX: instruction assembly for function '_Z15dfindcompmintwoPf5Graph14ComponentSpacePjS2_S2_S2_PbS2_j'...   done.
GPGPU-Sim PTX: finding reconvergence points for '_Z15dfindcompmintwoPf5Graph14ComponentSpacePjS2_S2_S2_PbS2_j'...
GPGPU-Sim PTX: Finding dominators for '_Z15dfindcompmintwoPf5Graph14ComponentSpacePjS2_S2_S2_PbS2_j'...
GPGPU-Sim PTX: Finding immediate dominators for '_Z15dfindcompmintwoPf5Graph14ComponentSpacePjS2_S2_S2_PbS2_j'...
GPGPU-Sim PTX: Finding postdominators for '_Z15dfindcompmintwoPf5Graph14ComponentSpacePjS2_S2_S2_PbS2_j'...
GPGPU-Sim PTX: Finding immediate postdominators for '_Z15dfindcompmintwoPf5Graph14ComponentSpacePjS2_S2_S2_PbS2_j'...
GPGPU-Sim PTX: pre-decoding instructions for '_Z15dfindcompmintwoPf5Graph14ComponentSpacePjS2_S2_S2_PbS2_j'...
GPGPU-Sim PTX: reconvergence points for _Z15dfindcompmintwoPf5Graph14ComponentSpacePjS2_S2_S2_PbS2_j...
GPGPU-Sim PTX:  1 (potential) branch divergence @  PC=0x1de8 (_1.ptx:1539) @%p2 bra $Lt_10_26626;
GPGPU-Sim PTX:    immediate post dominator      @  PC=0x2200 (_1.ptx:1727) exit;
GPGPU-Sim PTX:  2 (potential) branch divergence @  PC=0x1e20 (_1.ptx:1546) @%p3 bra $Lt_10_26626;
GPGPU-Sim PTX:    immediate post dominator      @  PC=0x2200 (_1.ptx:1727) exit;
GPGPU-Sim PTX:  3 (potential) branch divergence @  PC=0x1e58 (_1.ptx:1555) @%p4 bra $Lt_10_20482;
GPGPU-Sim PTX:    immediate post dominator      @  PC=0x1eb8 (_1.ptx:1573) mov.s32 %r17, %r11;
GPGPU-Sim PTX:  4 (potential) branch divergence @  PC=0x1eb0 (_1.ptx:1570) @%p5 bra $Lt_10_20994;
GPGPU-Sim PTX:    immediate post dominator      @  PC=0x1eb8 (_1.ptx:1573) mov.s32 %r17, %r11;
GPGPU-Sim PTX:  5 (potential) branch divergence @  PC=0x1f10 (_1.ptx:1587) @%p6 bra $Lt_10_21506;
GPGPU-Sim PTX:    immediate post dominator      @  PC=0x1f70 (_1.ptx:1605) st.global.u32 [%rd14+0], %r11;
GPGPU-Sim PTX:  6 (potential) branch divergence @  PC=0x1f68 (_1.ptx:1602) @%p7 bra $Lt_10_22018;
GPGPU-Sim PTX:    immediate post dominator      @  PC=0x1f70 (_1.ptx:1605) st.global.u32 [%rd14+0], %r11;
GPGPU-Sim PTX:  7 (potential) branch divergence @  PC=0x1fb8 (_1.ptx:1618) @%p8 bra $Lt_10_22530;
GPGPU-Sim PTX:    immediate post dominator      @  PC=0x2018 (_1.ptx:1636) mov.s32 %r31, %r25;
GPGPU-Sim PTX:  8 (potential) branch divergence @  PC=0x2010 (_1.ptx:1633) @%p9 bra $Lt_10_23042;
GPGPU-Sim PTX:    immediate post dominator      @  PC=0x2018 (_1.ptx:1636) mov.s32 %r31, %r25;
GPGPU-Sim PTX:  9 (potential) branch divergence @  PC=0x2050 (_1.ptx:1645) @%p10 bra $Lt_10_23554;
GPGPU-Sim PTX:    immediate post dominator      @  PC=0x20b0 (_1.ptx:1663) setp.ne.u32 %p12, %r31, %r25;
GPGPU-Sim PTX: 10 (potential) branch divergence @  PC=0x20a8 (_1.ptx:1660) @%p11 bra $Lt_10_24066;
GPGPU-Sim PTX:    immediate post dominator      @  PC=0x20b0 (_1.ptx:1663) setp.ne.u32 %p12, %r31, %r25;
GPGPU-Sim PTX: 11 (potential) branch divergence @  PC=0x20b8 (_1.ptx:1664) @%p12 bra $Lt_10_24578;
GPGPU-Sim PTX:    immediate post dominator      @  PC=0x21a8 (_1.ptx:1710) ld.param.u64 %rd39, [__cudaparm__Z15dfindcompmintwoPf5Graph14ComponentSpacePjS2_S2_S2_PbS2_j_eleminwts];
GPGPU-Sim PTX: 12 (potential) branch divergence @  PC=0x20c8 (_1.ptx:1667) bra.uni $LDWendi__ZN14ComponentSpace6isBossEj_204_1;
GPGPU-Sim PTX:    immediate post dominator      @  PC=0x21a8 (_1.ptx:1710) ld.param.u64 %rd39, [__cudaparm__Z15dfindcompmintwoPf5Graph14ComponentSpacePjS2_S2_S2_PbS2_j_eleminwts];
GPGPU-Sim PTX: 13 (potential) branch divergence @  PC=0x20e8 (_1.ptx:1674) @%p13 bra $Lt_10_25090;
GPGPU-Sim PTX:    immediate post dominator      @  PC=0x2100 (_1.ptx:1681) cvt.u64.u32 %rd30, %r38;
GPGPU-Sim PTX: 14 (potential) branch divergence @  PC=0x2130 (_1.ptx:1687) @%p14 bra $Lt_10_25858;
GPGPU-Sim PTX:    immediate post dominator      @  PC=0x21a8 (_1.ptx:1710) ld.param.u64 %rd39, [__cudaparm__Z15dfindcompmintwoPf5Graph14ComponentSpacePjS2_S2_S2_PbS2_j_eleminwts];
GPGPU-Sim PTX: 15 (potential) branch divergence @  PC=0x2148 (_1.ptx:1693) bra.uni $Lt_10_14082;
GPGPU-Sim PTX:    immediate post dominator      @  PC=0x1f88 (_1.ptx:1611) mov.s32 %r25, %r23;
GPGPU-Sim PTX: 16 (potential) branch divergence @  PC=0x21c8 (_1.ptx:1714) @%p15 bra $Lt_10_26114;
GPGPU-Sim PTX:    immediate post dominator      @  PC=0x21f0 (_1.ptx:1722) mov.u32 %r47, 1000000000;
GPGPU-Sim PTX: ... end of reconvergence points for _Z15dfindcompmintwoPf5Graph14ComponentSpacePjS2_S2_S2_PbS2_j
GPGPU-Sim PTX: ... done pre-decoding instructions for '_Z15dfindcompmintwoPf5Graph14ComponentSpacePjS2_S2_S2_PbS2_j'.
GPGPU-Sim PTX: allocating global region for "__constant874" from 0x880 to 0x898 (global memory space)
GPGPU-Sim PTX: allocating global region for "__constant875" from 0x900 to 0x913 (global memory space)
GPGPU-Sim PTX: allocating stack frame region for .local "__cuda___cuda__temp__valist_array_45_1696" from 0x0 to 0x8
GPGPU-Sim PTX: allocating stack frame region for .param "__cudaparma1_vprintf" from 0x8 to 0x10
GPGPU-Sim PTX: allocating stack frame region for .param "__cudaparma2_vprintf" from 0x10 to 0x18
GPGPU-Sim PTX: instruction assembly for function '_Z22dfindcompminundirectedPf5Graph14ComponentSpacePjS2_S2_S2_Pb'...   done.
GPGPU-Sim PTX: finding reconvergence points for '_Z22dfindcompminundirectedPf5Graph14ComponentSpacePjS2_S2_S2_Pb'...
GPGPU-Sim PTX: Finding dominators for '_Z22dfindcompminundirectedPf5Graph14ComponentSpacePjS2_S2_S2_Pb'...
GPGPU-Sim PTX: Finding immediate dominators for '_Z22dfindcompminundirectedPf5Graph14ComponentSpacePjS2_S2_S2_Pb'...
GPGPU-Sim PTX: Finding postdominators for '_Z22dfindcompminundirectedPf5Graph14ComponentSpacePjS2_S2_S2_Pb'...
GPGPU-Sim PTX: Finding immediate postdominators for '_Z22dfindcompminundirectedPf5Graph14ComponentSpacePjS2_S2_S2_Pb'...
GPGPU-Sim PTX: pre-decoding instructions for '_Z22dfindcompminundirectedPf5Graph14ComponentSpacePjS2_S2_S2_Pb'...
GPGPU-Sim PTX: reconvergence points for _Z22dfindcompminundirectedPf5Graph14ComponentSpacePjS2_S2_S2_Pb...
GPGPU-Sim PTX:  1 (potential) branch divergence @  PC=0x2240 (_1.ptx:1758) @%p1 bra $LBB21__Z22dfindcompminundirectedPf5Graph14ComponentSpacePjS2_S2_S2_Pb;
GPGPU-Sim PTX:    immediate post dominator      @  PC=0x2550 (_1.ptx:1898) exit;
GPGPU-Sim PTX:  2 (potential) branch divergence @  PC=0x2280 (_1.ptx:1768) @%p2 bra $Lt_11_9218;
GPGPU-Sim PTX:    immediate post dominator      @  PC=0x22e0 (_1.ptx:1786) mov.s32 %r13, %r7;
GPGPU-Sim PTX:  3 (potential) branch divergence @  PC=0x22d8 (_1.ptx:1783) @%p3 bra $Lt_11_9730;
GPGPU-Sim PTX:    immediate post dominator      @  PC=0x22e0 (_1.ptx:1786) mov.s32 %r13, %r7;
GPGPU-Sim PTX:  4 (potential) branch divergence @  PC=0x2338 (_1.ptx:1800) @%p4 bra $Lt_11_14082;
GPGPU-Sim PTX:    immediate post dominator      @  PC=0x23a8 (_1.ptx:1821) mov.s32 %r18, %r7;
GPGPU-Sim PTX:  5 (potential) branch divergence @  PC=0x2390 (_1.ptx:1815) @%p5 bra $Lt_11_10754;
GPGPU-Sim PTX:    immediate post dominator      @  PC=0x2398 (_1.ptx:1816) bra.uni $Lt_11_10242;
GPGPU-Sim PTX:  6 (potential) branch divergence @  PC=0x2398 (_1.ptx:1816) bra.uni $Lt_11_10242;
GPGPU-Sim PTX:    immediate post dominator      @  PC=0x23a8 (_1.ptx:1821) mov.s32 %r18, %r7;
GPGPU-Sim PTX:  7 (potential) branch divergence @  PC=0x23f8 (_1.ptx:1834) @%p6 bra $Lt_11_11266;
GPGPU-Sim PTX:    immediate post dominator      @  PC=0x2458 (_1.ptx:1852) st.global.u32 [%rd18+0], %r7;
GPGPU-Sim PTX:  8 (potential) branch divergence @  PC=0x2450 (_1.ptx:1849) @%p7 bra $Lt_11_11778;
GPGPU-Sim PTX:    immediate post dominator      @  PC=0x2458 (_1.ptx:1852) st.global.u32 [%rd18+0], %r7;
GPGPU-Sim PTX:  9 (potential) branch divergence @  PC=0x2468 (_1.ptx:1855) @%p8 bra $Lt_11_12546;
GPGPU-Sim PTX:    immediate post dominator      @  PC=0x2550 (_1.ptx:1898) exit;
GPGPU-Sim PTX: 10 (potential) branch divergence @  PC=0x2470 (_1.ptx:1856) bra.uni $LBB21__Z22dfindcompminundirectedPf5Graph14ComponentSpacePjS2_S2_S2_Pb;
GPGPU-Sim PTX:    immediate post dominator      @  PC=0x2550 (_1.ptx:1898) exit;
GPGPU-Sim PTX: 11 (potential) branch divergence @  PC=0x2480 (_1.ptx:1860) @%p9 bra $Lt_11_13058;
GPGPU-Sim PTX:    immediate post dominator      @  PC=0x2550 (_1.ptx:1898) exit;
GPGPU-Sim PTX: 12 (potential) branch divergence @  PC=0x2490 (_1.ptx:1862) @%p10 bra $LBB21__Z22dfindcompminundirectedPf5Graph14ComponentSpacePjS2_S2_S2_Pb;
GPGPU-Sim PTX:    immediate post dominator      @  PC=0x2550 (_1.ptx:1898) exit;
GPGPU-Sim PTX: 13 (potential) branch divergence @  PC=0x24f0 (_1.ptx:1878) bra.uni $LBB21__Z22dfindcompminundirectedPf5Graph14ComponentSpacePjS2_S2_S2_Pb;
GPGPU-Sim PTX:    immediate post dominator      @  PC=0x2550 (_1.ptx:1898) exit;
GPGPU-Sim PTX: ... end of reconvergence points for _Z22dfindcompminundirectedPf5Graph14ComponentSpacePjS2_S2_S2_Pb
GPGPU-Sim PTX: ... done pre-decoding instructions for '_Z22dfindcompminundirectedPf5Graph14ComponentSpacePjS2_S2_S2_Pb'.
GPGPU-Sim PTX: instruction assembly for function '_Z16dfindcompminlockPf5Graph14ComponentSpacePjS2_S2_S2_Pbi'...   done.
GPGPU-Sim PTX: finding reconvergence points for '_Z16dfindcompminlockPf5Graph14ComponentSpacePjS2_S2_S2_Pbi'...
GPGPU-Sim PTX: Finding dominators for '_Z16dfindcompminlockPf5Graph14ComponentSpacePjS2_S2_S2_Pbi'...
GPGPU-Sim PTX: Finding immediate dominators for '_Z16dfindcompminlockPf5Graph14ComponentSpacePjS2_S2_S2_Pbi'...
GPGPU-Sim PTX: Finding postdominators for '_Z16dfindcompminlockPf5Graph14ComponentSpacePjS2_S2_S2_Pbi'...
GPGPU-Sim PTX: Finding immediate postdominators for '_Z16dfindcompminlockPf5Graph14ComponentSpacePjS2_S2_S2_Pbi'...
GPGPU-Sim PTX: pre-decoding instructions for '_Z16dfindcompminlockPf5Graph14ComponentSpacePjS2_S2_S2_Pbi'...
GPGPU-Sim PTX: reconvergence points for _Z16dfindcompminlockPf5Graph14ComponentSpacePjS2_S2_S2_Pbi...
GPGPU-Sim PTX:  1 (potential) branch divergence @  PC=0x2598 (_1.ptx:1928) @%p1 bra $Lt_12_20482;
GPGPU-Sim PTX:    immediate post dominator      @  PC=0x25a8 (_1.ptx:1932) ld.param.u32 %r8, [__cudaparm__Z16dfindcompminlockPf5Graph14ComponentSpacePjS2_S2_S2_Pbi_graph+4];
GPGPU-Sim PTX:  2 (potential) branch divergence @  PC=0x25b8 (_1.ptx:1934) @%p2 bra $Lt_12_30722;
GPGPU-Sim PTX:    immediate post dominator      @  PC=0x2b48 (_1.ptx:2182) exit;
GPGPU-Sim PTX:  3 (potential) branch divergence @  PC=0x25f8 (_1.ptx:1944) @%p3 bra $Lt_12_21506;
GPGPU-Sim PTX:    immediate post dominator      @  PC=0x2658 (_1.ptx:1962) mov.s32 %r15, %r9;
GPGPU-Sim PTX:  4 (potential) branch divergence @  PC=0x2650 (_1.ptx:1959) @%p4 bra $Lt_12_22018;
GPGPU-Sim PTX:    immediate post dominator      @  PC=0x2658 (_1.ptx:1962) mov.s32 %r15, %r9;
GPGPU-Sim PTX:  5 (potential) branch divergence @  PC=0x26b0 (_1.ptx:1976) @%p5 bra $Lt_12_22530;
GPGPU-Sim PTX:    immediate post dominator      @  PC=0x2710 (_1.ptx:1994) mov.s32 %r21, %r9;
GPGPU-Sim PTX:  6 (potential) branch divergence @  PC=0x2708 (_1.ptx:1991) @%p6 bra $Lt_12_23042;
GPGPU-Sim PTX:    immediate post dominator      @  PC=0x2710 (_1.ptx:1994) mov.s32 %r21, %r9;
GPGPU-Sim PTX:  7 (potential) branch divergence @  PC=0x2728 (_1.ptx:1998) @%p7 bra $Lt_12_30722;
GPGPU-Sim PTX:    immediate post dominator      @  PC=0x2b48 (_1.ptx:2182) exit;
GPGPU-Sim PTX:  8 (potential) branch divergence @  PC=0x2758 (_1.ptx:2004) @%p8 bra $Lt_12_30722;
GPGPU-Sim PTX:    immediate post dominator      @  PC=0x2b48 (_1.ptx:2182) exit;
GPGPU-Sim PTX:  9 (potential) branch divergence @  PC=0x2790 (_1.ptx:2011) @%p9 bra $Lt_12_30722;
GPGPU-Sim PTX:    immediate post dominator      @  PC=0x2b48 (_1.ptx:2182) exit;
GPGPU-Sim PTX: 10 (potential) branch divergence @  PC=0x27a0 (_1.ptx:2013) @%p10 bra $Lt_12_30722;
GPGPU-Sim PTX:    immediate post dominator      @  PC=0x2b48 (_1.ptx:2182) exit;
GPGPU-Sim PTX: 11 (potential) branch divergence @  PC=0x27c0 (_1.ptx:2018) @%p11 bra $Lt_12_23554;
GPGPU-Sim PTX:    immediate post dominator      @  PC=0x27d8 (_1.ptx:2024) add.u32 %r27, %r8, 1;
GPGPU-Sim PTX: 12 (potential) branch divergence @  PC=0x2820 (_1.ptx:2033) @%p12 bra $Lt_12_24066;
GPGPU-Sim PTX:    immediate post dominator      @  PC=0x2858 (_1.ptx:2045) cvt.u64.u32 %rd26, %r26;
GPGPU-Sim PTX: 13 (potential) branch divergence @  PC=0x2850 (_1.ptx:2042) @%p13 bra $Lt_12_24578;
GPGPU-Sim PTX:    immediate post dominator      @  PC=0x2858 (_1.ptx:2045) cvt.u64.u32 %rd26, %r26;
GPGPU-Sim PTX: 14 (potential) branch divergence @  PC=0x2890 (_1.ptx:2052) @%p14 bra $Lt_12_25090;
GPGPU-Sim PTX:    immediate post dominator      @  PC=0x28c8 (_1.ptx:2064) mov.s32 %r42, %r15;
GPGPU-Sim PTX: 15 (potential) branch divergence @  PC=0x28c0 (_1.ptx:2061) @%p15 bra $Lt_12_25602;
GPGPU-Sim PTX:    immediate post dominator      @  PC=0x28c8 (_1.ptx:2064) mov.s32 %r42, %r15;
GPGPU-Sim PTX: 16 (potential) branch divergence @  PC=0x2908 (_1.ptx:2075) @%p16 bra $Lt_12_26114;
GPGPU-Sim PTX:    immediate post dominator      @  PC=0x2968 (_1.ptx:2093) mov.s32 %r50, %r44;
GPGPU-Sim PTX: 17 (potential) branch divergence @  PC=0x2960 (_1.ptx:2090) @%p17 bra $Lt_12_26626;
GPGPU-Sim PTX:    immediate post dominator      @  PC=0x2968 (_1.ptx:2093) mov.s32 %r50, %r44;
GPGPU-Sim PTX: 18 (potential) branch divergence @  PC=0x29a0 (_1.ptx:2102) @%p18 bra $Lt_12_27138;
GPGPU-Sim PTX:    immediate post dominator      @  PC=0x2a00 (_1.ptx:2120) setp.ne.u32 %p20, %r50, %r44;
GPGPU-Sim PTX: 19 (potential) branch divergence @  PC=0x29f8 (_1.ptx:2117) @%p19 bra $Lt_12_27650;
GPGPU-Sim PTX:    immediate post dominator      @  PC=0x2a00 (_1.ptx:2120) setp.ne.u32 %p20, %r50, %r44;
GPGPU-Sim PTX: 20 (potential) branch divergence @  PC=0x2a08 (_1.ptx:2121) @%p20 bra $Lt_12_28162;
GPGPU-Sim PTX:    immediate post dominator      @  PC=0x2ae8 (_1.ptx:2164) ld.param.u64 %rd50, [__cudaparm__Z16dfindcompminlockPf5Graph14ComponentSpacePjS2_S2_S2_Pbi_mstwt];
GPGPU-Sim PTX: 21 (potential) branch divergence @  PC=0x2a10 (_1.ptx:2122) bra.uni $LDWendi__ZN14ComponentSpace6isBossEj_207_1;
GPGPU-Sim PTX:    immediate post dominator      @  PC=0x2ae8 (_1.ptx:2164) ld.param.u64 %rd50, [__cudaparm__Z16dfindcompminlockPf5Graph14ComponentSpacePjS2_S2_S2_Pbi_mstwt];
GPGPU-Sim PTX: 22 (potential) branch divergence @  PC=0x2a30 (_1.ptx:2129) @%p21 bra $Lt_12_28674;
GPGPU-Sim PTX:    immediate post dominator      @  PC=0x2a48 (_1.ptx:2136) cvt.u64.u32 %rd41, %r56;
GPGPU-Sim PTX: 23 (potential) branch divergence @  PC=0x2a78 (_1.ptx:2142) @%p22 bra $Lt_12_29442;
GPGPU-Sim PTX:    immediate post dominator      @  PC=0x2ae8 (_1.ptx:2164) ld.param.u64 %rd50, [__cudaparm__Z16dfindcompminlockPf5Graph14ComponentSpacePjS2_S2_S2_Pbi_mstwt];
GPGPU-Sim PTX: 24 (potential) branch divergence @  PC=0x2a90 (_1.ptx:2148) bra.uni $Lt_12_15362;
GPGPU-Sim PTX:    immediate post dominator      @  PC=0x28d8 (_1.ptx:2068) mov.s32 %r44, %r42;
GPGPU-Sim PTX: ... end of reconvergence points for _Z16dfindcompminlockPf5Graph14ComponentSpacePjS2_S2_S2_Pbi
GPGPU-Sim PTX: ... done pre-decoding instructions for '_Z16dfindcompminlockPf5Graph14ComponentSpacePjS2_S2_S2_Pbi'.
GPGPU-Sim PTX: instruction assembly for function '_Z18dfindcompminatomicPf5Graph14ComponentSpacePjS2_S2_S2_Pbi'...   done.
GPGPU-Sim PTX: finding reconvergence points for '_Z18dfindcompminatomicPf5Graph14ComponentSpacePjS2_S2_S2_Pbi'...
GPGPU-Sim PTX: Finding dominators for '_Z18dfindcompminatomicPf5Graph14ComponentSpacePjS2_S2_S2_Pbi'...
GPGPU-Sim PTX: Finding immediate dominators for '_Z18dfindcompminatomicPf5Graph14ComponentSpacePjS2_S2_S2_Pbi'...
GPGPU-Sim PTX: Finding postdominators for '_Z18dfindcompminatomicPf5Graph14ComponentSpacePjS2_S2_S2_Pbi'...
GPGPU-Sim PTX: Finding immediate postdominators for '_Z18dfindcompminatomicPf5Graph14ComponentSpacePjS2_S2_S2_Pbi'...
GPGPU-Sim PTX: pre-decoding instructions for '_Z18dfindcompminatomicPf5Graph14ComponentSpacePjS2_S2_S2_Pbi'...
GPGPU-Sim PTX: reconvergence points for _Z18dfindcompminatomicPf5Graph14ComponentSpacePjS2_S2_S2_Pbi...
GPGPU-Sim PTX:  1 (potential) branch divergence @  PC=0x2b90 (_1.ptx:2212) @%p1 bra $Lt_13_19202;
GPGPU-Sim PTX:    immediate post dominator      @  PC=0x2ba0 (_1.ptx:2216) ld.param.u32 %r8, [__cudaparm__Z18dfindcompminatomicPf5Graph14ComponentSpacePjS2_S2_S2_Pbi_graph+4];
GPGPU-Sim PTX:  2 (potential) branch divergence @  PC=0x2bb0 (_1.ptx:2218) @%p2 bra $Lt_13_27906;
GPGPU-Sim PTX:    immediate post dominator      @  PC=0x30b8 (_1.ptx:2445) exit;
GPGPU-Sim PTX:  3 (potential) branch divergence @  PC=0x2bf0 (_1.ptx:2228) @%p3 bra $Lt_13_20226;
GPGPU-Sim PTX:    immediate post dominator      @  PC=0x2c50 (_1.ptx:2246) mov.s32 %r15, %r9;
GPGPU-Sim PTX:  4 (potential) branch divergence @  PC=0x2c48 (_1.ptx:2243) @%p4 bra $Lt_13_20738;
GPGPU-Sim PTX:    immediate post dominator      @  PC=0x2c50 (_1.ptx:2246) mov.s32 %r15, %r9;
GPGPU-Sim PTX:  5 (potential) branch divergence @  PC=0x2ca8 (_1.ptx:2260) @%p5 bra $Lt_13_21250;
GPGPU-Sim PTX:    immediate post dominator      @  PC=0x2d08 (_1.ptx:2278) st.global.u32 [%rd12+0], %r9;
GPGPU-Sim PTX:  6 (potential) branch divergence @  PC=0x2d00 (_1.ptx:2275) @%p6 bra $Lt_13_21762;
GPGPU-Sim PTX:    immediate post dominator      @  PC=0x2d08 (_1.ptx:2278) st.global.u32 [%rd12+0], %r9;
GPGPU-Sim PTX:  7 (potential) branch divergence @  PC=0x2d18 (_1.ptx:2281) @%p7 bra $Lt_13_27906;
GPGPU-Sim PTX:    immediate post dominator      @  PC=0x30b8 (_1.ptx:2445) exit;
GPGPU-Sim PTX:  8 (potential) branch divergence @  PC=0x2d48 (_1.ptx:2287) @%p8 bra $Lt_13_27906;
GPGPU-Sim PTX:    immediate post dominator      @  PC=0x30b8 (_1.ptx:2445) exit;
GPGPU-Sim PTX:  9 (potential) branch divergence @  PC=0x2d80 (_1.ptx:2294) @%p9 bra $Lt_13_27906;
GPGPU-Sim PTX:    immediate post dominator      @  PC=0x30b8 (_1.ptx:2445) exit;
GPGPU-Sim PTX: 10 (potential) branch divergence @  PC=0x2d90 (_1.ptx:2296) @%p10 bra $Lt_13_27906;
GPGPU-Sim PTX:    immediate post dominator      @  PC=0x30b8 (_1.ptx:2445) exit;
GPGPU-Sim PTX: 11 (potential) branch divergence @  PC=0x2dd0 (_1.ptx:2305) @%p11 bra $Lt_13_22530;
GPGPU-Sim PTX:    immediate post dominator      @  PC=0x30b0 (_1.ptx:2440) atom.global.dec.u32 %r57, [%rd23], %r24;
GPGPU-Sim PTX: 12 (potential) branch divergence @  PC=0x2e10 (_1.ptx:2314) @%p12 bra $Lt_13_23042;
GPGPU-Sim PTX:    immediate post dominator      @  PC=0x3088 (_1.ptx:2431) atom.global.dec.u32 %r55, [%rd26], %r24;
GPGPU-Sim PTX: 13 (potential) branch divergence @  PC=0x2e58 (_1.ptx:2327) @%p13 bra $Lt_13_23298;
GPGPU-Sim PTX:    immediate post dominator      @  PC=0x2eb8 (_1.ptx:2345) mov.s32 %r39, %r33;
GPGPU-Sim PTX: 14 (potential) branch divergence @  PC=0x2eb0 (_1.ptx:2342) @%p14 bra $Lt_13_23810;
GPGPU-Sim PTX:    immediate post dominator      @  PC=0x2eb8 (_1.ptx:2345) mov.s32 %r39, %r33;
GPGPU-Sim PTX: 15 (potential) branch divergence @  PC=0x2ef0 (_1.ptx:2354) @%p15 bra $Lt_13_24322;
GPGPU-Sim PTX:    immediate post dominator      @  PC=0x2f50 (_1.ptx:2372) setp.ne.u32 %p17, %r39, %r33;
GPGPU-Sim PTX: 16 (potential) branch divergence @  PC=0x2f48 (_1.ptx:2369) @%p16 bra $Lt_13_24834;
GPGPU-Sim PTX:    immediate post dominator      @  PC=0x2f50 (_1.ptx:2372) setp.ne.u32 %p17, %r39, %r33;
GPGPU-Sim PTX: 17 (potential) branch divergence @  PC=0x2f58 (_1.ptx:2373) @%p17 bra $Lt_13_25346;
GPGPU-Sim PTX:    immediate post dominator      @  PC=0x3038 (_1.ptx:2416) ld.param.u64 %rd48, [__cudaparm__Z18dfindcompminatomicPf5Graph14ComponentSpacePjS2_S2_S2_Pbi_mstwt];
GPGPU-Sim PTX: 18 (potential) branch divergence @  PC=0x2f60 (_1.ptx:2374) bra.uni $LDWendi__ZN14ComponentSpace6isBossEj_208_1;
GPGPU-Sim PTX:    immediate post dominator      @  PC=0x3038 (_1.ptx:2416) ld.param.u64 %rd48, [__cudaparm__Z18dfindcompminatomicPf5Graph14ComponentSpacePjS2_S2_S2_Pbi_mstwt];
GPGPU-Sim PTX: 19 (potential) branch divergence @  PC=0x2f80 (_1.ptx:2381) @%p18 bra $Lt_13_25858;
GPGPU-Sim PTX:    immediate post dominator      @  PC=0x2f98 (_1.ptx:2388) cvt.u64.u32 %rd39, %r45;
GPGPU-Sim PTX: 20 (potential) branch divergence @  PC=0x2fc8 (_1.ptx:2394) @%p19 bra $Lt_13_26626;
GPGPU-Sim PTX:    immediate post dominator      @  PC=0x3038 (_1.ptx:2416) ld.param.u64 %rd48, [__cudaparm__Z18dfindcompminatomicPf5Graph14ComponentSpacePjS2_S2_S2_Pbi_mstwt];
GPGPU-Sim PTX: 21 (potential) branch divergence @  PC=0x2fe0 (_1.ptx:2400) bra.uni $Lt_13_14082;
GPGPU-Sim PTX:    immediate post dominator      @  PC=0x2e28 (_1.ptx:2320) mov.s32 %r33, %r31;
GPGPU-Sim PTX: 22 (potential) branch divergence @  PC=0x3068 (_1.ptx:2423) bra.uni $Lt_13_22786;
GPGPU-Sim PTX:    immediate post dominator      @  PC=0x3088 (_1.ptx:2431) atom.global.dec.u32 %r55, [%rd26], %r24;
GPGPU-Sim PTX: 23 (potential) branch divergence @  PC=0x3090 (_1.ptx:2432) bra.uni $Lt_13_22274;
[...]
traffic_breakdown_memtocore[GLOBAL_ACC_R] = 266015728 {136:1955998,}
traffic_breakdown_memtocore[GLOBAL_ACC_W] = 10395672 {8:1299459,}
traffic_breakdown_memtocore[GLOBAL_ATOMIC] = 4816696 {40:1,72:66898,}
traffic_breakdown_memtocore[INST_ACC_R] = 48960 {136:360,}
maxmrqlatency = 1634 
maxdqlatency = 0 
maxmflatency = 2488 
averagemflatency = 396 
max_icnt2mem_latency = 1107 
max_icnt2sh_latency = 2413205 
mrq_lat_table:661557 	45078 	37406 	59234 	178629 	148764 	130275 	75547 	17800 	2008 	467 	0 	0 	0 	0 	0 	0 	0 	0 	0 	0 	0 	0 	0 	0 	0 	0 	0 	0 	0 	0 	0 	
dq_lat_table:0 	0 	0 	0 	0 	0 	0 	0 	0 	0 	0 	0 	0 	0 	0 	0 	0 	0 	0 	0 	0 	0 	0 	0 	0 	0 	0 	0 	0 	0 	0 	0 	
mf_lat_table:0 	0 	0 	0 	0 	0 	0 	501632 	2257295 	546591 	16838 	60 	0 	0 	0 	0 	0 	0 	0 	0 	0 	0 	0 	0 	0 	0 	0 	0 	0 	0 	0 	0 	
icnt2mem_lat_table:0 	0 	0 	364647 	227247 	443864 	1060819 	848499 	371091 	6599 	10 	0 	0 	0 	0 	0 	0 	0 	0 	0 	0 	0 	0 	0 	
icnt2sh_lat_table:0 	0 	0 	78835 	965834 	927077 	51108 	102 	1 	0 	423 	833 	2121 	4170 	8510 	16864 	33912 	98147 	153295 	224529 	507691 	248964 	0 	0 	
mf_lat_pw_table:0 	0 	0 	0 	0 	0 	0 	21 	4023 	776 	4 	0 	0 	0 	0 	0 	0 	0 	0 	0 	0 	0 	0 	0 	0 	0 	0 	0 	0 	0 	0 	0 	
maximum concurrent accesses to same row:
dram[0]:        64        64        64        64        64        64        64        64        64        64        64        64        64        64        64        64 
dram[1]:        64        64        64        64        64        64        64        64        64        62        64        64        64        64        64        64 
dram[2]:        64        64        64        64        64        64        64        64        64        64        64        64        64        64        64        64 
dram[3]:        64        64        62        64        64        64        64        64        62        64        62        64        64        64        64        64 
dram[4]:        64        64        64        64        64        64        64        64        64        64        64        64        64        64        64        64 
dram[5]:        64        64        64        64        64        64        64        64        64        64        64        64        64        64        64        64 
maximum service time to same row:
dram[0]:     20520     22195     22144     22490     18716     21244     24045     23351     25208     20816     21084     16242     24847     21714     22032     19359 
dram[1]:     21322     21996     18663     20850     20497     20927     22803     24881     21958     23780     20740     16588     20850     22071     24989     24909 
dram[2]:     20703     27928     18049     22197     19824     18413     23722     24234     21669     22048     17599     17503     19660     25885     22715     20759 
dram[3]:     27434     23294     22952     24459     18150     22450     22747     24575     20328     21750     20448     19984     24553     25535     22654     22346 
dram[4]:     20498     25747     19086     19181     24334     17051     23956     18507     23878     22744     20153     19491     21798     23662     21989     19480 
dram[5]:     21635     22344     19847     19623     22770     19739     24515     22453     20741     21657     19679     20283     21838     25547     19665     23688 
average row accesses per activate:
dram[0]:  3.273292  3.230752  3.361210  3.305196  3.356837  3.265046  3.341096  3.293982  3.326805  3.351570  3.303455  3.364328  3.276983  3.270959  3.304450  3.330658 
dram[1]:  3.187948  3.178619  3.320830  3.289529  3.244531  3.291872  3.254296  3.193635  3.321353  3.313517  3.339023  3.319249  3.272158  3.194337  3.289750  3.300420 
dram[2]:  3.209955  3.203695  3.280335  3.370840  3.210861  3.354102  3.267479  3.305852  3.267207  3.339421  3.303605  3.391419  3.279824  3.299301  3.276977  3.337432 
dram[3]:  3.162414  3.197386  3.318923  3.324184  3.273425  3.271041  3.243625  3.255490  3.245614  3.347401  3.212211  3.369389  3.183352  3.251036  3.287649  3.282183 
dram[4]:  3.207223  3.174107  3.352143  3.340142  3.303257  3.241506  3.284198  3.275339  3.372963  3.315615  3.363658  3.303679  3.206670  3.276157  3.350071  3.312588 
dram[5]:  3.240804  3.187037  3.279507  3.378157  3.259560  3.235927  3.157906  3.312748  3.310970  3.319962  3.380804  3.299977  3.264631  3.305660  3.273401  3.244082 
average row locality = 1356765/413203 = 3.283531
number of total memory accesses made:
dram[0]:         0         0         0         0         0         0         0         0         0         0         0         0         0         0         0         0 
dram[1]:         0         0         0         0         0         0         0         0         0         0         0         0         0         0         0         0 
dram[2]:         0         0         0         0         0         0         0         0         0         0         0         0         0         0         0         0 
dram[3]:         0         0         0         0         0         0         0         0         0         0         0         0         0         0         0         0 
dram[4]:         0         0         0         0         0         0         0         0         0         0         0         0         0         0         0         0 
dram[5]:         0         0         0         0         0         0         0         0         0         0         0         0         0         0         0         0 
total accesses: 0
min_bank_accesses = 0!
min_chip_accesses = 0!
number of total read accesses:
dram[0]:      9076      9080      9067      9039      9067      9067      9097      9103      9025      9015      9049      9047      9072      9032      9027      9028 
dram[1]:      9086      9057      9039      9029      9063      9044      9095      9119      9045      9003      9005      9040      9032      9032      9018      9049 
dram[2]:      9055      9075      9062      9055      9088      9072      9089      9110      9024      9012      9021      9039      9050      9045      9015      9019 
dram[3]:      9092      9063      9032      9042      9061      9080      9122      9109      9004      9003      9056      9026      9050      9035      9015      9007 
dram[4]:      9069      9070      9042      9041      9068      9078      9109      9112      9007      8991      9046      9061      9036      9036      9011      9016 
dram[5]:      9052      9074      9064      9030      9051      9095      9112      9108      9007      9019      9040      9028      9032      9048      9031      9024 
total reads: 868883
bank skew: 9122/8991 = 1.01
chip skew: 144891/144756 = 1.00
number of total write accesses:
dram[0]:      5153      5145      5040      5018      5025      5038      5106      5127      5074      5075      5103      5100      5137      5092      5083      5084 
dram[1]:      5145      5126      5038      5014      5028      5009      5110      5131      5094      5043      5079      5100      5071      5071      5072      5090 
dram[2]:      5133      5143      5050      5025      5043      5032      5118      5125      5074      5067      5092      5110      5109      5109      5076      5095 
dram[3]:      5161      5127      5017      5006      5018      5028      5124      5124      5056      5036      5097      5085      5100      5081      5066      5067 
dram[4]:      5139      5150      5037      5021      5027      5042      5128      5139      5065      5044      5115      5125      5099      5117      5066      5089 
dram[5]:      5133      5137      5051      5013      5014      5046      5127      5107      5058      5051      5085      5086      5081      5087      5097      5091 
total reads: 487882
bank skew: 5161/5006 = 1.03
chip skew: 81403/81193 = 1.00
average mf latency per bank:
dram[0]:        988       973      1006       983      1015       983       985       977       966       945       990       972       983       967       961       938
dram[1]:        981       971       995       986       977       994       963      1001       965       996       972       994       970       990       952       976
dram[2]:        960       956       948       956       954       975       964       952       944       931       962       959       949       949       921       923
dram[3]:        997       980       992       967      1006       986      1004       987       997       988      1026      1012      1002      1003       965       968
dram[4]:        944       961       949       943       966       966       973       947       948       933       973       951       958       966       923       931
dram[5]:        989       970       982       961       969       977       979       959       969       966      1008       966       972       973       950       949
maximum mf latency per bank:
dram[0]:       1861      2243      1733      2374      2204      1580      1632      2106      2175      1748      1690      2128      2269      2063      1845      1979
dram[1]:       1888      1543      2430      2175      2107      1510      1853      1649      2026      1666      2311      2190      2173      1598      1820      1949
dram[2]:       2043      1817      2393      2112      2215      1873      2306      1710      2106      1839      2418      2276      2348      2003      1854      1710
dram[3]:       1590      1980      2054      2123      1828      1991      1696      1785      1949      1840      1972      1993      2110      2026      1862      1937
dram[4]:       1698      2077      1987      1985      2019      1798      1760      1744      1782      1549      1827      2255      1704      2237      1747      1732
dram[5]:       1712      1591      2236      2213      1942      1656      1753      1860      1918      1442      2233      1681      2074      2488      2002      1464

Number of Memory Banks Accessed per Memory Operation per Warp (from 0):
0	0	0	0	0	0	0	0	0	0	0	0	0	0	0	0	0	0	0	0	0	0	0	0	0	0	0	0	0	0	0	0	0	0	0	0	0	0	0	0	0	0	0	0	0	0	0	0	0	0	0	0	0	0	0	0	0	0	0	0	0	0	0	0	0	0	0	0	0	0	0	0	0	0	0	0	0	0	0	0	0	0	0	0	0	0	0	0	0	0	0	0	0	0	0	0	
Average # of Memory Banks Accessed per Memory Operation per Warp=-nan

position of mrq chosen
0	0	0	0	0	0	0	0	0	0	0	0	0	0	0	0	

average position of mrq chosen = -nan
Memory Partition 0: 
Cache L2_bank_000:
MSHR contents

Cache L2_bank_001:
MSHR contents

In Dram Latency Queue (total = 0): 
DRAM[0]: 16 bks, busW=4 BL=8 CL=12, tRRD=2 tCCD=6, tRCD=12 tRAS=28 tRP=12 tRC=40
n_cmd=3185429 n_nop=2600739 n_act=68382 n_pre=68366 n_req=226291 n_rd=289782 n_write=158160 bw_util=0.2812
n_activity=2386792 dram_eff=0.3754
bk0: 18152a 2796872i bk1: 18160a 2788920i bk2: 18134a 2788315i bk3: 18078a 2784923i bk4: 18134a 2787700i bk5: 18134a 2780277i bk6: 18194a 2782416i bk7: 18206a 2775900i bk8: 18050a 2801123i bk9: 18030a 2795960i bk10: 18098a 2788211i bk11: 18094a 2780271i bk12: 18144a 2781250i bk13: 18064a 2777110i bk14: 18054a 2782658i bk15: 18056a 2779657i 
dram_util_bins: 0 0 0 0 0 0 0 0 0 0
dram_eff_bins: 0 0 0 0 0 0 0 0 0 0
mrqq: max=16 avg=3.03488
Memory Partition 1: 
Cache L2_bank_002:
MSHR contents

Cache L2_bank_003:
MSHR contents

In Dram Latency Queue (total = 0): 
DRAM[1]: 16 bks, busW=4 BL=8 CL=12, tRRD=2 tCCD=6, tRCD=12 tRAS=28 tRP=12 tRC=40
n_cmd=3185429 n_nop=2599739 n_act=69139 n_pre=69123 n_req=225977 n_rd=289512 n_write=157916 bw_util=0.2809
n_activity=2386618 dram_eff=0.3749
bk0: 18172a 2792366i bk1: 18114a 2790664i bk2: 18078a 2787054i bk3: 18058a 2787451i bk4: 18126a 2783741i bk5: 18088a 2783191i bk6: 18190a 2779512i bk7: 18238a 2774404i bk8: 18090a 2798342i bk9: 18006a 2800277i bk10: 18010a 2787633i bk11: 18080a 2784562i bk12: 18064a 2782088i bk13: 18064a 2779875i bk14: 18036a 2780514i bk15: 18098a 2778993i 
dram_util_bins: 0 0 0 0 0 0 0 0 0 0
dram_eff_bins: 0 0 0 0 0 0 0 0 0 0
mrqq: max=16 avg=3.04694
Memory Partition 2: 
Cache L2_bank_004:
MSHR contents

Cache L2_bank_005:
MSHR contents

In Dram Latency Queue (total = 0): 
DRAM[2]: 16 bks, busW=4 BL=8 CL=12, tRRD=2 tCCD=6, tRCD=12 tRAS=28 tRP=12 tRC=40
n_cmd=3185429 n_nop=2600196 n_act=68708 n_pre=68692 n_req=226232 n_rd=289662 n_write=158171 bw_util=0.2812
n_activity=2379839 dram_eff=0.3764
bk0: 18110a 2795931i bk1: 18150a 2794369i bk2: 18124a 2789155i bk3: 18110a 2787006i bk4: 18176a 2781467i bk5: 18144a 2780766i bk6: 18178a 2781869i bk7: 18220a 2779914i bk8: 18048a 2799473i bk9: 18024a 2800075i bk10: 18042a 2786703i bk11: 18078a 2782740i bk12: 18100a 2783502i bk13: 18090a 2777498i bk14: 18030a 2782050i bk15: 18038a 2777922i 
dram_util_bins: 0 0 0 0 0 0 0 0 0 0
dram_eff_bins: 0 0 0 0 0 0 0 0 0 0
mrqq: max=16 avg=3.00899
Memory Partition 3: 
Cache L2_bank_006:
MSHR contents

Cache L2_bank_007:
MSHR contents

In Dram Latency Queue (total = 0): 
DRAM[3]: 16 bks, busW=4 BL=8 CL=12, tRRD=2 tCCD=6, tRCD=12 tRAS=28 tRP=12 tRC=40
n_cmd=3185429 n_nop=2599436 n_act=69260 n_pre=69244 n_req=225990 n_rd=289594 n_write=157895 bw_util=0.281
n_activity=2390241 dram_eff=0.3744
bk0: 18184a 2800958i bk1: 18126a 2788069i bk2: 18064a 2789149i bk3: 18084a 2784318i bk4: 18122a 2785623i bk5: 18160a 2778618i bk6: 18244a 2779114i bk7: 18218a 2772136i bk8: 18008a 2804421i bk9: 18006a 2800312i bk10: 18112a 2784823i bk11: 18052a 2783545i bk12: 18100a 2778266i bk13: 18070a 2777990i bk14: 18030a 2783720i bk15: 18014a 2779912i 
dram_util_bins: 0 0 0 0 0 0 0 0 0 0
dram_eff_bins: 0 0 0 0 0 0 0 0 0 0
mrqq: max=16 avg=3.05122
Memory Partition 4: 
Cache L2_bank_008:
MSHR contents

Cache L2_bank_009:
MSHR contents

In Dram Latency Queue (total = 0): 
DRAM[4]: 16 bks, busW=4 BL=8 CL=12, tRRD=2 tCCD=6, tRCD=12 tRAS=28 tRP=12 tRC=40
n_cmd=3185429 n_nop=2600271 n_act=68726 n_pre=68710 n_req=226196 n_rd=289586 n_write=158136 bw_util=0.2811
n_activity=2385490 dram_eff=0.3754
bk0: 18138a 2797941i bk1: 18140a 2788452i bk2: 18084a 2790642i bk3: 18082a 2788428i bk4: 18136a 2785296i bk5: 18156a 2778253i bk6: 18218a 2781666i bk7: 18224a 2777993i bk8: 18014a 2807584i bk9: 17982a 2800449i bk10: 18092a 2787525i bk11: 18122a 2781099i bk12: 18072a 2778951i bk13: 18072a 2777519i bk14: 18022a 2786310i bk15: 18032a 2781715i 
dram_util_bins: 0 0 0 0 0 0 0 0 0 0
dram_eff_bins: 0 0 0 0 0 0 0 0 0 0
mrqq: max=16 avg=3.00993
Memory Partition 5: 
Cache L2_bank_010:
MSHR contents

Cache L2_bank_011:
MSHR contents

In Dram Latency Queue (total = 0): 
DRAM[5]: 16 bks, busW=4 BL=8 CL=12, tRRD=2 tCCD=6, tRCD=12 tRAS=28 tRP=12 tRC=40
n_cmd=3185429 n_nop=2599828 n_act=68989 n_pre=68973 n_req=226079 n_rd=289630 n_write=158009 bw_util=0.2811
n_activity=2386582 dram_eff=0.3751
bk0: 18104a 2796057i bk1: 18148a 2793518i bk2: 18128a 2787290i bk3: 18060a 2788869i bk4: 18102a 2783149i bk5: 18190a 2776913i bk6: 18224a 2775704i bk7: 18216a 2777709i bk8: 18014a 2801161i bk9: 18038a 2796683i bk10: 18080a 2788612i bk11: 18056a 2787623i bk12: 18064a 2782825i bk13: 18096a 2780707i bk14: 18062a 2777588i bk15: 18048a 2780200i 
dram_util_bins: 0 0 0 0 0 0 0 0 0 0
dram_eff_bins: 0 0 0 0 0 0 0 0 0 0
mrqq: max=16 avg=3.04213

========= L2 cache stats =========
L2_cache_bank[0]: Access = 278169, Miss = 72480, Miss_rate = 0.261, Pending_hits = 1113, Reservation_fails = 886
L2_cache_bank[1]: Access = 276666, Miss = 72411, Miss_rate = 0.262, Pending_hits = 1142, Reservation_fails = 824
L2_cache_bank[2]: Access = 276858, Miss = 72383, Miss_rate = 0.261, Pending_hits = 1052, Reservation_fails = 471
L2_cache_bank[3]: Access = 277681, Miss = 72373, Miss_rate = 0.261, Pending_hits = 1096, Reservation_fails = 848
L2_cache_bank[4]: Access = 277051, Miss = 72404, Miss_rate = 0.261, Pending_hits = 1124, Reservation_fails = 473
L2_cache_bank[5]: Access = 276160, Miss = 72427, Miss_rate = 0.262, Pending_hits = 1102, Reservation_fails = 1039
L2_cache_bank[6]: Access = 278070, Miss = 72432, Miss_rate = 0.260, Pending_hits = 1088, Reservation_fails = 724
L2_cache_bank[7]: Access = 275474, Miss = 72365, Miss_rate = 0.263, Pending_hits = 1046, Reservation_fails = 956
L2_cache_bank[8]: Access = 276222, Miss = 72388, Miss_rate = 0.262, Pending_hits = 1144, Reservation_fails = 583
L2_cache_bank[9]: Access = 276364, Miss = 72405, Miss_rate = 0.262, Pending_hits = 1127, Reservation_fails = 898
L2_cache_bank[10]: Access = 276854, Miss = 72389, Miss_rate = 0.261, Pending_hits = 1076, Reservation_fails = 556
L2_cache_bank[11]: Access = 277207, Miss = 72426, Miss_rate = 0.261, Pending_hits = 1073, Reservation_fails = 602
L2_total_cache_accesses = 3322776
L2_total_cache_misses = 868883
L2_total_cache_miss_rate = 0.2615
L2_total_cache_pending_hits = 13183
L2_total_cache_reservation_fails = 8860
L2_total_cache_breakdown:
	L2_cache_stats_breakdown[GLOBAL_ACC_R][HIT] = 1502893
	L2_cache_stats_breakdown[GLOBAL_ACC_R][HIT_RESERVED] = 2374
	L2_cache_stats_breakdown[GLOBAL_ACC_R][MISS] = 517630
	L2_cache_stats_breakdown[GLOBAL_ACC_R][RESERVATION_FAIL] = 3035
	L2_cache_stats_breakdown[CONST_ACC_R][HIT] = 48
	L2_cache_stats_breakdown[CONST_ACC_R][HIT_RESERVED] = 9
	L2_cache_stats_breakdown[CONST_ACC_R][MISS] = 3
	L2_cache_stats_breakdown[CONST_ACC_R][RESERVATION_FAIL] = 333
	L2_cache_stats_breakdown[GLOBAL_ACC_W][HIT] = 937492
	L2_cache_stats_breakdown[GLOBAL_ACC_W][HIT_RESERVED] = 10741
	L2_cache_stats_breakdown[GLOBAL_ACC_W][MISS] = 351226
	L2_cache_stats_breakdown[GLOBAL_ACC_W][RESERVATION_FAIL] = 3748
	L2_cache_stats_breakdown[INST_ACC_R][HIT] = 277
	L2_cache_stats_breakdown[INST_ACC_R][HIT_RESERVED] = 59
	L2_cache_stats_breakdown[INST_ACC_R][MISS] = 24
	L2_cache_stats_breakdown[INST_ACC_R][RESERVATION_FAIL] = 1744
L2_cache_data_port_util = 0.275
L2_cache_fill_port_util = 0.120

icnt_total_pkts_mem_to_simt=11282125
icnt_total_pkts_simt_to_mem=6560201
LD_mem_lat_dist  0 0 0 0 0 0 0 0 0 0 0 0 0 0 0 0 0 0 0 0 0 0 0 0 0 0 0
ST_mem_lat_dist  0 0 0 0 0 0 0 0 0 0 0 0 0 0 0 0 0 0 0 0 0 0 0 0 0 0 0
----------------------------Interconnect-DETAILS--------------------------------
Class 0:
Packet latency average = 50.6089
	minimum = 6
	maximum = 605
Network latency average = 31.4743
	minimum = 6
	maximum = 454
Slowest packet = 5083233
Flit latency average = 24.5727
	minimum = 6
	maximum = 453
Slowest flit = 14319723
Fragmentation average = 0.140775
	minimum = 0
	maximum = 359
Injected packet rate average = 0.121692
	minimum = 0.10867 (at node 11)
	maximum = 0.138554 (at node 15)
Accepted packet rate average = 0.121692
	minimum = 0.10867 (at node 11)
	maximum = 0.138554 (at node 15)
Injected flit rate average = 0.301359
	minimum = 0.203897 (at node 1)
	maximum = 0.42679 (at node 21)
Accepted flit rate average= 0.301359
	minimum = 0.254546 (at node 22)
	maximum = 0.341751 (at node 4)
Injected packet length average = 2.47641
Accepted packet length average = 2.47641
Total in-flight flits = 0 (0 measured)
====== Overall Traffic Statistics ======
====== Traffic class 0 ======
Packet latency average = 41.2948 (4 samples)
	minimum = 6 (4 samples)
	maximum = 587.75 (4 samples)
Network latency average = 27.8353 (4 samples)
	minimum = 6 (4 samples)
	maximum = 507.75 (4 samples)
Flit latency average = 25.4766 (4 samples)
	minimum = 6 (4 samples)
	maximum = 505.5 (4 samples)
Fragmentation average = 0.531458 (4 samples)
	minimum = 0 (4 samples)
	maximum = 377.5 (4 samples)
Injected packet rate average = 0.0811551 (4 samples)
	minimum = 0.0709807 (4 samples)
	maximum = 0.0918677 (4 samples)
Accepted packet rate average = 0.0811551 (4 samples)
	minimum = 0.0709807 (4 samples)
	maximum = 0.0918677 (4 samples)
Injected flit rate average = 0.216983 (4 samples)
	minimum = 0.11834 (4 samples)
	maximum = 0.326304 (4 samples)
Accepted flit rate average = 0.216983 (4 samples)
	minimum = 0.135321 (4 samples)
	maximum = 0.303296 (4 samples)
Injected packet size average = 2.67369 (4 samples)
Accepted packet size average = 2.67369 (4 samples)
Hops average = 1 (4 samples)
----------------------------END-of-Interconnect-DETAILS-------------------------
GPGPU-Sim API: Stream Manager State
