

        *** GPGPU-Sim Simulator Version 3.2.2  [build 0] ***


GPGPU-Sim PTX: simulation mode 0 (can change with PTX_SIM_MODE_FUNC environment variable:
               1=functional simulation only, 0=detailed performance simulator)
GPGPU-Sim: Configuration options:

-network_mode                           1 # Interconnection network mode
-inter_config_file   config_fermi_islip.icnt # Interconnection network config file
-gpgpu_ptx_use_cuobjdump                    1 # Use cuobjdump to extract ptx and sass from binaries
-gpgpu_experimental_lib_support                    0 # Try to extract code from cuda libraries [Broken because of unknown cudaGetExportTable]
-gpgpu_ptx_convert_to_ptxplus                    0 # Convert SASS (native ISA) to ptxplus and run ptxplus
-gpgpu_ptx_force_max_capability                   20 # Force maximum compute capability
-gpgpu_ptx_inst_debug_to_file                    0 # Dump executed instructions' debug information to file
-gpgpu_ptx_inst_debug_file       inst_debug.txt # Executed instructions' debug output file
-gpgpu_ptx_inst_debug_thread_uid                    1 # Thread UID for executed instructions' debug output
-gpgpu_simd_model                       1 # 1 = post-dominator
-gpgpu_shader_core_pipeline              1536:32 # shader core pipeline config, i.e., {<nthread>:<warpsize>}
-gpgpu_tex_cache:l1  4:128:24,L:R:m:N:L,F:128:4,128:2 # per-shader L1 texture cache  (READ-ONLY) config  {<nsets>:<bsize>:<assoc>,<rep>:<wr>:<alloc>:<wr_alloc>,<mshr>:<N>:<merge>,<mq>:<rf>}
-gpgpu_const_cache:l1 64:64:2,L:R:f:N:L,A:2:32,4 # per-shader L1 constant memory cache  (READ-ONLY) config  {<nsets>:<bsize>:<assoc>,<rep>:<wr>:<alloc>:<wr_alloc>,<mshr>:<N>:<merge>,<mq>} 
-gpgpu_cache:il1     4:128:4,L:R:f:N:L,A:2:32,4 # shader L1 instruction cache config  {<nsets>:<bsize>:<assoc>,<rep>:<wr>:<alloc>:<wr_alloc>,<mshr>:<N>:<merge>,<mq>} 
-gpgpu_cache:dl1     32:128:4,L:L:m:N:H,A:32:8,8:2,0,1:0:1:1:0:1,1:4:8:16:32:64,/sciclone/data10/hwang07/GPU_RESEARCH/swl/swl_outputs/RESULTS/swl1/ # per-shader L1 data cache config  {<nsets>:<bsize>:<assoc>,<rep>:<wr>:<alloc>:<wr_alloc>,<mshr>:<N>:<merge>,<mq> | none}
-gpgpu_cache:dl1PrefL1                 none # per-shader L1 data cache config  {<nsets>:<bsize>:<assoc>,<rep>:<wr>:<alloc>:<wr_alloc>,<mshr>:<N>:<merge>,<mq> | none}
-gpgpu_cache:dl1PreShared                 none # per-shader L1 data cache config  {<nsets>:<bsize>:<assoc>,<rep>:<wr>:<alloc>:<wr_alloc>,<mshr>:<N>:<merge>,<mq> | none}
-gmem_skip_L1D                          0 # global memory access skip L1D cache (implements -Xptxas -dlcm=cg, default=no skip)
-gpgpu_perfect_mem                      0 # enable perfect memory mode (no cache miss)
-n_regfile_gating_group                    4 # group of lanes that should be read/written together)
-gpgpu_clock_gated_reg_file                    0 # enable clock gated reg file for power calculations
-gpgpu_clock_gated_lanes                    0 # enable clock gated lanes for power calculations
-gpgpu_shader_registers                32768 # Number of registers per shader core. Limits number of concurrent CTAs. (default 8192)
-gpgpu_shader_cta                       8 # Maximum number of concurrent CTAs in shader (default 8)
-gpgpu_num_cta_barriers                   16 # Maximum number of named barriers per CTA (default 16)
-gpgpu_n_clusters                      15 # number of processing clusters
-gpgpu_n_cores_per_cluster                    1 # number of simd cores per cluster
-gpgpu_n_cluster_ejection_buffer_size                    8 # number of packets in ejection buffer
-gpgpu_n_ldst_response_buffer_size                    2 # number of response packets in ld/st unit ejection buffer
-gpgpu_shmem_size                   16384 # Size of shared memory per shader core (default 16kB)
-gpgpu_shmem_size                   49152 # Size of shared memory per shader core (default 16kB)
-gpgpu_shmem_size_PrefL1                16384 # Size of shared memory per shader core (default 16kB)
-gpgpu_shmem_size_PrefShared                16384 # Size of shared memory per shader core (default 16kB)
-gpgpu_shmem_num_banks                   32 # Number of banks in the shared memory in each shader core (default 16)
-gpgpu_shmem_limited_broadcast                    0 # Limit shared memory to do one broadcast per cycle (default on)
-gpgpu_shmem_warp_parts                    1 # Number of portions a warp is divided into for shared memory bank conflict check 
-gpgpu_warpdistro_shader                   -1 # Specify which shader core to collect the warp size distribution from
-gpgpu_warp_issue_shader                    0 # Specify which shader core to collect the warp issue distribution from
-gpgpu_local_mem_map                    1 # Mapping from local memory space address to simulated GPU physical address space (default = enabled)
-gpgpu_num_reg_banks                   16 # Number of register banks (default = 8)
-gpgpu_reg_bank_use_warp_id                    0 # Use warp ID in mapping registers to banks (default = off)
-gpgpu_operand_collector_num_units_sp                    6 # number of collector units (default = 4)
-gpgpu_operand_collector_num_units_sfu                    8 # number of collector units (default = 4)
-gpgpu_operand_collector_num_units_mem                    2 # number of collector units (default = 2)
-gpgpu_operand_collector_num_units_gen                    0 # number of collector units (default = 0)
-gpgpu_operand_collector_num_in_ports_sp                    2 # number of collector unit in ports (default = 1)
-gpgpu_operand_collector_num_in_ports_sfu                    1 # number of collector unit in ports (default = 1)
-gpgpu_operand_collector_num_in_ports_mem                    1 # number of collector unit in ports (default = 1)
-gpgpu_operand_collector_num_in_ports_gen                    0 # number of collector unit in ports (default = 0)
-gpgpu_operand_collector_num_out_ports_sp                    2 # number of collector unit in ports (default = 1)
-gpgpu_operand_collector_num_out_ports_sfu                    1 # number of collector unit in ports (default = 1)
-gpgpu_operand_collector_num_out_ports_mem                    1 # number of collector unit in ports (default = 1)
-gpgpu_operand_collector_num_out_ports_gen                    0 # number of collector unit in ports (default = 0)
-gpgpu_coalesce_arch                   13 # Coalescing arch (default = 13, anything else is off for now)
-gpgpu_num_sched_per_core                    2 # Number of warp schedulers per core
-gpgpu_max_insn_issue_per_warp                    1 # Max number of instructions that can be issued per warp in one cycle by scheduler
-gpgpu_simt_core_sim_order                    1 # Select the simulation order of cores in a cluster (0=Fix, 1=Round-Robin)
-gpgpu_pipeline_widths        2,1,1,2,1,1,2 # Pipeline widths ID_OC_SP,ID_OC_SFU,ID_OC_MEM,OC_EX_SP,OC_EX_SFU,OC_EX_MEM,EX_WB
-gpgpu_num_sp_units                     2 # Number of SP units (default=1)
-gpgpu_num_sfu_units                    1 # Number of SF units (default=1)
-gpgpu_num_mem_units                    1 # Number if ldst units (default=1) WARNING: not hooked up to anything
-gpgpu_scheduler        warp_limiting:2:1 # Scheduler configuration: < lrr | gto | two_level_active > If two_level_active:<num_active_warps>:<inner_prioritization>:<outer_prioritization>For complete list of prioritization values see shader.h enum scheduler_prioritization_typeDefault: gto
-gpgpu_dram_scheduler                    1 # 0 = fifo, 1 = FR-FCFS (defaul)
-gpgpu_dram_partition_queues              8:8:8:8 # i2$:$2d:d2$:$2i
-l2_ideal                               0 # Use a ideal L2 cache that always hit
-gpgpu_cache:dl2     64:128:8,L:B:m:W:L,A:32:4,4:0,32 # unified banked L2 data cache config  {<nsets>:<bsize>:<assoc>,<rep>:<wr>:<alloc>:<wr_alloc>,<mshr>:<N>:<merge>,<mq>}
-gpgpu_cache:dl2_texture_only                    0 # L2 cache used for texture only
-gpgpu_n_mem                            6 # number of memory modules (e.g. memory controllers) in gpu
-gpgpu_n_sub_partition_per_mchannel                    2 # number of memory subpartition in each memory module
-gpgpu_n_mem_per_ctrlr                    2 # number of memory chips per memory controller
-gpgpu_memlatency_stat                   14 # track and display latency statistics 0x2 enables MC, 0x4 enables queue logs
-gpgpu_frfcfs_dram_sched_queue_size                   16 # 0 = unlimited (default); # entries per chip
-gpgpu_dram_return_queue_size                  116 # 0 = unlimited (default); # entries per chip
-gpgpu_dram_buswidth                    4 # default = 4 bytes (8 bytes per cycle at DDR)
-gpgpu_dram_burst_length                    8 # Burst length of each DRAM request (default = 4 data bus cycle)
-dram_data_command_freq_ratio                    4 # Frequency ratio between DRAM data bus and command bus (default = 2 times, i.e. DDR)
-gpgpu_dram_timing_opt nbk=16:CCD=2:RRD=6:RCD=12:RAS=28:RP=12:RC=40: CL=12:WL=4:CDLR=5:WR=12:nbkgrp=4:CCDL=3:RTPL=2 # DRAM timing parameters = {nbk:tCCD:tRRD:tRCD:tRAS:tRP:tRC:CL:WL:tCDLR:tWR:nbkgrp:tCCDL:tRTPL}
-rop_latency                          120 # ROP queue latency (default 85)
-dram_latency                         100 # DRAM latency (default 30)
-gpgpu_mem_addr_mapping dramid@8;00000000.00000000.00000000.00000000.0000RRRR.RRRRRRRR.BBBCCCCB.CCSSSSSS # mapping memory address to dram model {dramid@<start bit>;<memory address map>}
-gpgpu_mem_addr_test                    0 # run sweep test to check address mapping for aliased address
-gpgpu_mem_address_mask                    1 # 0 = old addressing mask, 1 = new addressing mask, 2 = new add. mask + flipped bank sel and chip sel bits
-gpuwattch_xml_file  gpuwattch_gtx480.xml # GPUWattch XML file
-power_simulation_enabled                    0 # Turn on power simulator (1=On, 0=Off)
-power_per_cycle_dump                    0 # Dump detailed power output each cycle
-power_trace_enabled                    0 # produce a file for the power trace (1=On, 0=Off)
-power_trace_zlevel                     6 # Compression level of the power trace output log (0=no comp, 9=highest)
-steady_power_levels_enabled                    0 # produce a file for the steady power levels (1=On, 0=Off)
-steady_state_definition                  8:4 # allowed deviation:number of samples
-gpgpu_max_cycle                        0 # terminates gpu simulation early (0 = no limit)
-gpgpu_max_insn                         0 # terminates gpu simulation early (0 = no limit)
-gpgpu_max_cta                          0 # terminates gpu simulation early (0 = no limit)
-gpgpu_runtime_stat                   500 # display runtime statistics such as dram utilization {<freq>:<flag>}
-liveness_message_freq                    1 # Minimum number of seconds between simulation liveness messages (0 = always print)
-gpgpu_flush_l1_cache                    0 # Flush L1 cache at the end of each kernel call
-gpgpu_flush_l2_cache                    0 # Flush L2 cache at the end of each kernel call
-gpgpu_deadlock_detect                    1 # Stop the simulation at deadlock (1=on (default), 0=off)
-gpgpu_ptx_instruction_classification                    0 # if enabled will classify ptx instruction types per kernel (Max 255 kernels now)
-gpgpu_ptx_sim_mode                     0 # Select between Performance (default) or Functional simulation (1)
-gpgpu_clock_domains 700.0:700.0:700.0:924.0 # Clock Domain Frequencies in MhZ {<Core Clock>:<ICNT Clock>:<L2 Clock>:<DRAM Clock>}
-gpgpu_max_concurrent_kernel                    8 # maximum kernels that can run concurrently on GPU
-gpgpu_cflog_interval                    0 # Interval between each snapshot in control flow logger
-visualizer_enabled                     0 # Turn on visualizer output (1=On, 0=Off)
-visualizer_outputfile                 NULL # Specifies the output log file for visualizer
-visualizer_zlevel                      6 # Compression level of the visualizer output log (0=no comp, 9=highest)
-trace_enabled                          0 # Turn on traces
-trace_components                    none # comma seperated list of traces to enable. Complete list found in trace_streams.tup. Default none
-trace_sampling_core                    0 # The core which is printed using CORE_DPRINTF. Default 0
-trace_sampling_memory_partition                   -1 # The memory partition which is printed using MEMPART_DPRINTF. Default -1 (i.e. all)
-enable_ptx_file_line_stats                    1 # Turn on PTX source line statistic profiling. (1 = On)
-ptx_line_stats_filename gpgpu_inst_stats.txt # Output file for PTX source line statistics.
-save_embedded_ptx                      0 # saves ptx files embedded in binary as <n>.ptx
-keep                                   0 # keep intermediate files created by GPGPU-Sim when interfacing with external programs
-gpgpu_ptx_save_converted_ptxplus                    0 # Saved converted ptxplus to a file
-ptx_opcode_latency_int         4,13,4,5,145 # Opcode latencies for integers <ADD,MAX,MUL,MAD,DIV>Default 1,1,19,25,145
-ptx_opcode_latency_fp          4,13,4,5,39 # Opcode latencies for single precision floating points <ADD,MAX,MUL,MAD,DIV>Default 1,1,1,1,30
-ptx_opcode_latency_dp         8,19,8,8,330 # Opcode latencies for double precision floating points <ADD,MAX,MUL,MAD,DIV>Default 8,8,8,8,335
-ptx_opcode_initiation_int            1,2,2,1,8 # Opcode initiation intervals for integers <ADD,MAX,MUL,MAD,DIV>Default 1,1,4,4,32
-ptx_opcode_initiation_fp            1,2,1,1,4 # Opcode initiation intervals for single precision floating points <ADD,MAX,MUL,MAD,DIV>Default 1,1,1,1,5
-ptx_opcode_initiation_dp         8,16,8,8,130 # Opcode initiation intervals for double precision floating points <ADD,MAX,MUL,MAD,DIV>Default 8,8,8,8,130
DRAM Timing Options:
nbk                                    16 # number of banks
CCD                                     2 # column to column delay
RRD                                     6 # minimal delay between activation of rows in different banks
RCD                                    12 # row to column delay
RAS                                    28 # time needed to activate row
RP                                     12 # time needed to precharge (deactivate) row
RC                                     40 # row cycle time
CDLR                                    5 # switching from write to read (changes tWTR)
WR                                     12 # last data-in to row precharge
CL                                     12 # CAS latency
WL                                      4 # Write latency
nbkgrp                                  4 # number of bank groups
CCDL                                    3 # column to column delay between accesses to different bank groups
RTPL                                    2 # read to precharge delay between accesses to different bank groups
Total number of memory sub partition = 12
addr_dec_mask[CHIP]  = 0000000000000000 	high:64 low:0
addr_dec_mask[BK]    = 000000000000e100 	high:16 low:8
addr_dec_mask[ROW]   = 000000000fff0000 	high:28 low:16
addr_dec_mask[COL]   = 0000000000001eff 	high:13 low:0
addr_dec_mask[BURST] = 000000000000003f 	high:6 low:0
sub_partition_id_mask = 0000000000000100
GPGPU-Sim uArch: clock freqs: 700000000.000000:700000000.000000:700000000.000000:924000000.000000
GPGPU-Sim uArch: clock periods: 0.00000000142857142857:0.00000000142857142857:0.00000000142857142857:0.00000000108225108225
*** Initializing Memory Statistics ***
GPGPU-Sim uArch: interconnect node map (shaderID+MemID to icntID)
GPGPU-Sim uArch: Memory nodes ID start from index: 15
GPGPU-Sim uArch:    0   1   2   3   4
GPGPU-Sim uArch:    5   6   7   8   9
GPGPU-Sim uArch:   10  11  12  13  14
GPGPU-Sim uArch:   15  16  17  18  19
GPGPU-Sim uArch:   20  21  22  23  24
GPGPU-Sim uArch:   25  26
GPGPU-Sim uArch: interconnect node reverse map (icntID to shaderID+MemID)
GPGPU-Sim uArch: Memory nodes start from ID: 15
GPGPU-Sim uArch:    0   1   2   3   4
GPGPU-Sim uArch:    5   6   7   8   9
GPGPU-Sim uArch:   10  11  12  13  14
GPGPU-Sim uArch:   15  16  17  18  19
GPGPU-Sim uArch:   20  21  22  23  24
GPGPU-Sim uArch:   25  26
80b50253bde6f17c5205a361ba46a5eb  /sciclone/data10/hwang07/adwait/applications/benchmarks/CUDA/FWT/gpgpu_ptx_sim__FWT
GPGPU-Sim uArch: performance model initialization complete.
GPGPU-Sim PTX: __cudaRegisterFatBinary, fat_cubin_handle = 1, filename=fastWalshTransform.cu
self exe links to: /sciclone/data10/hwang07/adwait/applications/benchmarks/CUDA/FWT/gpgpu_ptx_sim__FWT
Running md5sum using "md5sum /sciclone/data10/hwang07/adwait/applications/benchmarks/CUDA/FWT/gpgpu_ptx_sim__FWT "
Parsing file _cuobjdump_complete_output_crspku
######### cuobjdump parser ########
## Adding new section ELF
Adding arch: sm_20
Adding identifier: fastWalshTransform.cu
## Adding new section PTX
Adding ptx filename: _cuobjdump_1.ptx
Adding arch: sm_20
Adding identifier: fastWalshTransform.cu
Done parsing!!!
GPGPU-Sim PTX: __cudaRegisterFunction _Z14modulateKernelPfS_i : hostFun 0x0x405645, fat_cubin_handle = 1
GPGPU-Sim PTX: allocating shared region for "s_data" from 0x0 to 0x0 (shared memory space)
GPGPU-Sim PTX: instruction assembly for function '_Z15fwtBatch1KernelPfS_i'...   done.
GPGPU-Sim PTX: finding reconvergence points for '_Z15fwtBatch1KernelPfS_i'...
GPGPU-Sim PTX: Finding dominators for '_Z15fwtBatch1KernelPfS_i'...
GPGPU-Sim PTX: Finding immediate dominators for '_Z15fwtBatch1KernelPfS_i'...
GPGPU-Sim PTX: Finding postdominators for '_Z15fwtBatch1KernelPfS_i'...
GPGPU-Sim PTX: Finding immediate postdominators for '_Z15fwtBatch1KernelPfS_i'...
GPGPU-Sim PTX: pre-decoding instructions for '_Z15fwtBatch1KernelPfS_i'...
GPGPU-Sim PTX: reconvergence points for _Z15fwtBatch1KernelPfS_i...
GPGPU-Sim PTX:  1 (potential) branch divergence @  PC=0x028 (_1.ptx:69) @!%p1 bra $Lt_0_5122;
GPGPU-Sim PTX:    immediate post dominator      @  PC=0x0d8 (_1.ptx:95) mov.u64 %rd1, s_data;
GPGPU-Sim PTX:  2 (potential) branch divergence @  PC=0x0d0 (_1.ptx:93) @%p2 bra $Lt_0_5634;
GPGPU-Sim PTX:    immediate post dominator      @  PC=0x0d8 (_1.ptx:95) mov.u64 %rd1, s_data;
GPGPU-Sim PTX:  3 (potential) branch divergence @  PC=0x100 (_1.ptx:101) @%p3 bra $Lt_0_6146;
GPGPU-Sim PTX:    immediate post dominator      @  PC=0x250 (_1.ptx:155) and.b32 %r20, %r3, 1;
GPGPU-Sim PTX:  4 (potential) branch divergence @  PC=0x248 (_1.ptx:153) @%p4 bra $Lt_0_6658;
GPGPU-Sim PTX:    immediate post dominator      @  PC=0x250 (_1.ptx:155) and.b32 %r20, %r3, 1;
GPGPU-Sim PTX:  5 (potential) branch divergence @  PC=0x268 (_1.ptx:158) @%p5 bra $Lt_0_7170;
GPGPU-Sim PTX:    immediate post dominator      @  PC=0x328 (_1.ptx:193) bar.sync 0;
GPGPU-Sim PTX:  6 (potential) branch divergence @  PC=0x2b0 (_1.ptx:169) @%p6 bra $Lt_0_7682;
GPGPU-Sim PTX:    immediate post dominator      @  PC=0x328 (_1.ptx:193) bar.sync 0;
GPGPU-Sim PTX:  7 (potential) branch divergence @  PC=0x320 (_1.ptx:189) @%p7 bra $Lt_0_8194;
GPGPU-Sim PTX:    immediate post dominator      @  PC=0x328 (_1.ptx:193) bar.sync 0;
GPGPU-Sim PTX:  8 (potential) branch divergence @  PC=0x338 (_1.ptx:196) @!%p1 bra $Lt_0_8706;
GPGPU-Sim PTX:    immediate post dominator      @  PC=0x3e0 (_1.ptx:222) exit;
GPGPU-Sim PTX:  9 (potential) branch divergence @  PC=0x3d8 (_1.ptx:219) @%p8 bra $Lt_0_9218;
GPGPU-Sim PTX:    immediate post dominator      @  PC=0x3e0 (_1.ptx:222) exit;
GPGPU-Sim PTX: ... end of reconvergence points for _Z15fwtBatch1KernelPfS_i
GPGPU-Sim PTX: ... done pre-decoding instructions for '_Z15fwtBatch1KernelPfS_i'.
GPGPU-Sim PTX: instruction assembly for function '_Z15fwtBatch2KernelPfS_i'...   done.
GPGPU-Sim PTX: finding reconvergence points for '_Z15fwtBatch2KernelPfS_i'...
GPGPU-Sim PTX: Finding dominators for '_Z15fwtBatch2KernelPfS_i'...
GPGPU-Sim PTX: Finding immediate dominators for '_Z15fwtBatch2KernelPfS_i'...
GPGPU-Sim PTX: Finding postdominators for '_Z15fwtBatch2KernelPfS_i'...
GPGPU-Sim PTX: Finding immediate postdominators for '_Z15fwtBatch2KernelPfS_i'...
GPGPU-Sim PTX: pre-decoding instructions for '_Z15fwtBatch2KernelPfS_i'...
GPGPU-Sim PTX: reconvergence points for _Z15fwtBatch2KernelPfS_i...
GPGPU-Sim PTX: ... end of reconvergence points for _Z15fwtBatch2KernelPfS_i
GPGPU-Sim PTX: ... done pre-decoding instructions for '_Z15fwtBatch2KernelPfS_i'.
GPGPU-Sim PTX: instruction assembly for function '_Z14modulateKernelPfS_i'...   done.
GPGPU-Sim PTX: finding reconvergence points for '_Z14modulateKernelPfS_i'...
GPGPU-Sim PTX: Finding dominators for '_Z14modulateKernelPfS_i'...
GPGPU-Sim PTX: Finding immediate dominators for '_Z14modulateKernelPfS_i'...
GPGPU-Sim PTX: Finding postdominators for '_Z14modulateKernelPfS_i'...
GPGPU-Sim PTX: Finding immediate postdominators for '_Z14modulateKernelPfS_i'...
GPGPU-Sim PTX: pre-decoding instructions for '_Z14modulateKernelPfS_i'...
GPGPU-Sim PTX: reconvergence points for _Z14modulateKernelPfS_i...
GPGPU-Sim PTX:  1 (potential) branch divergence @  PC=0x5f8 (_1.ptx:326) @%p1 bra $Lt_2_1282;
GPGPU-Sim PTX:    immediate post dominator      @  PC=0x6b0 (_1.ptx:354) exit;
GPGPU-Sim PTX:  2 (potential) branch divergence @  PC=0x6a8 (_1.ptx:351) @%p2 bra $Lt_2_1794;
GPGPU-Sim PTX:    immediate post dominator      @  PC=0x6b0 (_1.ptx:354) exit;
GPGPU-Sim PTX: ... end of reconvergence points for _Z14modulateKernelPfS_i
GPGPU-Sim PTX: ... done pre-decoding instructions for '_Z14modulateKernelPfS_i'.
GPGPU-Sim PTX: finished parsing EMBEDDED .ptx file _1.ptx
Adding _cuobjdump_1.ptx with cubin handle 1
GPGPU-Sim PTX: extracting embedded .ptx to temporary file "_ptx_b0CHod"
Running: cat _ptx_b0CHod | sed 's/.version 1.5/.version 1.4/' | sed 's/, texmode_independent//' | sed 's/\(\.extern \.const\[1\] .b8 \w\+\)\[\]/\1\[1\]/' | sed 's/const\[.\]/const\[0\]/g' > _ptx2_E0qrGX
GPGPU-Sim PTX: generating ptxinfo using "$CUDA_INSTALL_PATH/bin/ptxas --gpu-name=sm_20 -v _ptx2_E0qrGX --output-file  /dev/null 2> _ptx_b0CHodinfo"
GPGPU-Sim PTX: Kernel '_Z14modulateKernelPfS_i' : regs=14, lmem=0, smem=0, cmem=56
GPGPU-Sim PTX: Kernel '_Z15fwtBatch2KernelPfS_i' : regs=21, lmem=0, smem=0, cmem=52
GPGPU-Sim PTX: Kernel '_Z15fwtBatch1KernelPfS_i' : regs=14, lmem=0, smem=0, cmem=52
GPGPU-Sim PTX: removing ptxinfo using "rm -f _ptx_b0CHod _ptx2_E0qrGX _ptx_b0CHodinfo"
GPGPU-Sim PTX: loading globals with explicit initializers... 
GPGPU-Sim PTX: finished loading globals (0 bytes total).
GPGPU-Sim PTX: loading constants with explicit initializers...  done.
GPGPU-Sim PTX: __cudaRegisterFunction _Z15fwtBatch2KernelPfS_i : hostFun 0x0x405586, fat_cubin_handle = 1
GPGPU-Sim PTX: __cudaRegisterFunction _Z15fwtBatch1KernelPfS_i : hostFun 0x0x4054c7, fat_cubin_handle = 1
Initializing data...
...allocating CPU memory
...allocating GPU memory
...generating data
Data length: 8388608; kernel length: 128
Running GPU dyadic convolution using Fast Walsh Transform...
GPGPU-Sim: synchronize waiting for inactive GPU simulation
GPGPU-Sim API: Stream Manager State
GPGPU-Sim: detected inactive GPU simulation thread

GPGPU-Sim PTX: cudaLaunch for 0x0x405586 (mode=performance simulation) on stream 0
GPGPU-Sim PTX: pushing kernel '_Z15fwtBatch2KernelPfS_i' to stream 0, gridDim= (8192,1,1) blockDim = (256,1,1) 
kernel '_Z15fwtBatch2KernelPfS_i' transfer to GPU hardware scheduler
GPGPU-Sim uArch: Shader 1 bind to kernel 1 '_Z15fwtBatch2KernelPfS_i'
GPGPU-Sim uArch: CTA/core = 5, limited by: regs
GPGPU-Sim uArch: core:  1, cta: 0 initialized @(1,0)
GPGPU-Sim uArch: Shader 2 bind to kernel 1 '_Z15fwtBatch2KernelPfS_i'
GPGPU-Sim uArch: core:  2, cta: 0 initialized @(1,0)
GPGPU-Sim uArch: Shader 3 bind to kernel 1 '_Z15fwtBatch2KernelPfS_i'
GPGPU-Sim uArch: core:  3, cta: 0 initialized @(1,0)
GPGPU-Sim uArch: Shader 4 bind to kernel 1 '_Z15fwtBatch2KernelPfS_i'
GPGPU-Sim uArch: core:  4, cta: 0 initialized @(1,0)
GPGPU-Sim uArch: Shader 5 bind to kernel 1 '_Z15fwtBatch2KernelPfS_i'
GPGPU-Sim uArch: core:  5, cta: 0 initialized @(1,0)
GPGPU-Sim uArch: Shader 6 bind to kernel 1 '_Z15fwtBatch2KernelPfS_i'
GPGPU-Sim uArch: core:  6, cta: 0 initialized @(1,0)
GPGPU-Sim uArch: Shader 7 bind to kernel 1 '_Z15fwtBatch2KernelPfS_i'
GPGPU-Sim uArch: core:  7, cta: 0 initialized @(1,0)
GPGPU-Sim uArch: Shader 8 bind to kernel 1 '_Z15fwtBatch2KernelPfS_i'
GPGPU-Sim uArch: core:  8, cta: 0 initialized @(1,0)
GPGPU-Sim uArch: Shader 9 bind to kernel 1 '_Z15fwtBatch2KernelPfS_i'
GPGPU-Sim uArch: core:  9, cta: 0 initialized @(1,0)
GPGPU-Sim uArch: Shader 10 bind to kernel 1 '_Z15fwtBatch2KernelPfS_i'
GPGPU-Sim uArch: core: 10, cta: 0 initialized @(1,0)
GPGPU-Sim uArch: Shader 11 bind to kernel 1 '_Z15fwtBatch2KernelPfS_i'
GPGPU-Sim uArch: core: 11, cta: 0 initialized @(1,0)
GPGPU-Sim uArch: Shader 12 bind to kernel 1 '_Z15fwtBatch2KernelPfS_i'
GPGPU-Sim uArch: core: 12, cta: 0 initialized @(1,0)
GPGPU-Sim uArch: Shader 13 bind to kernel 1 '_Z15fwtBatch2KernelPfS_i'
GPGPU-Sim uArch: core: 13, cta: 0 initialized @(1,0)
GPGPU-Sim uArch: Shader 14 bind to kernel 1 '_Z15fwtBatch2KernelPfS_i'
GPGPU-Sim uArch: core: 14, cta: 0 initialized @(1,0)
GPGPU-Sim uArch: Shader 0 bind to kernel 1 '_Z15fwtBatch2KernelPfS_i'
GPGPU-Sim uArch: core:  0, cta: 0 initialized @(1,0)
GPGPU-Sim uArch: core:  1, cta: 1 initialized @(2,0)
GPGPU-Sim uArch: core:  2, cta: 1 initialized @(2,0)
GPGPU-Sim uArch: core:  3, cta: 1 initialized @(2,0)
GPGPU-Sim uArch: core:  4, cta: 1 initialized @(2,0)
GPGPU-Sim uArch: core:  5, cta: 1 initialized @(2,0)
GPGPU-Sim uArch: core:  6, cta: 1 initialized @(2,0)
GPGPU-Sim uArch: core:  7, cta: 1 initialized @(2,0)
GPGPU-Sim uArch: core:  8, cta: 1 initialized @(2,0)
GPGPU-Sim uArch: core:  9, cta: 1 initialized @(2,0)
GPGPU-Sim uArch: core: 10, cta: 1 initialized @(2,0)
GPGPU-Sim uArch: core: 11, cta: 1 initialized @(2,0)
GPGPU-Sim uArch: core: 12, cta: 1 initialized @(2,0)
GPGPU-Sim uArch: core: 13, cta: 1 initialized @(2,0)
GPGPU-Sim uArch: core: 14, cta: 1 initialized @(2,0)
GPGPU-Sim uArch: core:  0, cta: 1 initialized @(2,0)
GPGPU-Sim uArch: core:  1, cta: 2 initialized @(3,0)
GPGPU-Sim uArch: core:  2, cta: 2 initialized @(3,0)
GPGPU-Sim uArch: core:  3, cta: 2 initialized @(3,0)
GPGPU-Sim uArch: core:  4, cta: 2 initialized @(3,0)
GPGPU-Sim uArch: core:  5, cta: 2 initialized @(3,0)
GPGPU-Sim uArch: core:  6, cta: 2 initialized @(3,0)
GPGPU-Sim uArch: core:  7, cta: 2 initialized @(3,0)
GPGPU-Sim uArch: core:  8, cta: 2 initialized @(3,0)
GPGPU-Sim uArch: core:  9, cta: 2 initialized @(3,0)
GPGPU-Sim uArch: core: 10, cta: 2 initialized @(3,0)
GPGPU-Sim uArch: core: 11, cta: 2 initialized @(3,0)
GPGPU-Sim uArch: core: 12, cta: 2 initialized @(3,0)
GPGPU-Sim uArch: core: 13, cta: 2 initialized @(3,0)
GPGPU-Sim uArch: core: 14, cta: 2 initialized @(3,0)
GPGPU-Sim uArch: core:  0, cta: 2 initialized @(3,0)
GPGPU-Sim uArch: core:  1, cta: 3 initialized @(4,0)
GPGPU-Sim uArch: core:  2, cta: 3 initialized @(4,0)
GPGPU-Sim uArch: core:  3, cta: 3 initialized @(4,0)
GPGPU-Sim uArch: core:  4, cta: 3 initialized @(4,0)
GPGPU-Sim uArch: core:  5, cta: 3 initialized @(4,0)
GPGPU-Sim uArch: core:  6, cta: 3 initialized @(4,0)
GPGPU-Sim uArch: core:  7, cta: 3 initialized @(4,0)
GPGPU-Sim uArch: core:  8, cta: 3 initialized @(4,0)
GPGPU-Sim uArch: core:  9, cta: 3 initialized @(4,0)
GPGPU-Sim uArch: core: 10, cta: 3 initialized @(4,0)
GPGPU-Sim uArch: core: 11, cta: 3 initialized @(4,0)
GPGPU-Sim uArch: core: 12, cta: 3 initialized @(4,0)
GPGPU-Sim uArch: core: 13, cta: 3 initialized @(4,0)
GPGPU-Sim uArch: core: 14, cta: 3 initialized @(4,0)
GPGPU-Sim uArch: core:  0, cta: 3 initialized @(4,0)
GPGPU-Sim uArch: core:  1, cta: 4 initialized @(5,0)
GPGPU-Sim uArch: core:  2, cta: 4 initialized @(5,0)
GPGPU-Sim uArch: core:  3, cta: 4 initialized @(5,0)
GPGPU-Sim uArch: core:  4, cta: 4 initialized @(5,0)
GPGPU-Sim uArch: core:  5, cta: 4 initialized @(5,0)
GPGPU-Sim uArch: core:  6, cta: 4 initialized @(5,0)
GPGPU-Sim uArch: core:  7, cta: 4 initialized @(5,0)
GPGPU-Sim uArch: core:  8, cta: 4 initialized @(5,0)
GPGPU-Sim uArch: core:  9, cta: 4 initialized @(5,0)
GPGPU-Sim uArch: core: 10, cta: 4 initialized @(5,0)
GPGPU-Sim uArch: core: 11, cta: 4 initialized @(5,0)
GPGPU-Sim uArch: core: 12, cta: 4 initialized @(5,0)
GPGPU-Sim uArch: core: 13, cta: 4 initialized @(5,0)
GPGPU-Sim uArch: core: 14, cta: 4 initialized @(5,0)
GPGPU-Sim uArch: core:  0, cta: 4 initialized @(5,0)
GPGPU-Sim uArch: cycles simulated: 500  inst.: 2880 (ipc= 5.8) sim_rate=480 (inst/sec) elapsed = 0:0:00:06 / Tue Mar 22 12:40:05 2016
GPGPU-Sim uArch: cycles simulated: 1000  inst.: 24992 (ipc=25.0) sim_rate=3570 (inst/sec) elapsed = 0:0:00:07 / Tue Mar 22 12:40:06 2016
GPGPU-Sim PTX: 100000 instructions simulated : ctaid=(2,0,0) tid=(95,0,0)
GPGPU-Sim PTX: 200000 instructions simulated : ctaid=(13,0,0) tid=(255,0,0)
GPGPU-Sim uArch: cycles simulated: 3500  inst.: 200672 (ipc=57.3) sim_rate=25084 (inst/sec) elapsed = 0:0:00:08 / Tue Mar 22 12:40:07 2016
GPGPU-Sim uArch: Shader 1 finished CTA #0 (3858,0), 4 CTAs running
GPGPU-Sim uArch: core:  1, cta: 0 initialized @(3859,0)
GPGPU-Sim uArch: Shader 4 finished CTA #0 (3876,0), 4 CTAs running
GPGPU-Sim uArch: core:  4, cta: 0 initialized @(3877,0)
GPGPU-Sim uArch: Shader 3 finished CTA #0 (3942,0), 4 CTAs running
GPGPU-Sim uArch: core:  3, cta: 0 initialized @(3943,0)
GPGPU-Sim uArch: Shader 6 finished CTA #0 (3965,0), 4 CTAs running
GPGPU-Sim uArch: core:  6, cta: 0 initialized @(3966,0)
GPGPU-Sim uArch: Shader 2 finished CTA #0 (3995,0), 4 CTAs running
GPGPU-Sim uArch: core:  2, cta: 0 initialized @(3996,0)
GPGPU-Sim uArch: Shader 5 finished CTA #0 (4049,0), 4 CTAs running
GPGPU-Sim uArch: core:  5, cta: 0 initialized @(4050,0)
GPGPU-Sim uArch: Shader 8 finished CTA #0 (4061,0), 4 CTAs running
GPGPU-Sim uArch: core:  8, cta: 0 initialized @(4062,0)
GPGPU-Sim uArch: Shader 7 finished CTA #0 (4067,0), 4 CTAs running
GPGPU-Sim uArch: core:  7, cta: 0 initialized @(4068,0)
GPGPU-Sim uArch: Shader 10 finished CTA #0 (4079,0), 4 CTAs running
GPGPU-Sim uArch: Shader 11 finished CTA #0 (4079,0), 4 CTAs running
GPGPU-Sim uArch: core: 10, cta: 0 initialized @(4080,0)
GPGPU-Sim uArch: core: 11, cta: 0 initialized @(4080,0)
GPGPU-Sim uArch: Shader 0 finished CTA #0 (4091,0), 4 CTAs running
GPGPU-Sim uArch: core:  0, cta: 0 initialized @(4092,0)
GPGPU-Sim uArch: Shader 9 finished CTA #0 (4097,0), 4 CTAs running
GPGPU-Sim uArch: core:  9, cta: 0 initialized @(4098,0)
GPGPU-Sim uArch: Shader 12 finished CTA #0 (4103,0), 4 CTAs running
GPGPU-Sim uArch: Shader 14 finished CTA #0 (4103,0), 4 CTAs running
GPGPU-Sim uArch: core: 12, cta: 0 initialized @(4104,0)
GPGPU-Sim uArch: core: 14, cta: 0 initialized @(4104,0)
GPGPU-Sim uArch: Shader 13 finished CTA #0 (4109,0), 4 CTAs running
GPGPU-Sim uArch: core: 13, cta: 0 initialized @(4110,0)
GPGPU-Sim PTX: 300000 instructions simulated : ctaid=(28,0,0) tid=(95,0,0)
GPGPU-Sim PTX: 400000 instructions simulated : ctaid=(16,0,0) tid=(223,0,0)
GPGPU-Sim uArch: cycles simulated: 6000  inst.: 427488 (ipc=71.2) sim_rate=47498 (inst/sec) elapsed = 0:0:00:09 / Tue Mar 22 12:40:08 2016
GPGPU-Sim uArch: Shader 1 finished CTA #1 (6171,0), 4 CTAs running
GPGPU-Sim uArch: core:  1, cta: 1 initialized @(6172,0)
GPGPU-Sim uArch: Shader 4 finished CTA #1 (6227,0), 4 CTAs running
GPGPU-Sim uArch: core:  4, cta: 1 initialized @(6228,0)
GPGPU-Sim uArch: Shader 3 finished CTA #1 (6237,0), 4 CTAs running
GPGPU-Sim uArch: core:  3, cta: 1 initialized @(6238,0)
GPGPU-Sim uArch: Shader 2 finished CTA #1 (6247,0), 4 CTAs running
GPGPU-Sim uArch: core:  2, cta: 1 initialized @(6248,0)
GPGPU-Sim uArch: Shader 5 finished CTA #1 (6385,0), 4 CTAs running
GPGPU-Sim uArch: core:  5, cta: 1 initialized @(6386,0)
GPGPU-Sim uArch: Shader 7 finished CTA #1 (6391,0), 4 CTAs running
GPGPU-Sim uArch: core:  7, cta: 1 initialized @(6392,0)
GPGPU-Sim uArch: Shader 6 finished CTA #1 (6455,0), 4 CTAs running
GPGPU-Sim uArch: core:  6, cta: 1 initialized @(6456,0)
GPGPU-Sim uArch: Shader 8 finished CTA #1 (6475,0), 4 CTAs running
GPGPU-Sim uArch: core:  8, cta: 1 initialized @(6476,0)
GPGPU-Sim uArch: Shader 0 finished CTA #1 (6485,0), 4 CTAs running
GPGPU-Sim uArch: core:  0, cta: 1 initialized @(6486,0)
GPGPU-Sim uArch: Shader 10 finished CTA #1 (6487,0), 4 CTAs running
GPGPU-Sim uArch: core: 10, cta: 1 initialized @(6488,0)
GPGPU-Sim uArch: Shader 9 finished CTA #1 (6497,0), 4 CTAs running
GPGPU-Sim uArch: core:  9, cta: 1 initialized @(6498,0)
GPGPU-Sim uArch: Shader 11 finished CTA #1 (6499,0), 4 CTAs running
GPGPU-Sim uArch: core: 11, cta: 1 initialized @(6500,0)
GPGPU-Sim uArch: Shader 13 finished CTA #1 (6505,0), 4 CTAs running
GPGPU-Sim uArch: Shader 14 finished CTA #1 (6505,0), 4 CTAs running
GPGPU-Sim uArch: core: 13, cta: 1 initialized @(6506,0)
GPGPU-Sim uArch: core: 14, cta: 1 initialized @(6506,0)
GPGPU-Sim uArch: Shader 12 finished CTA #1 (6509,0), 4 CTAs running
GPGPU-Sim uArch: core: 12, cta: 1 initialized @(6510,0)
GPGPU-Sim PTX: 500000 instructions simulated : ctaid=(36,0,0) tid=(63,0,0)
GPGPU-Sim PTX: 600000 instructions simulated : ctaid=(32,0,0) tid=(191,0,0)
GPGPU-Sim uArch: cycles simulated: 8000  inst.: 613920 (ipc=76.7) sim_rate=61392 (inst/sec) elapsed = 0:0:00:10 / Tue Mar 22 12:40:09 2016
GPGPU-Sim uArch: Shader 1 finished CTA #2 (8411,0), 4 CTAs running
GPGPU-Sim uArch: core:  1, cta: 2 initialized @(8412,0)
GPGPU-Sim uArch: Shader 4 finished CTA #2 (8437,0), 4 CTAs running
GPGPU-Sim uArch: core:  4, cta: 2 initialized @(8438,0)
GPGPU-Sim uArch: Shader 3 finished CTA #2 (8524,0), 4 CTAs running
GPGPU-Sim uArch: core:  3, cta: 2 initialized @(8525,0)
GPGPU-Sim uArch: Shader 2 finished CTA #2 (8560,0), 4 CTAs running
GPGPU-Sim uArch: core:  2, cta: 2 initialized @(8561,0)
GPGPU-Sim PTX: 700000 instructions simulated : ctaid=(50,0,0) tid=(31,0,0)
GPGPU-Sim uArch: Shader 7 finished CTA #2 (8804,0), 4 CTAs running
GPGPU-Sim uArch: core:  7, cta: 2 initialized @(8805,0)
GPGPU-Sim uArch: Shader 5 finished CTA #2 (8828,0), 4 CTAs running
GPGPU-Sim uArch: core:  5, cta: 2 initialized @(8829,0)
GPGPU-Sim uArch: Shader 6 finished CTA #2 (8832,0), 4 CTAs running
GPGPU-Sim uArch: core:  6, cta: 2 initialized @(8833,0)
GPGPU-Sim uArch: Shader 10 finished CTA #2 (8858,0), 4 CTAs running
GPGPU-Sim uArch: core: 10, cta: 2 initialized @(8859,0)
GPGPU-Sim uArch: Shader 9 finished CTA #2 (8864,0), 4 CTAs running
GPGPU-Sim uArch: core:  9, cta: 2 initialized @(8865,0)
GPGPU-Sim uArch: Shader 13 finished CTA #2 (8882,0), 4 CTAs running
GPGPU-Sim uArch: core: 13, cta: 2 initialized @(8883,0)
GPGPU-Sim uArch: Shader 8 finished CTA #2 (8888,0), 4 CTAs running
GPGPU-Sim uArch: core:  8, cta: 2 initialized @(8889,0)
GPGPU-Sim uArch: Shader 11 finished CTA #2 (8894,0), 4 CTAs running
GPGPU-Sim uArch: core: 11, cta: 2 initialized @(8895,0)
GPGPU-Sim uArch: Shader 0 finished CTA #2 (8912,0), 4 CTAs running
GPGPU-Sim uArch: core:  0, cta: 2 initialized @(8913,0)
GPGPU-Sim uArch: Shader 14 finished CTA #2 (8918,0), 4 CTAs running
GPGPU-Sim uArch: core: 14, cta: 2 initialized @(8919,0)
GPGPU-Sim uArch: Shader 12 finished CTA #2 (8924,0), 4 CTAs running
GPGPU-Sim uArch: core: 12, cta: 2 initialized @(8925,0)
GPGPU-Sim PTX: 800000 instructions simulated : ctaid=(48,0,0) tid=(191,0,0)
GPGPU-Sim uArch: cycles simulated: 10000  inst.: 812128 (ipc=81.2) sim_rate=73829 (inst/sec) elapsed = 0:0:00:11 / Tue Mar 22 12:40:10 2016
GPGPU-Sim uArch: Shader 1 finished CTA #3 (10683,0), 4 CTAs running
GPGPU-Sim uArch: core:  1, cta: 3 initialized @(10684,0)
GPGPU-Sim uArch: Shader 4 finished CTA #3 (10698,0), 4 CTAs running
GPGPU-Sim uArch: core:  4, cta: 3 initialized @(10699,0)
GPGPU-Sim uArch: Shader 3 finished CTA #3 (10800,0), 4 CTAs running
GPGPU-Sim uArch: core:  3, cta: 3 initialized @(10801,0)
GPGPU-Sim uArch: Shader 2 finished CTA #3 (10850,0), 4 CTAs running
GPGPU-Sim uArch: core:  2, cta: 3 initialized @(10851,0)
GPGPU-Sim PTX: 900000 instructions simulated : ctaid=(52,0,0) tid=(223,0,0)
GPGPU-Sim uArch: Shader 6 finished CTA #3 (11108,0), 4 CTAs running
GPGPU-Sim uArch: core:  6, cta: 3 initialized @(11109,0)
GPGPU-Sim uArch: Shader 7 finished CTA #3 (11119,0), 4 CTAs running
GPGPU-Sim uArch: core:  7, cta: 3 initialized @(11120,0)
GPGPU-Sim uArch: Shader 9 finished CTA #3 (11166,0), 4 CTAs running
GPGPU-Sim uArch: core:  9, cta: 3 initialized @(11167,0)
GPGPU-Sim uArch: Shader 0 finished CTA #3 (11184,0), 4 CTAs running
GPGPU-Sim uArch: core:  0, cta: 3 initialized @(11185,0)
GPGPU-Sim uArch: Shader 5 finished CTA #3 (11190,0), 4 CTAs running
GPGPU-Sim uArch: core:  5, cta: 3 initialized @(11191,0)
GPGPU-Sim uArch: Shader 12 finished CTA #3 (11204,0), 4 CTAs running
GPGPU-Sim uArch: core: 12, cta: 3 initialized @(11205,0)
GPGPU-Sim uArch: Shader 10 finished CTA #3 (11210,0), 4 CTAs running
GPGPU-Sim uArch: core: 10, cta: 3 initialized @(11211,0)
GPGPU-Sim uArch: Shader 8 finished CTA #3 (11228,0), 4 CTAs running
GPGPU-Sim uArch: core:  8, cta: 3 initialized @(11229,0)
GPGPU-Sim uArch: Shader 13 finished CTA #3 (11234,0), 4 CTAs running
GPGPU-Sim uArch: core: 13, cta: 3 initialized @(11235,0)
GPGPU-Sim uArch: Shader 11 finished CTA #3 (11240,0), 4 CTAs running
GPGPU-Sim uArch: core: 11, cta: 3 initialized @(11241,0)
GPGPU-Sim uArch: Shader 14 finished CTA #3 (11264,0), 4 CTAs running
GPGPU-Sim uArch: core: 14, cta: 3 initialized @(11265,0)
GPGPU-Sim PTX: 1000000 instructions simulated : ctaid=(61,0,0) tid=(191,0,0)
GPGPU-Sim uArch: cycles simulated: 12500  inst.: 1051328 (ipc=84.1) sim_rate=87610 (inst/sec) elapsed = 0:0:00:12 / Tue Mar 22 12:40:11 2016
GPGPU-Sim PTX: 1100000 instructions simulated : ctaid=(67,0,0) tid=(223,0,0)
GPGPU-Sim uArch: Shader 1 finished CTA #4 (12957,0), 4 CTAs running
GPGPU-Sim uArch: core:  1, cta: 4 initialized @(12958,0)
GPGPU-Sim uArch: Shader 4 finished CTA #4 (12969,0), 4 CTAs running
GPGPU-Sim uArch: core:  4, cta: 4 initialized @(12970,0)
GPGPU-Sim uArch: Shader 3 finished CTA #4 (13085,0), 4 CTAs running
GPGPU-Sim uArch: core:  3, cta: 4 initialized @(13086,0)
GPGPU-Sim uArch: Shader 2 finished CTA #4 (13120,0), 4 CTAs running
GPGPU-Sim uArch: core:  2, cta: 4 initialized @(13121,0)
GPGPU-Sim uArch: Shader 6 finished CTA #4 (13406,0), 4 CTAs running
GPGPU-Sim uArch: core:  6, cta: 4 initialized @(13407,0)
GPGPU-Sim uArch: Shader 5 finished CTA #4 (13465,0), 4 CTAs running
GPGPU-Sim uArch: core:  5, cta: 4 initialized @(13466,0)
GPGPU-Sim uArch: Shader 8 finished CTA #4 (13507,0), 4 CTAs running
GPGPU-Sim uArch: core:  8, cta: 4 initialized @(13508,0)
GPGPU-Sim uArch: Shader 0 finished CTA #4 (13525,0), 4 CTAs running
GPGPU-Sim uArch: core:  0, cta: 4 initialized @(13526,0)
GPGPU-Sim uArch: Shader 7 finished CTA #4 (13539,0), 4 CTAs running
GPGPU-Sim uArch: core:  7, cta: 4 initialized @(13540,0)
GPGPU-Sim uArch: Shader 9 finished CTA #4 (13561,0), 4 CTAs running
GPGPU-Sim uArch: core:  9, cta: 4 initialized @(13562,0)
GPGPU-Sim uArch: Shader 11 finished CTA #4 (13567,0), 4 CTAs running
GPGPU-Sim uArch: Shader 12 finished CTA #4 (13567,0), 4 CTAs running
GPGPU-Sim uArch: core: 11, cta: 4 initialized @(13568,0)
GPGPU-Sim uArch: core: 12, cta: 4 initialized @(13568,0)
GPGPU-Sim uArch: Shader 10 finished CTA #4 (13573,0), 4 CTAs running
GPGPU-Sim uArch: core: 10, cta: 4 initialized @(13574,0)
GPGPU-Sim uArch: Shader 13 finished CTA #4 (13585,0), 4 CTAs running
GPGPU-Sim uArch: Shader 14 finished CTA #4 (13585,0), 4 CTAs running
GPGPU-Sim uArch: core: 13, cta: 4 initialized @(13586,0)
GPGPU-Sim uArch: core: 14, cta: 4 initialized @(13586,0)
GPGPU-Sim PTX: 1200000 instructions simulated : ctaid=(85,0,0) tid=(127,0,0)
GPGPU-Sim uArch: cycles simulated: 14500  inst.: 1237248 (ipc=85.3) sim_rate=95172 (inst/sec) elapsed = 0:0:00:13 / Tue Mar 22 12:40:12 2016
GPGPU-Sim PTX: 1300000 instructions simulated : ctaid=(89,0,0) tid=(159,0,0)
GPGPU-Sim uArch: Shader 1 finished CTA #0 (15244,0), 4 CTAs running
GPGPU-Sim uArch: core:  1, cta: 0 initialized @(15245,0)
GPGPU-Sim uArch: Shader 4 finished CTA #0 (15266,0), 4 CTAs running
GPGPU-Sim uArch: core:  4, cta: 0 initialized @(15267,0)
GPGPU-Sim uArch: Shader 2 finished CTA #0 (15308,0), 4 CTAs running
GPGPU-Sim uArch: core:  2, cta: 0 initialized @(15309,0)
GPGPU-Sim uArch: Shader 3 finished CTA #0 (15343,0), 4 CTAs running
GPGPU-Sim uArch: core:  3, cta: 0 initialized @(15344,0)
GPGPU-Sim uArch: Shader 5 finished CTA #0 (15836,0), 4 CTAs running
GPGPU-Sim uArch: core:  5, cta: 0 initialized @(15837,0)
GPGPU-Sim uArch: Shader 6 finished CTA #0 (15864,0), 4 CTAs running
GPGPU-Sim uArch: core:  6, cta: 0 initialized @(15865,0)
GPGPU-Sim uArch: Shader 0 finished CTA #0 (15902,0), 4 CTAs running
GPGPU-Sim uArch: core:  0, cta: 0 initialized @(15903,0)
GPGPU-Sim uArch: Shader 11 finished CTA #0 (15920,0), 4 CTAs running
GPGPU-Sim uArch: core: 11, cta: 0 initialized @(15921,0)
GPGPU-Sim uArch: Shader 8 finished CTA #0 (15926,0), 4 CTAs running
GPGPU-Sim uArch: Shader 9 finished CTA #0 (15926,0), 4 CTAs running
GPGPU-Sim uArch: core:  8, cta: 0 initialized @(15927,0)
GPGPU-Sim uArch: core:  9, cta: 0 initialized @(15927,0)
GPGPU-Sim uArch: Shader 10 finished CTA #0 (15932,0), 4 CTAs running
GPGPU-Sim uArch: core: 10, cta: 0 initialized @(15933,0)
GPGPU-Sim uArch: Shader 7 finished CTA #0 (15938,0), 4 CTAs running
GPGPU-Sim uArch: core:  7, cta: 0 initialized @(15939,0)
GPGPU-Sim uArch: Shader 13 finished CTA #0 (15950,0), 4 CTAs running
GPGPU-Sim uArch: Shader 14 finished CTA #0 (15950,0), 4 CTAs running
GPGPU-Sim uArch: core: 13, cta: 0 initialized @(15951,0)
GPGPU-Sim uArch: core: 14, cta: 0 initialized @(15951,0)
GPGPU-Sim uArch: Shader 12 finished CTA #0 (15956,0), 4 CTAs running
GPGPU-Sim uArch: core: 12, cta: 0 initialized @(15957,0)
GPGPU-Sim PTX: 1400000 instructions simulated : ctaid=(97,0,0) tid=(31,0,0)
GPGPU-Sim uArch: cycles simulated: 16500  inst.: 1441408 (ipc=87.4) sim_rate=102957 (inst/sec) elapsed = 0:0:00:14 / Tue Mar 22 12:40:13 2016
GPGPU-Sim PTX: 1500000 instructions simulated : ctaid=(94,0,0) tid=(159,0,0)
GPGPU-Sim uArch: Shader 1 finished CTA #1 (17532,0), 4 CTAs running
GPGPU-Sim uArch: core:  1, cta: 1 initialized @(17533,0)
GPGPU-Sim uArch: Shader 2 finished CTA #1 (17550,0), 4 CTAs running
GPGPU-Sim uArch: Shader 4 finished CTA #1 (17550,0), 4 CTAs running
GPGPU-Sim uArch: core:  2, cta: 1 initialized @(17551,0)
GPGPU-Sim uArch: core:  4, cta: 1 initialized @(17551,0)
GPGPU-Sim uArch: Shader 3 finished CTA #1 (17604,0), 4 CTAs running
GPGPU-Sim uArch: core:  3, cta: 1 initialized @(17605,0)
GPGPU-Sim PTX: 1600000 instructions simulated : ctaid=(114,0,0) tid=(31,0,0)
GPGPU-Sim uArch: Shader 5 finished CTA #1 (18247,0), 4 CTAs running
GPGPU-Sim uArch: core:  5, cta: 1 initialized @(18248,0)
GPGPU-Sim uArch: Shader 6 finished CTA #1 (18271,0), 4 CTAs running
GPGPU-Sim uArch: core:  6, cta: 1 initialized @(18272,0)
GPGPU-Sim uArch: Shader 0 finished CTA #1 (18272,0), 4 CTAs running
GPGPU-Sim uArch: core:  0, cta: 1 initialized @(18273,0)
GPGPU-Sim uArch: Shader 7 finished CTA #1 (18278,0), 4 CTAs running
GPGPU-Sim uArch: core:  7, cta: 1 initialized @(18279,0)
GPGPU-Sim uArch: Shader 11 finished CTA #1 (18296,0), 4 CTAs running
GPGPU-Sim uArch: core: 11, cta: 1 initialized @(18297,0)
GPGPU-Sim uArch: Shader 8 finished CTA #1 (18301,0), 4 CTAs running
GPGPU-Sim uArch: core:  8, cta: 1 initialized @(18302,0)
GPGPU-Sim uArch: Shader 10 finished CTA #1 (18307,0), 4 CTAs running
GPGPU-Sim uArch: core: 10, cta: 1 initialized @(18308,0)
GPGPU-Sim uArch: Shader 9 finished CTA #1 (18313,0), 4 CTAs running
GPGPU-Sim uArch: Shader 13 finished CTA #1 (18313,0), 4 CTAs running
GPGPU-Sim uArch: core: 13, cta: 1 initialized @(18314,0)
GPGPU-Sim uArch: core:  9, cta: 1 initialized @(18314,0)
GPGPU-Sim uArch: Shader 12 finished CTA #1 (18314,0), 4 CTAs running
GPGPU-Sim uArch: core: 12, cta: 1 initialized @(18315,0)
GPGPU-Sim uArch: Shader 14 finished CTA #1 (18319,0), 4 CTAs running
GPGPU-Sim uArch: core: 14, cta: 1 initialized @(18320,0)
GPGPU-Sim uArch: cycles simulated: 19000  inst.: 1666144 (ipc=87.7) sim_rate=111076 (inst/sec) elapsed = 0:0:00:15 / Tue Mar 22 12:40:14 2016
GPGPU-Sim PTX: 1700000 instructions simulated : ctaid=(113,0,0) tid=(191,0,0)
GPGPU-Sim uArch: Shader 1 finished CTA #2 (19813,0), 4 CTAs running
GPGPU-Sim uArch: core:  1, cta: 2 initialized @(19814,0)
GPGPU-Sim uArch: Shader 2 finished CTA #2 (19837,0), 4 CTAs running
GPGPU-Sim uArch: core:  2, cta: 2 initialized @(19838,0)
GPGPU-Sim uArch: Shader 4 finished CTA #2 (19845,0), 4 CTAs running
GPGPU-Sim uArch: core:  4, cta: 2 initialized @(19846,0)
GPGPU-Sim uArch: Shader 3 finished CTA #2 (19863,0), 4 CTAs running
GPGPU-Sim uArch: core:  3, cta: 2 initialized @(19864,0)
GPGPU-Sim PTX: 1800000 instructions simulated : ctaid=(120,0,0) tid=(95,0,0)
GPGPU-Sim uArch: Shader 5 finished CTA #2 (20610,0), 4 CTAs running
GPGPU-Sim uArch: core:  5, cta: 2 initialized @(20611,0)
GPGPU-Sim uArch: Shader 0 finished CTA #2 (20616,0), 4 CTAs running
GPGPU-Sim uArch: core:  0, cta: 2 initialized @(20617,0)
GPGPU-Sim uArch: Shader 11 finished CTA #2 (20652,0), 4 CTAs running
GPGPU-Sim uArch: core: 11, cta: 2 initialized @(20653,0)
GPGPU-Sim uArch: Shader 6 finished CTA #2 (20658,0), 4 CTAs running
GPGPU-Sim uArch: core:  6, cta: 2 initialized @(20659,0)
GPGPU-Sim uArch: Shader 9 finished CTA #2 (20676,0), 4 CTAs running
GPGPU-Sim uArch: core:  9, cta: 2 initialized @(20677,0)
GPGPU-Sim uArch: Shader 7 finished CTA #2 (20682,0), 4 CTAs running
GPGPU-Sim uArch: core:  7, cta: 2 initialized @(20683,0)
GPGPU-Sim uArch: Shader 8 finished CTA #2 (20688,0), 4 CTAs running
GPGPU-Sim uArch: Shader 13 finished CTA #2 (20688,0), 4 CTAs running
GPGPU-Sim uArch: core:  8, cta: 2 initialized @(20689,0)
GPGPU-Sim uArch: core: 13, cta: 2 initialized @(20689,0)
GPGPU-Sim uArch: Shader 10 finished CTA #2 (20694,0), 4 CTAs running
GPGPU-Sim uArch: Shader 12 finished CTA #2 (20694,0), 4 CTAs running
GPGPU-Sim uArch: core: 10, cta: 2 initialized @(20695,0)
GPGPU-Sim uArch: core: 12, cta: 2 initialized @(20695,0)
GPGPU-Sim uArch: Shader 14 finished CTA #2 (20700,0), 4 CTAs running
GPGPU-Sim uArch: core: 14, cta: 2 initialized @(20701,0)
GPGPU-Sim uArch: cycles simulated: 21000  inst.: 1855488 (ipc=88.4) sim_rate=115968 (inst/sec) elapsed = 0:0:00:16 / Tue Mar 22 12:40:15 2016
GPGPU-Sim PTX: 1900000 instructions simulated : ctaid=(128,0,0) tid=(255,0,0)
GPGPU-Sim uArch: Shader 1 finished CTA #3 (22096,0), 4 CTAs running
GPGPU-Sim uArch: core:  1, cta: 3 initialized @(22097,0)
GPGPU-Sim uArch: Shader 4 finished CTA #3 (22132,0), 4 CTAs running
GPGPU-Sim uArch: core:  4, cta: 3 initialized @(22133,0)
GPGPU-Sim uArch: Shader 2 finished CTA #3 (22138,0), 4 CTAs running
GPGPU-Sim uArch: core:  2, cta: 3 initialized @(22139,0)
GPGPU-Sim uArch: Shader 3 finished CTA #3 (22162,0), 4 CTAs running
GPGPU-Sim uArch: core:  3, cta: 3 initialized @(22163,0)
GPGPU-Sim PTX: 2000000 instructions simulated : ctaid=(132,0,0) tid=(255,0,0)
GPGPU-Sim uArch: cycles simulated: 23000  inst.: 2052544 (ipc=89.2) sim_rate=120737 (inst/sec) elapsed = 0:0:00:17 / Tue Mar 22 12:40:16 2016
GPGPU-Sim uArch: Shader 5 finished CTA #3 (23006,0), 4 CTAs running
GPGPU-Sim uArch: core:  5, cta: 3 initialized @(23007,0)
GPGPU-Sim uArch: Shader 9 finished CTA #3 (23016,0), 4 CTAs running
GPGPU-Sim uArch: core:  9, cta: 3 initialized @(23017,0)
GPGPU-Sim uArch: Shader 11 finished CTA #3 (23034,0), 4 CTAs running
GPGPU-Sim uArch: core: 11, cta: 3 initialized @(23035,0)
GPGPU-Sim uArch: Shader 7 finished CTA #3 (23046,0), 4 CTAs running
GPGPU-Sim uArch: core:  7, cta: 3 initialized @(23047,0)
GPGPU-Sim uArch: Shader 13 finished CTA #3 (23052,0), 4 CTAs running
GPGPU-Sim uArch: core: 13, cta: 3 initialized @(23053,0)
GPGPU-Sim uArch: Shader 10 finished CTA #3 (23064,0), 4 CTAs running
GPGPU-Sim uArch: core: 10, cta: 3 initialized @(23065,0)
GPGPU-Sim uArch: Shader 8 finished CTA #3 (23070,0), 4 CTAs running
GPGPU-Sim uArch: Shader 12 finished CTA #3 (23070,0), 4 CTAs running
GPGPU-Sim uArch: core: 12, cta: 3 initialized @(23071,0)
GPGPU-Sim uArch: core:  8, cta: 3 initialized @(23071,0)
GPGPU-Sim uArch: Shader 6 finished CTA #3 (23076,0), 4 CTAs running
GPGPU-Sim uArch: core:  6, cta: 3 initialized @(23077,0)
GPGPU-Sim uArch: Shader 0 finished CTA #3 (23082,0), 4 CTAs running
GPGPU-Sim uArch: core:  0, cta: 3 initialized @(23083,0)
GPGPU-Sim uArch: Shader 14 finished CTA #3 (23088,0), 4 CTAs running
GPGPU-Sim uArch: core: 14, cta: 3 initialized @(23089,0)
GPGPU-Sim PTX: 2100000 instructions simulated : ctaid=(139,0,0) tid=(127,0,0)
GPGPU-Sim uArch: Shader 1 finished CTA #4 (24376,0), 4 CTAs running
GPGPU-Sim uArch: core:  1, cta: 4 initialized @(24377,0)
GPGPU-Sim uArch: Shader 3 finished CTA #4 (24405,0), 4 CTAs running
GPGPU-Sim uArch: core:  3, cta: 4 initialized @(24406,0)
GPGPU-Sim uArch: Shader 4 finished CTA #4 (24411,0), 4 CTAs running
GPGPU-Sim uArch: core:  4, cta: 4 initialized @(24412,0)
GPGPU-Sim uArch: Shader 2 finished CTA #4 (24417,0), 4 CTAs running
GPGPU-Sim uArch: core:  2, cta: 4 initialized @(24418,0)
GPGPU-Sim PTX: 2200000 instructions simulated : ctaid=(145,0,0) tid=(255,0,0)
GPGPU-Sim uArch: cycles simulated: 25000  inst.: 2238048 (ipc=89.5) sim_rate=124336 (inst/sec) elapsed = 0:0:00:18 / Tue Mar 22 12:40:17 2016
GPGPU-Sim uArch: Shader 5 finished CTA #4 (25385,0), 4 CTAs running
GPGPU-Sim uArch: core:  5, cta: 4 initialized @(25386,0)
GPGPU-Sim uArch: Shader 11 finished CTA #4 (25388,0), 4 CTAs running
GPGPU-Sim uArch: core: 11, cta: 4 initialized @(25389,0)
GPGPU-Sim uArch: Shader 13 finished CTA #4 (25394,0), 4 CTAs running
GPGPU-Sim uArch: core: 13, cta: 4 initialized @(25395,0)
GPGPU-Sim uArch: Shader 9 finished CTA #4 (25413,0), 4 CTAs running
GPGPU-Sim uArch: core:  9, cta: 4 initialized @(25414,0)
GPGPU-Sim uArch: Shader 7 finished CTA #4 (25433,0), 4 CTAs running
GPGPU-Sim uArch: Shader 10 finished CTA #4 (25433,0), 4 CTAs running
GPGPU-Sim uArch: core: 10, cta: 4 initialized @(25434,0)
GPGPU-Sim uArch: core:  7, cta: 4 initialized @(25434,0)
GPGPU-Sim uArch: Shader 0 finished CTA #4 (25439,0), 4 CTAs running
GPGPU-Sim uArch: core:  0, cta: 4 initialized @(25440,0)
GPGPU-Sim uArch: Shader 6 finished CTA #4 (25445,0), 4 CTAs running
GPGPU-Sim uArch: Shader 12 finished CTA #4 (25445,0), 4 CTAs running
GPGPU-Sim uArch: core:  6, cta: 4 initialized @(25446,0)
GPGPU-Sim uArch: core: 12, cta: 4 initialized @(25446,0)
GPGPU-Sim uArch: Shader 14 finished CTA #4 (25457,0), 4 CTAs running
GPGPU-Sim uArch: core: 14, cta: 4 initialized @(25458,0)
GPGPU-Sim uArch: Shader 8 finished CTA #4 (25469,0), 4 CTAs running
GPGPU-Sim uArch: core:  8, cta: 4 initialized @(25470,0)
GPGPU-Sim PTX: 2300000 instructions simulated : ctaid=(160,0,0) tid=(31,0,0)
GPGPU-Sim PTX: 2400000 instructions simulated : ctaid=(167,0,0) tid=(31,0,0)
GPGPU-Sim uArch: Shader 1 finished CTA #0 (26666,0), 4 CTAs running
GPGPU-Sim uArch: core:  1, cta: 0 initialized @(26667,0)
GPGPU-Sim uArch: Shader 2 finished CTA #0 (26684,0), 4 CTAs running
GPGPU-Sim uArch: core:  2, cta: 0 initialized @(26685,0)
GPGPU-Sim uArch: Shader 4 finished CTA #0 (26686,0), 4 CTAs running
GPGPU-Sim uArch: core:  4, cta: 0 initialized @(26687,0)
GPGPU-Sim uArch: Shader 3 finished CTA #0 (26692,0), 4 CTAs running
GPGPU-Sim uArch: core:  3, cta: 0 initialized @(26693,0)
GPGPU-Sim uArch: cycles simulated: 27000  inst.: 2423872 (ipc=89.8) sim_rate=127572 (inst/sec) elapsed = 0:0:00:19 / Tue Mar 22 12:40:18 2016
GPGPU-Sim uArch: Shader 9 finished CTA #0 (27659,0), 4 CTAs running
GPGPU-Sim uArch: core:  9, cta: 0 initialized @(27660,0)
GPGPU-Sim PTX: 2500000 instructions simulated : ctaid=(166,0,0) tid=(159,0,0)
GPGPU-Sim uArch: Shader 13 finished CTA #0 (27665,0), 4 CTAs running
GPGPU-Sim uArch: core: 13, cta: 0 initialized @(27666,0)
GPGPU-Sim uArch: Shader 0 finished CTA #0 (27682,0), 4 CTAs running
GPGPU-Sim uArch: core:  0, cta: 0 initialized @(27683,0)
GPGPU-Sim uArch: Shader 5 finished CTA #0 (27748,0), 4 CTAs running
GPGPU-Sim uArch: core:  5, cta: 0 initialized @(27749,0)
GPGPU-Sim uArch: Shader 6 finished CTA #0 (27760,0), 4 CTAs running
GPGPU-Sim uArch: core:  6, cta: 0 initialized @(27761,0)
GPGPU-Sim uArch: Shader 11 finished CTA #0 (27772,0), 4 CTAs running
GPGPU-Sim uArch: core: 11, cta: 0 initialized @(27773,0)
GPGPU-Sim uArch: Shader 12 finished CTA #0 (27778,0), 4 CTAs running
GPGPU-Sim uArch: core: 12, cta: 0 initialized @(27779,0)
GPGPU-Sim uArch: Shader 10 finished CTA #0 (27784,0), 4 CTAs running
GPGPU-Sim uArch: core: 10, cta: 0 initialized @(27785,0)
GPGPU-Sim uArch: Shader 7 finished CTA #0 (27790,0), 4 CTAs running
GPGPU-Sim uArch: core:  7, cta: 0 initialized @(27791,0)
GPGPU-Sim uArch: Shader 8 finished CTA #0 (27808,0), 4 CTAs running
GPGPU-Sim uArch: core:  8, cta: 0 initialized @(27809,0)
GPGPU-Sim uArch: Shader 14 finished CTA #0 (27814,0), 4 CTAs running
GPGPU-Sim uArch: core: 14, cta: 0 initialized @(27815,0)
GPGPU-Sim PTX: 2600000 instructions simulated : ctaid=(167,0,0) tid=(223,0,0)
GPGPU-Sim uArch: Shader 4 finished CTA #1 (28937,0), 4 CTAs running
GPGPU-Sim uArch: core:  4, cta: 1 initialized @(28938,0)
GPGPU-Sim uArch: Shader 1 finished CTA #1 (28961,0), 4 CTAs running
GPGPU-Sim uArch: Shader 2 finished CTA #1 (28961,0), 4 CTAs running
GPGPU-Sim uArch: core:  1, cta: 1 initialized @(28962,0)
GPGPU-Sim uArch: core:  2, cta: 1 initialized @(28962,0)
GPGPU-Sim uArch: Shader 3 finished CTA #1 (28967,0), 4 CTAs running
GPGPU-Sim uArch: core:  3, cta: 1 initialized @(28968,0)
GPGPU-Sim uArch: cycles simulated: 29000  inst.: 2628064 (ipc=90.6) sim_rate=131403 (inst/sec) elapsed = 0:0:00:20 / Tue Mar 22 12:40:19 2016
GPGPU-Sim PTX: 2700000 instructions simulated : ctaid=(181,0,0) tid=(95,0,0)
GPGPU-Sim uArch: Shader 13 finished CTA #1 (29992,0), 4 CTAs running
GPGPU-Sim uArch: core: 13, cta: 1 initialized @(29993,0)
GPGPU-Sim uArch: Shader 5 finished CTA #1 (30111,0), 4 CTAs running
GPGPU-Sim uArch: core:  5, cta: 1 initialized @(30112,0)
GPGPU-Sim uArch: Shader 11 finished CTA #1 (30112,0), 4 CTAs running
GPGPU-Sim uArch: core: 11, cta: 1 initialized @(30113,0)
GPGPU-Sim uArch: Shader 9 finished CTA #1 (30124,0), 4 CTAs running
GPGPU-Sim uArch: core:  9, cta: 1 initialized @(30125,0)
GPGPU-Sim uArch: Shader 0 finished CTA #1 (30136,0), 4 CTAs running
GPGPU-Sim uArch: core:  0, cta: 1 initialized @(30137,0)
GPGPU-Sim uArch: Shader 7 finished CTA #1 (30141,0), 4 CTAs running
GPGPU-Sim uArch: core:  7, cta: 1 initialized @(30142,0)
GPGPU-Sim uArch: Shader 6 finished CTA #1 (30142,0), 4 CTAs running
GPGPU-Sim uArch: core:  6, cta: 1 initialized @(30143,0)
GPGPU-Sim uArch: Shader 14 finished CTA #1 (30148,0), 4 CTAs running
GPGPU-Sim uArch: core: 14, cta: 1 initialized @(30149,0)
GPGPU-Sim uArch: Shader 10 finished CTA #1 (30153,0), 4 CTAs running
GPGPU-Sim uArch: core: 10, cta: 1 initialized @(30154,0)
GPGPU-Sim uArch: Shader 8 finished CTA #1 (30159,0), 4 CTAs running
GPGPU-Sim uArch: Shader 12 finished CTA #1 (30159,0), 4 CTAs running
GPGPU-Sim uArch: core: 12, cta: 1 initialized @(30160,0)
GPGPU-Sim uArch: core:  8, cta: 1 initialized @(30160,0)
GPGPU-Sim PTX: 2800000 instructions simulated : ctaid=(184,0,0) tid=(255,0,0)
GPGPU-Sim uArch: cycles simulated: 31000  inst.: 2800352 (ipc=90.3) sim_rate=133350 (inst/sec) elapsed = 0:0:00:21 / Tue Mar 22 12:40:20 2016
GPGPU-Sim uArch: Shader 4 finished CTA #2 (31224,0), 4 CTAs running
GPGPU-Sim uArch: core:  4, cta: 2 initialized @(31225,0)
GPGPU-Sim uArch: Shader 1 finished CTA #2 (31247,0), 4 CTAs running
GPGPU-Sim uArch: core:  1, cta: 2 initialized @(31248,0)
GPGPU-Sim uArch: Shader 2 finished CTA #2 (31271,0), 4 CTAs running
GPGPU-Sim uArch: core:  2, cta: 2 initialized @(31272,0)
GPGPU-Sim uArch: Shader 3 finished CTA #2 (31278,0), 4 CTAs running
GPGPU-Sim uArch: core:  3, cta: 2 initialized @(31279,0)
GPGPU-Sim PTX: 2900000 instructions simulated : ctaid=(186,0,0) tid=(223,0,0)
GPGPU-Sim uArch: Shader 11 finished CTA #2 (32493,0), 4 CTAs running
GPGPU-Sim uArch: core: 11, cta: 2 initialized @(32494,0)
GPGPU-Sim uArch: Shader 13 finished CTA #2 (32507,0), 4 CTAs running
GPGPU-Sim uArch: core: 13, cta: 2 initialized @(32508,0)
GPGPU-Sim uArch: Shader 10 finished CTA #2 (32539,0), 4 CTAs running
GPGPU-Sim uArch: core: 10, cta: 2 initialized @(32540,0)
GPGPU-Sim uArch: Shader 5 finished CTA #2 (32557,0), 4 CTAs running
GPGPU-Sim uArch: core:  5, cta: 2 initialized @(32558,0)
GPGPU-Sim uArch: Shader 6 finished CTA #2 (32581,0), 4 CTAs running
GPGPU-Sim uArch: Shader 9 finished CTA #2 (32581,0), 4 CTAs running
GPGPU-Sim uArch: core:  6, cta: 2 initialized @(32582,0)
GPGPU-Sim uArch: core:  9, cta: 2 initialized @(32582,0)
GPGPU-Sim uArch: Shader 7 finished CTA #2 (32593,0), 4 CTAs running
GPGPU-Sim uArch: core:  7, cta: 2 initialized @(32594,0)
GPGPU-Sim uArch: Shader 0 finished CTA #2 (32599,0), 4 CTAs running
GPGPU-Sim uArch: Shader 8 finished CTA #2 (32599,0), 4 CTAs running
GPGPU-Sim uArch: core:  8, cta: 2 initialized @(32600,0)
GPGPU-Sim uArch: core:  0, cta: 2 initialized @(32600,0)
GPGPU-Sim uArch: Shader 12 finished CTA #2 (32605,0), 4 CTAs running
GPGPU-Sim uArch: core: 12, cta: 2 initialized @(32606,0)
GPGPU-Sim uArch: Shader 14 finished CTA #2 (32611,0), 4 CTAs running
GPGPU-Sim uArch: core: 14, cta: 2 initialized @(32612,0)
GPGPU-Sim PTX: 3000000 instructions simulated : ctaid=(208,0,0) tid=(95,0,0)
GPGPU-Sim uArch: cycles simulated: 33500  inst.: 3026752 (ipc=90.4) sim_rate=137579 (inst/sec) elapsed = 0:0:00:22 / Tue Mar 22 12:40:21 2016
GPGPU-Sim uArch: Shader 4 finished CTA #3 (33545,0), 4 CTAs running
GPGPU-Sim uArch: core:  4, cta: 3 initialized @(33546,0)
GPGPU-Sim uArch: Shader 1 finished CTA #3 (33740,0), 4 CTAs running
GPGPU-Sim uArch: core:  1, cta: 3 initialized @(33741,0)
GPGPU-Sim uArch: Shader 2 finished CTA #3 (33769,0), 4 CTAs running
GPGPU-Sim uArch: core:  2, cta: 3 initialized @(33770,0)
GPGPU-Sim uArch: Shader 3 finished CTA #3 (33791,0), 4 CTAs running
GPGPU-Sim uArch: core:  3, cta: 3 initialized @(33792,0)
GPGPU-Sim PTX: 3100000 instructions simulated : ctaid=(204,0,0) tid=(191,0,0)
GPGPU-Sim uArch: Shader 7 finished CTA #3 (35074,0), 4 CTAs running
GPGPU-Sim uArch: core:  7, cta: 3 initialized @(35075,0)
GPGPU-Sim uArch: Shader 11 finished CTA #3 (35087,0), 4 CTAs running
GPGPU-Sim uArch: core: 11, cta: 3 initialized @(35088,0)
GPGPU-Sim uArch: Shader 13 finished CTA #3 (35129,0), 4 CTAs running
GPGPU-Sim uArch: core: 13, cta: 3 initialized @(35130,0)
GPGPU-Sim uArch: Shader 6 finished CTA #3 (35138,0), 4 CTAs running
GPGPU-Sim uArch: core:  6, cta: 3 initialized @(35139,0)
GPGPU-Sim uArch: Shader 10 finished CTA #3 (35143,0), 4 CTAs running
GPGPU-Sim uArch: core: 10, cta: 3 initialized @(35144,0)
GPGPU-Sim uArch: Shader 5 finished CTA #3 (35155,0), 4 CTAs running
GPGPU-Sim uArch: core:  5, cta: 3 initialized @(35156,0)
GPGPU-Sim uArch: Shader 9 finished CTA #3 (35203,0), 4 CTAs running
GPGPU-Sim uArch: Shader 12 finished CTA #3 (35203,0), 4 CTAs running
GPGPU-Sim uArch: core:  9, cta: 3 initialized @(35204,0)
GPGPU-Sim uArch: core: 12, cta: 3 initialized @(35204,0)
GPGPU-Sim uArch: Shader 0 finished CTA #3 (35209,0), 4 CTAs running
GPGPU-Sim uArch: core:  0, cta: 3 initialized @(35210,0)
GPGPU-Sim uArch: Shader 8 finished CTA #3 (35215,0), 4 CTAs running
GPGPU-Sim uArch: core:  8, cta: 3 initialized @(35216,0)
GPGPU-Sim uArch: Shader 14 finished CTA #3 (35221,0), 4 CTAs running
GPGPU-Sim uArch: core: 14, cta: 3 initialized @(35222,0)
GPGPU-Sim PTX: 3200000 instructions simulated : ctaid=(210,0,0) tid=(159,0,0)
GPGPU-Sim uArch: cycles simulated: 35500  inst.: 3203104 (ipc=90.2) sim_rate=139265 (inst/sec) elapsed = 0:0:00:23 / Tue Mar 22 12:40:22 2016
GPGPU-Sim uArch: Shader 4 finished CTA #4 (35811,0), 4 CTAs running
GPGPU-Sim uArch: core:  4, cta: 4 initialized @(35812,0)
GPGPU-Sim uArch: Shader 1 finished CTA #4 (36088,0), 4 CTAs running
GPGPU-Sim uArch: core:  1, cta: 4 initialized @(36089,0)
GPGPU-Sim uArch: Shader 2 finished CTA #4 (36095,0), 4 CTAs running
GPGPU-Sim uArch: core:  2, cta: 4 initialized @(36096,0)
GPGPU-Sim uArch: Shader 3 finished CTA #4 (36243,0), 4 CTAs running
GPGPU-Sim uArch: core:  3, cta: 4 initialized @(36244,0)
GPGPU-Sim PTX: 3300000 instructions simulated : ctaid=(226,0,0) tid=(95,0,0)
GPGPU-Sim uArch: Shader 7 finished CTA #4 (37479,0), 4 CTAs running
GPGPU-Sim uArch: core:  7, cta: 4 initialized @(37480,0)
GPGPU-Sim uArch: Shader 13 finished CTA #4 (37485,0), 4 CTAs running
GPGPU-Sim uArch: core: 13, cta: 4 initialized @(37486,0)
GPGPU-Sim PTX: 3400000 instructions simulated : ctaid=(234,0,0) tid=(31,0,0)
GPGPU-Sim uArch: cycles simulated: 37500  inst.: 3398432 (ipc=90.6) sim_rate=141601 (inst/sec) elapsed = 0:0:00:24 / Tue Mar 22 12:40:23 2016
GPGPU-Sim uArch: Shader 12 finished CTA #4 (37576,0), 4 CTAs running
GPGPU-Sim uArch: core: 12, cta: 4 initialized @(37577,0)
GPGPU-Sim uArch: Shader 5 finished CTA #4 (37583,0), 4 CTAs running
GPGPU-Sim uArch: core:  5, cta: 4 initialized @(37584,0)
GPGPU-Sim uArch: Shader 9 finished CTA #4 (37634,0), 4 CTAs running
GPGPU-Sim uArch: core:  9, cta: 4 initialized @(37635,0)
GPGPU-Sim uArch: Shader 0 finished CTA #4 (37652,0), 4 CTAs running
GPGPU-Sim uArch: core:  0, cta: 4 initialized @(37653,0)
GPGPU-Sim uArch: Shader 10 finished CTA #4 (37686,0), 4 CTAs running
GPGPU-Sim uArch: core: 10, cta: 4 initialized @(37687,0)
GPGPU-Sim uArch: Shader 11 finished CTA #4 (37692,0), 4 CTAs running
GPGPU-Sim uArch: Shader 14 finished CTA #4 (37692,0), 4 CTAs running
GPGPU-Sim uArch: core: 11, cta: 4 initialized @(37693,0)
GPGPU-Sim uArch: core: 14, cta: 4 initialized @(37693,0)
GPGPU-Sim uArch: Shader 6 finished CTA #4 (37704,0), 4 CTAs running
GPGPU-Sim uArch: core:  6, cta: 4 initialized @(37705,0)
GPGPU-Sim uArch: Shader 8 finished CTA #4 (37728,0), 4 CTAs running
GPGPU-Sim uArch: core:  8, cta: 4 initialized @(37729,0)
GPGPU-Sim uArch: Shader 4 finished CTA #0 (38099,0), 4 CTAs running
GPGPU-Sim uArch: core:  4, cta: 0 initialized @(38100,0)
GPGPU-Sim uArch: Shader 1 finished CTA #0 (38373,0), 4 CTAs running
GPGPU-Sim uArch: core:  1, cta: 0 initialized @(38374,0)
GPGPU-Sim uArch: Shader 2 finished CTA #0 (38391,0), 4 CTAs running
GPGPU-Sim uArch: core:  2, cta: 0 initialized @(38392,0)
GPGPU-Sim uArch: Shader 3 finished CTA #0 (38514,0), 4 CTAs running
GPGPU-Sim uArch: core:  3, cta: 0 initialized @(38515,0)
GPGPU-Sim PTX: 3500000 instructions simulated : ctaid=(234,0,0) tid=(127,0,0)
GPGPU-Sim uArch: cycles simulated: 39500  inst.: 3588192 (ipc=90.8) sim_rate=143527 (inst/sec) elapsed = 0:0:00:25 / Tue Mar 22 12:40:24 2016
GPGPU-Sim PTX: 3600000 instructions simulated : ctaid=(243,0,0) tid=(191,0,0)
GPGPU-Sim uArch: Shader 7 finished CTA #0 (39774,0), 4 CTAs running
GPGPU-Sim uArch: core:  7, cta: 0 initialized @(39775,0)
GPGPU-Sim uArch: Shader 13 finished CTA #0 (39792,0), 4 CTAs running
GPGPU-Sim uArch: core: 13, cta: 0 initialized @(39793,0)
GPGPU-Sim uArch: Shader 12 finished CTA #0 (40079,0), 4 CTAs running
GPGPU-Sim uArch: core: 12, cta: 0 initialized @(40080,0)
GPGPU-Sim uArch: Shader 5 finished CTA #0 (40093,0), 4 CTAs running
GPGPU-Sim uArch: core:  5, cta: 0 initialized @(40094,0)
GPGPU-Sim uArch: Shader 14 finished CTA #0 (40118,0), 4 CTAs running
GPGPU-Sim uArch: core: 14, cta: 0 initialized @(40119,0)
GPGPU-Sim uArch: Shader 10 finished CTA #0 (40134,0), 4 CTAs running
GPGPU-Sim uArch: core: 10, cta: 0 initialized @(40135,0)
GPGPU-Sim uArch: Shader 0 finished CTA #0 (40154,0), 4 CTAs running
GPGPU-Sim uArch: core:  0, cta: 0 initialized @(40155,0)
GPGPU-Sim uArch: Shader 9 finished CTA #0 (40164,0), 4 CTAs running
GPGPU-Sim uArch: core:  9, cta: 0 initialized @(40165,0)
GPGPU-Sim uArch: Shader 6 finished CTA #0 (40170,0), 4 CTAs running
GPGPU-Sim uArch: core:  6, cta: 0 initialized @(40171,0)
GPGPU-Sim uArch: Shader 11 finished CTA #0 (40174,0), 4 CTAs running
GPGPU-Sim uArch: core: 11, cta: 0 initialized @(40175,0)
GPGPU-Sim uArch: Shader 8 finished CTA #0 (40178,0), 4 CTAs running
GPGPU-Sim uArch: core:  8, cta: 0 initialized @(40179,0)
GPGPU-Sim uArch: Shader 4 finished CTA #1 (40470,0), 4 CTAs running
GPGPU-Sim uArch: core:  4, cta: 1 initialized @(40471,0)
GPGPU-Sim uArch: Shader 1 finished CTA #1 (40644,0), 4 CTAs running
GPGPU-Sim uArch: core:  1, cta: 1 initialized @(40645,0)
GPGPU-Sim uArch: Shader 2 finished CTA #1 (40664,0), 4 CTAs running
GPGPU-Sim uArch: core:  2, cta: 1 initialized @(40665,0)
GPGPU-Sim PTX: 3700000 instructions simulated : ctaid=(249,0,0) tid=(95,0,0)
GPGPU-Sim uArch: Shader 3 finished CTA #1 (40802,0), 4 CTAs running
GPGPU-Sim uArch: core:  3, cta: 1 initialized @(40803,0)
GPGPU-Sim uArch: cycles simulated: 41500  inst.: 3773344 (ipc=90.9) sim_rate=145128 (inst/sec) elapsed = 0:0:00:26 / Tue Mar 22 12:40:25 2016
GPGPU-Sim PTX: 3800000 instructions simulated : ctaid=(251,0,0) tid=(223,0,0)
GPGPU-Sim uArch: Shader 7 finished CTA #1 (42027,0), 4 CTAs running
GPGPU-Sim uArch: core:  7, cta: 1 initialized @(42028,0)
GPGPU-Sim uArch: Shader 13 finished CTA #1 (42049,0), 4 CTAs running
GPGPU-Sim uArch: core: 13, cta: 1 initialized @(42050,0)
GPGPU-Sim uArch: Shader 12 finished CTA #1 (42519,0), 4 CTAs running
GPGPU-Sim uArch: core: 12, cta: 1 initialized @(42520,0)
GPGPU-Sim uArch: Shader 5 finished CTA #1 (42527,0), 4 CTAs running
GPGPU-Sim uArch: core:  5, cta: 1 initialized @(42528,0)
GPGPU-Sim uArch: Shader 14 finished CTA #1 (42539,0), 4 CTAs running
GPGPU-Sim uArch: core: 14, cta: 1 initialized @(42540,0)
GPGPU-Sim uArch: Shader 9 finished CTA #1 (42573,0), 4 CTAs running
GPGPU-Sim uArch: core:  9, cta: 1 initialized @(42574,0)
GPGPU-Sim uArch: Shader 0 finished CTA #1 (42595,0), 4 CTAs running
GPGPU-Sim uArch: core:  0, cta: 1 initialized @(42596,0)
GPGPU-Sim uArch: Shader 6 finished CTA #1 (42619,0), 4 CTAs running
GPGPU-Sim uArch: core:  6, cta: 1 initialized @(42620,0)
GPGPU-Sim uArch: Shader 8 finished CTA #1 (42621,0), 4 CTAs running
GPGPU-Sim uArch: Shader 10 finished CTA #1 (42621,0), 4 CTAs running
GPGPU-Sim uArch: core:  8, cta: 1 initialized @(42622,0)
GPGPU-Sim uArch: core: 10, cta: 1 initialized @(42622,0)
GPGPU-Sim uArch: Shader 11 finished CTA #1 (42625,0), 4 CTAs running
GPGPU-Sim uArch: core: 11, cta: 1 initialized @(42626,0)
GPGPU-Sim uArch: Shader 4 finished CTA #2 (42753,0), 4 CTAs running
GPGPU-Sim uArch: core:  4, cta: 2 initialized @(42754,0)
GPGPU-Sim PTX: 3900000 instructions simulated : ctaid=(268,0,0) tid=(31,0,0)
GPGPU-Sim uArch: Shader 1 finished CTA #2 (42941,0), 4 CTAs running
GPGPU-Sim uArch: core:  1, cta: 2 initialized @(42942,0)
GPGPU-Sim uArch: Shader 2 finished CTA #2 (42957,0), 4 CTAs running
GPGPU-Sim uArch: core:  2, cta: 2 initialized @(42958,0)
GPGPU-Sim uArch: Shader 3 finished CTA #2 (43094,0), 4 CTAs running
GPGPU-Sim uArch: core:  3, cta: 2 initialized @(43095,0)
GPGPU-Sim uArch: cycles simulated: 43500  inst.: 3952704 (ipc=90.9) sim_rate=146396 (inst/sec) elapsed = 0:0:00:27 / Tue Mar 22 12:40:26 2016
GPGPU-Sim PTX: 4000000 instructions simulated : ctaid=(259,0,0) tid=(191,0,0)
GPGPU-Sim uArch: Shader 7 finished CTA #2 (44303,0), 4 CTAs running
GPGPU-Sim uArch: core:  7, cta: 2 initialized @(44304,0)
GPGPU-Sim uArch: Shader 13 finished CTA #2 (44325,0), 4 CTAs running
GPGPU-Sim uArch: core: 13, cta: 2 initialized @(44326,0)
GPGPU-Sim PTX: 4100000 instructions simulated : ctaid=(271,0,0) tid=(223,0,0)
GPGPU-Sim uArch: Shader 9 finished CTA #2 (45032,0), 4 CTAs running
GPGPU-Sim uArch: core:  9, cta: 2 initialized @(45033,0)
GPGPU-Sim uArch: Shader 0 finished CTA #2 (45074,0), 4 CTAs running
GPGPU-Sim uArch: core:  0, cta: 2 initialized @(45075,0)
GPGPU-Sim uArch: Shader 5 finished CTA #2 (45080,0), 4 CTAs running
GPGPU-Sim uArch: core:  5, cta: 2 initialized @(45081,0)
GPGPU-Sim uArch: Shader 14 finished CTA #2 (45095,0), 4 CTAs running
GPGPU-Sim uArch: core: 14, cta: 2 initialized @(45096,0)
GPGPU-Sim uArch: Shader 10 finished CTA #2 (45104,0), 4 CTAs running
GPGPU-Sim uArch: Shader 12 finished CTA #2 (45104,0), 4 CTAs running
GPGPU-Sim uArch: core: 10, cta: 2 initialized @(45105,0)
GPGPU-Sim uArch: core: 12, cta: 2 initialized @(45105,0)
GPGPU-Sim uArch: Shader 8 finished CTA #2 (45136,0), 4 CTAs running
GPGPU-Sim uArch: core:  8, cta: 2 initialized @(45137,0)
GPGPU-Sim uArch: Shader 11 finished CTA #2 (45160,0), 4 CTAs running
GPGPU-Sim uArch: core: 11, cta: 2 initialized @(45161,0)
GPGPU-Sim uArch: Shader 6 finished CTA #2 (45174,0), 4 CTAs running
GPGPU-Sim uArch: core:  6, cta: 2 initialized @(45175,0)
GPGPU-Sim uArch: Shader 4 finished CTA #3 (45202,0), 4 CTAs running
GPGPU-Sim uArch: core:  4, cta: 3 initialized @(45203,0)
GPGPU-Sim uArch: Shader 1 finished CTA #3 (45220,0), 4 CTAs running
GPGPU-Sim uArch: core:  1, cta: 3 initialized @(45221,0)
GPGPU-Sim uArch: Shader 2 finished CTA #3 (45270,0), 4 CTAs running
GPGPU-Sim uArch: core:  2, cta: 3 initialized @(45271,0)
GPGPU-Sim uArch: cycles simulated: 45500  inst.: 4133728 (ipc=90.9) sim_rate=147633 (inst/sec) elapsed = 0:0:00:28 / Tue Mar 22 12:40:27 2016
GPGPU-Sim uArch: Shader 3 finished CTA #3 (45503,0), 4 CTAs running
GPGPU-Sim uArch: core:  3, cta: 3 initialized @(45504,0)
GPGPU-Sim PTX: 4200000 instructions simulated : ctaid=(274,0,0) tid=(255,0,0)
GPGPU-Sim uArch: Shader 7 finished CTA #3 (46584,0), 4 CTAs running
GPGPU-Sim uArch: core:  7, cta: 3 initialized @(46585,0)
GPGPU-Sim uArch: Shader 13 finished CTA #3 (46614,0), 4 CTAs running
GPGPU-Sim uArch: core: 13, cta: 3 initialized @(46615,0)
GPGPU-Sim PTX: 4300000 instructions simulated : ctaid=(284,0,0) tid=(255,0,0)
GPGPU-Sim uArch: Shader 9 finished CTA #3 (47318,0), 4 CTAs running
GPGPU-Sim uArch: core:  9, cta: 3 initialized @(47319,0)
GPGPU-Sim uArch: Shader 12 finished CTA #3 (47471,0), 4 CTAs running
GPGPU-Sim uArch: core: 12, cta: 3 initialized @(47472,0)
GPGPU-Sim uArch: Shader 14 finished CTA #3 (47491,0), 4 CTAs running
GPGPU-Sim uArch: core: 14, cta: 3 initialized @(47492,0)
GPGPU-Sim uArch: Shader 10 finished CTA #3 (47624,0), 4 CTAs running
GPGPU-Sim uArch: core: 10, cta: 3 initialized @(47625,0)
GPGPU-Sim uArch: Shader 11 finished CTA #3 (47630,0), 4 CTAs running
GPGPU-Sim uArch: core: 11, cta: 3 initialized @(47631,0)
GPGPU-Sim uArch: Shader 5 finished CTA #3 (47688,0), 4 CTAs running
GPGPU-Sim uArch: core:  5, cta: 3 initialized @(47689,0)
GPGPU-Sim uArch: Shader 2 finished CTA #4 (47690,0), 4 CTAs running
GPGPU-Sim uArch: core:  2, cta: 4 initialized @(47691,0)
GPGPU-Sim uArch: Shader 6 finished CTA #3 (47706,0), 4 CTAs running
GPGPU-Sim uArch: core:  6, cta: 3 initialized @(47707,0)
GPGPU-Sim uArch: Shader 4 finished CTA #4 (47712,0), 4 CTAs running
GPGPU-Sim uArch: Shader 8 finished CTA #3 (47712,0), 4 CTAs running
GPGPU-Sim uArch: core:  8, cta: 3 initialized @(47713,0)
GPGPU-Sim uArch: core:  4, cta: 4 initialized @(47713,0)
GPGPU-Sim uArch: Shader 1 finished CTA #4 (47754,0), 4 CTAs running
GPGPU-Sim uArch: core:  1, cta: 4 initialized @(47755,0)
GPGPU-Sim uArch: Shader 0 finished CTA #3 (47761,0), 4 CTAs running
GPGPU-Sim uArch: core:  0, cta: 3 initialized @(47762,0)
GPGPU-Sim uArch: Shader 3 finished CTA #4 (47784,0), 4 CTAs running
GPGPU-Sim uArch: core:  3, cta: 4 initialized @(47785,0)
GPGPU-Sim uArch: cycles simulated: 48000  inst.: 4365408 (ipc=90.9) sim_rate=150531 (inst/sec) elapsed = 0:0:00:29 / Tue Mar 22 12:40:28 2016
GPGPU-Sim PTX: 4400000 instructions simulated : ctaid=(303,0,0) tid=(127,0,0)
GPGPU-Sim uArch: Shader 7 finished CTA #4 (48957,0), 4 CTAs running
GPGPU-Sim uArch: core:  7, cta: 4 initialized @(48958,0)
GPGPU-Sim uArch: Shader 13 finished CTA #4 (48965,0), 4 CTAs running
GPGPU-Sim uArch: core: 13, cta: 4 initialized @(48966,0)
GPGPU-Sim PTX: 4500000 instructions simulated : ctaid=(306,0,0) tid=(127,0,0)
GPGPU-Sim uArch: Shader 9 finished CTA #4 (49597,0), 4 CTAs running
GPGPU-Sim uArch: core:  9, cta: 4 initialized @(49598,0)
GPGPU-Sim uArch: Shader 12 finished CTA #4 (49693,0), 4 CTAs running
GPGPU-Sim uArch: core: 12, cta: 4 initialized @(49694,0)
GPGPU-Sim uArch: Shader 14 finished CTA #4 (49712,0), 4 CTAs running
GPGPU-Sim uArch: core: 14, cta: 4 initialized @(49713,0)
GPGPU-Sim uArch: Shader 10 finished CTA #4 (49953,0), 4 CTAs running
GPGPU-Sim uArch: core: 10, cta: 4 initialized @(49954,0)
GPGPU-Sim uArch: cycles simulated: 50000  inst.: 4544736 (ipc=90.9) sim_rate=151491 (inst/sec) elapsed = 0:0:00:30 / Tue Mar 22 12:40:29 2016
GPGPU-Sim uArch: Shader 0 finished CTA #4 (50133,0), 4 CTAs running
GPGPU-Sim uArch: core:  0, cta: 4 initialized @(50134,0)
GPGPU-Sim uArch: Shader 4 finished CTA #0 (50169,0), 4 CTAs running
GPGPU-Sim uArch: core:  4, cta: 0 initialized @(50170,0)
GPGPU-Sim uArch: Shader 3 finished CTA #0 (50181,0), 4 CTAs running
GPGPU-Sim uArch: core:  3, cta: 0 initialized @(50182,0)
GPGPU-Sim uArch: Shader 11 finished CTA #4 (50202,0), 4 CTAs running
GPGPU-Sim uArch: core: 11, cta: 4 initialized @(50203,0)
GPGPU-Sim uArch: Shader 2 finished CTA #0 (50247,0), 4 CTAs running
GPGPU-Sim uArch: core:  2, cta: 0 initialized @(50248,0)
GPGPU-Sim uArch: Shader 6 finished CTA #4 (50265,0), 4 CTAs running
GPGPU-Sim uArch: core:  6, cta: 4 initialized @(50266,0)
GPGPU-Sim uArch: Shader 5 finished CTA #4 (50271,0), 4 CTAs running
GPGPU-Sim uArch: core:  5, cta: 4 initialized @(50272,0)
GPGPU-Sim uArch: Shader 8 finished CTA #4 (50277,0), 4 CTAs running
GPGPU-Sim uArch: core:  8, cta: 4 initialized @(50278,0)
GPGPU-Sim uArch: Shader 1 finished CTA #0 (50295,0), 4 CTAs running
GPGPU-Sim uArch: core:  1, cta: 0 initialized @(50296,0)
GPGPU-Sim PTX: 4600000 instructions simulated : ctaid=(311,0,0) tid=(191,0,0)
GPGPU-Sim uArch: Shader 13 finished CTA #0 (51264,0), 4 CTAs running
GPGPU-Sim uArch: core: 13, cta: 0 initialized @(51265,0)
GPGPU-Sim PTX: 4700000 instructions simulated : ctaid=(317,0,0) tid=(191,0,0)
GPGPU-Sim uArch: Shader 7 finished CTA #0 (51491,0), 4 CTAs running
GPGPU-Sim uArch: core:  7, cta: 0 initialized @(51492,0)
GPGPU-Sim uArch: Shader 9 finished CTA #0 (51873,0), 4 CTAs running
GPGPU-Sim uArch: core:  9, cta: 0 initialized @(51874,0)
GPGPU-Sim uArch: Shader 12 finished CTA #0 (51977,0), 4 CTAs running
GPGPU-Sim uArch: core: 12, cta: 0 initialized @(51978,0)
GPGPU-Sim uArch: cycles simulated: 52000  inst.: 4742336 (ipc=91.2) sim_rate=152978 (inst/sec) elapsed = 0:0:00:31 / Tue Mar 22 12:40:30 2016
GPGPU-Sim uArch: Shader 14 finished CTA #0 (52007,0), 4 CTAs running
GPGPU-Sim uArch: core: 14, cta: 0 initialized @(52008,0)
GPGPU-Sim uArch: Shader 10 finished CTA #0 (52221,0), 4 CTAs running
GPGPU-Sim uArch: core: 10, cta: 0 initialized @(52222,0)
GPGPU-Sim uArch: Shader 0 finished CTA #0 (52446,0), 4 CTAs running
GPGPU-Sim uArch: core:  0, cta: 0 initialized @(52447,0)
GPGPU-Sim PTX: 4800000 instructions simulated : ctaid=(328,0,0) tid=(31,0,0)
GPGPU-Sim uArch: Shader 11 finished CTA #0 (52698,0), 4 CTAs running
GPGPU-Sim uArch: core: 11, cta: 0 initialized @(52699,0)
GPGPU-Sim uArch: Shader 5 finished CTA #0 (52710,0), 4 CTAs running
GPGPU-Sim uArch: core:  5, cta: 0 initialized @(52711,0)
GPGPU-Sim uArch: Shader 1 finished CTA #1 (52758,0), 4 CTAs running
GPGPU-Sim uArch: core:  1, cta: 1 initialized @(52759,0)
GPGPU-Sim uArch: Shader 4 finished CTA #1 (52760,0), 4 CTAs running
GPGPU-Sim uArch: core:  4, cta: 1 initialized @(52761,0)
GPGPU-Sim uArch: Shader 2 finished CTA #1 (52776,0), 4 CTAs running
GPGPU-Sim uArch: core:  2, cta: 1 initialized @(52777,0)
GPGPU-Sim uArch: Shader 8 finished CTA #0 (52782,0), 4 CTAs running
GPGPU-Sim uArch: core:  8, cta: 0 initialized @(52783,0)
GPGPU-Sim uArch: Shader 3 finished CTA #1 (52794,0), 4 CTAs running
GPGPU-Sim uArch: core:  3, cta: 1 initialized @(52795,0)
GPGPU-Sim uArch: Shader 6 finished CTA #0 (52800,0), 4 CTAs running
GPGPU-Sim uArch: core:  6, cta: 0 initialized @(52801,0)
GPGPU-Sim uArch: Shader 13 finished CTA #1 (53541,0), 4 CTAs running
GPGPU-Sim uArch: core: 13, cta: 1 initialized @(53542,0)
GPGPU-Sim PTX: 4900000 instructions simulated : ctaid=(319,0,0) tid=(223,0,0)
GPGPU-Sim uArch: Shader 7 finished CTA #1 (53948,0), 4 CTAs running
GPGPU-Sim uArch: core:  7, cta: 1 initialized @(53949,0)
GPGPU-Sim uArch: cycles simulated: 54000  inst.: 4928064 (ipc=91.3) sim_rate=154002 (inst/sec) elapsed = 0:0:00:32 / Tue Mar 22 12:40:31 2016
GPGPU-Sim uArch: Shader 9 finished CTA #1 (54200,0), 4 CTAs running
GPGPU-Sim uArch: core:  9, cta: 1 initialized @(54201,0)
GPGPU-Sim uArch: Shader 12 finished CTA #1 (54212,0), 4 CTAs running
GPGPU-Sim uArch: core: 12, cta: 1 initialized @(54213,0)
GPGPU-Sim uArch: Shader 14 finished CTA #1 (54267,0), 4 CTAs running
GPGPU-Sim uArch: core: 14, cta: 1 initialized @(54268,0)
GPGPU-Sim uArch: Shader 10 finished CTA #1 (54505,0), 4 CTAs running
GPGPU-Sim uArch: core: 10, cta: 1 initialized @(54506,0)
GPGPU-Sim PTX: 5000000 instructions simulated : ctaid=(339,0,0) tid=(95,0,0)
GPGPU-Sim uArch: Shader 0 finished CTA #1 (54726,0), 4 CTAs running
GPGPU-Sim uArch: core:  0, cta: 1 initialized @(54727,0)
GPGPU-Sim uArch: Shader 5 finished CTA #1 (54999,0), 4 CTAs running
GPGPU-Sim uArch: core:  5, cta: 1 initialized @(55000,0)
GPGPU-Sim uArch: Shader 1 finished CTA #2 (55096,0), 4 CTAs running
GPGPU-Sim uArch: core:  1, cta: 2 initialized @(55097,0)
GPGPU-Sim uArch: Shader 4 finished CTA #2 (55120,0), 4 CTAs running
GPGPU-Sim uArch: core:  4, cta: 2 initialized @(55121,0)
GPGPU-Sim uArch: Shader 3 finished CTA #2 (55158,0), 4 CTAs running
GPGPU-Sim uArch: core:  3, cta: 2 initialized @(55159,0)
GPGPU-Sim uArch: Shader 11 finished CTA #1 (55159,0), 4 CTAs running
GPGPU-Sim uArch: core: 11, cta: 1 initialized @(55160,0)
GPGPU-Sim uArch: Shader 8 finished CTA #1 (55170,0), 4 CTAs running
GPGPU-Sim uArch: core:  8, cta: 1 initialized @(55171,0)
GPGPU-Sim uArch: Shader 2 finished CTA #2 (55194,0), 4 CTAs running
GPGPU-Sim uArch: core:  2, cta: 2 initialized @(55195,0)
GPGPU-Sim uArch: Shader 6 finished CTA #1 (55200,0), 4 CTAs running
GPGPU-Sim uArch: core:  6, cta: 1 initialized @(55201,0)
GPGPU-Sim PTX: 5100000 instructions simulated : ctaid=(340,0,0) tid=(191,0,0)
GPGPU-Sim uArch: Shader 13 finished CTA #2 (55808,0), 4 CTAs running
GPGPU-Sim uArch: core: 13, cta: 2 initialized @(55809,0)
GPGPU-Sim uArch: cycles simulated: 56000  inst.: 5116928 (ipc=91.4) sim_rate=155058 (inst/sec) elapsed = 0:0:00:33 / Tue Mar 22 12:40:32 2016
GPGPU-Sim uArch: Shader 7 finished CTA #2 (56298,0), 4 CTAs running
GPGPU-Sim uArch: core:  7, cta: 2 initialized @(56299,0)
GPGPU-Sim uArch: Shader 12 finished CTA #2 (56508,0), 4 CTAs running
GPGPU-Sim uArch: core: 12, cta: 2 initialized @(56509,0)
GPGPU-Sim uArch: Shader 9 finished CTA #2 (56516,0), 4 CTAs running
GPGPU-Sim uArch: core:  9, cta: 2 initialized @(56517,0)
GPGPU-Sim uArch: Shader 14 finished CTA #2 (56521,0), 4 CTAs running
GPGPU-Sim uArch: core: 14, cta: 2 initialized @(56522,0)
GPGPU-Sim uArch: Shader 10 finished CTA #2 (56778,0), 4 CTAs running
GPGPU-Sim uArch: core: 10, cta: 2 initialized @(56779,0)
GPGPU-Sim PTX: 5200000 instructions simulated : ctaid=(343,0,0) tid=(223,0,0)
GPGPU-Sim uArch: Shader 0 finished CTA #2 (56995,0), 4 CTAs running
GPGPU-Sim uArch: core:  0, cta: 2 initialized @(56996,0)
GPGPU-Sim uArch: Shader 5 finished CTA #2 (57296,0), 4 CTAs running
GPGPU-Sim uArch: core:  5, cta: 2 initialized @(57297,0)
GPGPU-Sim uArch: Shader 4 finished CTA #3 (57458,0), 4 CTAs running
GPGPU-Sim uArch: core:  4, cta: 3 initialized @(57459,0)
GPGPU-Sim uArch: Shader 11 finished CTA #2 (57520,0), 4 CTAs running
GPGPU-Sim uArch: core: 11, cta: 2 initialized @(57521,0)
GPGPU-Sim uArch: Shader 3 finished CTA #3 (57526,0), 4 CTAs running
GPGPU-Sim uArch: core:  3, cta: 3 initialized @(57527,0)
GPGPU-Sim uArch: Shader 1 finished CTA #3 (57532,0), 4 CTAs running
GPGPU-Sim uArch: Shader 2 finished CTA #3 (57532,0), 4 CTAs running
GPGPU-Sim uArch: core:  1, cta: 3 initialized @(57533,0)
GPGPU-Sim uArch: core:  2, cta: 3 initialized @(57533,0)
GPGPU-Sim uArch: Shader 6 finished CTA #2 (57544,0), 4 CTAs running
GPGPU-Sim uArch: core:  6, cta: 2 initialized @(57545,0)
GPGPU-Sim uArch: Shader 8 finished CTA #2 (57574,0), 4 CTAs running
[...]
gpgpu_stall_shd_mem[l_mem_ld][wb_rsrv_fail] = 0
gpu_reg_bank_conflict_stalls = 0
Warp Occupancy Distribution:
Stall:11887	W0_Idle:3866729	W0_Scoreboard:65783302	W1:0	W2:0	W3:0	W4:0	W5:0	W6:0	W7:0	W8:0	W9:0	W10:0	W11:0	W12:0	W13:0	W14:0	W15:0	W16:0	W17:0	W18:0	W19:0	W20:0	W21:0	W22:0	W23:0	W24:0	W25:0	W26:0	W27:0	W28:0	W29:0	W30:0	W31:0	W32:7602176
traffic_breakdown_coretomem[CONST_ACC_R] = 120 {8:15,}
traffic_breakdown_coretomem[GLOBAL_ACC_R] = 4194304 {8:524288,}
traffic_breakdown_coretomem[GLOBAL_ACC_W] = 71303168 {136:524288,}
traffic_breakdown_coretomem[INST_ACC_R] = 600 {8:75,}
traffic_breakdown_memtocore[CONST_ACC_R] = 1080 {72:15,}
traffic_breakdown_memtocore[GLOBAL_ACC_R] = 71303168 {136:524288,}
traffic_breakdown_memtocore[GLOBAL_ACC_W] = 4194304 {8:524288,}
traffic_breakdown_memtocore[INST_ACC_R] = 10200 {136:75,}
maxmrqlatency = 221 
maxdqlatency = 0 
maxmflatency = 535 
averagemflatency = 219 
max_icnt2mem_latency = 172 
max_icnt2sh_latency = 2577261 
mrq_lat_table:606253 	19278 	19204 	65647 	128217 	151223 	51371 	1245 	0 	0 	0 	0 	0 	0 	0 	0 	0 	0 	0 	0 	0 	0 	0 	0 	0 	0 	0 	0 	0 	0 	0 	0 	
dq_lat_table:0 	0 	0 	0 	0 	0 	0 	0 	0 	0 	0 	0 	0 	0 	0 	0 	0 	0 	0 	0 	0 	0 	0 	0 	0 	0 	0 	0 	0 	0 	0 	0 	
mf_lat_table:0 	0 	0 	0 	0 	0 	0 	524227 	524348 	16 	0 	0 	0 	0 	0 	0 	0 	0 	0 	0 	0 	0 	0 	0 	0 	0 	0 	0 	0 	0 	0 	0 	
icnt2mem_lat_table:0 	0 	0 	794807 	180342 	66868 	6599 	50 	0 	0 	0 	0 	0 	0 	0 	0 	0 	0 	0 	0 	0 	0 	0 	0 	
icnt2sh_lat_table:0 	0 	0 	360907 	161379 	2017 	0 	0 	0 	0 	60 	414 	792 	1670 	3376 	6498 	13340 	26945 	53425 	107010 	212862 	97896 	0 	0 	
mf_lat_pw_table:0 	0 	0 	0 	0 	0 	0 	5086 	68 	0 	0 	0 	0 	0 	0 	0 	0 	0 	0 	0 	0 	0 	0 	0 	0 	0 	0 	0 	0 	0 	0 	0 	
maximum concurrent accesses to same row:
dram[0]:        32        32        32        32        32        32        32        32        32        32        32        32        32        32        32        32 
dram[1]:        32        32        32        32        32        32        32        32        32        32        32        32        32        32        32        32 
dram[2]:        32        32        32        32        32        32        32        32        32        32        32        32        32        32        32        32 
dram[3]:        32        32        32        32        32        32        32        32        32        32        32        32        32        32        32        32 
dram[4]:        32        32        32        32        32        32        32        32        32        32        32        32        32        32        32        32 
dram[5]:        32        32        32        32        32        32        32        32        32        32        32        32        32        32        32        32 
maximum service time to same row:
dram[0]:     18828     19065     19200     19122     14812     14290     18974     19031     19213     18972     14203     12862     12842     13326     13278     14847 
dram[1]:     18309     19018     19200     19166     14299     14342     18985     19048     19244     19023     14162     12814     12838     13358     13847     15440 
dram[2]:     18275     19562     19234     18925     14300     14800     19013     19059     19265     18929     14137     12959     12804     12725     14416     13621 
dram[3]:     18271     19058     19242     18903     14321     14304     19031     19102     19312     18922     14148     12966     12797     12734     14985     14244 
dram[4]:     19591     19024     19072     18907     14819     14303     19013     19139     18948     18913     12864     13008     13255     12702     13663     14828 
dram[5]:     19085     19021     19116     18914     14323     14303     19019     19160     18957     18973     12864     13004     13290     12667     14259     15425 
average row accesses per activate:
dram[0]:  4.195282  4.161105  4.155027  4.130485  4.135218  4.091459  4.143621  4.143621  4.224050  4.192846  4.152614  4.121831  4.124481  4.093598  4.091488  4.086891 
dram[1]:  4.235846  4.191654  4.161414  4.144717  4.175087  4.122620  4.146789  4.153140  4.260767  4.212500  4.154199  4.134346  4.149526  4.122926  4.099174  4.108434 
dram[2]:  4.234192  4.035714  4.185543  4.032030  4.191250  3.991154  4.175519  4.064444  4.269200  4.060241  4.168518  4.028846  4.194093  3.973828  4.130204  4.013240 
dram[3]:  4.257849  4.072072  4.205049  4.057721  4.210813  4.005919  4.203022  4.096677  4.296414  4.087945  4.207190  4.037806  4.200538  4.010272  4.141177  4.029542 
dram[4]:  4.163469  4.082800  4.085283  4.074520  4.065340  4.028274  4.121581  4.104427  4.197742  4.098822  4.083209  4.063409  4.070737  4.033948  4.068605  4.038490 
dram[5]:  4.150727  4.096677  4.106980  4.089913  4.082202  4.058471  4.137300  4.118451  4.173375  4.109756  4.104748  4.093950  4.096665  4.057907  4.086891  4.065574 
average row locality = 1042438/252979 = 4.120650
number of total memory accesses made:
dram[0]:         0         0         0         0         0         0         0         0         0         0         0         0         0         0         0         0 
dram[1]:         0         0         0         0         0         0         0         0         0         0         0         0         0         0         0         0 
dram[2]:         0         0         0         0         0         0         0         0         0         0         0         0         0         0         0         0 
dram[3]:         0         0         0         0         0         0         0         0         0         0         0         0         0         0         0         0 
dram[4]:         0         0         0         0         0         0         0         0         0         0         0         0         0         0         0         0 
dram[5]:         0         0         0         0         0         0         0         0         0         0         0         0         0         0         0         0 
total accesses: 0
min_bank_accesses = 0!
min_chip_accesses = 0!
number of total read accesses:
dram[0]:      5441      5440      5440      5440      5440      5440      5440      5440      5440      5440      5480      5484      5504      5504      5504      5504 
dram[1]:      5440      5440      5440      5440      5440      5440      5440      5440      5440      5440      5480      5484      5504      5504      5504      5504 
dram[2]:      5440      5440      5440      5440      5440      5440      5440      5440      5440      5440      5480      5484      5504      5504      5504      5504 
dram[3]:      5441      5440      5440      5440      5440      5440      5440      5440      5440      5440      5480      5484      5504      5504      5504      5504 
dram[4]:      5442      5440      5440      5440      5440      5440      5440      5440      5440      5440      5484      5484      5504      5504      5504      5504 
dram[5]:      5442      5440      5440      5440      5440      5440      5440      5440      5440      5440      5484      5484      5504      5504      5504      5504 
total reads: 524294
bank skew: 5504/5440 = 1.01
chip skew: 87386/87380 = 1.00
number of total write accesses:
dram[0]:      5408      5408      5388      5386      5386      5386      5408      5408      5344      5344      5404      5410      5430      5430      5408      5408 
dram[1]:      5408      5408      5388      5386      5386      5386      5408      5408      5344      5344      5404      5410      5430      5430      5408      5408 
dram[2]:      5408      5408      5388      5386      5386      5388      5408      5408      5344      5344      5404      5410      5430      5428      5408      5408 
dram[3]:      5408      5408      5388      5386      5386      5388      5408      5408      5344      5344      5404      5410      5430      5428      5408      5408 
dram[4]:      5408      5408      5386      5386      5386      5388      5408      5408      5344      5344      5410      5410      5430      5428      5408      5408 
dram[5]:      5408      5408      5386      5386      5386      5388      5408      5408      5344      5344      5410      5410      5430      5428      5408      5408 
total reads: 518144
bank skew: 5430/5344 = 1.02
chip skew: 86360/86356 = 1.00
average mf latency per bank:
dram[0]:        220       220       219       220       219       220       221       221       220       221       220       220       220       221       221       222
dram[1]:        219       220       219       219       219       220       221       221       220       221       220       220       220       220       221       222
dram[2]:        219       220       219       220       219       220       220       221       220       221       219       221       220       222       221       222
dram[3]:        219       220       218       220       219       220       220       221       219       221       219       221       219       222       221       222
dram[4]:        219       220       219       219       219       219       220       221       220       221       220       220       220       222       221       222
dram[5]:        219       220       219       219       219       219       220       221       220       221       219       220       219       221       221       222
maximum mf latency per bank:
dram[0]:        412       448       397       471       502       470       456       455       414       414       520       466       443       473       462       456
dram[1]:        444       445       417       457       502       459       430       457       397       410       481       535       453       437       445       429
dram[2]:        427       478       415       492       465       502       460       465       402       420       461       520       427       425       421       423
dram[3]:        446       489       410       451       458       490       420       453       393       427       428       532       420       469       430       443
dram[4]:        424       423       418       424       502       427       432       466       435       430       520       451       428       420       422       410
dram[5]:        522       443       415       483       511       427       435       443       405       434       499       466       424       438       416       443

Number of Memory Banks Accessed per Memory Operation per Warp (from 0):
0	0	0	0	0	0	0	0	0	0	0	0	0	0	0	0	0	0	0	0	0	0	0	0	0	0	0	0	0	0	0	0	0	0	0	0	0	0	0	0	0	0	0	0	0	0	0	0	0	0	0	0	0	0	0	0	0	0	0	0	0	0	0	0	0	0	0	0	0	0	0	0	0	0	0	0	0	0	0	0	0	0	0	0	0	0	0	0	0	0	0	0	0	0	0	0	
Average # of Memory Banks Accessed per Memory Operation per Warp=-nan

position of mrq chosen
0	0	0	0	0	0	0	0	0	0	0	0	0	0	0	0	

average position of mrq chosen = -nan
Memory Partition 0: 
Cache L2_bank_000:
MSHR contents

Cache L2_bank_001:
MSHR contents

In Dram Latency Queue (total = 0): 
DRAM[0]: 16 bks, busW=4 BL=8 CL=12, tRRD=2 tCCD=6, tRCD=12 tRAS=28 tRP=12 tRC=40
n_cmd=3401984 n_nop=2970588 n_act=41969 n_pre=41953 n_req=173737 n_rd=174762 n_write=172712 bw_util=0.2043
n_activity=1518665 dram_eff=0.4576
bk0: 10882a 3150261i bk1: 10880a 3141645i bk2: 10880a 3153379i bk3: 10880a 3149449i bk4: 10880a 3146938i bk5: 10880a 3138821i bk6: 10880a 3129453i bk7: 10880a 3120709i bk8: 10880a 3153399i bk9: 10880a 3141858i bk10: 10960a 3153958i bk11: 10968a 3147476i bk12: 11008a 3150571i bk13: 11008a 3135796i bk14: 11008a 3130310i bk15: 11008a 3118215i 
dram_util_bins: 0 0 0 0 0 0 0 0 0 0
dram_eff_bins: 0 0 0 0 0 0 0 0 0 0
mrqq: max=16 avg=0.931003
Memory Partition 1: 
Cache L2_bank_002:
MSHR contents

Cache L2_bank_003:
MSHR contents

In Dram Latency Queue (total = 0): 
DRAM[1]: 16 bks, busW=4 BL=8 CL=12, tRRD=2 tCCD=6, tRCD=12 tRAS=28 tRP=12 tRC=40
n_cmd=3401984 n_nop=2971006 n_act=41761 n_pre=41745 n_req=173736 n_rd=174760 n_write=172712 bw_util=0.2043
n_activity=1510945 dram_eff=0.4599
bk0: 10880a 3155248i bk1: 10880a 3141618i bk2: 10880a 3159885i bk3: 10880a 3149041i bk4: 10880a 3152961i bk5: 10880a 3137024i bk6: 10880a 3131192i bk7: 10880a 3120845i bk8: 10880a 3160462i bk9: 10880a 3143788i bk10: 10960a 3157988i bk11: 10968a 3149277i bk12: 11008a 3151805i bk13: 11008a 3135391i bk14: 11008a 3131273i bk15: 11008a 3119315i 
dram_util_bins: 0 0 0 0 0 0 0 0 0 0
dram_eff_bins: 0 0 0 0 0 0 0 0 0 0
mrqq: max=16 avg=0.971926
Memory Partition 2: 
Cache L2_bank_004:
MSHR contents

Cache L2_bank_005:
MSHR contents

In Dram Latency Queue (total = 0): 
DRAM[2]: 16 bks, busW=4 BL=8 CL=12, tRRD=2 tCCD=6, tRCD=12 tRAS=28 tRP=12 tRC=40
n_cmd=3401984 n_nop=2969926 n_act=42301 n_pre=42285 n_req=173736 n_rd=174760 n_write=172712 bw_util=0.2043
n_activity=1525524 dram_eff=0.4555
bk0: 10880a 3162973i bk1: 10880a 3136742i bk2: 10880a 3165491i bk3: 10880a 3138067i bk4: 10880a 3158030i bk5: 10880a 3128420i bk6: 10880a 3139779i bk7: 10880a 3109131i bk8: 10880a 3159297i bk9: 10880a 3132460i bk10: 10960a 3168204i bk11: 10968a 3138169i bk12: 11008a 3154122i bk13: 11008a 3129718i bk14: 11008a 3138848i bk15: 11008a 3108341i 
dram_util_bins: 0 0 0 0 0 0 0 0 0 0
dram_eff_bins: 0 0 0 0 0 0 0 0 0 0
mrqq: max=16 avg=0.923011
Memory Partition 3: 
Cache L2_bank_006:
MSHR contents

Cache L2_bank_007:
MSHR contents

In Dram Latency Queue (total = 0): 
DRAM[3]: 16 bks, busW=4 BL=8 CL=12, tRRD=2 tCCD=6, tRCD=12 tRAS=28 tRP=12 tRC=40
n_cmd=3401984 n_nop=2970400 n_act=42063 n_pre=42047 n_req=173737 n_rd=174762 n_write=172712 bw_util=0.2043
n_activity=1517771 dram_eff=0.4579
bk0: 10882a 3157188i bk1: 10880a 3137448i bk2: 10880a 3165846i bk3: 10880a 3140690i bk4: 10880a 3158215i bk5: 10880a 3135337i bk6: 10880a 3140566i bk7: 10880a 3116714i bk8: 10880a 3162606i bk9: 10880a 3134196i bk10: 10960a 3167624i bk11: 10968a 3140873i bk12: 11008a 3154085i bk13: 11008a 3128750i bk14: 11008a 3136211i bk15: 11008a 3108474i 
dram_util_bins: 0 0 0 0 0 0 0 0 0 0
dram_eff_bins: 0 0 0 0 0 0 0 0 0 0
mrqq: max=16 avg=0.962231
Memory Partition 4: 
Cache L2_bank_008:
MSHR contents

Cache L2_bank_009:
MSHR contents

In Dram Latency Queue (total = 0): 
DRAM[4]: 16 bks, busW=4 BL=8 CL=12, tRRD=2 tCCD=6, tRCD=12 tRAS=28 tRP=12 tRC=40
n_cmd=3401984 n_nop=2969458 n_act=42525 n_pre=42509 n_req=173746 n_rd=174772 n_write=172720 bw_util=0.2043
n_activity=1513899 dram_eff=0.4591
bk0: 10884a 3149175i bk1: 10880a 3137088i bk2: 10880a 3152711i bk3: 10880a 3150198i bk4: 10880a 3148622i bk5: 10880a 3137983i bk6: 10880a 3126107i bk7: 10880a 3119624i bk8: 10880a 3156244i bk9: 10880a 3146006i bk10: 10968a 3150497i bk11: 10968a 3144703i bk12: 11008a 3143833i bk13: 11008a 3131761i bk14: 11008a 3125795i bk15: 11008a 3115427i 
dram_util_bins: 0 0 0 0 0 0 0 0 0 0
dram_eff_bins: 0 0 0 0 0 0 0 0 0 0
mrqq: max=16 avg=0.928352
Memory Partition 5: 
Cache L2_bank_010:
MSHR contents

Cache L2_bank_011:
MSHR contents

In Dram Latency Queue (total = 0): 
DRAM[5]: 16 bks, busW=4 BL=8 CL=12, tRRD=2 tCCD=6, tRCD=12 tRAS=28 tRP=12 tRC=40
n_cmd=3401984 n_nop=2969786 n_act=42361 n_pre=42345 n_req=173746 n_rd=174772 n_write=172720 bw_util=0.2043
n_activity=1507218 dram_eff=0.4611
bk0: 10884a 3153061i bk1: 10880a 3137401i bk2: 10880a 3157059i bk3: 10880a 3149028i bk4: 10880a 3151467i bk5: 10880a 3134472i bk6: 10880a 3128631i bk7: 10880a 3118091i bk8: 10880a 3155142i bk9: 10880a 3143297i bk10: 10968a 3156324i bk11: 10968a 3145641i bk12: 11008a 3151585i bk13: 11008a 3134197i bk14: 11008a 3129039i bk15: 11008a 3117430i 
dram_util_bins: 0 0 0 0 0 0 0 0 0 0
dram_eff_bins: 0 0 0 0 0 0 0 0 0 0
mrqq: max=16 avg=0.969204

========= L2 cache stats =========
L2_cache_bank[0]: Access = 87391, Miss = 43689, Miss_rate = 0.500, Pending_hits = 3, Reservation_fails = 142
L2_cache_bank[1]: Access = 87384, Miss = 43692, Miss_rate = 0.500, Pending_hits = 0, Reservation_fails = 115
L2_cache_bank[2]: Access = 87376, Miss = 43688, Miss_rate = 0.500, Pending_hits = 0, Reservation_fails = 68
L2_cache_bank[3]: Access = 87384, Miss = 43692, Miss_rate = 0.500, Pending_hits = 0, Reservation_fails = 48
L2_cache_bank[4]: Access = 87376, Miss = 43688, Miss_rate = 0.500, Pending_hits = 0, Reservation_fails = 0
L2_cache_bank[5]: Access = 87384, Miss = 43692, Miss_rate = 0.500, Pending_hits = 0, Reservation_fails = 98
L2_cache_bank[6]: Access = 87391, Miss = 43689, Miss_rate = 0.500, Pending_hits = 3, Reservation_fails = 188
L2_cache_bank[7]: Access = 87384, Miss = 43692, Miss_rate = 0.500, Pending_hits = 0, Reservation_fails = 4
L2_cache_bank[8]: Access = 87414, Miss = 43694, Miss_rate = 0.500, Pending_hits = 6, Reservation_fails = 231
L2_cache_bank[9]: Access = 87384, Miss = 43692, Miss_rate = 0.500, Pending_hits = 0, Reservation_fails = 72
L2_cache_bank[10]: Access = 87414, Miss = 43694, Miss_rate = 0.500, Pending_hits = 6, Reservation_fails = 199
L2_cache_bank[11]: Access = 87384, Miss = 43692, Miss_rate = 0.500, Pending_hits = 0, Reservation_fails = 69
L2_total_cache_accesses = 1048666
L2_total_cache_misses = 524294
L2_total_cache_miss_rate = 0.5000
L2_total_cache_pending_hits = 18
L2_total_cache_reservation_fails = 1234
L2_total_cache_breakdown:
	L2_cache_stats_breakdown[GLOBAL_ACC_R][MISS] = 524288
	L2_cache_stats_breakdown[GLOBAL_ACC_R][RESERVATION_FAIL] = 634
	L2_cache_stats_breakdown[CONST_ACC_R][HIT] = 11
	L2_cache_stats_breakdown[CONST_ACC_R][HIT_RESERVED] = 3
	L2_cache_stats_breakdown[CONST_ACC_R][MISS] = 1
	L2_cache_stats_breakdown[CONST_ACC_R][RESERVATION_FAIL] = 100
	L2_cache_stats_breakdown[GLOBAL_ACC_W][HIT] = 524288
	L2_cache_stats_breakdown[INST_ACC_R][HIT] = 55
	L2_cache_stats_breakdown[INST_ACC_R][HIT_RESERVED] = 15
	L2_cache_stats_breakdown[INST_ACC_R][MISS] = 5
	L2_cache_stats_breakdown[INST_ACC_R][RESERVATION_FAIL] = 500
L2_cache_data_port_util = 0.135
L2_cache_fill_port_util = 0.068

icnt_total_pkts_mem_to_simt=3146148
icnt_total_pkts_simt_to_mem=3145818
LD_mem_lat_dist  0 0 0 0 0 0 0 0 0 0 0 0 0 0 0 0 0 0 0 0 0 0 0 0 0 0 0
ST_mem_lat_dist  0 0 0 0 0 0 0 0 0 0 0 0 0 0 0 0 0 0 0 0 0 0 0 0 0 0 0
----------------------------Interconnect-DETAILS--------------------------------
Class 0:
Packet latency average = 10.5444
	minimum = 6
	maximum = 121
Network latency average = 9.88895
	minimum = 6
	maximum = 111
Slowest packet = 1049096
Flit latency average = 8.55472
	minimum = 6
	maximum = 107
Slowest flit = 3147458
Fragmentation average = 0
	minimum = 0
	maximum = 0
Injected packet rate average = 0.0301142
	minimum = 0.0269969 (at node 0)
	maximum = 0.0338795 (at node 16)
Accepted packet rate average = 0.0301142
	minimum = 0.0269969 (at node 0)
	maximum = 0.0338795 (at node 16)
Injected flit rate average = 0.0903425
	minimum = 0.0809906 (at node 0)
	maximum = 0.101638 (at node 16)
Accepted flit rate average= 0.0903425
	minimum = 0.0809906 (at node 0)
	maximum = 0.101638 (at node 16)
Injected packet length average = 3
Accepted packet length average = 3
Total in-flight flits = 0 (0 measured)
====== Overall Traffic Statistics ======
====== Traffic class 0 ======
Packet latency average = 10.6852 (2 samples)
	minimum = 6 (2 samples)
	maximum = 118.5 (2 samples)
Network latency average = 9.97341 (2 samples)
	minimum = 6 (2 samples)
	maximum = 105 (2 samples)
Flit latency average = 8.68026 (2 samples)
	minimum = 6 (2 samples)
	maximum = 101 (2 samples)
Fragmentation average = 0 (2 samples)
	minimum = 0 (2 samples)
	maximum = 0 (2 samples)
Injected packet rate average = 0.0301401 (2 samples)
	minimum = 0.027045 (2 samples)
	maximum = 0.0339174 (2 samples)
Accepted packet rate average = 0.0301401 (2 samples)
	minimum = 0.027045 (2 samples)
	maximum = 0.0339174 (2 samples)
Injected flit rate average = 0.09042 (2 samples)
	minimum = 0.0811304 (2 samples)
	maximum = 0.101776 (2 samples)
Accepted flit rate average = 0.09042 (2 samples)
	minimum = 0.0811389 (2 samples)
	maximum = 0.101729 (2 samples)
Injected packet size average = 2.99999 (2 samples)
Accepted packet size average = 2.99999 (2 samples)
Hops average = 1 (2 samples)
