

        *** GPGPU-Sim Simulator Version 3.2.2  [build 0] ***


GPGPU-Sim PTX: simulation mode 0 (can change with PTX_SIM_MODE_FUNC environment variable:
               1=functional simulation only, 0=detailed performance simulator)
GPGPU-Sim: Configuration options:

-network_mode                           1 # Interconnection network mode
-inter_config_file   config_fermi_islip.icnt # Interconnection network config file
-gpgpu_ptx_use_cuobjdump                    1 # Use cuobjdump to extract ptx and sass from binaries
-gpgpu_experimental_lib_support                    0 # Try to extract code from cuda libraries [Broken because of unknown cudaGetExportTable]
-gpgpu_ptx_convert_to_ptxplus                    0 # Convert SASS (native ISA) to ptxplus and run ptxplus
-gpgpu_ptx_force_max_capability                   20 # Force maximum compute capability
-gpgpu_ptx_inst_debug_to_file                    0 # Dump executed instructions' debug information to file
-gpgpu_ptx_inst_debug_file       inst_debug.txt # Executed instructions' debug output file
-gpgpu_ptx_inst_debug_thread_uid                    1 # Thread UID for executed instructions' debug output
-gpgpu_simd_model                       1 # 1 = post-dominator
-gpgpu_shader_core_pipeline              1536:32 # shader core pipeline config, i.e., {<nthread>:<warpsize>}
-gpgpu_tex_cache:l1  4:128:24,L:R:m:N:L,F:128:4,128:2 # per-shader L1 texture cache  (READ-ONLY) config  {<nsets>:<bsize>:<assoc>,<rep>:<wr>:<alloc>:<wr_alloc>,<mshr>:<N>:<merge>,<mq>:<rf>}
-gpgpu_const_cache:l1 64:64:2,L:R:f:N:L,A:2:32,4 # per-shader L1 constant memory cache  (READ-ONLY) config  {<nsets>:<bsize>:<assoc>,<rep>:<wr>:<alloc>:<wr_alloc>,<mshr>:<N>:<merge>,<mq>} 
-gpgpu_cache:il1     4:128:4,L:R:f:N:L,A:2:32,4 # shader L1 instruction cache config  {<nsets>:<bsize>:<assoc>,<rep>:<wr>:<alloc>:<wr_alloc>,<mshr>:<N>:<merge>,<mq>} 
-gpgpu_cache:dl1     32:128:4,L:L:m:N:H,A:32:8,8:2,0,1:0:1:1:0:1,1:4:8:16:32:64,/sciclone/data10/hwang07/GPU_RESEARCH/swl/swl_outputs/RESULTS/swl2/ # per-shader L1 data cache config  {<nsets>:<bsize>:<assoc>,<rep>:<wr>:<alloc>:<wr_alloc>,<mshr>:<N>:<merge>,<mq> | none}
-gpgpu_cache:dl1PrefL1                 none # per-shader L1 data cache config  {<nsets>:<bsize>:<assoc>,<rep>:<wr>:<alloc>:<wr_alloc>,<mshr>:<N>:<merge>,<mq> | none}
-gpgpu_cache:dl1PreShared                 none # per-shader L1 data cache config  {<nsets>:<bsize>:<assoc>,<rep>:<wr>:<alloc>:<wr_alloc>,<mshr>:<N>:<merge>,<mq> | none}
-gmem_skip_L1D                          0 # global memory access skip L1D cache (implements -Xptxas -dlcm=cg, default=no skip)
-gpgpu_perfect_mem                      0 # enable perfect memory mode (no cache miss)
-n_regfile_gating_group                    4 # group of lanes that should be read/written together)
-gpgpu_clock_gated_reg_file                    0 # enable clock gated reg file for power calculations
-gpgpu_clock_gated_lanes                    0 # enable clock gated lanes for power calculations
-gpgpu_shader_registers                32768 # Number of registers per shader core. Limits number of concurrent CTAs. (default 8192)
-gpgpu_shader_cta                       8 # Maximum number of concurrent CTAs in shader (default 8)
-gpgpu_num_cta_barriers                   16 # Maximum number of named barriers per CTA (default 16)
-gpgpu_n_clusters                      15 # number of processing clusters
-gpgpu_n_cores_per_cluster                    1 # number of simd cores per cluster
-gpgpu_n_cluster_ejection_buffer_size                    8 # number of packets in ejection buffer
-gpgpu_n_ldst_response_buffer_size                    2 # number of response packets in ld/st unit ejection buffer
-gpgpu_shmem_size                   16384 # Size of shared memory per shader core (default 16kB)
-gpgpu_shmem_size                   49152 # Size of shared memory per shader core (default 16kB)
-gpgpu_shmem_size_PrefL1                16384 # Size of shared memory per shader core (default 16kB)
-gpgpu_shmem_size_PrefShared                16384 # Size of shared memory per shader core (default 16kB)
-gpgpu_shmem_num_banks                   32 # Number of banks in the shared memory in each shader core (default 16)
-gpgpu_shmem_limited_broadcast                    0 # Limit shared memory to do one broadcast per cycle (default on)
-gpgpu_shmem_warp_parts                    1 # Number of portions a warp is divided into for shared memory bank conflict check 
-gpgpu_warpdistro_shader                   -1 # Specify which shader core to collect the warp size distribution from
-gpgpu_warp_issue_shader                    0 # Specify which shader core to collect the warp issue distribution from
-gpgpu_local_mem_map                    1 # Mapping from local memory space address to simulated GPU physical address space (default = enabled)
-gpgpu_num_reg_banks                   16 # Number of register banks (default = 8)
-gpgpu_reg_bank_use_warp_id                    0 # Use warp ID in mapping registers to banks (default = off)
-gpgpu_operand_collector_num_units_sp                    6 # number of collector units (default = 4)
-gpgpu_operand_collector_num_units_sfu                    8 # number of collector units (default = 4)
-gpgpu_operand_collector_num_units_mem                    2 # number of collector units (default = 2)
-gpgpu_operand_collector_num_units_gen                    0 # number of collector units (default = 0)
-gpgpu_operand_collector_num_in_ports_sp                    2 # number of collector unit in ports (default = 1)
-gpgpu_operand_collector_num_in_ports_sfu                    1 # number of collector unit in ports (default = 1)
-gpgpu_operand_collector_num_in_ports_mem                    1 # number of collector unit in ports (default = 1)
-gpgpu_operand_collector_num_in_ports_gen                    0 # number of collector unit in ports (default = 0)
-gpgpu_operand_collector_num_out_ports_sp                    2 # number of collector unit in ports (default = 1)
-gpgpu_operand_collector_num_out_ports_sfu                    1 # number of collector unit in ports (default = 1)
-gpgpu_operand_collector_num_out_ports_mem                    1 # number of collector unit in ports (default = 1)
-gpgpu_operand_collector_num_out_ports_gen                    0 # number of collector unit in ports (default = 0)
-gpgpu_coalesce_arch                   13 # Coalescing arch (default = 13, anything else is off for now)
-gpgpu_num_sched_per_core                    2 # Number of warp schedulers per core
-gpgpu_max_insn_issue_per_warp                    1 # Max number of instructions that can be issued per warp in one cycle by scheduler
-gpgpu_simt_core_sim_order                    1 # Select the simulation order of cores in a cluster (0=Fix, 1=Round-Robin)
-gpgpu_pipeline_widths        2,1,1,2,1,1,2 # Pipeline widths ID_OC_SP,ID_OC_SFU,ID_OC_MEM,OC_EX_SP,OC_EX_SFU,OC_EX_MEM,EX_WB
-gpgpu_num_sp_units                     2 # Number of SP units (default=1)
-gpgpu_num_sfu_units                    1 # Number of SF units (default=1)
-gpgpu_num_mem_units                    1 # Number if ldst units (default=1) WARNING: not hooked up to anything
-gpgpu_scheduler        warp_limiting:2:2 # Scheduler configuration: < lrr | gto | two_level_active > If two_level_active:<num_active_warps>:<inner_prioritization>:<outer_prioritization>For complete list of prioritization values see shader.h enum scheduler_prioritization_typeDefault: gto
-gpgpu_dram_scheduler                    1 # 0 = fifo, 1 = FR-FCFS (defaul)
-gpgpu_dram_partition_queues              8:8:8:8 # i2$:$2d:d2$:$2i
-l2_ideal                               0 # Use a ideal L2 cache that always hit
-gpgpu_cache:dl2     64:128:8,L:B:m:W:L,A:32:4,4:0,32 # unified banked L2 data cache config  {<nsets>:<bsize>:<assoc>,<rep>:<wr>:<alloc>:<wr_alloc>,<mshr>:<N>:<merge>,<mq>}
-gpgpu_cache:dl2_texture_only                    0 # L2 cache used for texture only
-gpgpu_n_mem                            6 # number of memory modules (e.g. memory controllers) in gpu
-gpgpu_n_sub_partition_per_mchannel                    2 # number of memory subpartition in each memory module
-gpgpu_n_mem_per_ctrlr                    2 # number of memory chips per memory controller
-gpgpu_memlatency_stat                   14 # track and display latency statistics 0x2 enables MC, 0x4 enables queue logs
-gpgpu_frfcfs_dram_sched_queue_size                   16 # 0 = unlimited (default); # entries per chip
-gpgpu_dram_return_queue_size                  116 # 0 = unlimited (default); # entries per chip
-gpgpu_dram_buswidth                    4 # default = 4 bytes (8 bytes per cycle at DDR)
-gpgpu_dram_burst_length                    8 # Burst length of each DRAM request (default = 4 data bus cycle)
-dram_data_command_freq_ratio                    4 # Frequency ratio between DRAM data bus and command bus (default = 2 times, i.e. DDR)
-gpgpu_dram_timing_opt nbk=16:CCD=2:RRD=6:RCD=12:RAS=28:RP=12:RC=40: CL=12:WL=4:CDLR=5:WR=12:nbkgrp=4:CCDL=3:RTPL=2 # DRAM timing parameters = {nbk:tCCD:tRRD:tRCD:tRAS:tRP:tRC:CL:WL:tCDLR:tWR:nbkgrp:tCCDL:tRTPL}
-rop_latency                          120 # ROP queue latency (default 85)
-dram_latency                         100 # DRAM latency (default 30)
-gpgpu_mem_addr_mapping dramid@8;00000000.00000000.00000000.00000000.0000RRRR.RRRRRRRR.BBBCCCCB.CCSSSSSS # mapping memory address to dram model {dramid@<start bit>;<memory address map>}
-gpgpu_mem_addr_test                    0 # run sweep test to check address mapping for aliased address
-gpgpu_mem_address_mask                    1 # 0 = old addressing mask, 1 = new addressing mask, 2 = new add. mask + flipped bank sel and chip sel bits
-gpuwattch_xml_file  gpuwattch_gtx480.xml # GPUWattch XML file
-power_simulation_enabled                    0 # Turn on power simulator (1=On, 0=Off)
-power_per_cycle_dump                    0 # Dump detailed power output each cycle
-power_trace_enabled                    0 # produce a file for the power trace (1=On, 0=Off)
-power_trace_zlevel                     6 # Compression level of the power trace output log (0=no comp, 9=highest)
-steady_power_levels_enabled                    0 # produce a file for the steady power levels (1=On, 0=Off)
-steady_state_definition                  8:4 # allowed deviation:number of samples
-gpgpu_max_cycle                        0 # terminates gpu simulation early (0 = no limit)
-gpgpu_max_insn                         0 # terminates gpu simulation early (0 = no limit)
-gpgpu_max_cta                          0 # terminates gpu simulation early (0 = no limit)
-gpgpu_runtime_stat                   500 # display runtime statistics such as dram utilization {<freq>:<flag>}
-liveness_message_freq                    1 # Minimum number of seconds between simulation liveness messages (0 = always print)
-gpgpu_flush_l1_cache                    0 # Flush L1 cache at the end of each kernel call
-gpgpu_flush_l2_cache                    0 # Flush L2 cache at the end of each kernel call
-gpgpu_deadlock_detect                    1 # Stop the simulation at deadlock (1=on (default), 0=off)
-gpgpu_ptx_instruction_classification                    0 # if enabled will classify ptx instruction types per kernel (Max 255 kernels now)
-gpgpu_ptx_sim_mode                     0 # Select between Performance (default) or Functional simulation (1)
-gpgpu_clock_domains 700.0:700.0:700.0:924.0 # Clock Domain Frequencies in MhZ {<Core Clock>:<ICNT Clock>:<L2 Clock>:<DRAM Clock>}
-gpgpu_max_concurrent_kernel                    8 # maximum kernels that can run concurrently on GPU
-gpgpu_cflog_interval                    0 # Interval between each snapshot in control flow logger
-visualizer_enabled                     0 # Turn on visualizer output (1=On, 0=Off)
-visualizer_outputfile                 NULL # Specifies the output log file for visualizer
-visualizer_zlevel                      6 # Compression level of the visualizer output log (0=no comp, 9=highest)
-trace_enabled                          0 # Turn on traces
-trace_components                    none # comma seperated list of traces to enable. Complete list found in trace_streams.tup. Default none
-trace_sampling_core                    0 # The core which is printed using CORE_DPRINTF. Default 0
-trace_sampling_memory_partition                   -1 # The memory partition which is printed using MEMPART_DPRINTF. Default -1 (i.e. all)
-enable_ptx_file_line_stats                    1 # Turn on PTX source line statistic profiling. (1 = On)
-ptx_line_stats_filename gpgpu_inst_stats.txt # Output file for PTX source line statistics.
-save_embedded_ptx                      0 # saves ptx files embedded in binary as <n>.ptx
-keep                                   0 # keep intermediate files created by GPGPU-Sim when interfacing with external programs
-gpgpu_ptx_save_converted_ptxplus                    0 # Saved converted ptxplus to a file
-ptx_opcode_latency_int         4,13,4,5,145 # Opcode latencies for integers <ADD,MAX,MUL,MAD,DIV>Default 1,1,19,25,145
-ptx_opcode_latency_fp          4,13,4,5,39 # Opcode latencies for single precision floating points <ADD,MAX,MUL,MAD,DIV>Default 1,1,1,1,30
-ptx_opcode_latency_dp         8,19,8,8,330 # Opcode latencies for double precision floating points <ADD,MAX,MUL,MAD,DIV>Default 8,8,8,8,335
-ptx_opcode_initiation_int            1,2,2,1,8 # Opcode initiation intervals for integers <ADD,MAX,MUL,MAD,DIV>Default 1,1,4,4,32
-ptx_opcode_initiation_fp            1,2,1,1,4 # Opcode initiation intervals for single precision floating points <ADD,MAX,MUL,MAD,DIV>Default 1,1,1,1,5
-ptx_opcode_initiation_dp         8,16,8,8,130 # Opcode initiation intervals for double precision floating points <ADD,MAX,MUL,MAD,DIV>Default 8,8,8,8,130
DRAM Timing Options:
nbk                                    16 # number of banks
CCD                                     2 # column to column delay
RRD                                     6 # minimal delay between activation of rows in different banks
RCD                                    12 # row to column delay
RAS                                    28 # time needed to activate row
RP                                     12 # time needed to precharge (deactivate) row
RC                                     40 # row cycle time
CDLR                                    5 # switching from write to read (changes tWTR)
WR                                     12 # last data-in to row precharge
CL                                     12 # CAS latency
WL                                      4 # Write latency
nbkgrp                                  4 # number of bank groups
CCDL                                    3 # column to column delay between accesses to different bank groups
RTPL                                    2 # read to precharge delay between accesses to different bank groups
Total number of memory sub partition = 12
addr_dec_mask[CHIP]  = 0000000000000000 	high:64 low:0
addr_dec_mask[BK]    = 000000000000e100 	high:16 low:8
addr_dec_mask[ROW]   = 000000000fff0000 	high:28 low:16
addr_dec_mask[COL]   = 0000000000001eff 	high:13 low:0
addr_dec_mask[BURST] = 000000000000003f 	high:6 low:0
sub_partition_id_mask = 0000000000000100
GPGPU-Sim uArch: clock freqs: 700000000.000000:700000000.000000:700000000.000000:924000000.000000
GPGPU-Sim uArch: clock periods: 0.00000000142857142857:0.00000000142857142857:0.00000000142857142857:0.00000000108225108225
*** Initializing Memory Statistics ***
GPGPU-Sim uArch: interconnect node map (shaderID+MemID to icntID)
GPGPU-Sim uArch: Memory nodes ID start from index: 15
GPGPU-Sim uArch:    0   1   2   3   4
GPGPU-Sim uArch:    5   6   7   8   9
GPGPU-Sim uArch:   10  11  12  13  14
GPGPU-Sim uArch:   15  16  17  18  19
GPGPU-Sim uArch:   20  21  22  23  24
GPGPU-Sim uArch:   25  26
GPGPU-Sim uArch: interconnect node reverse map (icntID to shaderID+MemID)
GPGPU-Sim uArch: Memory nodes start from ID: 15
GPGPU-Sim uArch:    0   1   2   3   4
GPGPU-Sim uArch:    5   6   7   8   9
GPGPU-Sim uArch:   10  11  12  13  14
GPGPU-Sim uArch:   15  16  17  18  19
GPGPU-Sim uArch:   20  21  22  23  24
GPGPU-Sim uArch:   25  26
80b50253bde6f17c5205a361ba46a5eb  /sciclone/data10/hwang07/adwait/applications/benchmarks/CUDA/FWT/gpgpu_ptx_sim__FWT
GPGPU-Sim uArch: performance model initialization complete.
GPGPU-Sim PTX: __cudaRegisterFatBinary, fat_cubin_handle = 1, filename=fastWalshTransform.cu
self exe links to: /sciclone/data10/hwang07/adwait/applications/benchmarks/CUDA/FWT/gpgpu_ptx_sim__FWT
Running md5sum using "md5sum /sciclone/data10/hwang07/adwait/applications/benchmarks/CUDA/FWT/gpgpu_ptx_sim__FWT "
Parsing file _cuobjdump_complete_output_S5Cwya
######### cuobjdump parser ########
## Adding new section ELF
Adding arch: sm_20
Adding identifier: fastWalshTransform.cu
## Adding new section PTX
Adding ptx filename: _cuobjdump_1.ptx
Adding arch: sm_20
Adding identifier: fastWalshTransform.cu
Done parsing!!!
GPGPU-Sim PTX: __cudaRegisterFunction _Z14modulateKernelPfS_i : hostFun 0x0x405645, fat_cubin_handle = 1
GPGPU-Sim PTX: allocating shared region for "s_data" from 0x0 to 0x0 (shared memory space)
GPGPU-Sim PTX: instruction assembly for function '_Z15fwtBatch1KernelPfS_i'...   done.
GPGPU-Sim PTX: finding reconvergence points for '_Z15fwtBatch1KernelPfS_i'...
GPGPU-Sim PTX: Finding dominators for '_Z15fwtBatch1KernelPfS_i'...
GPGPU-Sim PTX: Finding immediate dominators for '_Z15fwtBatch1KernelPfS_i'...
GPGPU-Sim PTX: Finding postdominators for '_Z15fwtBatch1KernelPfS_i'...
GPGPU-Sim PTX: Finding immediate postdominators for '_Z15fwtBatch1KernelPfS_i'...
GPGPU-Sim PTX: pre-decoding instructions for '_Z15fwtBatch1KernelPfS_i'...
GPGPU-Sim PTX: reconvergence points for _Z15fwtBatch1KernelPfS_i...
GPGPU-Sim PTX:  1 (potential) branch divergence @  PC=0x028 (_1.ptx:69) @!%p1 bra $Lt_0_5122;
GPGPU-Sim PTX:    immediate post dominator      @  PC=0x0d8 (_1.ptx:95) mov.u64 %rd1, s_data;
GPGPU-Sim PTX:  2 (potential) branch divergence @  PC=0x0d0 (_1.ptx:93) @%p2 bra $Lt_0_5634;
GPGPU-Sim PTX:    immediate post dominator      @  PC=0x0d8 (_1.ptx:95) mov.u64 %rd1, s_data;
GPGPU-Sim PTX:  3 (potential) branch divergence @  PC=0x100 (_1.ptx:101) @%p3 bra $Lt_0_6146;
GPGPU-Sim PTX:    immediate post dominator      @  PC=0x250 (_1.ptx:155) and.b32 %r20, %r3, 1;
GPGPU-Sim PTX:  4 (potential) branch divergence @  PC=0x248 (_1.ptx:153) @%p4 bra $Lt_0_6658;
GPGPU-Sim PTX:    immediate post dominator      @  PC=0x250 (_1.ptx:155) and.b32 %r20, %r3, 1;
GPGPU-Sim PTX:  5 (potential) branch divergence @  PC=0x268 (_1.ptx:158) @%p5 bra $Lt_0_7170;
GPGPU-Sim PTX:    immediate post dominator      @  PC=0x328 (_1.ptx:193) bar.sync 0;
GPGPU-Sim PTX:  6 (potential) branch divergence @  PC=0x2b0 (_1.ptx:169) @%p6 bra $Lt_0_7682;
GPGPU-Sim PTX:    immediate post dominator      @  PC=0x328 (_1.ptx:193) bar.sync 0;
GPGPU-Sim PTX:  7 (potential) branch divergence @  PC=0x320 (_1.ptx:189) @%p7 bra $Lt_0_8194;
GPGPU-Sim PTX:    immediate post dominator      @  PC=0x328 (_1.ptx:193) bar.sync 0;
GPGPU-Sim PTX:  8 (potential) branch divergence @  PC=0x338 (_1.ptx:196) @!%p1 bra $Lt_0_8706;
GPGPU-Sim PTX:    immediate post dominator      @  PC=0x3e0 (_1.ptx:222) exit;
GPGPU-Sim PTX:  9 (potential) branch divergence @  PC=0x3d8 (_1.ptx:219) @%p8 bra $Lt_0_9218;
GPGPU-Sim PTX:    immediate post dominator      @  PC=0x3e0 (_1.ptx:222) exit;
GPGPU-Sim PTX: ... end of reconvergence points for _Z15fwtBatch1KernelPfS_i
GPGPU-Sim PTX: ... done pre-decoding instructions for '_Z15fwtBatch1KernelPfS_i'.
GPGPU-Sim PTX: instruction assembly for function '_Z15fwtBatch2KernelPfS_i'...   done.
GPGPU-Sim PTX: finding reconvergence points for '_Z15fwtBatch2KernelPfS_i'...
GPGPU-Sim PTX: Finding dominators for '_Z15fwtBatch2KernelPfS_i'...
GPGPU-Sim PTX: Finding immediate dominators for '_Z15fwtBatch2KernelPfS_i'...
GPGPU-Sim PTX: Finding postdominators for '_Z15fwtBatch2KernelPfS_i'...
GPGPU-Sim PTX: Finding immediate postdominators for '_Z15fwtBatch2KernelPfS_i'...
GPGPU-Sim PTX: pre-decoding instructions for '_Z15fwtBatch2KernelPfS_i'...
GPGPU-Sim PTX: reconvergence points for _Z15fwtBatch2KernelPfS_i...
GPGPU-Sim PTX: ... end of reconvergence points for _Z15fwtBatch2KernelPfS_i
GPGPU-Sim PTX: ... done pre-decoding instructions for '_Z15fwtBatch2KernelPfS_i'.
GPGPU-Sim PTX: instruction assembly for function '_Z14modulateKernelPfS_i'...   done.
GPGPU-Sim PTX: finding reconvergence points for '_Z14modulateKernelPfS_i'...
GPGPU-Sim PTX: Finding dominators for '_Z14modulateKernelPfS_i'...
GPGPU-Sim PTX: Finding immediate dominators for '_Z14modulateKernelPfS_i'...
GPGPU-Sim PTX: Finding postdominators for '_Z14modulateKernelPfS_i'...
GPGPU-Sim PTX: Finding immediate postdominators for '_Z14modulateKernelPfS_i'...
GPGPU-Sim PTX: pre-decoding instructions for '_Z14modulateKernelPfS_i'...
GPGPU-Sim PTX: reconvergence points for _Z14modulateKernelPfS_i...
GPGPU-Sim PTX:  1 (potential) branch divergence @  PC=0x5f8 (_1.ptx:326) @%p1 bra $Lt_2_1282;
GPGPU-Sim PTX:    immediate post dominator      @  PC=0x6b0 (_1.ptx:354) exit;
GPGPU-Sim PTX:  2 (potential) branch divergence @  PC=0x6a8 (_1.ptx:351) @%p2 bra $Lt_2_1794;
GPGPU-Sim PTX:    immediate post dominator      @  PC=0x6b0 (_1.ptx:354) exit;
GPGPU-Sim PTX: ... end of reconvergence points for _Z14modulateKernelPfS_i
GPGPU-Sim PTX: ... done pre-decoding instructions for '_Z14modulateKernelPfS_i'.
GPGPU-Sim PTX: finished parsing EMBEDDED .ptx file _1.ptx
Adding _cuobjdump_1.ptx with cubin handle 1
GPGPU-Sim PTX: extracting embedded .ptx to temporary file "_ptx_Xpx5hp"
Running: cat _ptx_Xpx5hp | sed 's/.version 1.5/.version 1.4/' | sed 's/, texmode_independent//' | sed 's/\(\.extern \.const\[1\] .b8 \w\+\)\[\]/\1\[1\]/' | sed 's/const\[.\]/const\[0\]/g' > _ptx2_TTKnAO
GPGPU-Sim PTX: generating ptxinfo using "$CUDA_INSTALL_PATH/bin/ptxas --gpu-name=sm_20 -v _ptx2_TTKnAO --output-file  /dev/null 2> _ptx_Xpx5hpinfo"
GPGPU-Sim PTX: Kernel '_Z14modulateKernelPfS_i' : regs=14, lmem=0, smem=0, cmem=56
GPGPU-Sim PTX: Kernel '_Z15fwtBatch2KernelPfS_i' : regs=21, lmem=0, smem=0, cmem=52
GPGPU-Sim PTX: Kernel '_Z15fwtBatch1KernelPfS_i' : regs=14, lmem=0, smem=0, cmem=52
GPGPU-Sim PTX: removing ptxinfo using "rm -f _ptx_Xpx5hp _ptx2_TTKnAO _ptx_Xpx5hpinfo"
GPGPU-Sim PTX: loading globals with explicit initializers... 
GPGPU-Sim PTX: finished loading globals (0 bytes total).
GPGPU-Sim PTX: loading constants with explicit initializers...  done.
GPGPU-Sim PTX: __cudaRegisterFunction _Z15fwtBatch2KernelPfS_i : hostFun 0x0x405586, fat_cubin_handle = 1
GPGPU-Sim PTX: __cudaRegisterFunction _Z15fwtBatch1KernelPfS_i : hostFun 0x0x4054c7, fat_cubin_handle = 1
Initializing data...
...allocating CPU memory
...allocating GPU memory
...generating data
Data length: 8388608; kernel length: 128
Running GPU dyadic convolution using Fast Walsh Transform...
GPGPU-Sim: synchronize waiting for inactive GPU simulation
GPGPU-Sim API: Stream Manager State
GPGPU-Sim: detected inactive GPU simulation thread

GPGPU-Sim PTX: cudaLaunch for 0x0x405586 (mode=performance simulation) on stream 0
GPGPU-Sim PTX: pushing kernel '_Z15fwtBatch2KernelPfS_i' to stream 0, gridDim= (8192,1,1) blockDim = (256,1,1) 
kernel '_Z15fwtBatch2KernelPfS_i' transfer to GPU hardware scheduler
GPGPU-Sim uArch: Shader 1 bind to kernel 1 '_Z15fwtBatch2KernelPfS_i'
GPGPU-Sim uArch: CTA/core = 5, limited by: regs
GPGPU-Sim uArch: core:  1, cta: 0 initialized @(1,0)
GPGPU-Sim uArch: Shader 2 bind to kernel 1 '_Z15fwtBatch2KernelPfS_i'
GPGPU-Sim uArch: core:  2, cta: 0 initialized @(1,0)
GPGPU-Sim uArch: Shader 3 bind to kernel 1 '_Z15fwtBatch2KernelPfS_i'
GPGPU-Sim uArch: core:  3, cta: 0 initialized @(1,0)
GPGPU-Sim uArch: Shader 4 bind to kernel 1 '_Z15fwtBatch2KernelPfS_i'
GPGPU-Sim uArch: core:  4, cta: 0 initialized @(1,0)
GPGPU-Sim uArch: Shader 5 bind to kernel 1 '_Z15fwtBatch2KernelPfS_i'
GPGPU-Sim uArch: core:  5, cta: 0 initialized @(1,0)
GPGPU-Sim uArch: Shader 6 bind to kernel 1 '_Z15fwtBatch2KernelPfS_i'
GPGPU-Sim uArch: core:  6, cta: 0 initialized @(1,0)
GPGPU-Sim uArch: Shader 7 bind to kernel 1 '_Z15fwtBatch2KernelPfS_i'
GPGPU-Sim uArch: core:  7, cta: 0 initialized @(1,0)
GPGPU-Sim uArch: Shader 8 bind to kernel 1 '_Z15fwtBatch2KernelPfS_i'
GPGPU-Sim uArch: core:  8, cta: 0 initialized @(1,0)
GPGPU-Sim uArch: Shader 9 bind to kernel 1 '_Z15fwtBatch2KernelPfS_i'
GPGPU-Sim uArch: core:  9, cta: 0 initialized @(1,0)
GPGPU-Sim uArch: Shader 10 bind to kernel 1 '_Z15fwtBatch2KernelPfS_i'
GPGPU-Sim uArch: core: 10, cta: 0 initialized @(1,0)
GPGPU-Sim uArch: Shader 11 bind to kernel 1 '_Z15fwtBatch2KernelPfS_i'
GPGPU-Sim uArch: core: 11, cta: 0 initialized @(1,0)
GPGPU-Sim uArch: Shader 12 bind to kernel 1 '_Z15fwtBatch2KernelPfS_i'
GPGPU-Sim uArch: core: 12, cta: 0 initialized @(1,0)
GPGPU-Sim uArch: Shader 13 bind to kernel 1 '_Z15fwtBatch2KernelPfS_i'
GPGPU-Sim uArch: core: 13, cta: 0 initialized @(1,0)
GPGPU-Sim uArch: Shader 14 bind to kernel 1 '_Z15fwtBatch2KernelPfS_i'
GPGPU-Sim uArch: core: 14, cta: 0 initialized @(1,0)
GPGPU-Sim uArch: Shader 0 bind to kernel 1 '_Z15fwtBatch2KernelPfS_i'
GPGPU-Sim uArch: core:  0, cta: 0 initialized @(1,0)
GPGPU-Sim uArch: core:  1, cta: 1 initialized @(2,0)
GPGPU-Sim uArch: core:  2, cta: 1 initialized @(2,0)
GPGPU-Sim uArch: core:  3, cta: 1 initialized @(2,0)
GPGPU-Sim uArch: core:  4, cta: 1 initialized @(2,0)
GPGPU-Sim uArch: core:  5, cta: 1 initialized @(2,0)
GPGPU-Sim uArch: core:  6, cta: 1 initialized @(2,0)
GPGPU-Sim uArch: core:  7, cta: 1 initialized @(2,0)
GPGPU-Sim uArch: core:  8, cta: 1 initialized @(2,0)
GPGPU-Sim uArch: core:  9, cta: 1 initialized @(2,0)
GPGPU-Sim uArch: core: 10, cta: 1 initialized @(2,0)
GPGPU-Sim uArch: core: 11, cta: 1 initialized @(2,0)
GPGPU-Sim uArch: core: 12, cta: 1 initialized @(2,0)
GPGPU-Sim uArch: core: 13, cta: 1 initialized @(2,0)
GPGPU-Sim uArch: core: 14, cta: 1 initialized @(2,0)
GPGPU-Sim uArch: core:  0, cta: 1 initialized @(2,0)
GPGPU-Sim uArch: core:  1, cta: 2 initialized @(3,0)
GPGPU-Sim uArch: core:  2, cta: 2 initialized @(3,0)
GPGPU-Sim uArch: core:  3, cta: 2 initialized @(3,0)
GPGPU-Sim uArch: core:  4, cta: 2 initialized @(3,0)
GPGPU-Sim uArch: core:  5, cta: 2 initialized @(3,0)
GPGPU-Sim uArch: core:  6, cta: 2 initialized @(3,0)
GPGPU-Sim uArch: core:  7, cta: 2 initialized @(3,0)
GPGPU-Sim uArch: core:  8, cta: 2 initialized @(3,0)
GPGPU-Sim uArch: core:  9, cta: 2 initialized @(3,0)
GPGPU-Sim uArch: core: 10, cta: 2 initialized @(3,0)
GPGPU-Sim uArch: core: 11, cta: 2 initialized @(3,0)
GPGPU-Sim uArch: core: 12, cta: 2 initialized @(3,0)
GPGPU-Sim uArch: core: 13, cta: 2 initialized @(3,0)
GPGPU-Sim uArch: core: 14, cta: 2 initialized @(3,0)
GPGPU-Sim uArch: core:  0, cta: 2 initialized @(3,0)
GPGPU-Sim uArch: core:  1, cta: 3 initialized @(4,0)
GPGPU-Sim uArch: core:  2, cta: 3 initialized @(4,0)
GPGPU-Sim uArch: core:  3, cta: 3 initialized @(4,0)
GPGPU-Sim uArch: core:  4, cta: 3 initialized @(4,0)
GPGPU-Sim uArch: core:  5, cta: 3 initialized @(4,0)
GPGPU-Sim uArch: core:  6, cta: 3 initialized @(4,0)
GPGPU-Sim uArch: core:  7, cta: 3 initialized @(4,0)
GPGPU-Sim uArch: core:  8, cta: 3 initialized @(4,0)
GPGPU-Sim uArch: core:  9, cta: 3 initialized @(4,0)
GPGPU-Sim uArch: core: 10, cta: 3 initialized @(4,0)
GPGPU-Sim uArch: core: 11, cta: 3 initialized @(4,0)
GPGPU-Sim uArch: core: 12, cta: 3 initialized @(4,0)
GPGPU-Sim uArch: core: 13, cta: 3 initialized @(4,0)
GPGPU-Sim uArch: core: 14, cta: 3 initialized @(4,0)
GPGPU-Sim uArch: core:  0, cta: 3 initialized @(4,0)
GPGPU-Sim uArch: core:  1, cta: 4 initialized @(5,0)
GPGPU-Sim uArch: core:  2, cta: 4 initialized @(5,0)
GPGPU-Sim uArch: core:  3, cta: 4 initialized @(5,0)
GPGPU-Sim uArch: core:  4, cta: 4 initialized @(5,0)
GPGPU-Sim uArch: core:  5, cta: 4 initialized @(5,0)
GPGPU-Sim uArch: core:  6, cta: 4 initialized @(5,0)
GPGPU-Sim uArch: core:  7, cta: 4 initialized @(5,0)
GPGPU-Sim uArch: core:  8, cta: 4 initialized @(5,0)
GPGPU-Sim uArch: core:  9, cta: 4 initialized @(5,0)
GPGPU-Sim uArch: core: 10, cta: 4 initialized @(5,0)
GPGPU-Sim uArch: core: 11, cta: 4 initialized @(5,0)
GPGPU-Sim uArch: core: 12, cta: 4 initialized @(5,0)
GPGPU-Sim uArch: core: 13, cta: 4 initialized @(5,0)
GPGPU-Sim uArch: core: 14, cta: 4 initialized @(5,0)
GPGPU-Sim uArch: core:  0, cta: 4 initialized @(5,0)
GPGPU-Sim uArch: cycles simulated: 500  inst.: 5760 (ipc=11.5) sim_rate=576 (inst/sec) elapsed = 0:0:00:10 / Tue Mar 22 12:44:16 2016
GPGPU-Sim uArch: cycles simulated: 1000  inst.: 47712 (ipc=47.7) sim_rate=3976 (inst/sec) elapsed = 0:0:00:12 / Tue Mar 22 12:44:18 2016
GPGPU-Sim PTX: 100000 instructions simulated : ctaid=(2,0,0) tid=(63,0,0)
GPGPU-Sim uArch: cycles simulated: 2500  inst.: 181120 (ipc=72.4) sim_rate=13932 (inst/sec) elapsed = 0:0:00:13 / Tue Mar 22 12:44:19 2016
GPGPU-Sim PTX: 200000 instructions simulated : ctaid=(14,0,0) tid=(223,0,0)
GPGPU-Sim uArch: Shader 5 finished CTA #0 (2859,0), 4 CTAs running
GPGPU-Sim uArch: core:  5, cta: 0 initialized @(2860,0)
GPGPU-Sim uArch: Shader 3 finished CTA #0 (2896,0), 4 CTAs running
GPGPU-Sim uArch: core:  3, cta: 0 initialized @(2897,0)
GPGPU-Sim uArch: Shader 2 finished CTA #0 (2937,0), 4 CTAs running
GPGPU-Sim uArch: core:  2, cta: 0 initialized @(2938,0)
GPGPU-Sim uArch: Shader 4 finished CTA #0 (2962,0), 4 CTAs running
GPGPU-Sim uArch: core:  4, cta: 0 initialized @(2963,0)
GPGPU-Sim uArch: Shader 8 finished CTA #0 (2991,0), 4 CTAs running
GPGPU-Sim uArch: core:  8, cta: 0 initialized @(2992,0)
GPGPU-Sim uArch: Shader 6 finished CTA #0 (2998,0), 4 CTAs running
GPGPU-Sim uArch: core:  6, cta: 0 initialized @(2999,0)
GPGPU-Sim uArch: Shader 1 finished CTA #0 (3004,0), 4 CTAs running
GPGPU-Sim uArch: Shader 9 finished CTA #0 (3004,0), 4 CTAs running
GPGPU-Sim uArch: core:  9, cta: 0 initialized @(3005,0)
GPGPU-Sim uArch: core:  1, cta: 0 initialized @(3005,0)
GPGPU-Sim uArch: Shader 0 finished CTA #0 (3022,0), 4 CTAs running
GPGPU-Sim uArch: Shader 11 finished CTA #0 (3022,0), 4 CTAs running
GPGPU-Sim uArch: core: 11, cta: 0 initialized @(3023,0)
GPGPU-Sim uArch: core:  0, cta: 0 initialized @(3023,0)
GPGPU-Sim uArch: Shader 7 finished CTA #0 (3034,0), 4 CTAs running
GPGPU-Sim uArch: core:  7, cta: 0 initialized @(3035,0)
GPGPU-Sim uArch: Shader 10 finished CTA #0 (3040,0), 4 CTAs running
GPGPU-Sim uArch: Shader 12 finished CTA #0 (3040,0), 4 CTAs running
GPGPU-Sim uArch: core: 10, cta: 0 initialized @(3041,0)
GPGPU-Sim uArch: core: 12, cta: 0 initialized @(3041,0)
GPGPU-Sim uArch: Shader 13 finished CTA #0 (3046,0), 4 CTAs running
GPGPU-Sim uArch: core: 13, cta: 0 initialized @(3047,0)
GPGPU-Sim uArch: Shader 14 finished CTA #0 (3058,0), 4 CTAs running
GPGPU-Sim uArch: core: 14, cta: 0 initialized @(3059,0)
GPGPU-Sim PTX: 300000 instructions simulated : ctaid=(17,0,0) tid=(31,0,0)
GPGPU-Sim PTX: 400000 instructions simulated : ctaid=(25,0,0) tid=(255,0,0)
GPGPU-Sim uArch: Shader 5 finished CTA #1 (4122,0), 4 CTAs running
GPGPU-Sim uArch: core:  5, cta: 1 initialized @(4123,0)
GPGPU-Sim uArch: Shader 3 finished CTA #1 (4134,0), 4 CTAs running
GPGPU-Sim uArch: core:  3, cta: 1 initialized @(4135,0)
GPGPU-Sim uArch: Shader 4 finished CTA #1 (4142,0), 4 CTAs running
GPGPU-Sim uArch: core:  4, cta: 1 initialized @(4143,0)
GPGPU-Sim uArch: Shader 2 finished CTA #1 (4165,0), 4 CTAs running
GPGPU-Sim uArch: core:  2, cta: 1 initialized @(4166,0)
GPGPU-Sim uArch: Shader 6 finished CTA #1 (4181,0), 4 CTAs running
GPGPU-Sim uArch: core:  6, cta: 1 initialized @(4182,0)
GPGPU-Sim PTX: 500000 instructions simulated : ctaid=(37,0,0) tid=(95,0,0)
GPGPU-Sim uArch: Shader 12 finished CTA #1 (4283,0), 4 CTAs running
GPGPU-Sim uArch: core: 12, cta: 1 initialized @(4284,0)
GPGPU-Sim uArch: Shader 8 finished CTA #1 (4290,0), 4 CTAs running
GPGPU-Sim uArch: core:  8, cta: 1 initialized @(4291,0)
GPGPU-Sim uArch: Shader 0 finished CTA #1 (4295,0), 4 CTAs running
GPGPU-Sim uArch: core:  0, cta: 1 initialized @(4296,0)
GPGPU-Sim uArch: Shader 1 finished CTA #1 (4355,0), 4 CTAs running
GPGPU-Sim uArch: core:  1, cta: 1 initialized @(4356,0)
GPGPU-Sim uArch: Shader 10 finished CTA #1 (4367,0), 4 CTAs running
GPGPU-Sim uArch: core: 10, cta: 1 initialized @(4368,0)
GPGPU-Sim uArch: Shader 7 finished CTA #1 (4373,0), 4 CTAs running
GPGPU-Sim uArch: Shader 11 finished CTA #1 (4373,0), 4 CTAs running
GPGPU-Sim uArch: core: 11, cta: 1 initialized @(4374,0)
GPGPU-Sim uArch: core:  7, cta: 1 initialized @(4374,0)
GPGPU-Sim uArch: Shader 9 finished CTA #1 (4379,0), 4 CTAs running
GPGPU-Sim uArch: core:  9, cta: 1 initialized @(4380,0)
GPGPU-Sim uArch: Shader 14 finished CTA #1 (4385,0), 4 CTAs running
GPGPU-Sim uArch: core: 14, cta: 1 initialized @(4386,0)
GPGPU-Sim uArch: Shader 13 finished CTA #1 (4403,0), 4 CTAs running
GPGPU-Sim uArch: core: 13, cta: 1 initialized @(4404,0)
GPGPU-Sim uArch: cycles simulated: 4500  inst.: 532320 (ipc=118.3) sim_rate=38022 (inst/sec) elapsed = 0:0:00:14 / Tue Mar 22 12:44:20 2016
GPGPU-Sim PTX: 600000 instructions simulated : ctaid=(37,0,0) tid=(255,0,0)
GPGPU-Sim uArch: Shader 4 finished CTA #2 (5280,0), 4 CTAs running
GPGPU-Sim uArch: core:  4, cta: 2 initialized @(5281,0)
GPGPU-Sim uArch: Shader 5 finished CTA #2 (5324,0), 4 CTAs running
GPGPU-Sim uArch: core:  5, cta: 2 initialized @(5325,0)
GPGPU-Sim uArch: Shader 3 finished CTA #2 (5340,0), 4 CTAs running
GPGPU-Sim uArch: core:  3, cta: 2 initialized @(5341,0)
GPGPU-Sim uArch: Shader 6 finished CTA #2 (5348,0), 4 CTAs running
GPGPU-Sim uArch: core:  6, cta: 2 initialized @(5349,0)
GPGPU-Sim uArch: Shader 2 finished CTA #2 (5351,0), 4 CTAs running
GPGPU-Sim uArch: core:  2, cta: 2 initialized @(5352,0)
GPGPU-Sim PTX: 700000 instructions simulated : ctaid=(42,0,0) tid=(223,0,0)
GPGPU-Sim uArch: Shader 8 finished CTA #2 (5455,0), 4 CTAs running
GPGPU-Sim uArch: core:  8, cta: 2 initialized @(5456,0)
GPGPU-Sim uArch: Shader 11 finished CTA #2 (5488,0), 4 CTAs running
GPGPU-Sim uArch: core: 11, cta: 2 initialized @(5489,0)
GPGPU-Sim uArch: Shader 0 finished CTA #2 (5542,0), 4 CTAs running
GPGPU-Sim uArch: core:  0, cta: 2 initialized @(5543,0)
GPGPU-Sim uArch: Shader 1 finished CTA #2 (5578,0), 4 CTAs running
GPGPU-Sim uArch: Shader 12 finished CTA #2 (5578,0), 4 CTAs running
GPGPU-Sim uArch: Shader 14 finished CTA #2 (5578,0), 4 CTAs running
GPGPU-Sim uArch: core:  1, cta: 2 initialized @(5579,0)
GPGPU-Sim uArch: core: 12, cta: 2 initialized @(5579,0)
GPGPU-Sim uArch: core: 14, cta: 2 initialized @(5579,0)
GPGPU-Sim uArch: Shader 7 finished CTA #2 (5596,0), 4 CTAs running
GPGPU-Sim uArch: core:  7, cta: 2 initialized @(5597,0)
GPGPU-Sim uArch: Shader 9 finished CTA #2 (5614,0), 4 CTAs running
GPGPU-Sim uArch: core:  9, cta: 2 initialized @(5615,0)
GPGPU-Sim uArch: Shader 10 finished CTA #2 (5626,0), 4 CTAs running
GPGPU-Sim uArch: core: 10, cta: 2 initialized @(5627,0)
GPGPU-Sim uArch: Shader 13 finished CTA #2 (5632,0), 4 CTAs running
GPGPU-Sim uArch: core: 13, cta: 2 initialized @(5633,0)
GPGPU-Sim PTX: 800000 instructions simulated : ctaid=(52,0,0) tid=(255,0,0)
GPGPU-Sim uArch: cycles simulated: 6000  inst.: 818816 (ipc=136.5) sim_rate=54587 (inst/sec) elapsed = 0:0:00:15 / Tue Mar 22 12:44:21 2016
GPGPU-Sim uArch: Shader 3 finished CTA #3 (6429,0), 4 CTAs running
GPGPU-Sim uArch: core:  3, cta: 3 initialized @(6430,0)
GPGPU-Sim uArch: Shader 4 finished CTA #3 (6439,0), 4 CTAs running
GPGPU-Sim uArch: core:  4, cta: 3 initialized @(6440,0)
GPGPU-Sim uArch: Shader 5 finished CTA #3 (6449,0), 4 CTAs running
GPGPU-Sim uArch: core:  5, cta: 3 initialized @(6450,0)
GPGPU-Sim PTX: 900000 instructions simulated : ctaid=(56,0,0) tid=(191,0,0)
GPGPU-Sim uArch: Shader 2 finished CTA #3 (6529,0), 4 CTAs running
GPGPU-Sim uArch: core:  2, cta: 3 initialized @(6530,0)
GPGPU-Sim uArch: Shader 6 finished CTA #3 (6537,0), 4 CTAs running
GPGPU-Sim uArch: core:  6, cta: 3 initialized @(6538,0)
GPGPU-Sim uArch: Shader 8 finished CTA #3 (6613,0), 4 CTAs running
GPGPU-Sim uArch: core:  8, cta: 3 initialized @(6614,0)
GPGPU-Sim uArch: Shader 11 finished CTA #3 (6700,0), 4 CTAs running
GPGPU-Sim uArch: core: 11, cta: 3 initialized @(6701,0)
GPGPU-Sim uArch: Shader 0 finished CTA #3 (6757,0), 4 CTAs running
GPGPU-Sim uArch: core:  0, cta: 3 initialized @(6758,0)
GPGPU-Sim uArch: Shader 1 finished CTA #3 (6769,0), 4 CTAs running
GPGPU-Sim uArch: core:  1, cta: 3 initialized @(6770,0)
GPGPU-Sim uArch: Shader 14 finished CTA #3 (6793,0), 4 CTAs running
GPGPU-Sim uArch: core: 14, cta: 3 initialized @(6794,0)
GPGPU-Sim uArch: Shader 12 finished CTA #3 (6805,0), 4 CTAs running
GPGPU-Sim uArch: core: 12, cta: 3 initialized @(6806,0)
GPGPU-Sim uArch: Shader 9 finished CTA #3 (6823,0), 4 CTAs running
GPGPU-Sim uArch: core:  9, cta: 3 initialized @(6824,0)
GPGPU-Sim uArch: Shader 13 finished CTA #3 (6835,0), 4 CTAs running
GPGPU-Sim uArch: core: 13, cta: 3 initialized @(6836,0)
GPGPU-Sim uArch: Shader 7 finished CTA #3 (6847,0), 4 CTAs running
GPGPU-Sim uArch: core:  7, cta: 3 initialized @(6848,0)
GPGPU-Sim uArch: Shader 10 finished CTA #3 (6859,0), 4 CTAs running
GPGPU-Sim uArch: core: 10, cta: 3 initialized @(6860,0)
GPGPU-Sim PTX: 1000000 instructions simulated : ctaid=(65,0,0) tid=(191,0,0)
GPGPU-Sim PTX: 1100000 instructions simulated : ctaid=(76,0,0) tid=(127,0,0)
GPGPU-Sim uArch: cycles simulated: 7500  inst.: 1102560 (ipc=147.0) sim_rate=68910 (inst/sec) elapsed = 0:0:00:16 / Tue Mar 22 12:44:22 2016
GPGPU-Sim uArch: Shader 5 finished CTA #4 (7540,0), 4 CTAs running
GPGPU-Sim uArch: core:  5, cta: 4 initialized @(7541,0)
GPGPU-Sim uArch: Shader 4 finished CTA #4 (7560,0), 4 CTAs running
GPGPU-Sim uArch: core:  4, cta: 4 initialized @(7561,0)
GPGPU-Sim uArch: Shader 3 finished CTA #4 (7566,0), 4 CTAs running
GPGPU-Sim uArch: core:  3, cta: 4 initialized @(7567,0)
GPGPU-Sim uArch: Shader 6 finished CTA #4 (7640,0), 4 CTAs running
GPGPU-Sim uArch: core:  6, cta: 4 initialized @(7641,0)
GPGPU-Sim uArch: Shader 2 finished CTA #4 (7648,0), 4 CTAs running
GPGPU-Sim uArch: core:  2, cta: 4 initialized @(7649,0)
GPGPU-Sim uArch: Shader 8 finished CTA #4 (7802,0), 4 CTAs running
GPGPU-Sim uArch: core:  8, cta: 4 initialized @(7803,0)
GPGPU-Sim uArch: Shader 0 finished CTA #4 (7944,0), 4 CTAs running
GPGPU-Sim uArch: core:  0, cta: 4 initialized @(7945,0)
GPGPU-Sim uArch: Shader 11 finished CTA #4 (7968,0), 4 CTAs running
GPGPU-Sim uArch: core: 11, cta: 4 initialized @(7969,0)
GPGPU-Sim PTX: 1200000 instructions simulated : ctaid=(80,0,0) tid=(63,0,0)
GPGPU-Sim uArch: Shader 9 finished CTA #4 (8019,0), 4 CTAs running
GPGPU-Sim uArch: core:  9, cta: 4 initialized @(8020,0)
GPGPU-Sim uArch: Shader 12 finished CTA #4 (8031,0), 4 CTAs running
GPGPU-Sim uArch: core: 12, cta: 4 initialized @(8032,0)
GPGPU-Sim uArch: Shader 1 finished CTA #4 (8038,0), 4 CTAs running
GPGPU-Sim uArch: core:  1, cta: 4 initialized @(8039,0)
GPGPU-Sim uArch: Shader 7 finished CTA #4 (8043,0), 4 CTAs running
GPGPU-Sim uArch: core:  7, cta: 4 initialized @(8044,0)
GPGPU-Sim uArch: Shader 10 finished CTA #4 (8061,0), 4 CTAs running
GPGPU-Sim uArch: Shader 14 finished CTA #4 (8061,0), 4 CTAs running
GPGPU-Sim uArch: core: 10, cta: 4 initialized @(8062,0)
GPGPU-Sim uArch: core: 14, cta: 4 initialized @(8062,0)
GPGPU-Sim uArch: Shader 13 finished CTA #4 (8093,0), 4 CTAs running
GPGPU-Sim uArch: core: 13, cta: 4 initialized @(8094,0)
GPGPU-Sim PTX: 1300000 instructions simulated : ctaid=(84,0,0) tid=(223,0,0)
GPGPU-Sim uArch: Shader 5 finished CTA #0 (8679,0), 4 CTAs running
GPGPU-Sim uArch: core:  5, cta: 0 initialized @(8680,0)
GPGPU-Sim uArch: Shader 3 finished CTA #0 (8710,0), 4 CTAs running
GPGPU-Sim uArch: core:  3, cta: 0 initialized @(8711,0)
GPGPU-Sim uArch: Shader 4 finished CTA #0 (8712,0), 4 CTAs running
GPGPU-Sim uArch: core:  4, cta: 0 initialized @(8713,0)
GPGPU-Sim uArch: Shader 6 finished CTA #0 (8778,0), 4 CTAs running
GPGPU-Sim uArch: core:  6, cta: 0 initialized @(8779,0)
GPGPU-Sim uArch: Shader 2 finished CTA #0 (8797,0), 4 CTAs running
GPGPU-Sim uArch: core:  2, cta: 0 initialized @(8798,0)
GPGPU-Sim uArch: Shader 8 finished CTA #0 (8937,0), 4 CTAs running
GPGPU-Sim uArch: core:  8, cta: 0 initialized @(8938,0)
GPGPU-Sim uArch: cycles simulated: 9000  inst.: 1374016 (ipc=152.7) sim_rate=80824 (inst/sec) elapsed = 0:0:00:17 / Tue Mar 22 12:44:23 2016
GPGPU-Sim PTX: 1400000 instructions simulated : ctaid=(100,0,0) tid=(63,0,0)
GPGPU-Sim uArch: Shader 11 finished CTA #0 (9160,0), 4 CTAs running
GPGPU-Sim uArch: core: 11, cta: 0 initialized @(9161,0)
GPGPU-Sim uArch: Shader 0 finished CTA #0 (9163,0), 4 CTAs running
GPGPU-Sim uArch: core:  0, cta: 0 initialized @(9164,0)
GPGPU-Sim uArch: Shader 9 finished CTA #0 (9181,0), 4 CTAs running
GPGPU-Sim uArch: core:  9, cta: 0 initialized @(9182,0)
GPGPU-Sim uArch: Shader 10 finished CTA #0 (9227,0), 4 CTAs running
GPGPU-Sim uArch: core: 10, cta: 0 initialized @(9228,0)
GPGPU-Sim uArch: Shader 7 finished CTA #0 (9234,0), 4 CTAs running
GPGPU-Sim uArch: core:  7, cta: 0 initialized @(9235,0)
GPGPU-Sim uArch: Shader 12 finished CTA #0 (9245,0), 4 CTAs running
GPGPU-Sim uArch: core: 12, cta: 0 initialized @(9246,0)
GPGPU-Sim uArch: Shader 14 finished CTA #0 (9257,0), 4 CTAs running
GPGPU-Sim uArch: core: 14, cta: 0 initialized @(9258,0)
GPGPU-Sim uArch: Shader 13 finished CTA #0 (9263,0), 4 CTAs running
GPGPU-Sim uArch: core: 13, cta: 0 initialized @(9264,0)
GPGPU-Sim uArch: Shader 1 finished CTA #0 (9320,0), 4 CTAs running
GPGPU-Sim uArch: core:  1, cta: 0 initialized @(9321,0)
GPGPU-Sim PTX: 1500000 instructions simulated : ctaid=(104,0,0) tid=(95,0,0)
GPGPU-Sim uArch: Shader 4 finished CTA #1 (9829,0), 4 CTAs running
GPGPU-Sim uArch: core:  4, cta: 1 initialized @(9830,0)
GPGPU-Sim uArch: Shader 5 finished CTA #1 (9848,0), 4 CTAs running
GPGPU-Sim uArch: core:  5, cta: 1 initialized @(9849,0)
GPGPU-Sim uArch: Shader 3 finished CTA #1 (9887,0), 4 CTAs running
GPGPU-Sim uArch: core:  3, cta: 1 initialized @(9888,0)
GPGPU-Sim uArch: Shader 2 finished CTA #1 (9929,0), 4 CTAs running
GPGPU-Sim uArch: core:  2, cta: 1 initialized @(9930,0)
GPGPU-Sim uArch: Shader 6 finished CTA #1 (9939,0), 4 CTAs running
GPGPU-Sim uArch: core:  6, cta: 1 initialized @(9940,0)
GPGPU-Sim uArch: Shader 8 finished CTA #1 (10068,0), 4 CTAs running
GPGPU-Sim uArch: core:  8, cta: 1 initialized @(10069,0)
GPGPU-Sim PTX: 1600000 instructions simulated : ctaid=(119,0,0) tid=(63,0,0)
GPGPU-Sim uArch: Shader 11 finished CTA #1 (10382,0), 4 CTAs running
GPGPU-Sim uArch: core: 11, cta: 1 initialized @(10383,0)
GPGPU-Sim uArch: Shader 12 finished CTA #1 (10423,0), 4 CTAs running
GPGPU-Sim uArch: core: 12, cta: 1 initialized @(10424,0)
GPGPU-Sim uArch: Shader 0 finished CTA #1 (10477,0), 4 CTAs running
GPGPU-Sim uArch: core:  0, cta: 1 initialized @(10478,0)
GPGPU-Sim uArch: Shader 1 finished CTA #1 (10483,0), 4 CTAs running
GPGPU-Sim uArch: core:  1, cta: 1 initialized @(10484,0)
GPGPU-Sim uArch: Shader 13 finished CTA #1 (10491,0), 4 CTAs running
GPGPU-Sim uArch: core: 13, cta: 1 initialized @(10492,0)
GPGPU-Sim uArch: cycles simulated: 10500  inst.: 1670816 (ipc=159.1) sim_rate=92823 (inst/sec) elapsed = 0:0:00:18 / Tue Mar 22 12:44:24 2016
GPGPU-Sim uArch: Shader 14 finished CTA #1 (10511,0), 4 CTAs running
GPGPU-Sim uArch: core: 14, cta: 1 initialized @(10512,0)
GPGPU-Sim uArch: Shader 9 finished CTA #1 (10513,0), 4 CTAs running
GPGPU-Sim uArch: core:  9, cta: 1 initialized @(10514,0)
GPGPU-Sim uArch: Shader 10 finished CTA #1 (10519,0), 4 CTAs running
GPGPU-Sim uArch: core: 10, cta: 1 initialized @(10520,0)
GPGPU-Sim uArch: Shader 7 finished CTA #1 (10521,0), 4 CTAs running
GPGPU-Sim uArch: core:  7, cta: 1 initialized @(10522,0)
GPGPU-Sim PTX: 1700000 instructions simulated : ctaid=(106,0,0) tid=(255,0,0)
GPGPU-Sim uArch: Shader 5 finished CTA #2 (10988,0), 4 CTAs running
GPGPU-Sim uArch: core:  5, cta: 2 initialized @(10989,0)
GPGPU-Sim uArch: Shader 3 finished CTA #2 (11018,0), 4 CTAs running
GPGPU-Sim uArch: core:  3, cta: 2 initialized @(11019,0)
GPGPU-Sim uArch: Shader 4 finished CTA #2 (11036,0), 4 CTAs running
GPGPU-Sim uArch: core:  4, cta: 2 initialized @(11037,0)
GPGPU-Sim uArch: Shader 6 finished CTA #2 (11072,0), 4 CTAs running
GPGPU-Sim uArch: core:  6, cta: 2 initialized @(11073,0)
GPGPU-Sim uArch: Shader 2 finished CTA #2 (11073,0), 4 CTAs running
GPGPU-Sim uArch: core:  2, cta: 2 initialized @(11074,0)
GPGPU-Sim uArch: Shader 8 finished CTA #2 (11238,0), 4 CTAs running
GPGPU-Sim uArch: core:  8, cta: 2 initialized @(11239,0)
GPGPU-Sim PTX: 1800000 instructions simulated : ctaid=(120,0,0) tid=(63,0,0)
GPGPU-Sim uArch: Shader 0 finished CTA #2 (11644,0), 4 CTAs running
GPGPU-Sim uArch: core:  0, cta: 2 initialized @(11645,0)
GPGPU-Sim uArch: Shader 7 finished CTA #2 (11672,0), 4 CTAs running
GPGPU-Sim uArch: core:  7, cta: 2 initialized @(11673,0)
GPGPU-Sim uArch: Shader 11 finished CTA #2 (11683,0), 4 CTAs running
GPGPU-Sim uArch: core: 11, cta: 2 initialized @(11684,0)
GPGPU-Sim PTX: 1900000 instructions simulated : ctaid=(123,0,0) tid=(255,0,0)
GPGPU-Sim uArch: Shader 13 finished CTA #2 (11733,0), 4 CTAs running
GPGPU-Sim uArch: core: 13, cta: 2 initialized @(11734,0)
GPGPU-Sim uArch: Shader 12 finished CTA #2 (11736,0), 4 CTAs running
GPGPU-Sim uArch: core: 12, cta: 2 initialized @(11737,0)
GPGPU-Sim uArch: Shader 9 finished CTA #2 (11742,0), 4 CTAs running
GPGPU-Sim uArch: core:  9, cta: 2 initialized @(11743,0)
GPGPU-Sim uArch: Shader 10 finished CTA #2 (11746,0), 4 CTAs running
GPGPU-Sim uArch: core: 10, cta: 2 initialized @(11747,0)
GPGPU-Sim uArch: Shader 14 finished CTA #2 (11769,0), 4 CTAs running
GPGPU-Sim uArch: core: 14, cta: 2 initialized @(11770,0)
GPGPU-Sim uArch: Shader 1 finished CTA #2 (11781,0), 4 CTAs running
GPGPU-Sim uArch: core:  1, cta: 2 initialized @(11782,0)
GPGPU-Sim uArch: cycles simulated: 12000  inst.: 1922880 (ipc=160.2) sim_rate=101204 (inst/sec) elapsed = 0:0:00:19 / Tue Mar 22 12:44:25 2016
GPGPU-Sim uArch: Shader 2 finished CTA #3 (12201,0), 4 CTAs running
GPGPU-Sim uArch: core:  2, cta: 3 initialized @(12202,0)
GPGPU-Sim uArch: Shader 4 finished CTA #3 (12207,0), 4 CTAs running
GPGPU-Sim uArch: core:  4, cta: 3 initialized @(12208,0)
GPGPU-Sim uArch: Shader 3 finished CTA #3 (12219,0), 4 CTAs running
GPGPU-Sim uArch: Shader 5 finished CTA #3 (12219,0), 4 CTAs running
GPGPU-Sim uArch: Shader 6 finished CTA #3 (12219,0), 4 CTAs running
GPGPU-Sim uArch: core:  5, cta: 3 initialized @(12220,0)
GPGPU-Sim uArch: core:  6, cta: 3 initialized @(12220,0)
GPGPU-Sim uArch: core:  3, cta: 3 initialized @(12220,0)
GPGPU-Sim PTX: 2000000 instructions simulated : ctaid=(140,0,0) tid=(63,0,0)
GPGPU-Sim uArch: Shader 8 finished CTA #3 (12376,0), 4 CTAs running
GPGPU-Sim uArch: core:  8, cta: 3 initialized @(12377,0)
GPGPU-Sim PTX: 2100000 instructions simulated : ctaid=(137,0,0) tid=(159,0,0)
GPGPU-Sim uArch: Shader 0 finished CTA #3 (12867,0), 4 CTAs running
GPGPU-Sim uArch: core:  0, cta: 3 initialized @(12868,0)
GPGPU-Sim uArch: Shader 11 finished CTA #3 (12897,0), 4 CTAs running
GPGPU-Sim uArch: core: 11, cta: 3 initialized @(12898,0)
GPGPU-Sim uArch: Shader 7 finished CTA #3 (12921,0), 4 CTAs running
GPGPU-Sim uArch: core:  7, cta: 3 initialized @(12922,0)
GPGPU-Sim uArch: Shader 13 finished CTA #3 (12951,0), 4 CTAs running
GPGPU-Sim uArch: core: 13, cta: 3 initialized @(12952,0)
GPGPU-Sim uArch: Shader 14 finished CTA #3 (12957,0), 4 CTAs running
GPGPU-Sim uArch: core: 14, cta: 3 initialized @(12958,0)
GPGPU-Sim uArch: Shader 1 finished CTA #3 (12978,0), 4 CTAs running
GPGPU-Sim uArch: core:  1, cta: 3 initialized @(12979,0)
GPGPU-Sim uArch: Shader 12 finished CTA #3 (12985,0), 4 CTAs running
GPGPU-Sim uArch: core: 12, cta: 3 initialized @(12986,0)
GPGPU-Sim uArch: Shader 9 finished CTA #3 (13013,0), 4 CTAs running
GPGPU-Sim uArch: core:  9, cta: 3 initialized @(13014,0)
GPGPU-Sim uArch: Shader 10 finished CTA #3 (13027,0), 4 CTAs running
GPGPU-Sim uArch: core: 10, cta: 3 initialized @(13028,0)
GPGPU-Sim PTX: 2200000 instructions simulated : ctaid=(155,0,0) tid=(63,0,0)
GPGPU-Sim uArch: Shader 4 finished CTA #4 (13381,0), 4 CTAs running
GPGPU-Sim uArch: core:  4, cta: 4 initialized @(13382,0)
GPGPU-Sim uArch: Shader 6 finished CTA #4 (13387,0), 4 CTAs running
GPGPU-Sim uArch: core:  6, cta: 4 initialized @(13388,0)
GPGPU-Sim uArch: Shader 5 finished CTA #4 (13411,0), 4 CTAs running
GPGPU-Sim uArch: core:  5, cta: 4 initialized @(13412,0)
GPGPU-Sim uArch: Shader 2 finished CTA #4 (13423,0), 4 CTAs running
GPGPU-Sim uArch: Shader 3 finished CTA #4 (13423,0), 4 CTAs running
GPGPU-Sim uArch: core:  2, cta: 4 initialized @(13424,0)
GPGPU-Sim uArch: core:  3, cta: 4 initialized @(13424,0)
GPGPU-Sim uArch: cycles simulated: 13500  inst.: 2228544 (ipc=165.1) sim_rate=111427 (inst/sec) elapsed = 0:0:00:20 / Tue Mar 22 12:44:26 2016
GPGPU-Sim uArch: Shader 8 finished CTA #4 (13524,0), 4 CTAs running
GPGPU-Sim uArch: core:  8, cta: 4 initialized @(13525,0)
GPGPU-Sim PTX: 2300000 instructions simulated : ctaid=(148,0,0) tid=(223,0,0)
GPGPU-Sim uArch: Shader 11 finished CTA #4 (14056,0), 4 CTAs running
GPGPU-Sim uArch: core: 11, cta: 4 initialized @(14057,0)
GPGPU-Sim uArch: Shader 0 finished CTA #4 (14059,0), 4 CTAs running
GPGPU-Sim uArch: core:  0, cta: 4 initialized @(14060,0)
GPGPU-Sim uArch: Shader 14 finished CTA #4 (14085,0), 4 CTAs running
GPGPU-Sim uArch: core: 14, cta: 4 initialized @(14086,0)
GPGPU-Sim uArch: Shader 1 finished CTA #4 (14107,0), 4 CTAs running
GPGPU-Sim uArch: core:  1, cta: 4 initialized @(14108,0)
GPGPU-Sim uArch: Shader 13 finished CTA #4 (14121,0), 4 CTAs running
GPGPU-Sim uArch: core: 13, cta: 4 initialized @(14122,0)
GPGPU-Sim uArch: Shader 12 finished CTA #4 (14137,0), 4 CTAs running
GPGPU-Sim uArch: core: 12, cta: 4 initialized @(14138,0)
GPGPU-Sim uArch: Shader 7 finished CTA #4 (14149,0), 4 CTAs running
GPGPU-Sim uArch: core:  7, cta: 4 initialized @(14150,0)
GPGPU-Sim uArch: Shader 10 finished CTA #4 (14153,0), 4 CTAs running
GPGPU-Sim uArch: core: 10, cta: 4 initialized @(14154,0)
GPGPU-Sim uArch: Shader 9 finished CTA #4 (14155,0), 4 CTAs running
GPGPU-Sim uArch: core:  9, cta: 4 initialized @(14156,0)
GPGPU-Sim PTX: 2400000 instructions simulated : ctaid=(166,0,0) tid=(31,0,0)
GPGPU-Sim uArch: Shader 3 finished CTA #0 (14564,0), 4 CTAs running
GPGPU-Sim uArch: core:  3, cta: 0 initialized @(14565,0)
GPGPU-Sim uArch: Shader 4 finished CTA #0 (14572,0), 4 CTAs running
GPGPU-Sim uArch: core:  4, cta: 0 initialized @(14573,0)
GPGPU-Sim uArch: Shader 6 finished CTA #0 (14588,0), 4 CTAs running
GPGPU-Sim uArch: core:  6, cta: 0 initialized @(14589,0)
GPGPU-Sim uArch: Shader 5 finished CTA #0 (14612,0), 4 CTAs running
GPGPU-Sim uArch: core:  5, cta: 0 initialized @(14613,0)
GPGPU-Sim uArch: Shader 2 finished CTA #0 (14630,0), 4 CTAs running
GPGPU-Sim uArch: core:  2, cta: 0 initialized @(14631,0)
GPGPU-Sim uArch: Shader 8 finished CTA #0 (14674,0), 4 CTAs running
GPGPU-Sim uArch: core:  8, cta: 0 initialized @(14675,0)
GPGPU-Sim uArch: cycles simulated: 15000  inst.: 2483264 (ipc=165.6) sim_rate=118250 (inst/sec) elapsed = 0:0:00:21 / Tue Mar 22 12:44:27 2016
GPGPU-Sim PTX: 2500000 instructions simulated : ctaid=(158,0,0) tid=(223,0,0)
GPGPU-Sim uArch: Shader 11 finished CTA #0 (15274,0), 4 CTAs running
GPGPU-Sim uArch: core: 11, cta: 0 initialized @(15275,0)
GPGPU-Sim uArch: Shader 1 finished CTA #0 (15290,0), 4 CTAs running
GPGPU-Sim uArch: core:  1, cta: 0 initialized @(15291,0)
GPGPU-Sim uArch: Shader 14 finished CTA #0 (15330,0), 4 CTAs running
GPGPU-Sim uArch: core: 14, cta: 0 initialized @(15331,0)
GPGPU-Sim uArch: Shader 13 finished CTA #0 (15332,0), 4 CTAs running
GPGPU-Sim uArch: core: 13, cta: 0 initialized @(15333,0)
GPGPU-Sim uArch: Shader 12 finished CTA #0 (15338,0), 4 CTAs running
GPGPU-Sim uArch: core: 12, cta: 0 initialized @(15339,0)
GPGPU-Sim uArch: Shader 10 finished CTA #0 (15368,0), 4 CTAs running
GPGPU-Sim uArch: core: 10, cta: 0 initialized @(15369,0)
GPGPU-Sim uArch: Shader 9 finished CTA #0 (15372,0), 4 CTAs running
GPGPU-Sim uArch: core:  9, cta: 0 initialized @(15373,0)
GPGPU-Sim uArch: Shader 7 finished CTA #0 (15376,0), 4 CTAs running
GPGPU-Sim uArch: core:  7, cta: 0 initialized @(15377,0)
GPGPU-Sim uArch: Shader 0 finished CTA #0 (15460,0), 4 CTAs running
GPGPU-Sim uArch: core:  0, cta: 0 initialized @(15461,0)
GPGPU-Sim PTX: 2600000 instructions simulated : ctaid=(182,0,0) tid=(127,0,0)
GPGPU-Sim uArch: Shader 4 finished CTA #1 (15725,0), 4 CTAs running
GPGPU-Sim uArch: core:  4, cta: 1 initialized @(15726,0)
GPGPU-Sim uArch: Shader 3 finished CTA #1 (15815,0), 4 CTAs running
GPGPU-Sim uArch: core:  3, cta: 1 initialized @(15816,0)
GPGPU-Sim uArch: Shader 6 finished CTA #1 (15821,0), 4 CTAs running
GPGPU-Sim uArch: core:  6, cta: 1 initialized @(15822,0)
GPGPU-Sim uArch: Shader 2 finished CTA #1 (15839,0), 4 CTAs running
GPGPU-Sim uArch: Shader 8 finished CTA #1 (15839,0), 4 CTAs running
GPGPU-Sim uArch: core:  8, cta: 1 initialized @(15840,0)
GPGPU-Sim uArch: core:  2, cta: 1 initialized @(15840,0)
GPGPU-Sim uArch: Shader 5 finished CTA #1 (15851,0), 4 CTAs running
GPGPU-Sim uArch: core:  5, cta: 1 initialized @(15852,0)
GPGPU-Sim PTX: 2700000 instructions simulated : ctaid=(180,0,0) tid=(127,0,0)
GPGPU-Sim uArch: Shader 14 finished CTA #1 (16453,0), 4 CTAs running
GPGPU-Sim uArch: core: 14, cta: 1 initialized @(16454,0)
GPGPU-Sim uArch: Shader 11 finished CTA #1 (16477,0), 4 CTAs running
GPGPU-Sim uArch: core: 11, cta: 1 initialized @(16478,0)
GPGPU-Sim uArch: cycles simulated: 16500  inst.: 2785088 (ipc=168.8) sim_rate=126594 (inst/sec) elapsed = 0:0:00:22 / Tue Mar 22 12:44:28 2016
GPGPU-Sim uArch: Shader 7 finished CTA #1 (16525,0), 4 CTAs running
GPGPU-Sim uArch: core:  7, cta: 1 initialized @(16526,0)
GPGPU-Sim uArch: Shader 12 finished CTA #1 (16559,0), 4 CTAs running
GPGPU-Sim uArch: core: 12, cta: 1 initialized @(16560,0)
GPGPU-Sim uArch: Shader 13 finished CTA #1 (16571,0), 4 CTAs running
GPGPU-Sim uArch: core: 13, cta: 1 initialized @(16572,0)
GPGPU-Sim uArch: Shader 1 finished CTA #1 (16607,0), 4 CTAs running
GPGPU-Sim uArch: core:  1, cta: 1 initialized @(16608,0)
GPGPU-Sim uArch: Shader 0 finished CTA #1 (16655,0), 4 CTAs running
GPGPU-Sim uArch: core:  0, cta: 1 initialized @(16656,0)
GPGPU-Sim uArch: Shader 9 finished CTA #1 (16663,0), 4 CTAs running
GPGPU-Sim uArch: core:  9, cta: 1 initialized @(16664,0)
GPGPU-Sim uArch: Shader 10 finished CTA #1 (16671,0), 4 CTAs running
GPGPU-Sim uArch: core: 10, cta: 1 initialized @(16672,0)
GPGPU-Sim PTX: 2800000 instructions simulated : ctaid=(184,0,0) tid=(223,0,0)
GPGPU-Sim uArch: Shader 4 finished CTA #2 (17009,0), 4 CTAs running
GPGPU-Sim uArch: core:  4, cta: 2 initialized @(17010,0)
GPGPU-Sim uArch: Shader 2 finished CTA #2 (17027,0), 4 CTAs running
GPGPU-Sim uArch: core:  2, cta: 2 initialized @(17028,0)
GPGPU-Sim uArch: Shader 5 finished CTA #2 (17051,0), 4 CTAs running
GPGPU-Sim uArch: core:  5, cta: 2 initialized @(17052,0)
GPGPU-Sim uArch: Shader 3 finished CTA #2 (17057,0), 4 CTAs running
GPGPU-Sim uArch: core:  3, cta: 2 initialized @(17058,0)
GPGPU-Sim uArch: Shader 6 finished CTA #2 (17063,0), 4 CTAs running
GPGPU-Sim uArch: core:  6, cta: 2 initialized @(17064,0)
GPGPU-Sim uArch: Shader 8 finished CTA #2 (17069,0), 4 CTAs running
GPGPU-Sim uArch: core:  8, cta: 2 initialized @(17070,0)
GPGPU-Sim PTX: 2900000 instructions simulated : ctaid=(191,0,0) tid=(191,0,0)
GPGPU-Sim PTX: 3000000 instructions simulated : ctaid=(197,0,0) tid=(223,0,0)
GPGPU-Sim uArch: Shader 11 finished CTA #2 (17674,0), 4 CTAs running
GPGPU-Sim uArch: core: 11, cta: 2 initialized @(17675,0)
GPGPU-Sim uArch: Shader 1 finished CTA #2 (17733,0), 4 CTAs running
GPGPU-Sim uArch: core:  1, cta: 2 initialized @(17734,0)
GPGPU-Sim uArch: Shader 14 finished CTA #2 (17788,0), 4 CTAs running
GPGPU-Sim uArch: core: 14, cta: 2 initialized @(17789,0)
GPGPU-Sim uArch: Shader 0 finished CTA #2 (17809,0), 4 CTAs running
GPGPU-Sim uArch: core:  0, cta: 2 initialized @(17810,0)
GPGPU-Sim uArch: Shader 9 finished CTA #2 (17820,0), 4 CTAs running
GPGPU-Sim uArch: core:  9, cta: 2 initialized @(17821,0)
GPGPU-Sim uArch: Shader 13 finished CTA #2 (17853,0), 4 CTAs running
GPGPU-Sim uArch: core: 13, cta: 2 initialized @(17854,0)
GPGPU-Sim uArch: Shader 7 finished CTA #2 (17854,0), 4 CTAs running
GPGPU-Sim uArch: core:  7, cta: 2 initialized @(17855,0)
GPGPU-Sim uArch: Shader 10 finished CTA #2 (17857,0), 4 CTAs running
GPGPU-Sim uArch: core: 10, cta: 2 initialized @(17858,0)
GPGPU-Sim uArch: Shader 12 finished CTA #2 (17877,0), 4 CTAs running
GPGPU-Sim uArch: core: 12, cta: 2 initialized @(17878,0)
GPGPU-Sim uArch: cycles simulated: 18000  inst.: 3023648 (ipc=168.0) sim_rate=131462 (inst/sec) elapsed = 0:0:00:23 / Tue Mar 22 12:44:29 2016
GPGPU-Sim uArch: Shader 5 finished CTA #3 (18178,0), 4 CTAs running
GPGPU-Sim uArch: core:  5, cta: 3 initialized @(18179,0)
GPGPU-Sim uArch: Shader 8 finished CTA #3 (18254,0), 4 CTAs running
GPGPU-Sim uArch: core:  8, cta: 3 initialized @(18255,0)
GPGPU-Sim PTX: 3100000 instructions simulated : ctaid=(210,0,0) tid=(127,0,0)
GPGPU-Sim uArch: Shader 2 finished CTA #3 (18369,0), 4 CTAs running
GPGPU-Sim uArch: core:  2, cta: 3 initialized @(18370,0)
GPGPU-Sim uArch: Shader 3 finished CTA #3 (18372,0), 4 CTAs running
GPGPU-Sim uArch: core:  3, cta: 3 initialized @(18373,0)
GPGPU-Sim uArch: Shader 4 finished CTA #3 (18381,0), 4 CTAs running
GPGPU-Sim uArch: core:  4, cta: 3 initialized @(18382,0)
GPGPU-Sim uArch: Shader 6 finished CTA #3 (18407,0), 4 CTAs running
GPGPU-Sim uArch: core:  6, cta: 3 initialized @(18408,0)
GPGPU-Sim PTX: 3200000 instructions simulated : ctaid=(222,0,0) tid=(31,0,0)
GPGPU-Sim uArch: Shader 11 finished CTA #3 (18932,0), 4 CTAs running
GPGPU-Sim uArch: core: 11, cta: 3 initialized @(18933,0)
GPGPU-Sim uArch: Shader 14 finished CTA #3 (19097,0), 4 CTAs running
GPGPU-Sim uArch: core: 14, cta: 3 initialized @(19098,0)
GPGPU-Sim uArch: Shader 0 finished CTA #3 (19116,0), 4 CTAs running
GPGPU-Sim uArch: core:  0, cta: 3 initialized @(19117,0)
GPGPU-Sim uArch: Shader 13 finished CTA #3 (19129,0), 4 CTAs running
GPGPU-Sim uArch: core: 13, cta: 3 initialized @(19130,0)
GPGPU-Sim uArch: Shader 1 finished CTA #3 (19131,0), 4 CTAs running
GPGPU-Sim uArch: core:  1, cta: 3 initialized @(19132,0)
GPGPU-Sim uArch: Shader 9 finished CTA #3 (19174,0), 4 CTAs running
GPGPU-Sim uArch: core:  9, cta: 3 initialized @(19175,0)
GPGPU-Sim uArch: Shader 7 finished CTA #3 (19175,0), 4 CTAs running
GPGPU-Sim uArch: core:  7, cta: 3 initialized @(19176,0)
GPGPU-Sim uArch: Shader 10 finished CTA #3 (19180,0), 4 CTAs running
GPGPU-Sim uArch: core: 10, cta: 3 initialized @(19181,0)
GPGPU-Sim uArch: Shader 12 finished CTA #3 (19183,0), 4 CTAs running
GPGPU-Sim uArch: core: 12, cta: 3 initialized @(19184,0)
GPGPU-Sim uArch: Shader 5 finished CTA #4 (19343,0), 4 CTAs running
GPGPU-Sim uArch: core:  5, cta: 4 initialized @(19344,0)
GPGPU-Sim uArch: Shader 8 finished CTA #4 (19410,0), 4 CTAs running
GPGPU-Sim uArch: core:  8, cta: 4 initialized @(19411,0)
GPGPU-Sim PTX: 3300000 instructions simulated : ctaid=(224,0,0) tid=(191,0,0)
GPGPU-Sim uArch: cycles simulated: 19500  inst.: 3305376 (ipc=169.5) sim_rate=137724 (inst/sec) elapsed = 0:0:00:24 / Tue Mar 22 12:44:30 2016
GPGPU-Sim uArch: Shader 2 finished CTA #4 (19533,0), 4 CTAs running
GPGPU-Sim uArch: core:  2, cta: 4 initialized @(19534,0)
GPGPU-Sim uArch: Shader 3 finished CTA #4 (19557,0), 4 CTAs running
GPGPU-Sim uArch: core:  3, cta: 4 initialized @(19558,0)
GPGPU-Sim uArch: Shader 4 finished CTA #4 (19647,0), 4 CTAs running
GPGPU-Sim uArch: core:  4, cta: 4 initialized @(19648,0)
GPGPU-Sim uArch: Shader 6 finished CTA #4 (19881,0), 4 CTAs running
GPGPU-Sim uArch: core:  6, cta: 4 initialized @(19882,0)
GPGPU-Sim PTX: 3400000 instructions simulated : ctaid=(231,0,0) tid=(127,0,0)
GPGPU-Sim uArch: Shader 11 finished CTA #4 (20143,0), 4 CTAs running
GPGPU-Sim uArch: core: 11, cta: 4 initialized @(20144,0)
GPGPU-Sim uArch: Shader 14 finished CTA #4 (20338,0), 4 CTAs running
GPGPU-Sim uArch: core: 14, cta: 4 initialized @(20339,0)
GPGPU-Sim uArch: Shader 1 finished CTA #4 (20344,0), 4 CTAs running
GPGPU-Sim uArch: core:  1, cta: 4 initialized @(20345,0)
GPGPU-Sim uArch: Shader 10 finished CTA #4 (20359,0), 4 CTAs running
GPGPU-Sim uArch: core: 10, cta: 4 initialized @(20360,0)
GPGPU-Sim uArch: Shader 0 finished CTA #4 (20379,0), 4 CTAs running
GPGPU-Sim uArch: core:  0, cta: 4 initialized @(20380,0)
GPGPU-Sim uArch: Shader 12 finished CTA #4 (20381,0), 4 CTAs running
GPGPU-Sim uArch: core: 12, cta: 4 initialized @(20382,0)
GPGPU-Sim uArch: Shader 13 finished CTA #4 (20396,0), 4 CTAs running
GPGPU-Sim uArch: core: 13, cta: 4 initialized @(20397,0)
GPGPU-Sim uArch: Shader 9 finished CTA #4 (20429,0), 4 CTAs running
GPGPU-Sim uArch: core:  9, cta: 4 initialized @(20430,0)
GPGPU-Sim uArch: Shader 7 finished CTA #4 (20431,0), 4 CTAs running
GPGPU-Sim uArch: core:  7, cta: 4 initialized @(20432,0)
GPGPU-Sim uArch: Shader 5 finished CTA #0 (20509,0), 4 CTAs running
GPGPU-Sim uArch: core:  5, cta: 0 initialized @(20510,0)
GPGPU-Sim PTX: 3500000 instructions simulated : ctaid=(225,0,0) tid=(223,0,0)
GPGPU-Sim uArch: Shader 8 finished CTA #0 (20577,0), 4 CTAs running
GPGPU-Sim uArch: core:  8, cta: 0 initialized @(20578,0)
GPGPU-Sim uArch: Shader 2 finished CTA #0 (20700,0), 4 CTAs running
GPGPU-Sim uArch: core:  2, cta: 0 initialized @(20701,0)
GPGPU-Sim uArch: Shader 3 finished CTA #0 (20747,0), 4 CTAs running
GPGPU-Sim uArch: core:  3, cta: 0 initialized @(20748,0)
GPGPU-Sim uArch: Shader 4 finished CTA #0 (20924,0), 4 CTAs running
GPGPU-Sim uArch: core:  4, cta: 0 initialized @(20925,0)
GPGPU-Sim uArch: cycles simulated: 21000  inst.: 3584448 (ipc=170.7) sim_rate=143377 (inst/sec) elapsed = 0:0:00:25 / Tue Mar 22 12:44:31 2016
GPGPU-Sim uArch: Shader 6 finished CTA #0 (21035,0), 4 CTAs running
GPGPU-Sim uArch: core:  6, cta: 0 initialized @(21036,0)
GPGPU-Sim PTX: 3600000 instructions simulated : ctaid=(241,0,0) tid=(31,0,0)
GPGPU-Sim uArch: Shader 11 finished CTA #0 (21311,0), 4 CTAs running
GPGPU-Sim uArch: core: 11, cta: 0 initialized @(21312,0)
GPGPU-Sim uArch: Shader 1 finished CTA #0 (21577,0), 4 CTAs running
GPGPU-Sim uArch: core:  1, cta: 0 initialized @(21578,0)
GPGPU-Sim PTX: 3700000 instructions simulated : ctaid=(251,0,0) tid=(159,0,0)
GPGPU-Sim uArch: Shader 0 finished CTA #0 (21603,0), 4 CTAs running
GPGPU-Sim uArch: core:  0, cta: 0 initialized @(21604,0)
GPGPU-Sim uArch: Shader 9 finished CTA #0 (21643,0), 4 CTAs running
GPGPU-Sim uArch: core:  9, cta: 0 initialized @(21644,0)
GPGPU-Sim uArch: Shader 12 finished CTA #0 (21648,0), 4 CTAs running
GPGPU-Sim uArch: core: 12, cta: 0 initialized @(21649,0)
GPGPU-Sim uArch: Shader 14 finished CTA #0 (21669,0), 4 CTAs running
GPGPU-Sim uArch: core: 14, cta: 0 initialized @(21670,0)
GPGPU-Sim uArch: Shader 13 finished CTA #0 (21675,0), 4 CTAs running
GPGPU-Sim uArch: core: 13, cta: 0 initialized @(21676,0)
GPGPU-Sim uArch: Shader 10 finished CTA #0 (21681,0), 4 CTAs running
GPGPU-Sim uArch: core: 10, cta: 0 initialized @(21682,0)
GPGPU-Sim uArch: Shader 7 finished CTA #0 (21687,0), 4 CTAs running
GPGPU-Sim uArch: core:  7, cta: 0 initialized @(21688,0)
GPGPU-Sim uArch: Shader 5 finished CTA #1 (21705,0), 4 CTAs running
GPGPU-Sim uArch: core:  5, cta: 1 initialized @(21706,0)
GPGPU-Sim uArch: Shader 8 finished CTA #1 (21751,0), 4 CTAs running
GPGPU-Sim uArch: core:  8, cta: 1 initialized @(21752,0)
GPGPU-Sim uArch: Shader 2 finished CTA #1 (21846,0), 4 CTAs running
GPGPU-Sim uArch: core:  2, cta: 1 initialized @(21847,0)
GPGPU-Sim uArch: Shader 3 finished CTA #1 (21909,0), 4 CTAs running
GPGPU-Sim uArch: core:  3, cta: 1 initialized @(21910,0)
GPGPU-Sim uArch: Shader 4 finished CTA #1 (22046,0), 4 CTAs running
GPGPU-Sim uArch: core:  4, cta: 1 initialized @(22047,0)
GPGPU-Sim PTX: 3800000 instructions simulated : ctaid=(248,0,0) tid=(159,0,0)
GPGPU-Sim uArch: Shader 6 finished CTA #1 (22389,0), 4 CTAs running
GPGPU-Sim uArch: core:  6, cta: 1 initialized @(22390,0)
GPGPU-Sim uArch: Shader 11 finished CTA #1 (22470,0), 4 CTAs running
GPGPU-Sim uArch: core: 11, cta: 1 initialized @(22471,0)
GPGPU-Sim uArch: cycles simulated: 22500  inst.: 3850336 (ipc=171.1) sim_rate=148089 (inst/sec) elapsed = 0:0:00:26 / Tue Mar 22 12:44:32 2016
GPGPU-Sim PTX: 3900000 instructions simulated : ctaid=(266,0,0) tid=(31,0,0)
GPGPU-Sim uArch: Shader 0 finished CTA #1 (22791,0), 4 CTAs running
GPGPU-Sim uArch: core:  0, cta: 1 initialized @(22792,0)
GPGPU-Sim uArch: Shader 13 finished CTA #1 (22835,0), 4 CTAs running
GPGPU-Sim uArch: core: 13, cta: 1 initialized @(22836,0)
GPGPU-Sim uArch: Shader 9 finished CTA #1 (22842,0), 4 CTAs running
GPGPU-Sim uArch: core:  9, cta: 1 initialized @(22843,0)
GPGPU-Sim uArch: Shader 12 finished CTA #1 (22855,0), 4 CTAs running
GPGPU-Sim uArch: core: 12, cta: 1 initialized @(22856,0)
GPGPU-Sim uArch: Shader 7 finished CTA #1 (22863,0), 4 CTAs running
GPGPU-Sim uArch: core:  7, cta: 1 initialized @(22864,0)
GPGPU-Sim uArch: Shader 10 finished CTA #1 (22870,0), 4 CTAs running
GPGPU-Sim uArch: core: 10, cta: 1 initialized @(22871,0)
GPGPU-Sim uArch: Shader 5 finished CTA #2 (22909,0), 4 CTAs running
GPGPU-Sim uArch: core:  5, cta: 2 initialized @(22910,0)
GPGPU-Sim uArch: Shader 8 finished CTA #2 (22949,0), 4 CTAs running
GPGPU-Sim uArch: core:  8, cta: 2 initialized @(22950,0)
GPGPU-Sim uArch: Shader 1 finished CTA #1 (22961,0), 4 CTAs running
GPGPU-Sim uArch: core:  1, cta: 1 initialized @(22962,0)
GPGPU-Sim uArch: Shader 3 finished CTA #2 (23061,0), 4 CTAs running
GPGPU-Sim uArch: core:  3, cta: 2 initialized @(23062,0)
GPGPU-Sim uArch: Shader 2 finished CTA #2 (23062,0), 4 CTAs running
GPGPU-Sim uArch: core:  2, cta: 2 initialized @(23063,0)
GPGPU-Sim uArch: Shader 14 finished CTA #1 (23066,0), 4 CTAs running
GPGPU-Sim uArch: core: 14, cta: 1 initialized @(23067,0)
GPGPU-Sim uArch: Shader 4 finished CTA #2 (23202,0), 4 CTAs running
GPGPU-Sim uArch: core:  4, cta: 2 initialized @(23203,0)
GPGPU-Sim PTX: 4000000 instructions simulated : ctaid=(272,0,0) tid=(191,0,0)
GPGPU-Sim uArch: cycles simulated: 23500  inst.: 4047552 (ipc=172.2) sim_rate=149909 (inst/sec) elapsed = 0:0:00:27 / Tue Mar 22 12:44:33 2016
GPGPU-Sim uArch: Shader 6 finished CTA #2 (23556,0), 4 CTAs running
GPGPU-Sim uArch: core:  6, cta: 2 initialized @(23557,0)
GPGPU-Sim uArch: Shader 11 finished CTA #2 (23606,0), 4 CTAs running
GPGPU-Sim uArch: core: 11, cta: 2 initialized @(23607,0)
GPGPU-Sim PTX: 4100000 instructions simulated : ctaid=(277,0,0) tid=(63,0,0)
GPGPU-Sim uArch: Shader 0 finished CTA #2 (24022,0), 4 CTAs running
GPGPU-Sim uArch: core:  0, cta: 2 initialized @(24023,0)
GPGPU-Sim uArch: Shader 7 finished CTA #2 (24063,0), 4 CTAs running
GPGPU-Sim uArch: core:  7, cta: 2 initialized @(24064,0)
GPGPU-Sim uArch: Shader 9 finished CTA #2 (24075,0), 4 CTAs running
GPGPU-Sim uArch: core:  9, cta: 2 initialized @(24076,0)
GPGPU-Sim uArch: Shader 10 finished CTA #2 (24081,0), 4 CTAs running
GPGPU-Sim uArch: core: 10, cta: 2 initialized @(24082,0)
GPGPU-Sim uArch: Shader 5 finished CTA #3 (24131,0), 4 CTAs running
GPGPU-Sim uArch: Shader 12 finished CTA #2 (24131,0), 4 CTAs running
GPGPU-Sim uArch: core: 12, cta: 2 initialized @(24132,0)
GPGPU-Sim uArch: core:  5, cta: 3 initialized @(24132,0)
GPGPU-Sim uArch: Shader 13 finished CTA #2 (24137,0), 4 CTAs running
GPGPU-Sim uArch: core: 13, cta: 2 initialized @(24138,0)
GPGPU-Sim uArch: Shader 1 finished CTA #2 (24183,0), 4 CTAs running
GPGPU-Sim uArch: core:  1, cta: 2 initialized @(24184,0)
GPGPU-Sim uArch: Shader 8 finished CTA #3 (24221,0), 4 CTAs running
GPGPU-Sim uArch: core:  8, cta: 3 initialized @(24222,0)
GPGPU-Sim uArch: Shader 14 finished CTA #2 (24248,0), 4 CTAs running
GPGPU-Sim uArch: core: 14, cta: 2 initialized @(24249,0)
GPGPU-Sim uArch: Shader 2 finished CTA #3 (24253,0), 4 CTAs running
GPGPU-Sim uArch: core:  2, cta: 3 initialized @(24254,0)
GPGPU-Sim uArch: Shader 3 finished CTA #3 (24257,0), 4 CTAs running
GPGPU-Sim uArch: core:  3, cta: 3 initialized @(24258,0)
GPGPU-Sim uArch: Shader 4 finished CTA #3 (24373,0), 4 CTAs running
GPGPU-Sim uArch: core:  4, cta: 3 initialized @(24374,0)
GPGPU-Sim PTX: 4200000 instructions simulated : ctaid=(278,0,0) tid=(191,0,0)
GPGPU-Sim uArch: Shader 6 finished CTA #3 (24712,0), 4 CTAs running
GPGPU-Sim uArch: core:  6, cta: 3 initialized @(24713,0)
GPGPU-Sim uArch: Shader 11 finished CTA #3 (24862,0), 4 CTAs running
GPGPU-Sim uArch: core: 11, cta: 3 initialized @(24863,0)
GPGPU-Sim PTX: 4300000 instructions simulated : ctaid=(288,0,0) tid=(159,0,0)
GPGPU-Sim uArch: cycles simulated: 25000  inst.: 4303904 (ipc=172.2) sim_rate=153710 (inst/sec) elapsed = 0:0:00:28 / Tue Mar 22 12:44:34 2016
GPGPU-Sim uArch: Shader 0 finished CTA #3 (25358,0), 4 CTAs running
GPGPU-Sim uArch: core:  0, cta: 3 initialized @(25359,0)
GPGPU-Sim uArch: Shader 10 finished CTA #3 (25383,0), 4 CTAs running
GPGPU-Sim uArch: core: 10, cta: 3 initialized @(25384,0)
GPGPU-Sim uArch: Shader 7 finished CTA #3 (25418,0), 4 CTAs running
GPGPU-Sim uArch: core:  7, cta: 3 initialized @(25419,0)
GPGPU-Sim uArch: Shader 9 finished CTA #3 (25425,0), 4 CTAs running
GPGPU-Sim uArch: core:  9, cta: 3 initialized @(25426,0)
GPGPU-Sim PTX: 4400000 instructions simulated : ctaid=(306,0,0) tid=(95,0,0)
GPGPU-Sim uArch: Shader 2 finished CTA #4 (25460,0), 4 CTAs running
GPGPU-Sim uArch: core:  2, cta: 4 initialized @(25461,0)
GPGPU-Sim uArch: Shader 5 finished CTA #4 (25480,0), 4 CTAs running
GPGPU-Sim uArch: core:  5, cta: 4 initialized @(25481,0)
GPGPU-Sim uArch: Shader 13 finished CTA #3 (25516,0), 4 CTAs running
GPGPU-Sim uArch: core: 13, cta: 3 initialized @(25517,0)
GPGPU-Sim uArch: Shader 1 finished CTA #3 (25527,0), 4 CTAs running
GPGPU-Sim uArch: core:  1, cta: 3 initialized @(25528,0)
GPGPU-Sim uArch: Shader 8 finished CTA #4 (25535,0), 4 CTAs running
GPGPU-Sim uArch: core:  8, cta: 4 initialized @(25536,0)
GPGPU-Sim uArch: Shader 14 finished CTA #3 (25546,0), 4 CTAs running
GPGPU-Sim uArch: core: 14, cta: 3 initialized @(25547,0)
GPGPU-Sim uArch: Shader 12 finished CTA #3 (25573,0), 4 CTAs running
GPGPU-Sim uArch: core: 12, cta: 3 initialized @(25574,0)
GPGPU-Sim uArch: Shader 4 finished CTA #4 (25579,0), 4 CTAs running
GPGPU-Sim uArch: core:  4, cta: 4 initialized @(25580,0)
GPGPU-Sim uArch: Shader 3 finished CTA #4 (25581,0), 4 CTAs running
GPGPU-Sim uArch: core:  3, cta: 4 initialized @(25582,0)
GPGPU-Sim uArch: Shader 6 finished CTA #4 (26021,0), 4 CTAs running
GPGPU-Sim uArch: core:  6, cta: 4 initialized @(26022,0)
GPGPU-Sim PTX: 4500000 instructions simulated : ctaid=(308,0,0) tid=(159,0,0)
GPGPU-Sim uArch: Shader 11 finished CTA #4 (26049,0), 4 CTAs running
GPGPU-Sim uArch: core: 11, cta: 4 initialized @(26050,0)
GPGPU-Sim uArch: cycles simulated: 26500  inst.: 4571744 (ipc=172.5) sim_rate=157646 (inst/sec) elapsed = 0:0:00:29 / Tue Mar 22 12:44:35 2016
GPGPU-Sim uArch: Shader 0 finished CTA #4 (26603,0), 4 CTAs running
GPGPU-Sim uArch: core:  0, cta: 4 initialized @(26604,0)
GPGPU-Sim PTX: 4600000 instructions simulated : ctaid=(311,0,0) tid=(95,0,0)
GPGPU-Sim uArch: Shader 9 finished CTA #4 (26644,0), 4 CTAs running
GPGPU-Sim uArch: core:  9, cta: 4 initialized @(26645,0)
GPGPU-Sim uArch: Shader 10 finished CTA #4 (26646,0), 4 CTAs running
GPGPU-Sim uArch: core: 10, cta: 4 initialized @(26647,0)
GPGPU-Sim uArch: Shader 8 finished CTA #0 (26854,0), 4 CTAs running
GPGPU-Sim uArch: core:  8, cta: 0 initialized @(26855,0)
GPGPU-Sim uArch: Shader 5 finished CTA #0 (26868,0), 4 CTAs running
GPGPU-Sim uArch: core:  5, cta: 0 initialized @(26869,0)
GPGPU-Sim uArch: Shader 14 finished CTA #4 (26876,0), 4 CTAs running
GPGPU-Sim uArch: core: 14, cta: 4 initialized @(26877,0)
GPGPU-Sim uArch: Shader 2 finished CTA #0 (26882,0), 4 CTAs running
GPGPU-Sim uArch: core:  2, cta: 0 initialized @(26883,0)
GPGPU-Sim uArch: Shader 7 finished CTA #4 (26894,0), 4 CTAs running
GPGPU-Sim uArch: core:  7, cta: 4 initialized @(26895,0)
GPGPU-Sim uArch: Shader 1 finished CTA #4 (26918,0), 4 CTAs running
GPGPU-Sim uArch: core:  1, cta: 4 initialized @(26919,0)
GPGPU-Sim uArch: Shader 3 finished CTA #0 (26926,0), 4 CTAs running
GPGPU-Sim uArch: core:  3, cta: 0 initialized @(26927,0)
GPGPU-Sim uArch: Shader 4 finished CTA #0 (26944,0), 4 CTAs running
GPGPU-Sim uArch: core:  4, cta: 0 initialized @(26945,0)
GPGPU-Sim uArch: Shader 13 finished CTA #4 (26950,0), 4 CTAs running
GPGPU-Sim uArch: core: 13, cta: 4 initialized @(26951,0)
GPGPU-Sim uArch: Shader 12 finished CTA #4 (26956,0), 4 CTAs running
GPGPU-Sim uArch: core: 12, cta: 4 initialized @(26957,0)
GPGPU-Sim PTX: 4700000 instructions simulated : ctaid=(307,0,0) tid=(191,0,0)
GPGPU-Sim uArch: Shader 6 finished CTA #0 (27214,0), 4 CTAs running
GPGPU-Sim uArch: core:  6, cta: 0 initialized @(27215,0)
GPGPU-Sim uArch: Shader 11 finished CTA #0 (27259,0), 4 CTAs running
GPGPU-Sim uArch: core: 11, cta: 0 initialized @(27260,0)
GPGPU-Sim PTX: 4800000 instructions simulated : ctaid=(330,0,0) tid=(31,0,0)
GPGPU-Sim uArch: Shader 0 finished CTA #0 (27764,0), 4 CTAs running
GPGPU-Sim uArch: core:  0, cta: 0 initialized @(27765,0)
GPGPU-Sim uArch: Shader 10 finished CTA #0 (27766,0), 4 CTAs running
GPGPU-Sim uArch: core: 10, cta: 0 initialized @(27767,0)
GPGPU-Sim uArch: Shader 9 finished CTA #0 (27803,0), 4 CTAs running
GPGPU-Sim uArch: core:  9, cta: 0 initialized @(27804,0)
GPGPU-Sim uArch: cycles simulated: 28000  inst.: 4842208 (ipc=172.9) sim_rate=161406 (inst/sec) elapsed = 0:0:00:30 / Tue Mar 22 12:44:36 2016
GPGPU-Sim uArch: Shader 5 finished CTA #1 (28084,0), 4 CTAs running
GPGPU-Sim uArch: core:  5, cta: 1 initialized @(28085,0)
GPGPU-Sim uArch: Shader 1 finished CTA #0 (28142,0), 4 CTAs running
GPGPU-Sim uArch: core:  1, cta: 0 initialized @(28143,0)
GPGPU-Sim uArch: Shader 13 finished CTA #0 (28148,0), 4 CTAs running
GPGPU-Sim uArch: core: 13, cta: 0 initialized @(28149,0)
GPGPU-Sim uArch: Shader 8 finished CTA #1 (28160,0), 4 CTAs running
GPGPU-Sim uArch: core:  8, cta: 1 initialized @(28161,0)
GPGPU-Sim uArch: Shader 3 finished CTA #1 (28162,0), 4 CTAs running
GPGPU-Sim uArch: core:  3, cta: 1 initialized @(28163,0)
GPGPU-Sim uArch: Shader 14 finished CTA #0 (28168,0), 4 CTAs running
GPGPU-Sim uArch: core: 14, cta: 0 initialized @(28169,0)
GPGPU-Sim uArch: Shader 4 finished CTA #1 (28183,0), 4 CTAs running
GPGPU-Sim uArch: core:  4, cta: 1 initialized @(28184,0)
GPGPU-Sim uArch: Shader 2 finished CTA #1 (28189,0), 4 CTAs running
GPGPU-Sim uArch: core:  2, cta: 1 initialized @(28190,0)
GPGPU-Sim uArch: Shader 12 finished CTA #0 (28214,0), 4 CTAs running
GPGPU-Sim uArch: core: 12, cta: 0 initialized @(28215,0)
GPGPU-Sim uArch: Shader 7 finished CTA #0 (28230,0), 4 CTAs running
GPGPU-Sim uArch: core:  7, cta: 0 initialized @(28231,0)
GPGPU-Sim PTX: 4900000 instructions simulated : ctaid=(325,0,0) tid=(191,0,0)
GPGPU-Sim uArch: Shader 6 finished CTA #1 (28424,0), 4 CTAs running
GPGPU-Sim uArch: core:  6, cta: 1 initialized @(28425,0)
GPGPU-Sim uArch: Shader 11 finished CTA #1 (28425,0), 4 CTAs running
GPGPU-Sim uArch: core: 11, cta: 1 initialized @(28426,0)
GPGPU-Sim PTX: 5000000 instructions simulated : ctaid=(332,0,0) tid=(191,0,0)
GPGPU-Sim uArch: Shader 10 finished CTA #1 (28934,0), 4 CTAs running
GPGPU-Sim uArch: core: 10, cta: 1 initialized @(28935,0)
GPGPU-Sim uArch: Shader 0 finished CTA #1 (28977,0), 4 CTAs running
GPGPU-Sim uArch: core:  0, cta: 1 initialized @(28978,0)
GPGPU-Sim uArch: Shader 9 finished CTA #1 (29010,0), 4 CTAs running
GPGPU-Sim uArch: core:  9, cta: 1 initialized @(29011,0)
GPGPU-Sim uArch: Shader 5 finished CTA #2 (29267,0), 4 CTAs running
GPGPU-Sim uArch: core:  5, cta: 2 initialized @(29268,0)
GPGPU-Sim uArch: Shader 1 finished CTA #1 (29284,0), 4 CTAs running
GPGPU-Sim uArch: core:  1, cta: 1 initialized @(29285,0)
GPGPU-Sim PTX: 5100000 instructions simulated : ctaid=(345,0,0) tid=(95,0,0)
GPGPU-Sim uArch: Shader 13 finished CTA #1 (29372,0), 4 CTAs running
GPGPU-Sim uArch: core: 13, cta: 1 initialized @(29373,0)
GPGPU-Sim uArch: Shader 2 finished CTA #2 (29401,0), 4 CTAs running
GPGPU-Sim uArch: core:  2, cta: 2 initialized @(29402,0)
GPGPU-Sim uArch: Shader 14 finished CTA #1 (29411,0), 4 CTAs running
GPGPU-Sim uArch: core: 14, cta: 1 initialized @(29412,0)
GPGPU-Sim uArch: Shader 3 finished CTA #2 (29418,0), 4 CTAs running
GPGPU-Sim uArch: core:  3, cta: 2 initialized @(29419,0)
GPGPU-Sim uArch: Shader 8 finished CTA #2 (29419,0), 4 CTAs running
GPGPU-Sim uArch: core:  8, cta: 2 initialized @(29420,0)
GPGPU-Sim uArch: Shader 4 finished CTA #2 (29433,0), 4 CTAs running
GPGPU-Sim uArch: core:  4, cta: 2 initialized @(29434,0)
GPGPU-Sim uArch: Shader 7 finished CTA #1 (29470,0), 4 CTAs running
GPGPU-Sim uArch: core:  7, cta: 1 initialized @(29471,0)
GPGPU-Sim uArch: Shader 12 finished CTA #1 (29475,0), 4 CTAs running
GPGPU-Sim uArch: core: 12, cta: 1 initialized @(29476,0)
GPGPU-Sim uArch: cycles simulated: 29500  inst.: 5131872 (ipc=174.0) sim_rate=165544 (inst/sec) elapsed = 0:0:00:31 / Tue Mar 22 12:44:37 2016
GPGPU-Sim uArch: Shader 6 finished CTA #2 (29584,0), 4 CTAs running
GPGPU-Sim uArch: Shader 11 finished CTA #2 (29584,0), 4 CTAs running
GPGPU-Sim uArch: core:  6, cta: 2 initialized @(29585,0)
GPGPU-Sim uArch: core: 11, cta: 2 initialized @(29585,0)
GPGPU-Sim PTX: 5200000 instructions simulated : ctaid=(354,0,0) tid=(31,0,0)
GPGPU-Sim uArch: Shader 10 finished CTA #2 (30204,0), 4 CTAs running
GPGPU-Sim uArch: core: 10, cta: 2 initialized @(30205,0)
GPGPU-Sim uArch: Shader 0 finished CTA #2 (30210,0), 4 CTAs running
GPGPU-Sim uArch: core:  0, cta: 2 initialized @(30211,0)
GPGPU-Sim uArch: Shader 9 finished CTA #2 (30355,0), 4 CTAs running
GPGPU-Sim uArch: core:  9, cta: 2 initialized @(30356,0)
GPGPU-Sim uArch: Shader 5 finished CTA #3 (30447,0), 4 CTAs running
GPGPU-Sim uArch: core:  5, cta: 3 initialized @(30448,0)
GPGPU-Sim PTX: 5300000 instructions simulated : ctaid=(353,0,0) tid=(63,0,0)
GPGPU-Sim uArch: Shader 1 finished CTA #2 (30509,0), 4 CTAs running
GPGPU-Sim uArch: core:  1, cta: 2 initialized @(30510,0)
GPGPU-Sim uArch: Shader 8 finished CTA #3 (30583,0), 4 CTAs running
GPGPU-Sim uArch: core:  8, cta: 3 initialized @(30584,0)
GPGPU-Sim uArch: Shader 13 finished CTA #2 (30617,0), 4 CTAs running
GPGPU-Sim uArch: core: 13, cta: 2 initialized @(30618,0)
GPGPU-Sim uArch: Shader 14 finished CTA #2 (30623,0), 4 CTAs running
GPGPU-Sim uArch: core: 14, cta: 2 initialized @(30624,0)
GPGPU-Sim uArch: Shader 12 finished CTA #2 (30631,0), 4 CTAs running
GPGPU-Sim uArch: core: 12, cta: 2 initialized @(30632,0)
GPGPU-Sim uArch: Shader 4 finished CTA #3 (30636,0), 4 CTAs running
GPGPU-Sim uArch: core:  4, cta: 3 initialized @(30637,0)
GPGPU-Sim uArch: Shader 2 finished CTA #3 (30671,0), 4 CTAs running
GPGPU-Sim uArch: core:  2, cta: 3 initialized @(30672,0)
GPGPU-Sim uArch: Shader 3 finished CTA #3 (30721,0), 4 CTAs running
GPGPU-Sim uArch: core:  3, cta: 3 initialized @(30722,0)
GPGPU-Sim uArch: Shader 11 finished CTA #3 (30761,0), 4 CTAs running
GPGPU-Sim uArch: core: 11, cta: 3 initialized @(30762,0)
GPGPU-Sim uArch: Shader 6 finished CTA #3 (30767,0), 4 CTAs running
GPGPU-Sim uArch: core:  6, cta: 3 initialized @(30768,0)
GPGPU-Sim uArch: Shader 7 finished CTA #2 (30886,0), 4 CTAs running
GPGPU-Sim uArch: core:  7, cta: 2 initialized @(30887,0)
GPGPU-Sim uArch: cycles simulated: 31000  inst.: 5386912 (ipc=173.8) sim_rate=168341 (inst/sec) elapsed = 0:0:00:32 / Tue Mar 22 12:44:38 2016
GPGPU-Sim PTX: 5400000 instructions simulated : ctaid=(361,0,0) tid=(127,0,0)
GPGPU-Sim uArch: Shader 10 finished CTA #3 (31397,0), 4 CTAs running
GPGPU-Sim uArch: core: 10, cta: 3 initialized @(31398,0)
GPGPU-Sim uArch: Shader 0 finished CTA #3 (31398,0), 4 CTAs running
GPGPU-Sim uArch: core:  0, cta: 3 initialized @(31399,0)
GPGPU-Sim uArch: Shader 9 finished CTA #3 (31522,0), 4 CTAs running
GPGPU-Sim uArch: core:  9, cta: 3 initialized @(31523,0)
[...]
gpgpu_stall_shd_mem[l_mem_ld][wb_rsrv_fail] = 0
gpu_reg_bank_conflict_stalls = 0
Warp Occupancy Distribution:
Stall:402676	W0_Idle:108040	W0_Scoreboard:31850952	W1:0	W2:0	W3:0	W4:0	W5:0	W6:0	W7:0	W8:0	W9:0	W10:0	W11:0	W12:0	W13:0	W14:0	W15:0	W16:0	W17:0	W18:0	W19:0	W20:0	W21:0	W22:0	W23:0	W24:0	W25:0	W26:0	W27:0	W28:0	W29:0	W30:0	W31:0	W32:7602176
traffic_breakdown_coretomem[CONST_ACC_R] = 120 {8:15,}
traffic_breakdown_coretomem[GLOBAL_ACC_R] = 4194304 {8:524288,}
traffic_breakdown_coretomem[GLOBAL_ACC_W] = 71303168 {136:524288,}
traffic_breakdown_coretomem[INST_ACC_R] = 600 {8:75,}
traffic_breakdown_memtocore[CONST_ACC_R] = 1080 {72:15,}
traffic_breakdown_memtocore[GLOBAL_ACC_R] = 71303168 {136:524288,}
traffic_breakdown_memtocore[GLOBAL_ACC_W] = 4194304 {8:524288,}
traffic_breakdown_memtocore[INST_ACC_R] = 10200 {136:75,}
maxmrqlatency = 272 
maxdqlatency = 0 
maxmflatency = 700 
averagemflatency = 223 
max_icnt2mem_latency = 240 
max_icnt2sh_latency = 1333211 
mrq_lat_table:690239 	22212 	24423 	49883 	94146 	107974 	49644 	3907 	10 	0 	0 	0 	0 	0 	0 	0 	0 	0 	0 	0 	0 	0 	0 	0 	0 	0 	0 	0 	0 	0 	0 	0 	
dq_lat_table:0 	0 	0 	0 	0 	0 	0 	0 	0 	0 	0 	0 	0 	0 	0 	0 	0 	0 	0 	0 	0 	0 	0 	0 	0 	0 	0 	0 	0 	0 	0 	0 	
mf_lat_table:0 	0 	0 	0 	0 	0 	0 	523881 	524594 	116 	0 	0 	0 	0 	0 	0 	0 	0 	0 	0 	0 	0 	0 	0 	0 	0 	0 	0 	0 	0 	0 	0 	
icnt2mem_lat_table:0 	0 	0 	719125 	234276 	83211 	11749 	305 	0 	0 	0 	0 	0 	0 	0 	0 	0 	0 	0 	0 	0 	0 	0 	0 	
icnt2sh_lat_table:0 	0 	0 	310629 	202837 	10836 	1 	0 	0 	0 	109 	649 	1717 	3245 	6434 	12738 	25765 	51887 	104110 	205834 	111800 	0 	0 	0 	
mf_lat_pw_table:0 	0 	0 	0 	0 	0 	0 	2635 	30 	0 	0 	0 	0 	0 	0 	0 	0 	0 	0 	0 	0 	0 	0 	0 	0 	0 	0 	0 	0 	0 	0 	0 	
maximum concurrent accesses to same row:
dram[0]:        32        32        32        32        32        32        32        32        32        32        32        32        32        32        32        32 
dram[1]:        32        32        32        32        32        32        32        32        32        32        32        32        32        32        32        32 
dram[2]:        32        32        32        32        32        32        32        32        32        32        32        32        32        32        32        32 
dram[3]:        32        32        32        32        32        32        32        32        32        32        32        32        32        32        32        32 
dram[4]:        32        32        32        32        32        32        32        32        32        32        32        32        32        32        32        32 
dram[5]:        32        32        32        32        32        32        32        32        32        32        32        32        32        32        32        32 
maximum service time to same row:
dram[0]:     10301     10016      9964     10102      7835      7451     10010      9689     10159      9865      6894      6441      6444      6234      7756      8332 
dram[1]:     10634     10064     10021     10100      7886      7646     10040     10006     10171      9930      7447      6266      6730      6540      7822      8732 
dram[2]:      9720     10556      9943      9960      7475      7879      9969      9934     10157      9301      6753      6416      6509      6284      8332      7938 
dram[3]:     10057     10631     10029      9906      7571      8163     10002     10002     10198      9741      7299      6265      6752      6294      8397      8191 
dram[4]:     10635     10038     10072     10023      7690      7625      9690      9897      9850      9354      6424      6397      6244      6252      7760      8519 
dram[5]:      8819     10054     10075      9970      7900      7556     10038      9973      9916      9708      6242      6264      6534      6340      8122      8777 
average row accesses per activate:
dram[0]:  3.849894  3.934712  3.748010  3.859537  3.774756  3.795933  3.874286  3.902158  3.891736  3.944404  3.737637  3.868608  3.763855  3.782082  3.811387  3.857193 
dram[1]:  3.749741  3.914832  3.722241  3.939592  3.760334  3.848560  3.785066  3.977998  3.795846  3.973471  3.715944  3.939964  3.750943  3.820405  3.745966  3.918133 
dram[2]:  3.860498  3.800981  3.729934  3.832212  3.762948  3.789989  3.916245  3.842721  3.908663  3.809255  3.728674  3.822456  3.771645  3.770956  3.864023  3.811387 
dram[3]:  3.845799  3.774530  3.815363  3.786639  3.866429  3.819400  3.888172  3.806316  3.881929  3.809255  3.845936  3.821115  3.858151  3.814375  3.854468  3.771863 
dram[4]:  3.855721  3.818374  3.761640  3.880287  3.810630  3.820748  3.842721  3.895153  3.887527  3.837722  3.759144  3.834565  3.774249  3.780083  3.771863  3.881893 
dram[5]:  3.828511  3.879828  3.802599  3.881678  3.762948  3.897768  3.813005  3.860498  3.862464  3.904417  3.799791  3.856283  3.765152  3.887625  3.766655  3.824746 
average row locality = 1042438/272274 = 3.828636
number of total memory accesses made:
dram[0]:         0         0         0         0         0         0         0         0         0         0         0         0         0         0         0         0 
dram[1]:         0         0         0         0         0         0         0         0         0         0         0         0         0         0         0         0 
dram[2]:         0         0         0         0         0         0         0         0         0         0         0         0         0         0         0         0 
dram[3]:         0         0         0         0         0         0         0         0         0         0         0         0         0         0         0         0 
dram[4]:         0         0         0         0         0         0         0         0         0         0         0         0         0         0         0         0 
dram[5]:         0         0         0         0         0         0         0         0         0         0         0         0         0         0         0         0 
total accesses: 0
min_bank_accesses = 0!
min_chip_accesses = 0!
number of total read accesses:
dram[0]:      5441      5440      5440      5440      5440      5440      5440      5440      5440      5440      5480      5484      5504      5504      5504      5504 
dram[1]:      5440      5440      5440      5440      5440      5440      5440      5440      5440      5440      5480      5484      5504      5504      5504      5504 
dram[2]:      5440      5440      5440      5440      5440      5440      5440      5440      5440      5440      5480      5484      5504      5504      5504      5504 
dram[3]:      5441      5440      5440      5440      5440      5440      5440      5440      5440      5440      5480      5484      5504      5504      5504      5504 
dram[4]:      5442      5440      5440      5440      5440      5440      5440      5440      5440      5440      5484      5484      5504      5504      5504      5504 
dram[5]:      5442      5440      5440      5440      5440      5440      5440      5440      5440      5440      5484      5484      5504      5504      5504      5504 
total reads: 524294
bank skew: 5504/5440 = 1.01
chip skew: 87386/87380 = 1.00
number of total write accesses:
dram[0]:      5408      5408      5388      5386      5386      5386      5408      5408      5344      5344      5404      5410      5430      5430      5408      5408 
dram[1]:      5408      5408      5388      5386      5386      5386      5408      5408      5344      5344      5404      5410      5430      5430      5408      5408 
dram[2]:      5408      5408      5388      5386      5386      5388      5408      5408      5344      5344      5404      5410      5430      5428      5408      5408 
dram[3]:      5408      5408      5388      5386      5386      5388      5408      5408      5344      5344      5404      5410      5430      5428      5408      5408 
dram[4]:      5408      5408      5386      5386      5386      5388      5408      5408      5344      5344      5410      5410      5430      5428      5408      5408 
dram[5]:      5408      5408      5386      5386      5386      5388      5408      5408      5344      5344      5410      5410      5430      5428      5408      5408 
total reads: 518144
bank skew: 5430/5344 = 1.02
chip skew: 86360/86356 = 1.00
average mf latency per bank:
dram[0]:        223       224       222       224       223       224       224       225       223       226       223       224       223       224       227       228
dram[1]:        223       224       223       225       223       225       225       226       224       226       224       225       224       226       226       227
dram[2]:        223       224       222       224       223       224       223       225       225       225       223       225       223       224       227       227
dram[3]:        223       224       223       224       224       225       224       225       225       225       223       224       225       225       226       227
dram[4]:        222       224       223       224       223       224       224       225       224       225       224       225       223       225       226       228
dram[5]:        223       224       223       225       223       224       224       226       224       226       224       225       223       226       226       227
maximum mf latency per bank:
dram[0]:        508       630       460       442       501       606       478       530       446       484       539       551       420       528       494       550
dram[1]:        475       581       496       488       504       513       464       495       448       530       522       538       434       502       476       476
dram[2]:        530       500       438       569       542       501       512       482       476       505       700       519       506       464       504       502
dram[3]:        516       484       431       471       538       507       537       496       493       494       636       527       465       532       502       477
dram[4]:        466       520       461       461       501       527       472       506       469       523       519       642       493       469       498       520
dram[5]:        478       474       456       463       507       502       513       486       472       530       525       648       448       478       461       528

Number of Memory Banks Accessed per Memory Operation per Warp (from 0):
0	0	0	0	0	0	0	0	0	0	0	0	0	0	0	0	0	0	0	0	0	0	0	0	0	0	0	0	0	0	0	0	0	0	0	0	0	0	0	0	0	0	0	0	0	0	0	0	0	0	0	0	0	0	0	0	0	0	0	0	0	0	0	0	0	0	0	0	0	0	0	0	0	0	0	0	0	0	0	0	0	0	0	0	0	0	0	0	0	0	0	0	0	0	0	0	
Average # of Memory Banks Accessed per Memory Operation per Warp=-nan

position of mrq chosen
0	0	0	0	0	0	0	0	0	0	0	0	0	0	0	0	

average position of mrq chosen = -nan
Memory Partition 0: 
Cache L2_bank_000:
MSHR contents

Cache L2_bank_001:
MSHR contents

In Dram Latency Queue (total = 0): 
DRAM[0]: 16 bks, busW=4 BL=8 CL=12, tRRD=2 tCCD=6, tRCD=12 tRAS=28 tRP=12 tRC=40
n_cmd=1759838 n_nop=1321798 n_act=45291 n_pre=45275 n_req=173737 n_rd=174762 n_write=172712 bw_util=0.3949
n_activity=1470676 dram_eff=0.4725
bk0: 10882a 1478872i bk1: 10880a 1463547i bk2: 10880a 1480308i bk3: 10880a 1475852i bk4: 10880a 1476905i bk5: 10880a 1462426i bk6: 10880a 1455394i bk7: 10880a 1440891i bk8: 10880a 1481993i bk9: 10880a 1468420i bk10: 10960a 1476321i bk11: 10968a 1474000i bk12: 11008a 1475765i bk13: 11008a 1463488i bk14: 11008a 1447459i bk15: 11008a 1435868i 
dram_util_bins: 0 0 0 0 0 0 0 0 0 0
dram_eff_bins: 0 0 0 0 0 0 0 0 0 0
mrqq: max=16 avg=1.54487
Memory Partition 1: 
Cache L2_bank_002:
MSHR contents

Cache L2_bank_003:
MSHR contents

In Dram Latency Queue (total = 0): 
DRAM[1]: 16 bks, busW=4 BL=8 CL=12, tRRD=2 tCCD=6, tRCD=12 tRAS=28 tRP=12 tRC=40
n_cmd=1759838 n_nop=1321722 n_act=45330 n_pre=45314 n_req=173736 n_rd=174760 n_write=172712 bw_util=0.3949
n_activity=1467171 dram_eff=0.4737
bk0: 10880a 1472859i bk1: 10880a 1465405i bk2: 10880a 1480946i bk3: 10880a 1475222i bk4: 10880a 1474729i bk5: 10880a 1462797i bk6: 10880a 1452065i bk7: 10880a 1446024i bk8: 10880a 1480920i bk9: 10880a 1469272i bk10: 10960a 1474812i bk11: 10968a 1474697i bk12: 11008a 1473834i bk13: 11008a 1460368i bk14: 11008a 1448095i bk15: 11008a 1445766i 
dram_util_bins: 0 0 0 0 0 0 0 0 0 0
dram_eff_bins: 0 0 0 0 0 0 0 0 0 0
mrqq: max=16 avg=1.55887
Memory Partition 2: 
Cache L2_bank_004:
MSHR contents

Cache L2_bank_005:
MSHR contents

In Dram Latency Queue (total = 0): 
DRAM[2]: 16 bks, busW=4 BL=8 CL=12, tRRD=2 tCCD=6, tRCD=12 tRAS=28 tRP=12 tRC=40
n_cmd=1759838 n_nop=1321256 n_act=45563 n_pre=45547 n_req=173736 n_rd=174760 n_write=172712 bw_util=0.3949
n_activity=1473113 dram_eff=0.4718
bk0: 10880a 1484429i bk1: 10880a 1462168i bk2: 10880a 1485391i bk3: 10880a 1464481i bk4: 10880a 1479166i bk5: 10880a 1459666i bk6: 10880a 1464205i bk7: 10880a 1429799i bk8: 10880a 1482376i bk9: 10880a 1458603i bk10: 10960a 1490646i bk11: 10968a 1462006i bk12: 11008a 1478916i bk13: 11008a 1452956i bk14: 11008a 1458122i bk15: 11008a 1431161i 
dram_util_bins: 0 0 0 0 0 0 0 0 0 0
dram_eff_bins: 0 0 0 0 0 0 0 0 0 0
mrqq: max=16 avg=1.53079
Memory Partition 3: 
Cache L2_bank_006:
MSHR contents

Cache L2_bank_007:
MSHR contents

In Dram Latency Queue (total = 0): 
DRAM[3]: 16 bks, busW=4 BL=8 CL=12, tRRD=2 tCCD=6, tRCD=12 tRAS=28 tRP=12 tRC=40
n_cmd=1759838 n_nop=1321618 n_act=45381 n_pre=45365 n_req=173737 n_rd=174762 n_write=172712 bw_util=0.3949
n_activity=1470479 dram_eff=0.4726
bk0: 10882a 1482239i bk1: 10880a 1463831i bk2: 10880a 1492105i bk3: 10880a 1463300i bk4: 10880a 1479625i bk5: 10880a 1457072i bk6: 10880a 1467631i bk7: 10880a 1434980i bk8: 10880a 1483667i bk9: 10880a 1459413i bk10: 10960a 1493740i bk11: 10968a 1464095i bk12: 11008a 1481416i bk13: 11008a 1458778i bk14: 11008a 1458802i bk15: 11008a 1431883i 
dram_util_bins: 0 0 0 0 0 0 0 0 0 0
dram_eff_bins: 0 0 0 0 0 0 0 0 0 0
mrqq: max=16 avg=1.52545
Memory Partition 4: 
Cache L2_bank_008:
MSHR contents

Cache L2_bank_009:
MSHR contents

In Dram Latency Queue (total = 0): 
DRAM[4]: 16 bks, busW=4 BL=8 CL=12, tRRD=2 tCCD=6, tRCD=12 tRAS=28 tRP=12 tRC=40
n_cmd=1759838 n_nop=1321518 n_act=45422 n_pre=45406 n_req=173746 n_rd=174772 n_write=172720 bw_util=0.3949
n_activity=1471238 dram_eff=0.4724
bk0: 10884a 1479707i bk1: 10880a 1462883i bk2: 10880a 1475965i bk3: 10880a 1476277i bk4: 10880a 1479611i bk5: 10880a 1462221i bk6: 10880a 1452726i bk7: 10880a 1445681i bk8: 10880a 1480925i bk9: 10880a 1465803i bk10: 10968a 1478465i bk11: 10968a 1474284i bk12: 11008a 1475731i bk13: 11008a 1460852i bk14: 11008a 1448175i bk15: 11008a 1440018i 
dram_util_bins: 0 0 0 0 0 0 0 0 0 0
dram_eff_bins: 0 0 0 0 0 0 0 0 0 0
mrqq: max=16 avg=1.5288
Memory Partition 5: 
Cache L2_bank_010:
MSHR contents

Cache L2_bank_011:
MSHR contents

In Dram Latency Queue (total = 0): 
DRAM[5]: 16 bks, busW=4 BL=8 CL=12, tRRD=2 tCCD=6, tRCD=12 tRAS=28 tRP=12 tRC=40
n_cmd=1759838 n_nop=1321786 n_act=45288 n_pre=45272 n_req=173746 n_rd=174772 n_write=172720 bw_util=0.3949
n_activity=1467204 dram_eff=0.4737
bk0: 10884a 1480010i bk1: 10880a 1467236i bk2: 10880a 1481445i bk3: 10880a 1474255i bk4: 10880a 1474691i bk5: 10880a 1466460i bk6: 10880a 1450690i bk7: 10880a 1445331i bk8: 10880a 1480858i bk9: 10880a 1470790i bk10: 10968a 1480596i bk11: 10968a 1472552i bk12: 11008a 1476131i bk13: 11008a 1460608i bk14: 11008a 1453727i bk15: 11008a 1442935i 
dram_util_bins: 0 0 0 0 0 0 0 0 0 0
dram_eff_bins: 0 0 0 0 0 0 0 0 0 0
mrqq: max=16 avg=1.54242

========= L2 cache stats =========
L2_cache_bank[0]: Access = 87391, Miss = 43689, Miss_rate = 0.500, Pending_hits = 3, Reservation_fails = 221
L2_cache_bank[1]: Access = 87384, Miss = 43692, Miss_rate = 0.500, Pending_hits = 0, Reservation_fails = 72
L2_cache_bank[2]: Access = 87376, Miss = 43688, Miss_rate = 0.500, Pending_hits = 0, Reservation_fails = 91
L2_cache_bank[3]: Access = 87384, Miss = 43692, Miss_rate = 0.500, Pending_hits = 0, Reservation_fails = 71
L2_cache_bank[4]: Access = 87376, Miss = 43688, Miss_rate = 0.500, Pending_hits = 0, Reservation_fails = 0
L2_cache_bank[5]: Access = 87384, Miss = 43692, Miss_rate = 0.500, Pending_hits = 0, Reservation_fails = 42
L2_cache_bank[6]: Access = 87391, Miss = 43689, Miss_rate = 0.500, Pending_hits = 3, Reservation_fails = 116
L2_cache_bank[7]: Access = 87384, Miss = 43692, Miss_rate = 0.500, Pending_hits = 0, Reservation_fails = 110
L2_cache_bank[8]: Access = 87414, Miss = 43694, Miss_rate = 0.500, Pending_hits = 6, Reservation_fails = 239
L2_cache_bank[9]: Access = 87384, Miss = 43692, Miss_rate = 0.500, Pending_hits = 0, Reservation_fails = 75
L2_cache_bank[10]: Access = 87414, Miss = 43694, Miss_rate = 0.500, Pending_hits = 6, Reservation_fails = 348
L2_cache_bank[11]: Access = 87384, Miss = 43692, Miss_rate = 0.500, Pending_hits = 0, Reservation_fails = 0
L2_total_cache_accesses = 1048666
L2_total_cache_misses = 524294
L2_total_cache_miss_rate = 0.5000
L2_total_cache_pending_hits = 18
L2_total_cache_reservation_fails = 1385
L2_total_cache_breakdown:
	L2_cache_stats_breakdown[GLOBAL_ACC_R][MISS] = 524288
	L2_cache_stats_breakdown[GLOBAL_ACC_R][RESERVATION_FAIL] = 737
	L2_cache_stats_breakdown[CONST_ACC_R][HIT] = 11
	L2_cache_stats_breakdown[CONST_ACC_R][HIT_RESERVED] = 3
	L2_cache_stats_breakdown[CONST_ACC_R][MISS] = 1
	L2_cache_stats_breakdown[CONST_ACC_R][RESERVATION_FAIL] = 100
	L2_cache_stats_breakdown[GLOBAL_ACC_W][HIT] = 524288
	L2_cache_stats_breakdown[INST_ACC_R][HIT] = 55
	L2_cache_stats_breakdown[INST_ACC_R][HIT_RESERVED] = 15
	L2_cache_stats_breakdown[INST_ACC_R][MISS] = 5
	L2_cache_stats_breakdown[INST_ACC_R][RESERVATION_FAIL] = 548
L2_cache_data_port_util = 0.261
L2_cache_fill_port_util = 0.131

icnt_total_pkts_mem_to_simt=3146148
icnt_total_pkts_simt_to_mem=3145818
LD_mem_lat_dist  0 0 0 0 0 0 0 0 0 0 0 0 0 0 0 0 0 0 0 0 0 0 0 0 0 0 0
ST_mem_lat_dist  0 0 0 0 0 0 0 0 0 0 0 0 0 0 0 0 0 0 0 0 0 0 0 0 0 0 0
----------------------------Interconnect-DETAILS--------------------------------
Class 0:
Packet latency average = 11.7576
	minimum = 6
	maximum = 130
Network latency average = 10.6717
	minimum = 6
	maximum = 107
Slowest packet = 1049318
Flit latency average = 9.11707
	minimum = 6
	maximum = 103
Slowest flit = 6034814
Fragmentation average = 0
	minimum = 0
	maximum = 0
Injected packet rate average = 0.0582282
	minimum = 0.0520087 (at node 11)
	maximum = 0.0655087 (at node 16)
Accepted packet rate average = 0.0582282
	minimum = 0.0520087 (at node 11)
	maximum = 0.0655087 (at node 16)
Injected flit rate average = 0.174684
	minimum = 0.156026 (at node 11)
	maximum = 0.196526 (at node 16)
Accepted flit rate average= 0.174684
	minimum = 0.156026 (at node 11)
	maximum = 0.196526 (at node 16)
Injected packet length average = 3
Accepted packet length average = 3
Total in-flight flits = 0 (0 measured)
====== Overall Traffic Statistics ======
====== Traffic class 0 ======
Packet latency average = 11.7735 (2 samples)
	minimum = 6 (2 samples)
	maximum = 126.5 (2 samples)
Network latency average = 10.6912 (2 samples)
	minimum = 6 (2 samples)
	maximum = 106 (2 samples)
Flit latency average = 9.12491 (2 samples)
	minimum = 6 (2 samples)
	maximum = 102 (2 samples)
Fragmentation average = 4.2908e-06 (2 samples)
	minimum = 0 (2 samples)
	maximum = 4.5 (2 samples)
Injected packet rate average = 0.0582645 (2 samples)
	minimum = 0.0520413 (2 samples)
	maximum = 0.0655665 (2 samples)
Accepted packet rate average = 0.0582645 (2 samples)
	minimum = 0.0520413 (2 samples)
	maximum = 0.0655665 (2 samples)
Injected flit rate average = 0.174793 (2 samples)
	minimum = 0.156115 (2 samples)
	maximum = 0.196745 (2 samples)
Accepted flit rate average = 0.174793 (2 samples)
	minimum = 0.156131 (2 samples)
	maximum = 0.196654 (2 samples)
Injected packet size average = 2.99999 (2 samples)
Accepted packet size average = 2.99999 (2 samples)
Hops average = 1 (2 samples)
