

        *** GPGPU-Sim Simulator Version 3.2.2  [build 0] ***


GPGPU-Sim PTX: simulation mode 0 (can change with PTX_SIM_MODE_FUNC environment variable:
               1=functional simulation only, 0=detailed performance simulator)
GPGPU-Sim: Configuration options:

-network_mode                           1 # Interconnection network mode
-inter_config_file   config_fermi_islip.icnt # Interconnection network config file
-gpgpu_ptx_use_cuobjdump                    1 # Use cuobjdump to extract ptx and sass from binaries
-gpgpu_experimental_lib_support                    0 # Try to extract code from cuda libraries [Broken because of unknown cudaGetExportTable]
-gpgpu_ptx_convert_to_ptxplus                    0 # Convert SASS (native ISA) to ptxplus and run ptxplus
-gpgpu_ptx_force_max_capability                   20 # Force maximum compute capability
-gpgpu_ptx_inst_debug_to_file                    0 # Dump executed instructions' debug information to file
-gpgpu_ptx_inst_debug_file       inst_debug.txt # Executed instructions' debug output file
-gpgpu_ptx_inst_debug_thread_uid                    1 # Thread UID for executed instructions' debug output
-gpgpu_simd_model                       1 # 1 = post-dominator
-gpgpu_shader_core_pipeline              1536:32 # shader core pipeline config, i.e., {<nthread>:<warpsize>}
-gpgpu_tex_cache:l1  4:128:24,L:R:m:N:L,F:128:4,128:2 # per-shader L1 texture cache  (READ-ONLY) config  {<nsets>:<bsize>:<assoc>,<rep>:<wr>:<alloc>:<wr_alloc>,<mshr>:<N>:<merge>,<mq>:<rf>}
-gpgpu_const_cache:l1 64:64:2,L:R:f:N:L,A:2:32,4 # per-shader L1 constant memory cache  (READ-ONLY) config  {<nsets>:<bsize>:<assoc>,<rep>:<wr>:<alloc>:<wr_alloc>,<mshr>:<N>:<merge>,<mq>} 
-gpgpu_cache:il1     4:128:4,L:R:f:N:L,A:2:32,4 # shader L1 instruction cache config  {<nsets>:<bsize>:<assoc>,<rep>:<wr>:<alloc>:<wr_alloc>,<mshr>:<N>:<merge>,<mq>} 
-gpgpu_cache:dl1     32:128:4,L:L:m:N:H,A:32:8,8:2,0,1:0:1:1:0:1,1:4:8:16:32:64,/sciclone/data10/hwang07/GPU_RESEARCH/swl/swl_outputs/RESULTS/swl1/ # per-shader L1 data cache config  {<nsets>:<bsize>:<assoc>,<rep>:<wr>:<alloc>:<wr_alloc>,<mshr>:<N>:<merge>,<mq> | none}
-gpgpu_cache:dl1PrefL1                 none # per-shader L1 data cache config  {<nsets>:<bsize>:<assoc>,<rep>:<wr>:<alloc>:<wr_alloc>,<mshr>:<N>:<merge>,<mq> | none}
-gpgpu_cache:dl1PreShared                 none # per-shader L1 data cache config  {<nsets>:<bsize>:<assoc>,<rep>:<wr>:<alloc>:<wr_alloc>,<mshr>:<N>:<merge>,<mq> | none}
-gmem_skip_L1D                          0 # global memory access skip L1D cache (implements -Xptxas -dlcm=cg, default=no skip)
-gpgpu_perfect_mem                      0 # enable perfect memory mode (no cache miss)
-n_regfile_gating_group                    4 # group of lanes that should be read/written together)
-gpgpu_clock_gated_reg_file                    0 # enable clock gated reg file for power calculations
-gpgpu_clock_gated_lanes                    0 # enable clock gated lanes for power calculations
-gpgpu_shader_registers                32768 # Number of registers per shader core. Limits number of concurrent CTAs. (default 8192)
-gpgpu_shader_cta                       8 # Maximum number of concurrent CTAs in shader (default 8)
-gpgpu_num_cta_barriers                   16 # Maximum number of named barriers per CTA (default 16)
-gpgpu_n_clusters                      15 # number of processing clusters
-gpgpu_n_cores_per_cluster                    1 # number of simd cores per cluster
-gpgpu_n_cluster_ejection_buffer_size                    8 # number of packets in ejection buffer
-gpgpu_n_ldst_response_buffer_size                    2 # number of response packets in ld/st unit ejection buffer
-gpgpu_shmem_size                   16384 # Size of shared memory per shader core (default 16kB)
-gpgpu_shmem_size                   49152 # Size of shared memory per shader core (default 16kB)
-gpgpu_shmem_size_PrefL1                16384 # Size of shared memory per shader core (default 16kB)
-gpgpu_shmem_size_PrefShared                16384 # Size of shared memory per shader core (default 16kB)
-gpgpu_shmem_num_banks                   32 # Number of banks in the shared memory in each shader core (default 16)
-gpgpu_shmem_limited_broadcast                    0 # Limit shared memory to do one broadcast per cycle (default on)
-gpgpu_shmem_warp_parts                    1 # Number of portions a warp is divided into for shared memory bank conflict check 
-gpgpu_warpdistro_shader                   -1 # Specify which shader core to collect the warp size distribution from
-gpgpu_warp_issue_shader                    0 # Specify which shader core to collect the warp issue distribution from
-gpgpu_local_mem_map                    1 # Mapping from local memory space address to simulated GPU physical address space (default = enabled)
-gpgpu_num_reg_banks                   16 # Number of register banks (default = 8)
-gpgpu_reg_bank_use_warp_id                    0 # Use warp ID in mapping registers to banks (default = off)
-gpgpu_operand_collector_num_units_sp                    6 # number of collector units (default = 4)
-gpgpu_operand_collector_num_units_sfu                    8 # number of collector units (default = 4)
-gpgpu_operand_collector_num_units_mem                    2 # number of collector units (default = 2)
-gpgpu_operand_collector_num_units_gen                    0 # number of collector units (default = 0)
-gpgpu_operand_collector_num_in_ports_sp                    2 # number of collector unit in ports (default = 1)
-gpgpu_operand_collector_num_in_ports_sfu                    1 # number of collector unit in ports (default = 1)
-gpgpu_operand_collector_num_in_ports_mem                    1 # number of collector unit in ports (default = 1)
-gpgpu_operand_collector_num_in_ports_gen                    0 # number of collector unit in ports (default = 0)
-gpgpu_operand_collector_num_out_ports_sp                    2 # number of collector unit in ports (default = 1)
-gpgpu_operand_collector_num_out_ports_sfu                    1 # number of collector unit in ports (default = 1)
-gpgpu_operand_collector_num_out_ports_mem                    1 # number of collector unit in ports (default = 1)
-gpgpu_operand_collector_num_out_ports_gen                    0 # number of collector unit in ports (default = 0)
-gpgpu_coalesce_arch                   13 # Coalescing arch (default = 13, anything else is off for now)
-gpgpu_num_sched_per_core                    2 # Number of warp schedulers per core
-gpgpu_max_insn_issue_per_warp                    1 # Max number of instructions that can be issued per warp in one cycle by scheduler
-gpgpu_simt_core_sim_order                    1 # Select the simulation order of cores in a cluster (0=Fix, 1=Round-Robin)
-gpgpu_pipeline_widths        2,1,1,2,1,1,2 # Pipeline widths ID_OC_SP,ID_OC_SFU,ID_OC_MEM,OC_EX_SP,OC_EX_SFU,OC_EX_MEM,EX_WB
-gpgpu_num_sp_units                     2 # Number of SP units (default=1)
-gpgpu_num_sfu_units                    1 # Number of SF units (default=1)
-gpgpu_num_mem_units                    1 # Number if ldst units (default=1) WARNING: not hooked up to anything
-gpgpu_scheduler        warp_limiting:2:1 # Scheduler configuration: < lrr | gto | two_level_active > If two_level_active:<num_active_warps>:<inner_prioritization>:<outer_prioritization>For complete list of prioritization values see shader.h enum scheduler_prioritization_typeDefault: gto
-gpgpu_dram_scheduler                    1 # 0 = fifo, 1 = FR-FCFS (defaul)
-gpgpu_dram_partition_queues              8:8:8:8 # i2$:$2d:d2$:$2i
-l2_ideal                               0 # Use a ideal L2 cache that always hit
-gpgpu_cache:dl2     64:128:8,L:B:m:W:L,A:32:4,4:0,32 # unified banked L2 data cache config  {<nsets>:<bsize>:<assoc>,<rep>:<wr>:<alloc>:<wr_alloc>,<mshr>:<N>:<merge>,<mq>}
-gpgpu_cache:dl2_texture_only                    0 # L2 cache used for texture only
-gpgpu_n_mem                            6 # number of memory modules (e.g. memory controllers) in gpu
-gpgpu_n_sub_partition_per_mchannel                    2 # number of memory subpartition in each memory module
-gpgpu_n_mem_per_ctrlr                    2 # number of memory chips per memory controller
-gpgpu_memlatency_stat                   14 # track and display latency statistics 0x2 enables MC, 0x4 enables queue logs
-gpgpu_frfcfs_dram_sched_queue_size                   16 # 0 = unlimited (default); # entries per chip
-gpgpu_dram_return_queue_size                  116 # 0 = unlimited (default); # entries per chip
-gpgpu_dram_buswidth                    4 # default = 4 bytes (8 bytes per cycle at DDR)
-gpgpu_dram_burst_length                    8 # Burst length of each DRAM request (default = 4 data bus cycle)
-dram_data_command_freq_ratio                    4 # Frequency ratio between DRAM data bus and command bus (default = 2 times, i.e. DDR)
-gpgpu_dram_timing_opt nbk=16:CCD=2:RRD=6:RCD=12:RAS=28:RP=12:RC=40: CL=12:WL=4:CDLR=5:WR=12:nbkgrp=4:CCDL=3:RTPL=2 # DRAM timing parameters = {nbk:tCCD:tRRD:tRCD:tRAS:tRP:tRC:CL:WL:tCDLR:tWR:nbkgrp:tCCDL:tRTPL}
-rop_latency                          120 # ROP queue latency (default 85)
-dram_latency                         100 # DRAM latency (default 30)
-gpgpu_mem_addr_mapping dramid@8;00000000.00000000.00000000.00000000.0000RRRR.RRRRRRRR.BBBCCCCB.CCSSSSSS # mapping memory address to dram model {dramid@<start bit>;<memory address map>}
-gpgpu_mem_addr_test                    0 # run sweep test to check address mapping for aliased address
-gpgpu_mem_address_mask                    1 # 0 = old addressing mask, 1 = new addressing mask, 2 = new add. mask + flipped bank sel and chip sel bits
-gpuwattch_xml_file  gpuwattch_gtx480.xml # GPUWattch XML file
-power_simulation_enabled                    0 # Turn on power simulator (1=On, 0=Off)
-power_per_cycle_dump                    0 # Dump detailed power output each cycle
-power_trace_enabled                    0 # produce a file for the power trace (1=On, 0=Off)
-power_trace_zlevel                     6 # Compression level of the power trace output log (0=no comp, 9=highest)
-steady_power_levels_enabled                    0 # produce a file for the steady power levels (1=On, 0=Off)
-steady_state_definition                  8:4 # allowed deviation:number of samples
-gpgpu_max_cycle                        0 # terminates gpu simulation early (0 = no limit)
-gpgpu_max_insn                         0 # terminates gpu simulation early (0 = no limit)
-gpgpu_max_cta                          0 # terminates gpu simulation early (0 = no limit)
-gpgpu_runtime_stat                   500 # display runtime statistics such as dram utilization {<freq>:<flag>}
-liveness_message_freq                    1 # Minimum number of seconds between simulation liveness messages (0 = always print)
-gpgpu_flush_l1_cache                    0 # Flush L1 cache at the end of each kernel call
-gpgpu_flush_l2_cache                    0 # Flush L2 cache at the end of each kernel call
-gpgpu_deadlock_detect                    1 # Stop the simulation at deadlock (1=on (default), 0=off)
-gpgpu_ptx_instruction_classification                    0 # if enabled will classify ptx instruction types per kernel (Max 255 kernels now)
-gpgpu_ptx_sim_mode                     0 # Select between Performance (default) or Functional simulation (1)
-gpgpu_clock_domains 700.0:700.0:700.0:924.0 # Clock Domain Frequencies in MhZ {<Core Clock>:<ICNT Clock>:<L2 Clock>:<DRAM Clock>}
-gpgpu_max_concurrent_kernel                    8 # maximum kernels that can run concurrently on GPU
-gpgpu_cflog_interval                    0 # Interval between each snapshot in control flow logger
-visualizer_enabled                     0 # Turn on visualizer output (1=On, 0=Off)
-visualizer_outputfile                 NULL # Specifies the output log file for visualizer
-visualizer_zlevel                      6 # Compression level of the visualizer output log (0=no comp, 9=highest)
-trace_enabled                          0 # Turn on traces
-trace_components                    none # comma seperated list of traces to enable. Complete list found in trace_streams.tup. Default none
-trace_sampling_core                    0 # The core which is printed using CORE_DPRINTF. Default 0
-trace_sampling_memory_partition                   -1 # The memory partition which is printed using MEMPART_DPRINTF. Default -1 (i.e. all)
-enable_ptx_file_line_stats                    1 # Turn on PTX source line statistic profiling. (1 = On)
-ptx_line_stats_filename gpgpu_inst_stats.txt # Output file for PTX source line statistics.
-save_embedded_ptx                      0 # saves ptx files embedded in binary as <n>.ptx
-keep                                   0 # keep intermediate files created by GPGPU-Sim when interfacing with external programs
-gpgpu_ptx_save_converted_ptxplus                    0 # Saved converted ptxplus to a file
-ptx_opcode_latency_int         4,13,4,5,145 # Opcode latencies for integers <ADD,MAX,MUL,MAD,DIV>Default 1,1,19,25,145
-ptx_opcode_latency_fp          4,13,4,5,39 # Opcode latencies for single precision floating points <ADD,MAX,MUL,MAD,DIV>Default 1,1,1,1,30
-ptx_opcode_latency_dp         8,19,8,8,330 # Opcode latencies for double precision floating points <ADD,MAX,MUL,MAD,DIV>Default 8,8,8,8,335
-ptx_opcode_initiation_int            1,2,2,1,8 # Opcode initiation intervals for integers <ADD,MAX,MUL,MAD,DIV>Default 1,1,4,4,32
-ptx_opcode_initiation_fp            1,2,1,1,4 # Opcode initiation intervals for single precision floating points <ADD,MAX,MUL,MAD,DIV>Default 1,1,1,1,5
-ptx_opcode_initiation_dp         8,16,8,8,130 # Opcode initiation intervals for double precision floating points <ADD,MAX,MUL,MAD,DIV>Default 8,8,8,8,130
DRAM Timing Options:
nbk                                    16 # number of banks
CCD                                     2 # column to column delay
RRD                                     6 # minimal delay between activation of rows in different banks
RCD                                    12 # row to column delay
RAS                                    28 # time needed to activate row
RP                                     12 # time needed to precharge (deactivate) row
RC                                     40 # row cycle time
CDLR                                    5 # switching from write to read (changes tWTR)
WR                                     12 # last data-in to row precharge
CL                                     12 # CAS latency
WL                                      4 # Write latency
nbkgrp                                  4 # number of bank groups
CCDL                                    3 # column to column delay between accesses to different bank groups
RTPL                                    2 # read to precharge delay between accesses to different bank groups
Total number of memory sub partition = 12
addr_dec_mask[CHIP]  = 0000000000000000 	high:64 low:0
addr_dec_mask[BK]    = 000000000000e100 	high:16 low:8
addr_dec_mask[ROW]   = 000000000fff0000 	high:28 low:16
addr_dec_mask[COL]   = 0000000000001eff 	high:13 low:0
addr_dec_mask[BURST] = 000000000000003f 	high:6 low:0
sub_partition_id_mask = 0000000000000100
GPGPU-Sim uArch: clock freqs: 700000000.000000:700000000.000000:700000000.000000:924000000.000000
GPGPU-Sim uArch: clock periods: 0.00000000142857142857:0.00000000142857142857:0.00000000142857142857:0.00000000108225108225
*** Initializing Memory Statistics ***
GPGPU-Sim uArch: interconnect node map (shaderID+MemID to icntID)
GPGPU-Sim uArch: Memory nodes ID start from index: 15
GPGPU-Sim uArch:    0   1   2   3   4
GPGPU-Sim uArch:    5   6   7   8   9
GPGPU-Sim uArch:   10  11  12  13  14
GPGPU-Sim uArch:   15  16  17  18  19
GPGPU-Sim uArch:   20  21  22  23  24
GPGPU-Sim uArch:   25  26
GPGPU-Sim uArch: interconnect node reverse map (icntID to shaderID+MemID)
GPGPU-Sim uArch: Memory nodes start from ID: 15
GPGPU-Sim uArch:    0   1   2   3   4
GPGPU-Sim uArch:    5   6   7   8   9
GPGPU-Sim uArch:   10  11  12  13  14
GPGPU-Sim uArch:   15  16  17  18  19
GPGPU-Sim uArch:   20  21  22  23  24
GPGPU-Sim uArch:   25  26
401c1b8a3e5a334cce6183153c85d25d  /sciclone/data10/hwang07/adwait/applications/benchmarks/rodinia/cuda/cfd/gpgpu_ptx_sim__cfd
GPGPU-Sim uArch: performance model initialization complete.
GPGPU-Sim PTX: __cudaRegisterFatBinary, fat_cubin_handle = 1, filename=euler3d.cu
self exe links to: /sciclone/data10/hwang07/adwait/applications/benchmarks/rodinia/cuda/cfd/gpgpu_ptx_sim__cfd
Running md5sum using "md5sum /sciclone/data10/hwang07/adwait/applications/benchmarks/rodinia/cuda/cfd/gpgpu_ptx_sim__cfd "
Parsing file _cuobjdump_complete_output_B0vF5g
######### cuobjdump parser ########
## Adding new section ELF
Adding arch: sm_20
Adding identifier: euler3d.cu
## Adding new section PTX
Adding ptx filename: _cuobjdump_1.ptx
Adding arch: sm_20
Adding identifier: euler3d.cu
Done parsing!!!
GPGPU-Sim PTX: __cudaRegisterFunction _Z14cuda_time_stepiiPfS_S_S_ : hostFun 0x0x406564, fat_cubin_handle = 1
GPGPU-Sim PTX: allocating constant region for "ff_variable" from 0x100 to 0x114 (global memory space) 1
GPGPU-Sim PTX: instruction assembly for function '_Z25cuda_initialize_variablesiPf'...   done.
GPGPU-Sim PTX: finding reconvergence points for '_Z25cuda_initialize_variablesiPf'...
GPGPU-Sim PTX: Finding dominators for '_Z25cuda_initialize_variablesiPf'...
GPGPU-Sim PTX: Finding immediate dominators for '_Z25cuda_initialize_variablesiPf'...
GPGPU-Sim PTX: Finding postdominators for '_Z25cuda_initialize_variablesiPf'...
GPGPU-Sim PTX: Finding immediate postdominators for '_Z25cuda_initialize_variablesiPf'...
GPGPU-Sim PTX: pre-decoding instructions for '_Z25cuda_initialize_variablesiPf'...
GPGPU-Sim PTX: reconvergence points for _Z25cuda_initialize_variablesiPf...
GPGPU-Sim PTX: ... end of reconvergence points for _Z25cuda_initialize_variablesiPf
GPGPU-Sim PTX: ... done pre-decoding instructions for '_Z25cuda_initialize_variablesiPf'.
GPGPU-Sim PTX: instruction assembly for function '_Z24cuda_compute_step_factoriPfS_S_'...   done.
GPGPU-Sim PTX: finding reconvergence points for '_Z24cuda_compute_step_factoriPfS_S_'...
GPGPU-Sim PTX: Finding dominators for '_Z24cuda_compute_step_factoriPfS_S_'...
GPGPU-Sim PTX: Finding immediate dominators for '_Z24cuda_compute_step_factoriPfS_S_'...
GPGPU-Sim PTX: Finding postdominators for '_Z24cuda_compute_step_factoriPfS_S_'...
GPGPU-Sim PTX: Finding immediate postdominators for '_Z24cuda_compute_step_factoriPfS_S_'...
GPGPU-Sim PTX: pre-decoding instructions for '_Z24cuda_compute_step_factoriPfS_S_'...
GPGPU-Sim PTX: reconvergence points for _Z24cuda_compute_step_factoriPfS_S_...
GPGPU-Sim PTX: ... end of reconvergence points for _Z24cuda_compute_step_factoriPfS_S_
GPGPU-Sim PTX: ... done pre-decoding instructions for '_Z24cuda_compute_step_factoriPfS_S_'.
GPGPU-Sim PTX: allocating constant region for "ff_flux_contribution_momentum_x" from 0x180 to 0x18c (global memory space) 2
GPGPU-Sim PTX: allocating constant region for "ff_flux_contribution_momentum_y" from 0x200 to 0x20c (global memory space) 3
GPGPU-Sim PTX: allocating constant region for "ff_flux_contribution_momentum_z" from 0x280 to 0x28c (global memory space) 4
GPGPU-Sim PTX: allocating constant region for "ff_flux_contribution_density_energy" from 0x300 to 0x30c (global memory space) 5
GPGPU-Sim PTX: instruction assembly for function '_Z17cuda_compute_fluxiPiPfS0_S0_'...   done.
GPGPU-Sim PTX: finding reconvergence points for '_Z17cuda_compute_fluxiPiPfS0_S0_'...
GPGPU-Sim PTX: Finding dominators for '_Z17cuda_compute_fluxiPiPfS0_S0_'...
GPGPU-Sim PTX: Finding immediate dominators for '_Z17cuda_compute_fluxiPiPfS0_S0_'...
GPGPU-Sim PTX: Finding postdominators for '_Z17cuda_compute_fluxiPiPfS0_S0_'...
GPGPU-Sim PTX: Finding immediate postdominators for '_Z17cuda_compute_fluxiPiPfS0_S0_'...
GPGPU-Sim PTX: pre-decoding instructions for '_Z17cuda_compute_fluxiPiPfS0_S0_'...
GPGPU-Sim PTX: reconvergence points for _Z17cuda_compute_fluxiPiPfS0_S0_...
GPGPU-Sim PTX:  1 (potential) branch divergence @  PC=0x4c8 (_1.ptx:266) @%p1 bra $Lt_2_3842;
GPGPU-Sim PTX:    immediate post dominator      @  PC=0xc78 (_1.ptx:538) add.u64 %rd40, %rd6, %rd17;
GPGPU-Sim PTX:  2 (potential) branch divergence @  PC=0x910 (_1.ptx:414) bra.uni $Lt_2_3586;
GPGPU-Sim PTX:    immediate post dominator      @  PC=0xc78 (_1.ptx:538) add.u64 %rd40, %rd6, %rd17;
GPGPU-Sim PTX:  3 (potential) branch divergence @  PC=0x928 (_1.ptx:418) @%p2 bra $Lt_2_4354;
GPGPU-Sim PTX:    immediate post dominator      @  PC=0xc78 (_1.ptx:538) add.u64 %rd40, %rd6, %rd17;
GPGPU-Sim PTX:  4 (potential) branch divergence @  PC=0x9d0 (_1.ptx:442) bra.uni $Lt_2_4098;
GPGPU-Sim PTX:    immediate post dominator      @  PC=0xc78 (_1.ptx:538) add.u64 %rd40, %rd6, %rd17;
GPGPU-Sim PTX:  5 (potential) branch divergence @  PC=0x9e8 (_1.ptx:446) @%p3 bra $Lt_2_4866;
GPGPU-Sim PTX:    immediate post dominator      @  PC=0xc78 (_1.ptx:538) add.u64 %rd40, %rd6, %rd17;
GPGPU-Sim PTX:  6 (potential) branch divergence @  PC=0xc48 (_1.ptx:527) bra.uni $Lt_2_4610;
GPGPU-Sim PTX:    immediate post dominator      @  PC=0xc78 (_1.ptx:538) add.u64 %rd40, %rd6, %rd17;
GPGPU-Sim PTX:  7 (potential) branch divergence @  PC=0xd08 (_1.ptx:559) @%p4 bra $Lt_2_5378;
GPGPU-Sim PTX:    immediate post dominator      @  PC=0x1410 (_1.ptx:834) add.u64 %rd63, %rd9, %rd17;
GPGPU-Sim PTX:  8 (potential) branch divergence @  PC=0x1128 (_1.ptx:717) bra.uni $Lt_2_5122;
GPGPU-Sim PTX:    immediate post dominator      @  PC=0x1410 (_1.ptx:834) add.u64 %rd63, %rd9, %rd17;
GPGPU-Sim PTX:  9 (potential) branch divergence @  PC=0x1140 (_1.ptx:721) @%p5 bra $Lt_2_5890;
GPGPU-Sim PTX:    immediate post dominator      @  PC=0x1410 (_1.ptx:834) add.u64 %rd63, %rd9, %rd17;
GPGPU-Sim PTX: 10 (potential) branch divergence @  PC=0x11c0 (_1.ptx:740) bra.uni $Lt_2_5634;
GPGPU-Sim PTX:    immediate post dominator      @  PC=0x1410 (_1.ptx:834) add.u64 %rd63, %rd9, %rd17;
GPGPU-Sim PTX: 11 (potential) branch divergence @  PC=0x11d8 (_1.ptx:744) @%p6 bra $Lt_2_6146;
GPGPU-Sim PTX:    immediate post dominator      @  PC=0x1410 (_1.ptx:834) add.u64 %rd63, %rd9, %rd17;
GPGPU-Sim PTX: 12 (potential) branch divergence @  PC=0x14a0 (_1.ptx:855) @%p7 bra $Lt_2_6914;
GPGPU-Sim PTX:    immediate post dominator      @  PC=0x1ba8 (_1.ptx:1130) add.u64 %rd86, %rd12, %rd17;
GPGPU-Sim PTX: 13 (potential) branch divergence @  PC=0x18c0 (_1.ptx:1013) bra.uni $Lt_2_6658;
GPGPU-Sim PTX:    immediate post dominator      @  PC=0x1ba8 (_1.ptx:1130) add.u64 %rd86, %rd12, %rd17;
GPGPU-Sim PTX: 14 (potential) branch divergence @  PC=0x18d8 (_1.ptx:1017) @%p8 bra $Lt_2_7426;
GPGPU-Sim PTX:    immediate post dominator      @  PC=0x1ba8 (_1.ptx:1130) add.u64 %rd86, %rd12, %rd17;
GPGPU-Sim PTX: 15 (potential) branch divergence @  PC=0x1958 (_1.ptx:1036) bra.uni $Lt_2_7170;
GPGPU-Sim PTX:    immediate post dominator      @  PC=0x1ba8 (_1.ptx:1130) add.u64 %rd86, %rd12, %rd17;
GPGPU-Sim PTX: 16 (potential) branch divergence @  PC=0x1970 (_1.ptx:1040) @%p9 bra $Lt_2_7682;
GPGPU-Sim PTX:    immediate post dominator      @  PC=0x1ba8 (_1.ptx:1130) add.u64 %rd86, %rd12, %rd17;
GPGPU-Sim PTX: 17 (potential) branch divergence @  PC=0x1c38 (_1.ptx:1151) @%p10 bra $Lt_2_8450;
GPGPU-Sim PTX:    immediate post dominator      @  PC=0x2340 (_1.ptx:1426) ld.param.u64 %rd109, [__cudaparm__Z17cuda_compute_fluxiPiPfS0_S0__fluxes];
GPGPU-Sim PTX: 18 (potential) branch divergence @  PC=0x2058 (_1.ptx:1309) bra.uni $Lt_2_8194;
GPGPU-Sim PTX:    immediate post dominator      @  PC=0x2340 (_1.ptx:1426) ld.param.u64 %rd109, [__cudaparm__Z17cuda_compute_fluxiPiPfS0_S0__fluxes];
GPGPU-Sim PTX: 19 (potential) branch divergence @  PC=0x2070 (_1.ptx:1313) @%p11 bra $Lt_2_8962;
GPGPU-Sim PTX:    immediate post dominator      @  PC=0x2340 (_1.ptx:1426) ld.param.u64 %rd109, [__cudaparm__Z17cuda_compute_fluxiPiPfS0_S0__fluxes];
GPGPU-Sim PTX: 20 (potential) branch divergence @  PC=0x20f0 (_1.ptx:1332) bra.uni $Lt_2_8706;
GPGPU-Sim PTX:    immediate post dominator      @  PC=0x2340 (_1.ptx:1426) ld.param.u64 %rd109, [__cudaparm__Z17cuda_compute_fluxiPiPfS0_S0__fluxes];
GPGPU-Sim PTX: 21 (potential) branch divergence @  PC=0x2108 (_1.ptx:1336) @%p12 bra $Lt_2_9218;
GPGPU-Sim PTX:    immediate post dominator      @  PC=0x2340 (_1.ptx:1426) ld.param.u64 %rd109, [__cudaparm__Z17cuda_compute_fluxiPiPfS0_S0__fluxes];
GPGPU-Sim PTX: ... end of reconvergence points for _Z17cuda_compute_fluxiPiPfS0_S0_
GPGPU-Sim PTX: ... done pre-decoding instructions for '_Z17cuda_compute_fluxiPiPfS0_S0_'.
GPGPU-Sim PTX: instruction assembly for function '_Z14cuda_time_stepiiPfS_S_S_'...   done.
GPGPU-Sim PTX: finding reconvergence points for '_Z14cuda_time_stepiiPfS_S_S_'...
GPGPU-Sim PTX: Finding dominators for '_Z14cuda_time_stepiiPfS_S_S_'...
GPGPU-Sim PTX: Finding immediate dominators for '_Z14cuda_time_stepiiPfS_S_S_'...
GPGPU-Sim PTX: Finding postdominators for '_Z14cuda_time_stepiiPfS_S_S_'...
GPGPU-Sim PTX: Finding immediate postdominators for '_Z14cuda_time_stepiiPfS_S_S_'...
GPGPU-Sim PTX: pre-decoding instructions for '_Z14cuda_time_stepiiPfS_S_S_'...
GPGPU-Sim PTX: reconvergence points for _Z14cuda_time_stepiiPfS_S_S_...
GPGPU-Sim PTX: ... end of reconvergence points for _Z14cuda_time_stepiiPfS_S_S_
GPGPU-Sim PTX: ... done pre-decoding instructions for '_Z14cuda_time_stepiiPfS_S_S_'.
GPGPU-Sim PTX: finished parsing EMBEDDED .ptx file _1.ptx
Adding _cuobjdump_1.ptx with cubin handle 1
GPGPU-Sim PTX: extracting embedded .ptx to temporary file "_ptx_QFjg8L"
Running: cat _ptx_QFjg8L | sed 's/.version 1.5/.version 1.4/' | sed 's/, texmode_independent//' | sed 's/\(\.extern \.const\[1\] .b8 \w\+\)\[\]/\1\[1\]/' | sed 's/const\[.\]/const\[0\]/g' > _ptx2_OgFWBm
GPGPU-Sim PTX: generating ptxinfo using "$CUDA_INSTALL_PATH/bin/ptxas --gpu-name=sm_20 -v _ptx2_OgFWBm --output-file  /dev/null 2> _ptx_QFjg8Linfo"
GPGPU-Sim PTX: Kernel '_Z14cuda_time_stepiiPfS_S_S_' : regs=17, lmem=0, smem=0, cmem=152
GPGPU-Sim PTX: Kernel '_Z17cuda_compute_fluxiPiPfS0_S0_' : regs=50, lmem=0, smem=0, cmem=160
GPGPU-Sim PTX: Kernel '_Z24cuda_compute_step_factoriPfS_S_' : regs=16, lmem=0, smem=0, cmem=152
GPGPU-Sim PTX: Kernel '_Z25cuda_initialize_variablesiPf' : regs=17, lmem=0, smem=0, cmem=116
GPGPU-Sim PTX: removing ptxinfo using "rm -f _ptx_QFjg8L _ptx2_OgFWBm _ptx_QFjg8Linfo"
GPGPU-Sim PTX: loading globals with explicit initializers... 
GPGPU-Sim PTX: finished loading globals (0 bytes total).
GPGPU-Sim PTX: loading constants with explicit initializers...  done.
GPGPU-Sim PTX: __cudaRegisterFunction _Z17cuda_compute_fluxiPiPfS0_S0_ : hostFun 0x0x406414, fat_cubin_handle = 1
GPGPU-Sim PTX: __cudaRegisterFunction _Z24cuda_compute_step_factoriPfS_S_ : hostFun 0x0x4062f8, fat_cubin_handle = 1
GPGPU-Sim PTX: __cudaRegisterFunction _Z25cuda_initialize_variablesiPf : hostFun 0x0x40621c, fat_cubin_handle = 1
GPGPU-Sim PTX: __cudaRegisterVar: hostVar = 0x629a80; deviceAddress = ff_variable; deviceName = ff_variable
GPGPU-Sim PTX: __cudaRegisterVar: Registering const memory space of 20 bytes
GPGPU-Sim PTX registering constant ff_variable (20 bytes) to name mapping
GPGPU-Sim PTX: __cudaRegisterVar: hostVar = 0x629a94; deviceAddress = ff_flux_contribution_momentum_x; deviceName = ff_flux_contribution_momentum_x
GPGPU-Sim PTX: __cudaRegisterVar: Registering const memory space of 12 bytes
GPGPU-Sim PTX registering constant ff_flux_contribution_momentum_x (12 bytes) to name mapping
GPGPU-Sim PTX: __cudaRegisterVar: hostVar = 0x629aa0; deviceAddress = ff_flux_contribution_momentum_y; deviceName = ff_flux_contribution_momentum_y
GPGPU-Sim PTX: __cudaRegisterVar: Registering const memory space of 12 bytes
GPGPU-Sim PTX registering constant ff_flux_contribution_momentum_y (12 bytes) to name mapping
GPGPU-Sim PTX: __cudaRegisterVar: hostVar = 0x629aac; deviceAddress = ff_flux_contribution_momentum_z; deviceName = ff_flux_contribution_momentum_z
GPGPU-Sim PTX: __cudaRegisterVar: Registering const memory space of 12 bytes
GPGPU-Sim PTX registering constant ff_flux_contribution_momentum_z (12 bytes) to name mapping
GPGPU-Sim PTX: __cudaRegisterVar: hostVar = 0x629ab8; deviceAddress = ff_flux_contribution_density_energy; deviceName = ff_flux_contribution_density_energy
GPGPU-Sim PTX: __cudaRegisterVar: Registering const memory space of 12 bytes
GPGPU-Sim PTX registering constant ff_flux_contribution_density_energy (12 bytes) to name mapping
Name:                     GPGPU-Sim_vGPGPU-Sim Simulator Version 3.2.2 
GPGPU-Sim PTX: cudaMemcpyToSymbol: symbol = 0x629a80
GPGPU-Sim PTX: starting gpgpu_ptx_sim_memcpy_symbol with hostVar 0x0x629a80
GPGPU-Sim PTX: gpgpu_ptx_sim_memcpy_symbol: Found PTX symbol w/ hostVar=0x629a80
GPGPU-Sim PTX: gpgpu_ptx_sim_memcpy_symbol: copying const memory 20 bytes  to  symbol ff_variable+0 @0x100 ...
GPGPU-Sim PTX: cudaMemcpyToSymbol: symbol = 0x629a94
GPGPU-Sim PTX: starting gpgpu_ptx_sim_memcpy_symbol with hostVar 0x0x629a94
GPGPU-Sim PTX: gpgpu_ptx_sim_memcpy_symbol: Found PTX symbol w/ hostVar=0x629a94
GPGPU-Sim PTX: gpgpu_ptx_sim_memcpy_symbol: copying const memory 12 bytes  to  symbol ff_flux_contribution_momentum_x+0 @0x180 ...
GPGPU-Sim PTX: cudaMemcpyToSymbol: symbol = 0x629aa0
GPGPU-Sim PTX: starting gpgpu_ptx_sim_memcpy_symbol with hostVar 0x0x629aa0
GPGPU-Sim PTX: gpgpu_ptx_sim_memcpy_symbol: Found PTX symbol w/ hostVar=0x629aa0
GPGPU-Sim PTX: gpgpu_ptx_sim_memcpy_symbol: copying const memory 12 bytes  to  symbol ff_flux_contribution_momentum_y+0 @0x200 ...
GPGPU-Sim PTX: cudaMemcpyToSymbol: symbol = 0x629aac
GPGPU-Sim PTX: starting gpgpu_ptx_sim_memcpy_symbol with hostVar 0x0x629aac
GPGPU-Sim PTX: gpgpu_ptx_sim_memcpy_symbol: Found PTX symbol w/ hostVar=0x629aac
GPGPU-Sim PTX: gpgpu_ptx_sim_memcpy_symbol: copying const memory 12 bytes  to  symbol ff_flux_contribution_momentum_z+0 @0x280 ...
GPGPU-Sim PTX: cudaMemcpyToSymbol: symbol = 0x629ab8
GPGPU-Sim PTX: starting gpgpu_ptx_sim_memcpy_symbol with hostVar 0x0x629ab8
GPGPU-Sim PTX: gpgpu_ptx_sim_memcpy_symbol: Found PTX symbol w/ hostVar=0x629ab8
GPGPU-Sim PTX: gpgpu_ptx_sim_memcpy_symbol: copying const memory 12 bytes  to  symbol ff_flux_contribution_density_energy+0 @0x300 ...

GPGPU-Sim PTX: cudaLaunch for 0x0x40621c (mode=performance simulation) on stream 0
GPGPU-Sim PTX: pushing kernel '_Z25cuda_initialize_variablesiPf' to stream 0, gridDim= (1008,1,1) blockDim = (192,1,1) 
kernel '_Z25cuda_initialize_variablesiPf' transfer to GPU hardware scheduler
GPGPU-Sim uArch: Shader 1 bind to kernel 1 '_Z25cuda_initialize_variablesiPf'
GPGPU-Sim uArch: CTA/core = 8, limited by: threads regs cta_limit
GPGPU-Sim uArch: core:  1, cta: 0 initialized @(1,0)
GPGPU-Sim uArch: Shader 2 bind to kernel 1 '_Z25cuda_initialize_variablesiPf'
GPGPU-Sim uArch: core:  2, cta: 0 initialized @(1,0)
GPGPU-Sim uArch: Shader 3 bind to kernel 1 '_Z25cuda_initialize_variablesiPf'
GPGPU-Sim uArch: core:  3, cta: 0 initialized @(1,0)
GPGPU-Sim uArch: Shader 4 bind to kernel 1 '_Z25cuda_initialize_variablesiPf'
GPGPU-Sim uArch: core:  4, cta: 0 initialized @(1,0)
GPGPU-Sim uArch: Shader 5 bind to kernel 1 '_Z25cuda_initialize_variablesiPf'
GPGPU-Sim uArch: core:  5, cta: 0 initialized @(1,0)
GPGPU-Sim uArch: Shader 6 bind to kernel 1 '_Z25cuda_initialize_variablesiPf'
GPGPU-Sim uArch: core:  6, cta: 0 initialized @(1,0)
GPGPU-Sim uArch: Shader 7 bind to kernel 1 '_Z25cuda_initialize_variablesiPf'
GPGPU-Sim uArch: core:  7, cta: 0 initialized @(1,0)
GPGPU-Sim uArch: Shader 8 bind to kernel 1 '_Z25cuda_initialize_variablesiPf'
GPGPU-Sim uArch: core:  8, cta: 0 initialized @(1,0)
GPGPU-Sim uArch: Shader 9 bind to kernel 1 '_Z25cuda_initialize_variablesiPf'
GPGPU-Sim uArch: core:  9, cta: 0 initialized @(1,0)
GPGPU-Sim uArch: Shader 10 bind to kernel 1 '_Z25cuda_initialize_variablesiPf'
GPGPU-Sim uArch: core: 10, cta: 0 initialized @(1,0)
GPGPU-Sim uArch: Shader 11 bind to kernel 1 '_Z25cuda_initialize_variablesiPf'
GPGPU-Sim uArch: core: 11, cta: 0 initialized @(1,0)
GPGPU-Sim uArch: Shader 12 bind to kernel 1 '_Z25cuda_initialize_variablesiPf'
GPGPU-Sim uArch: core: 12, cta: 0 initialized @(1,0)
GPGPU-Sim uArch: Shader 13 bind to kernel 1 '_Z25cuda_initialize_variablesiPf'
GPGPU-Sim uArch: core: 13, cta: 0 initialized @(1,0)
GPGPU-Sim uArch: Shader 14 bind to kernel 1 '_Z25cuda_initialize_variablesiPf'
GPGPU-Sim uArch: core: 14, cta: 0 initialized @(1,0)
GPGPU-Sim uArch: Shader 0 bind to kernel 1 '_Z25cuda_initialize_variablesiPf'
GPGPU-Sim uArch: core:  0, cta: 0 initialized @(1,0)
GPGPU-Sim uArch: core:  1, cta: 1 initialized @(2,0)
GPGPU-Sim uArch: core:  2, cta: 1 initialized @(2,0)
GPGPU-Sim uArch: core:  3, cta: 1 initialized @(2,0)
GPGPU-Sim uArch: core:  4, cta: 1 initialized @(2,0)
GPGPU-Sim uArch: core:  5, cta: 1 initialized @(2,0)
GPGPU-Sim uArch: core:  6, cta: 1 initialized @(2,0)
GPGPU-Sim uArch: core:  7, cta: 1 initialized @(2,0)
GPGPU-Sim uArch: core:  8, cta: 1 initialized @(2,0)
GPGPU-Sim uArch: core:  9, cta: 1 initialized @(2,0)
GPGPU-Sim uArch: core: 10, cta: 1 initialized @(2,0)
GPGPU-Sim uArch: core: 11, cta: 1 initialized @(2,0)
GPGPU-Sim uArch: core: 12, cta: 1 initialized @(2,0)
GPGPU-Sim uArch: core: 13, cta: 1 initialized @(2,0)
GPGPU-Sim uArch: core: 14, cta: 1 initialized @(2,0)
GPGPU-Sim uArch: core:  0, cta: 1 initialized @(2,0)
GPGPU-Sim uArch: core:  1, cta: 2 initialized @(3,0)
GPGPU-Sim uArch: core:  2, cta: 2 initialized @(3,0)
GPGPU-Sim uArch: core:  3, cta: 2 initialized @(3,0)
GPGPU-Sim uArch: core:  4, cta: 2 initialized @(3,0)
GPGPU-Sim uArch: core:  5, cta: 2 initialized @(3,0)
GPGPU-Sim uArch: core:  6, cta: 2 initialized @(3,0)
GPGPU-Sim uArch: core:  7, cta: 2 initialized @(3,0)
GPGPU-Sim uArch: core:  8, cta: 2 initialized @(3,0)
GPGPU-Sim uArch: core:  9, cta: 2 initialized @(3,0)
GPGPU-Sim uArch: core: 10, cta: 2 initialized @(3,0)
GPGPU-Sim uArch: core: 11, cta: 2 initialized @(3,0)
GPGPU-Sim uArch: core: 12, cta: 2 initialized @(3,0)
GPGPU-Sim uArch: core: 13, cta: 2 initialized @(3,0)
GPGPU-Sim uArch: core: 14, cta: 2 initialized @(3,0)
GPGPU-Sim uArch: core:  0, cta: 2 initialized @(3,0)
GPGPU-Sim uArch: core:  1, cta: 3 initialized @(4,0)
GPGPU-Sim uArch: core:  2, cta: 3 initialized @(4,0)
GPGPU-Sim uArch: core:  3, cta: 3 initialized @(4,0)
GPGPU-Sim uArch: core:  4, cta: 3 initialized @(4,0)
GPGPU-Sim uArch: core:  5, cta: 3 initialized @(4,0)
GPGPU-Sim uArch: core:  6, cta: 3 initialized @(4,0)
GPGPU-Sim uArch: core:  7, cta: 3 initialized @(4,0)
GPGPU-Sim uArch: core:  8, cta: 3 initialized @(4,0)
GPGPU-Sim uArch: core:  9, cta: 3 initialized @(4,0)
GPGPU-Sim uArch: core: 10, cta: 3 initialized @(4,0)
GPGPU-Sim uArch: core: 11, cta: 3 initialized @(4,0)
GPGPU-Sim uArch: core: 12, cta: 3 initialized @(4,0)
GPGPU-Sim uArch: core: 13, cta: 3 initialized @(4,0)
GPGPU-Sim uArch: core: 14, cta: 3 initialized @(4,0)
GPGPU-Sim uArch: core:  0, cta: 3 initialized @(4,0)
GPGPU-Sim uArch: core:  1, cta: 4 initialized @(5,0)
GPGPU-Sim uArch: core:  2, cta: 4 initialized @(5,0)
GPGPU-Sim uArch: core:  3, cta: 4 initialized @(5,0)
GPGPU-Sim uArch: core:  4, cta: 4 initialized @(5,0)
GPGPU-Sim uArch: core:  5, cta: 4 initialized @(5,0)
GPGPU-Sim uArch: core:  6, cta: 4 initialized @(5,0)
GPGPU-Sim uArch: core:  7, cta: 4 initialized @(5,0)
GPGPU-Sim uArch: core:  8, cta: 4 initialized @(5,0)
GPGPU-Sim uArch: core:  9, cta: 4 initialized @(5,0)
GPGPU-Sim uArch: core: 10, cta: 4 initialized @(5,0)
GPGPU-Sim uArch: core: 11, cta: 4 initialized @(5,0)
GPGPU-Sim uArch: core: 12, cta: 4 initialized @(5,0)
GPGPU-Sim uArch: core: 13, cta: 4 initialized @(5,0)
GPGPU-Sim uArch: core: 14, cta: 4 initialized @(5,0)
GPGPU-Sim uArch: core:  0, cta: 4 initialized @(5,0)
GPGPU-Sim uArch: core:  1, cta: 5 initialized @(6,0)
GPGPU-Sim uArch: core:  2, cta: 5 initialized @(6,0)
GPGPU-Sim uArch: core:  3, cta: 5 initialized @(6,0)
GPGPU-Sim uArch: core:  4, cta: 5 initialized @(6,0)
GPGPU-Sim uArch: core:  5, cta: 5 initialized @(6,0)
GPGPU-Sim uArch: core:  6, cta: 5 initialized @(6,0)
GPGPU-Sim uArch: core:  7, cta: 5 initialized @(6,0)
GPGPU-Sim uArch: core:  8, cta: 5 initialized @(6,0)
GPGPU-Sim uArch: core:  9, cta: 5 initialized @(6,0)
GPGPU-Sim uArch: core: 10, cta: 5 initialized @(6,0)
GPGPU-Sim uArch: core: 11, cta: 5 initialized @(6,0)
GPGPU-Sim uArch: core: 12, cta: 5 initialized @(6,0)
GPGPU-Sim uArch: core: 13, cta: 5 initialized @(6,0)
GPGPU-Sim uArch: core: 14, cta: 5 initialized @(6,0)
GPGPU-Sim uArch: core:  0, cta: 5 initialized @(6,0)
GPGPU-Sim uArch: core:  1, cta: 6 initialized @(7,0)
GPGPU-Sim uArch: core:  2, cta: 6 initialized @(7,0)
GPGPU-Sim uArch: core:  3, cta: 6 initialized @(7,0)
GPGPU-Sim uArch: core:  4, cta: 6 initialized @(7,0)
GPGPU-Sim uArch: core:  5, cta: 6 initialized @(7,0)
GPGPU-Sim uArch: core:  6, cta: 6 initialized @(7,0)
GPGPU-Sim uArch: core:  7, cta: 6 initialized @(7,0)
GPGPU-Sim uArch: core:  8, cta: 6 initialized @(7,0)
GPGPU-Sim uArch: core:  9, cta: 6 initialized @(7,0)
GPGPU-Sim uArch: core: 10, cta: 6 initialized @(7,0)
GPGPU-Sim uArch: core: 11, cta: 6 initialized @(7,0)
GPGPU-Sim uArch: core: 12, cta: 6 initialized @(7,0)
GPGPU-Sim uArch: core: 13, cta: 6 initialized @(7,0)
GPGPU-Sim uArch: core: 14, cta: 6 initialized @(7,0)
GPGPU-Sim uArch: core:  0, cta: 6 initialized @(7,0)
GPGPU-Sim uArch: core:  1, cta: 7 initialized @(8,0)
GPGPU-Sim uArch: core:  2, cta: 7 initialized @(8,0)
GPGPU-Sim uArch: core:  3, cta: 7 initialized @(8,0)
GPGPU-Sim uArch: core:  4, cta: 7 initialized @(8,0)
GPGPU-Sim uArch: core:  5, cta: 7 initialized @(8,0)
GPGPU-Sim uArch: core:  6, cta: 7 initialized @(8,0)
GPGPU-Sim uArch: core:  7, cta: 7 initialized @(8,0)
GPGPU-Sim uArch: core:  8, cta: 7 initialized @(8,0)
GPGPU-Sim uArch: core:  9, cta: 7 initialized @(8,0)
GPGPU-Sim uArch: core: 10, cta: 7 initialized @(8,0)
GPGPU-Sim uArch: core: 11, cta: 7 initialized @(8,0)
GPGPU-Sim uArch: core: 12, cta: 7 initialized @(8,0)
GPGPU-Sim uArch: core: 13, cta: 7 initialized @(8,0)
GPGPU-Sim uArch: core: 14, cta: 7 initialized @(8,0)
GPGPU-Sim uArch: core:  0, cta: 7 initialized @(8,0)
GPGPU-Sim uArch: cycles simulated: 500  inst.: 6720 (ipc=13.4) sim_rate=560 (inst/sec) elapsed = 0:0:00:12 / Tue Mar 22 12:39:53 2016
GPGPU-Sim uArch: cycles simulated: 1500  inst.: 59424 (ipc=39.6) sim_rate=4571 (inst/sec) elapsed = 0:0:00:13 / Tue Mar 22 12:39:54 2016
GPGPU-Sim PTX: 100000 instructions simulated : ctaid=(10,0,0) tid=(191,0,0)
GPGPU-Sim PTX: 200000 instructions simulated : ctaid=(27,0,0) tid=(159,0,0)
GPGPU-Sim uArch: Shader 4 finished CTA #0 (2545,0), 7 CTAs running
GPGPU-Sim uArch: core:  4, cta: 0 initialized @(2546,0)
GPGPU-Sim uArch: Shader 8 finished CTA #0 (2625,0), 7 CTAs running
GPGPU-Sim uArch: core:  8, cta: 0 initialized @(2626,0)
GPGPU-Sim uArch: Shader 5 finished CTA #0 (2694,0), 7 CTAs running
GPGPU-Sim uArch: core:  5, cta: 0 initialized @(2695,0)
GPGPU-Sim uArch: Shader 1 finished CTA #0 (2734,0), 7 CTAs running
GPGPU-Sim uArch: core:  1, cta: 0 initialized @(2735,0)
GPGPU-Sim uArch: Shader 2 finished CTA #0 (2742,0), 7 CTAs running
GPGPU-Sim uArch: core:  2, cta: 0 initialized @(2743,0)
GPGPU-Sim uArch: Shader 12 finished CTA #0 (2781,0), 7 CTAs running
GPGPU-Sim uArch: core: 12, cta: 0 initialized @(2782,0)
GPGPU-Sim uArch: Shader 3 finished CTA #0 (2834,0), 7 CTAs running
GPGPU-Sim uArch: core:  3, cta: 0 initialized @(2835,0)
GPGPU-Sim uArch: Shader 6 finished CTA #0 (2862,0), 7 CTAs running
GPGPU-Sim uArch: core:  6, cta: 0 initialized @(2863,0)
GPGPU-Sim uArch: Shader 0 finished CTA #0 (2898,0), 7 CTAs running
GPGPU-Sim uArch: core:  0, cta: 0 initialized @(2899,0)
GPGPU-Sim uArch: Shader 10 finished CTA #0 (2902,0), 7 CTAs running
GPGPU-Sim uArch: core: 10, cta: 0 initialized @(2903,0)
GPGPU-Sim uArch: Shader 9 finished CTA #0 (2904,0), 7 CTAs running
GPGPU-Sim uArch: core:  9, cta: 0 initialized @(2905,0)
GPGPU-Sim PTX: 300000 instructions simulated : ctaid=(40,0,0) tid=(95,0,0)
GPGPU-Sim uArch: Shader 7 finished CTA #0 (2949,0), 7 CTAs running
GPGPU-Sim uArch: core:  7, cta: 0 initialized @(2950,0)
GPGPU-Sim uArch: Shader 13 finished CTA #0 (3001,0), 7 CTAs running
GPGPU-Sim uArch: core: 13, cta: 0 initialized @(3002,0)
GPGPU-Sim uArch: Shader 14 finished CTA #0 (3031,0), 7 CTAs running
GPGPU-Sim uArch: core: 14, cta: 0 initialized @(3032,0)
GPGPU-Sim uArch: Shader 11 finished CTA #0 (3046,0), 7 CTAs running
GPGPU-Sim uArch: core: 11, cta: 0 initialized @(3047,0)
GPGPU-Sim uArch: cycles simulated: 3500  inst.: 357984 (ipc=102.3) sim_rate=25570 (inst/sec) elapsed = 0:0:00:14 / Tue Mar 22 12:39:55 2016
GPGPU-Sim uArch: Shader 4 finished CTA #1 (3560,0), 7 CTAs running
GPGPU-Sim uArch: core:  4, cta: 1 initialized @(3561,0)
GPGPU-Sim uArch: Shader 5 finished CTA #1 (3649,0), 7 CTAs running
GPGPU-Sim uArch: core:  5, cta: 1 initialized @(3650,0)
GPGPU-Sim uArch: Shader 8 finished CTA #1 (3659,0), 7 CTAs running
GPGPU-Sim uArch: core:  8, cta: 1 initialized @(3660,0)
GPGPU-Sim uArch: Shader 1 finished CTA #1 (3694,0), 7 CTAs running
GPGPU-Sim uArch: core:  1, cta: 1 initialized @(3695,0)
GPGPU-Sim uArch: Shader 3 finished CTA #1 (3738,0), 7 CTAs running
GPGPU-Sim uArch: core:  3, cta: 1 initialized @(3739,0)
GPGPU-Sim uArch: Shader 12 finished CTA #1 (3757,0), 7 CTAs running
GPGPU-Sim uArch: core: 12, cta: 1 initialized @(3758,0)
GPGPU-Sim uArch: Shader 9 finished CTA #1 (3792,0), 7 CTAs running
GPGPU-Sim uArch: core:  9, cta: 1 initialized @(3793,0)
GPGPU-Sim uArch: Shader 2 finished CTA #1 (3803,0), 7 CTAs running
GPGPU-Sim uArch: core:  2, cta: 1 initialized @(3804,0)
GPGPU-Sim uArch: Shader 0 finished CTA #1 (3837,0), 7 CTAs running
GPGPU-Sim uArch: core:  0, cta: 1 initialized @(3838,0)
GPGPU-Sim PTX: 400000 instructions simulated : ctaid=(47,0,0) tid=(31,0,0)
GPGPU-Sim uArch: Shader 7 finished CTA #1 (3891,0), 7 CTAs running
GPGPU-Sim uArch: core:  7, cta: 1 initialized @(3892,0)
GPGPU-Sim uArch: Shader 13 finished CTA #1 (3895,0), 7 CTAs running
GPGPU-Sim uArch: core: 13, cta: 1 initialized @(3896,0)
GPGPU-Sim uArch: Shader 6 finished CTA #1 (3927,0), 7 CTAs running
GPGPU-Sim uArch: core:  6, cta: 1 initialized @(3928,0)
GPGPU-Sim uArch: Shader 10 finished CTA #1 (3963,0), 7 CTAs running
GPGPU-Sim uArch: core: 10, cta: 1 initialized @(3964,0)
GPGPU-Sim uArch: Shader 11 finished CTA #1 (3998,0), 7 CTAs running
GPGPU-Sim uArch: core: 11, cta: 1 initialized @(3999,0)
GPGPU-Sim uArch: Shader 14 finished CTA #1 (4038,0), 7 CTAs running
GPGPU-Sim uArch: core: 14, cta: 1 initialized @(4039,0)
GPGPU-Sim uArch: Shader 1 finished CTA #2 (4396,0), 7 CTAs running
GPGPU-Sim uArch: core:  1, cta: 2 initialized @(4397,0)
GPGPU-Sim uArch: Shader 5 finished CTA #2 (4428,0), 7 CTAs running
GPGPU-Sim uArch: core:  5, cta: 2 initialized @(4429,0)
GPGPU-Sim uArch: Shader 4 finished CTA #2 (4579,0), 7 CTAs running
GPGPU-Sim uArch: core:  4, cta: 2 initialized @(4580,0)
GPGPU-Sim uArch: Shader 2 finished CTA #2 (4622,0), 7 CTAs running
GPGPU-Sim uArch: core:  2, cta: 2 initialized @(4623,0)
GPGPU-Sim PTX: 500000 instructions simulated : ctaid=(61,0,0) tid=(127,0,0)
GPGPU-Sim uArch: Shader 9 finished CTA #2 (4776,0), 7 CTAs running
GPGPU-Sim uArch: core:  9, cta: 2 initialized @(4777,0)
GPGPU-Sim uArch: Shader 8 finished CTA #2 (4822,0), 7 CTAs running
GPGPU-Sim uArch: core:  8, cta: 2 initialized @(4823,0)
GPGPU-Sim uArch: Shader 13 finished CTA #2 (4838,0), 7 CTAs running
GPGPU-Sim uArch: core: 13, cta: 2 initialized @(4839,0)
GPGPU-Sim uArch: Shader 12 finished CTA #2 (4863,0), 7 CTAs running
GPGPU-Sim uArch: core: 12, cta: 2 initialized @(4864,0)
GPGPU-Sim uArch: Shader 6 finished CTA #2 (4927,0), 7 CTAs running
GPGPU-Sim uArch: core:  6, cta: 2 initialized @(4928,0)
GPGPU-Sim uArch: Shader 10 finished CTA #2 (5031,0), 7 CTAs running
GPGPU-Sim uArch: core: 10, cta: 2 initialized @(5032,0)
GPGPU-Sim uArch: Shader 14 finished CTA #2 (5067,0), 7 CTAs running
GPGPU-Sim uArch: core: 14, cta: 2 initialized @(5068,0)
GPGPU-Sim uArch: Shader 3 finished CTA #2 (5254,0), 7 CTAs running
GPGPU-Sim uArch: core:  3, cta: 2 initialized @(5255,0)
GPGPU-Sim uArch: Shader 7 finished CTA #2 (5294,0), 7 CTAs running
GPGPU-Sim uArch: core:  7, cta: 2 initialized @(5295,0)
GPGPU-Sim uArch: Shader 1 finished CTA #3 (5330,0), 7 CTAs running
GPGPU-Sim uArch: core:  1, cta: 3 initialized @(5331,0)
GPGPU-Sim uArch: Shader 2 finished CTA #3 (5348,0), 7 CTAs running
GPGPU-Sim uArch: core:  2, cta: 3 initialized @(5349,0)
GPGPU-Sim uArch: Shader 5 finished CTA #3 (5361,0), 7 CTAs running
GPGPU-Sim uArch: core:  5, cta: 3 initialized @(5362,0)
GPGPU-Sim uArch: Shader 11 finished CTA #2 (5402,0), 7 CTAs running
GPGPU-Sim uArch: core: 11, cta: 2 initialized @(5403,0)
GPGPU-Sim uArch: Shader 0 finished CTA #2 (5451,0), 7 CTAs running
GPGPU-Sim uArch: core:  0, cta: 2 initialized @(5452,0)
GPGPU-Sim uArch: cycles simulated: 5500  inst.: 583168 (ipc=106.0) sim_rate=38877 (inst/sec) elapsed = 0:0:00:15 / Tue Mar 22 12:39:56 2016
GPGPU-Sim uArch: Shader 6 finished CTA #3 (5722,0), 7 CTAs running
GPGPU-Sim uArch: Shader 9 finished CTA #3 (5722,0), 7 CTAs running
GPGPU-Sim uArch: core:  6, cta: 3 initialized @(5723,0)
GPGPU-Sim uArch: core:  9, cta: 3 initialized @(5723,0)
GPGPU-Sim PTX: 600000 instructions simulated : ctaid=(70,0,0) tid=(95,0,0)
GPGPU-Sim uArch: Shader 13 finished CTA #3 (5806,0), 7 CTAs running
GPGPU-Sim uArch: core: 13, cta: 3 initialized @(5807,0)
GPGPU-Sim uArch: Shader 10 finished CTA #3 (5885,0), 7 CTAs running
GPGPU-Sim uArch: core: 10, cta: 3 initialized @(5886,0)
GPGPU-Sim uArch: Shader 14 finished CTA #3 (5944,0), 7 CTAs running
GPGPU-Sim uArch: core: 14, cta: 3 initialized @(5945,0)
GPGPU-Sim uArch: Shader 4 finished CTA #3 (6038,0), 7 CTAs running
GPGPU-Sim uArch: core:  4, cta: 3 initialized @(6039,0)
GPGPU-Sim uArch: Shader 8 finished CTA #3 (6092,0), 7 CTAs running
GPGPU-Sim uArch: core:  8, cta: 3 initialized @(6093,0)
GPGPU-Sim uArch: Shader 3 finished CTA #4 (6203,0), 7 CTAs running
GPGPU-Sim uArch: core:  3, cta: 4 initialized @(6204,0)
GPGPU-Sim uArch: Shader 2 finished CTA #4 (6276,0), 7 CTAs running
GPGPU-Sim uArch: core:  2, cta: 4 initialized @(6277,0)
GPGPU-Sim uArch: Shader 6 finished CTA #4 (6321,0), 7 CTAs running
GPGPU-Sim uArch: core:  6, cta: 4 initialized @(6322,0)
GPGPU-Sim uArch: Shader 3 finished CTA #3 (6325,0), 7 CTAs running
GPGPU-Sim uArch: core:  3, cta: 3 initialized @(6326,0)
GPGPU-Sim uArch: Shader 12 finished CTA #3 (6552,0), 7 CTAs running
GPGPU-Sim uArch: core: 12, cta: 3 initialized @(6553,0)
GPGPU-Sim PTX: 700000 instructions simulated : ctaid=(78,0,0) tid=(191,0,0)
GPGPU-Sim uArch: Shader 1 finished CTA #4 (6679,0), 7 CTAs running
GPGPU-Sim uArch: core:  1, cta: 4 initialized @(6680,0)
GPGPU-Sim uArch: Shader 7 finished CTA #3 (6704,0), 7 CTAs running
GPGPU-Sim uArch: core:  7, cta: 3 initialized @(6705,0)
GPGPU-Sim uArch: Shader 5 finished CTA #4 (6726,0), 7 CTAs running
GPGPU-Sim uArch: core:  5, cta: 4 initialized @(6727,0)
GPGPU-Sim uArch: Shader 10 finished CTA #4 (6731,0), 7 CTAs running
GPGPU-Sim uArch: core: 10, cta: 4 initialized @(6732,0)
GPGPU-Sim uArch: Shader 14 finished CTA #4 (6784,0), 7 CTAs running
GPGPU-Sim uArch: core: 14, cta: 4 initialized @(6785,0)
GPGPU-Sim uArch: Shader 11 finished CTA #3 (6835,0), 7 CTAs running
GPGPU-Sim uArch: core: 11, cta: 3 initialized @(6836,0)
GPGPU-Sim uArch: Shader 0 finished CTA #3 (6865,0), 7 CTAs running
GPGPU-Sim uArch: core:  0, cta: 3 initialized @(6866,0)
GPGPU-Sim uArch: Shader 7 finished CTA #4 (6950,0), 7 CTAs running
GPGPU-Sim uArch: core:  7, cta: 4 initialized @(6951,0)
GPGPU-Sim uArch: Shader 9 finished CTA #4 (6990,0), 7 CTAs running
GPGPU-Sim uArch: core:  9, cta: 4 initialized @(6991,0)
GPGPU-Sim uArch: Shader 3 finished CTA #5 (7013,0), 7 CTAs running
GPGPU-Sim uArch: core:  3, cta: 5 initialized @(7014,0)
GPGPU-Sim uArch: Shader 11 finished CTA #4 (7113,0), 7 CTAs running
GPGPU-Sim uArch: core: 11, cta: 4 initialized @(7114,0)
GPGPU-Sim uArch: Shader 13 finished CTA #4 (7150,0), 7 CTAs running
GPGPU-Sim uArch: core: 13, cta: 4 initialized @(7151,0)
GPGPU-Sim uArch: Shader 4 finished CTA #4 (7212,0), 7 CTAs running
GPGPU-Sim uArch: core:  4, cta: 4 initialized @(7213,0)
GPGPU-Sim uArch: Shader 12 finished CTA #4 (7331,0), 7 CTAs running
GPGPU-Sim uArch: core: 12, cta: 4 initialized @(7332,0)
GPGPU-Sim PTX: 800000 instructions simulated : ctaid=(98,0,0) tid=(191,0,0)
GPGPU-Sim uArch: Shader 8 finished CTA #4 (7471,0), 7 CTAs running
GPGPU-Sim uArch: core:  8, cta: 4 initialized @(7472,0)
GPGPU-Sim uArch: Shader 2 finished CTA #5 (7473,0), 7 CTAs running
GPGPU-Sim uArch: core:  2, cta: 5 initialized @(7474,0)
GPGPU-Sim uArch: cycles simulated: 7500  inst.: 802656 (ipc=107.0) sim_rate=50166 (inst/sec) elapsed = 0:0:00:16 / Tue Mar 22 12:39:57 2016
GPGPU-Sim uArch: Shader 0 finished CTA #4 (7518,0), 7 CTAs running
GPGPU-Sim uArch: core:  0, cta: 4 initialized @(7519,0)
GPGPU-Sim uArch: Shader 6 finished CTA #5 (7522,0), 7 CTAs running
GPGPU-Sim uArch: core:  6, cta: 5 initialized @(7523,0)
GPGPU-Sim uArch: Shader 7 finished CTA #5 (7564,0), 7 CTAs running
GPGPU-Sim uArch: core:  7, cta: 5 initialized @(7565,0)
GPGPU-Sim uArch: Shader 11 finished CTA #5 (7712,0), 7 CTAs running
GPGPU-Sim uArch: core: 11, cta: 5 initialized @(7713,0)
GPGPU-Sim uArch: Shader 5 finished CTA #5 (7721,0), 7 CTAs running
GPGPU-Sim uArch: core:  5, cta: 5 initialized @(7722,0)
GPGPU-Sim uArch: Shader 1 finished CTA #5 (7761,0), 7 CTAs running
GPGPU-Sim uArch: core:  1, cta: 5 initialized @(7762,0)
GPGPU-Sim uArch: Shader 8 finished CTA #5 (7852,0), 7 CTAs running
GPGPU-Sim uArch: core:  8, cta: 5 initialized @(7853,0)
GPGPU-Sim uArch: Shader 9 finished CTA #5 (7913,0), 7 CTAs running
GPGPU-Sim uArch: core:  9, cta: 5 initialized @(7914,0)
GPGPU-Sim uArch: Shader 10 finished CTA #5 (7968,0), 7 CTAs running
GPGPU-Sim uArch: core: 10, cta: 5 initialized @(7969,0)
GPGPU-Sim uArch: Shader 14 finished CTA #5 (8026,0), 7 CTAs running
GPGPU-Sim uArch: core: 14, cta: 5 initialized @(8027,0)
GPGPU-Sim uArch: Shader 12 finished CTA #5 (8152,0), 7 CTAs running
GPGPU-Sim uArch: core: 12, cta: 5 initialized @(8153,0)
GPGPU-Sim uArch: Shader 4 finished CTA #5 (8200,0), 7 CTAs running
GPGPU-Sim uArch: core:  4, cta: 5 initialized @(8201,0)
GPGPU-Sim uArch: Shader 0 finished CTA #5 (8290,0), 7 CTAs running
GPGPU-Sim uArch: core:  0, cta: 5 initialized @(8291,0)
GPGPU-Sim PTX: 900000 instructions simulated : ctaid=(109,0,0) tid=(127,0,0)
GPGPU-Sim uArch: Shader 8 finished CTA #6 (8484,0), 7 CTAs running
GPGPU-Sim uArch: core:  8, cta: 6 initialized @(8485,0)
GPGPU-Sim uArch: Shader 13 finished CTA #5 (8488,0), 7 CTAs running
GPGPU-Sim uArch: core: 13, cta: 5 initialized @(8489,0)
GPGPU-Sim uArch: cycles simulated: 8500  inst.: 924672 (ipc=108.8) sim_rate=54392 (inst/sec) elapsed = 0:0:00:17 / Tue Mar 22 12:39:58 2016
GPGPU-Sim uArch: Shader 3 finished CTA #6 (8545,0), 7 CTAs running
GPGPU-Sim uArch: core:  3, cta: 6 initialized @(8546,0)
GPGPU-Sim uArch: Shader 12 finished CTA #6 (8600,0), 7 CTAs running
GPGPU-Sim uArch: core: 12, cta: 6 initialized @(8601,0)
GPGPU-Sim uArch: Shader 2 finished CTA #6 (8604,0), 7 CTAs running
GPGPU-Sim uArch: core:  2, cta: 6 initialized @(8605,0)
GPGPU-Sim uArch: Shader 9 finished CTA #6 (8628,0), 7 CTAs running
GPGPU-Sim uArch: core:  9, cta: 6 initialized @(8629,0)
GPGPU-Sim uArch: Shader 6 finished CTA #6 (8805,0), 7 CTAs running
GPGPU-Sim uArch: core:  6, cta: 6 initialized @(8806,0)
GPGPU-Sim uArch: Shader 7 finished CTA #6 (8823,0), 7 CTAs running
GPGPU-Sim uArch: core:  7, cta: 6 initialized @(8824,0)
GPGPU-Sim uArch: Shader 11 finished CTA #6 (8894,0), 7 CTAs running
GPGPU-Sim uArch: core: 11, cta: 6 initialized @(8895,0)
GPGPU-Sim uArch: Shader 4 finished CTA #6 (8897,0), 7 CTAs running
GPGPU-Sim uArch: core:  4, cta: 6 initialized @(8898,0)
GPGPU-Sim uArch: Shader 1 finished CTA #6 (8977,0), 7 CTAs running
GPGPU-Sim uArch: core:  1, cta: 6 initialized @(8978,0)
GPGPU-Sim uArch: Shader 5 finished CTA #6 (9013,0), 7 CTAs running
GPGPU-Sim uArch: core:  5, cta: 6 initialized @(9014,0)
GPGPU-Sim uArch: Shader 9 finished CTA #7 (9175,0), 7 CTAs running
GPGPU-Sim uArch: core:  9, cta: 7 initialized @(9176,0)
GPGPU-Sim PTX: 1000000 instructions simulated : ctaid=(123,0,0) tid=(191,0,0)
GPGPU-Sim uArch: Shader 14 finished CTA #6 (9277,0), 7 CTAs running
GPGPU-Sim uArch: core: 14, cta: 6 initialized @(9278,0)
GPGPU-Sim uArch: Shader 10 finished CTA #6 (9287,0), 7 CTAs running
GPGPU-Sim uArch: core: 10, cta: 6 initialized @(9288,0)
GPGPU-Sim uArch: Shader 13 finished CTA #6 (9378,0), 7 CTAs running
GPGPU-Sim uArch: core: 13, cta: 6 initialized @(9379,0)
GPGPU-Sim uArch: Shader 0 finished CTA #6 (9394,0), 7 CTAs running
GPGPU-Sim uArch: core:  0, cta: 6 initialized @(9395,0)
GPGPU-Sim uArch: Shader 8 finished CTA #7 (9516,0), 7 CTAs running
GPGPU-Sim uArch: core:  8, cta: 7 initialized @(9517,0)
GPGPU-Sim uArch: Shader 1 finished CTA #7 (9631,0), 7 CTAs running
GPGPU-Sim uArch: core:  1, cta: 7 initialized @(9632,0)
GPGPU-Sim uArch: Shader 3 finished CTA #7 (9700,0), 7 CTAs running
GPGPU-Sim uArch: core:  3, cta: 7 initialized @(9701,0)
GPGPU-Sim uArch: Shader 5 finished CTA #7 (9895,0), 7 CTAs running
GPGPU-Sim uArch: core:  5, cta: 7 initialized @(9896,0)
GPGPU-Sim uArch: Shader 6 finished CTA #7 (9902,0), 7 CTAs running
GPGPU-Sim uArch: core:  6, cta: 7 initialized @(9903,0)
GPGPU-Sim uArch: Shader 8 finished CTA #0 (9929,0), 7 CTAs running
GPGPU-Sim uArch: core:  8, cta: 0 initialized @(9930,0)
GPGPU-Sim uArch: Shader 2 finished CTA #7 (9950,0), 7 CTAs running
GPGPU-Sim uArch: core:  2, cta: 7 initialized @(9951,0)
GPGPU-Sim uArch: Shader 12 finished CTA #7 (9958,0), 7 CTAs running
GPGPU-Sim uArch: core: 12, cta: 7 initialized @(9959,0)
GPGPU-Sim uArch: Shader 4 finished CTA #7 (9987,0), 7 CTAs running
GPGPU-Sim uArch: core:  4, cta: 7 initialized @(9988,0)
GPGPU-Sim uArch: Shader 7 finished CTA #7 (10094,0), 7 CTAs running
GPGPU-Sim uArch: core:  7, cta: 7 initialized @(10095,0)
GPGPU-Sim PTX: 1100000 instructions simulated : ctaid=(146,0,0) tid=(95,0,0)
GPGPU-Sim uArch: Shader 11 finished CTA #7 (10130,0), 7 CTAs running
GPGPU-Sim uArch: core: 11, cta: 7 initialized @(10131,0)
GPGPU-Sim uArch: Shader 4 finished CTA #0 (10216,0), 7 CTAs running
GPGPU-Sim uArch: core:  4, cta: 0 initialized @(10217,0)
GPGPU-Sim uArch: Shader 13 finished CTA #7 (10306,0), 7 CTAs running
GPGPU-Sim uArch: core: 13, cta: 7 initialized @(10307,0)
GPGPU-Sim uArch: Shader 14 finished CTA #7 (10357,0), 7 CTAs running
GPGPU-Sim uArch: core: 14, cta: 7 initialized @(10358,0)
GPGPU-Sim uArch: Shader 12 finished CTA #0 (10374,0), 7 CTAs running
GPGPU-Sim uArch: core: 12, cta: 0 initialized @(10375,0)
GPGPU-Sim uArch: Shader 2 finished CTA #0 (10426,0), 7 CTAs running
GPGPU-Sim uArch: core:  2, cta: 0 initialized @(10427,0)
GPGPU-Sim uArch: cycles simulated: 10500  inst.: 1149920 (ipc=109.5) sim_rate=63884 (inst/sec) elapsed = 0:0:00:18 / Tue Mar 22 12:39:59 2016
GPGPU-Sim uArch: Shader 8 finished CTA #1 (10557,0), 7 CTAs running
GPGPU-Sim uArch: core:  8, cta: 1 initialized @(10558,0)
GPGPU-Sim uArch: Shader 0 finished CTA #7 (10563,0), 7 CTAs running
GPGPU-Sim uArch: core:  0, cta: 7 initialized @(10564,0)
GPGPU-Sim uArch: Shader 7 finished CTA #0 (10603,0), 7 CTAs running
GPGPU-Sim uArch: core:  7, cta: 0 initialized @(10604,0)
GPGPU-Sim uArch: Shader 13 finished CTA #0 (10631,0), 7 CTAs running
GPGPU-Sim uArch: core: 13, cta: 0 initialized @(10632,0)
GPGPU-Sim uArch: Shader 14 finished CTA #0 (10719,0), 7 CTAs running
GPGPU-Sim uArch: core: 14, cta: 0 initialized @(10720,0)
GPGPU-Sim PTX: 1200000 instructions simulated : ctaid=(173,0,0) tid=(31,0,0)
GPGPU-Sim uArch: Shader 1 finished CTA #0 (10918,0), 7 CTAs running
GPGPU-Sim uArch: core:  1, cta: 0 initialized @(10919,0)
GPGPU-Sim uArch: Shader 14 finished CTA #1 (10990,0), 7 CTAs running
GPGPU-Sim uArch: core: 14, cta: 1 initialized @(10991,0)
GPGPU-Sim uArch: Shader 9 finished CTA #0 (11049,0), 7 CTAs running
GPGPU-Sim uArch: core:  9, cta: 0 initialized @(11050,0)
GPGPU-Sim uArch: Shader 10 finished CTA #7 (11088,0), 7 CTAs running
GPGPU-Sim uArch: core: 10, cta: 7 initialized @(11089,0)
GPGPU-Sim uArch: Shader 6 finished CTA #0 (11093,0), 7 CTAs running
GPGPU-Sim uArch: core:  6, cta: 0 initialized @(11094,0)
GPGPU-Sim uArch: Shader 3 finished CTA #0 (11126,0), 7 CTAs running
GPGPU-Sim uArch: core:  3, cta: 0 initialized @(11127,0)
GPGPU-Sim uArch: Shader 4 finished CTA #1 (11166,0), 7 CTAs running
GPGPU-Sim uArch: core:  4, cta: 1 initialized @(11167,0)
GPGPU-Sim uArch: Shader 8 finished CTA #2 (11250,0), 7 CTAs running
GPGPU-Sim uArch: core:  8, cta: 2 initialized @(11251,0)
GPGPU-Sim uArch: Shader 12 finished CTA #1 (11261,0), 7 CTAs running
GPGPU-Sim uArch: core: 12, cta: 1 initialized @(11262,0)
GPGPU-Sim uArch: Shader 2 finished CTA #1 (11383,0), 7 CTAs running
GPGPU-Sim uArch: core:  2, cta: 1 initialized @(11384,0)
GPGPU-Sim uArch: Shader 5 finished CTA #0 (11428,0), 7 CTAs running
GPGPU-Sim uArch: core:  5, cta: 0 initialized @(11429,0)
GPGPU-Sim uArch: Shader 0 finished CTA #0 (11451,0), 7 CTAs running
GPGPU-Sim uArch: core:  0, cta: 0 initialized @(11452,0)
GPGPU-Sim uArch: Shader 11 finished CTA #0 (11468,0), 7 CTAs running
GPGPU-Sim uArch: core: 11, cta: 0 initialized @(11469,0)
GPGPU-Sim uArch: Shader 7 finished CTA #1 (11488,0), 7 CTAs running
GPGPU-Sim uArch: core:  7, cta: 1 initialized @(11489,0)
GPGPU-Sim uArch: cycles simulated: 11500  inst.: 1291456 (ipc=112.3) sim_rate=67971 (inst/sec) elapsed = 0:0:00:19 / Tue Mar 22 12:40:00 2016
GPGPU-Sim uArch: Shader 13 finished CTA #1 (11508,0), 7 CTAs running
GPGPU-Sim uArch: core: 13, cta: 1 initialized @(11509,0)
GPGPU-Sim uArch: Shader 3 finished CTA #1 (11553,0), 7 CTAs running
GPGPU-Sim uArch: core:  3, cta: 1 initialized @(11554,0)
GPGPU-Sim PTX: 1300000 instructions simulated : ctaid=(170,0,0) tid=(31,0,0)
GPGPU-Sim uArch: Shader 9 finished CTA #1 (11704,0), 7 CTAs running
GPGPU-Sim uArch: core:  9, cta: 1 initialized @(11705,0)
GPGPU-Sim uArch: Shader 1 finished CTA #1 (11737,0), 7 CTAs running
GPGPU-Sim uArch: core:  1, cta: 1 initialized @(11738,0)
GPGPU-Sim uArch: Shader 10 finished CTA #0 (11738,0), 7 CTAs running
GPGPU-Sim uArch: core: 10, cta: 0 initialized @(11739,0)
GPGPU-Sim uArch: Shader 0 finished CTA #1 (11744,0), 7 CTAs running
GPGPU-Sim uArch: core:  0, cta: 1 initialized @(11745,0)
GPGPU-Sim uArch: Shader 6 finished CTA #1 (11778,0), 7 CTAs running
GPGPU-Sim uArch: core:  6, cta: 1 initialized @(11779,0)
GPGPU-Sim uArch: Shader 4 finished CTA #2 (11780,0), 7 CTAs running
GPGPU-Sim uArch: core:  4, cta: 2 initialized @(11781,0)
GPGPU-Sim uArch: Shader 10 finished CTA #1 (11927,0), 7 CTAs running
GPGPU-Sim uArch: core: 10, cta: 1 initialized @(11928,0)
GPGPU-Sim uArch: Shader 11 finished CTA #1 (11960,0), 7 CTAs running
GPGPU-Sim uArch: core: 11, cta: 1 initialized @(11961,0)
GPGPU-Sim uArch: Shader 12 finished CTA #2 (12153,0), 7 CTAs running
GPGPU-Sim uArch: core: 12, cta: 2 initialized @(12154,0)
GPGPU-Sim uArch: Shader 2 finished CTA #2 (12186,0), 7 CTAs running
GPGPU-Sim uArch: core:  2, cta: 2 initialized @(12187,0)
GPGPU-Sim uArch: Shader 7 finished CTA #2 (12258,0), 7 CTAs running
GPGPU-Sim uArch: core:  7, cta: 2 initialized @(12259,0)
GPGPU-Sim PTX: 1400000 instructions simulated : ctaid=(187,0,0) tid=(191,0,0)
GPGPU-Sim uArch: Shader 9 finished CTA #2 (12440,0), 7 CTAs running
GPGPU-Sim uArch: core:  9, cta: 2 initialized @(12441,0)
GPGPU-Sim uArch: Shader 5 finished CTA #1 (12447,0), 7 CTAs running
GPGPU-Sim uArch: core:  5, cta: 1 initialized @(12448,0)
GPGPU-Sim uArch: Shader 12 finished CTA #3 (12469,0), 7 CTAs running
GPGPU-Sim uArch: core: 12, cta: 3 initialized @(12470,0)
GPGPU-Sim uArch: Shader 8 finished CTA #3 (12521,0), 7 CTAs running
GPGPU-Sim uArch: core:  8, cta: 3 initialized @(12522,0)
GPGPU-Sim uArch: Shader 3 finished CTA #2 (12526,0), 7 CTAs running
GPGPU-Sim uArch: core:  3, cta: 2 initialized @(12527,0)
GPGPU-Sim uArch: Shader 0 finished CTA #2 (12531,0), 7 CTAs running
GPGPU-Sim uArch: core:  0, cta: 2 initialized @(12532,0)
GPGPU-Sim uArch: Shader 14 finished CTA #2 (12613,0), 7 CTAs running
GPGPU-Sim uArch: core: 14, cta: 2 initialized @(12614,0)
GPGPU-Sim uArch: Shader 13 finished CTA #2 (12663,0), 7 CTAs running
GPGPU-Sim uArch: core: 13, cta: 2 initialized @(12664,0)
GPGPU-Sim uArch: Shader 4 finished CTA #3 (12798,0), 7 CTAs running
GPGPU-Sim uArch: core:  4, cta: 3 initialized @(12799,0)
GPGPU-Sim uArch: cycles simulated: 13000  inst.: 1473952 (ipc=113.4) sim_rate=73697 (inst/sec) elapsed = 0:0:00:20 / Tue Mar 22 12:40:01 2016
GPGPU-Sim uArch: Shader 2 finished CTA #3 (13006,0), 7 CTAs running
GPGPU-Sim uArch: core:  2, cta: 3 initialized @(13007,0)
GPGPU-Sim uArch: Shader 7 finished CTA #3 (13077,0), 7 CTAs running
GPGPU-Sim uArch: core:  7, cta: 3 initialized @(13078,0)
GPGPU-Sim uArch: Shader 11 finished CTA #2 (13130,0), 7 CTAs running
GPGPU-Sim uArch: core: 11, cta: 2 initialized @(13131,0)
GPGPU-Sim uArch: Shader 3 finished CTA #4 (13259,0), 7 CTAs running
GPGPU-Sim uArch: core:  3, cta: 4 initialized @(13260,0)
GPGPU-Sim uArch: Shader 9 finished CTA #3 (13270,0), 7 CTAs running
GPGPU-Sim uArch: core:  9, cta: 3 initialized @(13271,0)
GPGPU-Sim PTX: 1500000 instructions simulated : ctaid=(191,0,0) tid=(191,0,0)
GPGPU-Sim uArch: Shader 14 finished CTA #3 (13372,0), 7 CTAs running
GPGPU-Sim uArch: core: 14, cta: 3 initialized @(13373,0)
GPGPU-Sim uArch: Shader 1 finished CTA #2 (13434,0), 7 CTAs running
GPGPU-Sim uArch: core:  1, cta: 2 initialized @(13435,0)
GPGPU-Sim uArch: Shader 5 finished CTA #2 (13502,0), 7 CTAs running
GPGPU-Sim uArch: core:  5, cta: 2 initialized @(13503,0)
GPGPU-Sim uArch: Shader 10 finished CTA #2 (13544,0), 7 CTAs running
GPGPU-Sim uArch: core: 10, cta: 2 initialized @(13545,0)
GPGPU-Sim uArch: Shader 4 finished CTA #4 (13589,0), 7 CTAs running
GPGPU-Sim uArch: core:  4, cta: 4 initialized @(13590,0)
GPGPU-Sim uArch: Shader 12 finished CTA #4 (13635,0), 7 CTAs running
GPGPU-Sim uArch: core: 12, cta: 4 initialized @(13636,0)
GPGPU-Sim uArch: Shader 7 finished CTA #4 (13702,0), 7 CTAs running
GPGPU-Sim uArch: core:  7, cta: 4 initialized @(13703,0)
GPGPU-Sim uArch: Shader 11 finished CTA #3 (13742,0), 7 CTAs running
GPGPU-Sim uArch: core: 11, cta: 3 initialized @(13743,0)
GPGPU-Sim uArch: Shader 13 finished CTA #3 (13792,0), 7 CTAs running
GPGPU-Sim uArch: core: 13, cta: 3 initialized @(13793,0)
GPGPU-Sim uArch: Shader 2 finished CTA #4 (13798,0), 7 CTAs running
GPGPU-Sim uArch: core:  2, cta: 4 initialized @(13799,0)
GPGPU-Sim uArch: Shader 0 finished CTA #3 (13885,0), 7 CTAs running
GPGPU-Sim uArch: core:  0, cta: 3 initialized @(13886,0)
GPGPU-Sim uArch: Shader 5 finished CTA #3 (14047,0), 7 CTAs running
GPGPU-Sim uArch: core:  5, cta: 3 initialized @(14048,0)
GPGPU-Sim uArch: Shader 6 finished CTA #2 (14100,0), 7 CTAs running
GPGPU-Sim uArch: core:  6, cta: 2 initialized @(14101,0)
GPGPU-Sim PTX: 1600000 instructions simulated : ctaid=(177,0,0) tid=(159,0,0)
GPGPU-Sim uArch: Shader 1 finished CTA #3 (14170,0), 7 CTAs running
GPGPU-Sim uArch: core:  1, cta: 3 initialized @(14171,0)
GPGPU-Sim uArch: Shader 14 finished CTA #4 (14267,0), 7 CTAs running
GPGPU-Sim uArch: core: 14, cta: 4 initialized @(14268,0)
GPGPU-Sim uArch: Shader 9 finished CTA #4 (14307,0), 7 CTAs running
GPGPU-Sim uArch: core:  9, cta: 4 initialized @(14308,0)
GPGPU-Sim uArch: Shader 8 finished CTA #4 (14343,0), 7 CTAs running
GPGPU-Sim uArch: core:  8, cta: 4 initialized @(14344,0)
GPGPU-Sim uArch: Shader 14 finished CTA #5 (14359,0), 7 CTAs running
GPGPU-Sim uArch: core: 14, cta: 5 initialized @(14360,0)
GPGPU-Sim uArch: Shader 3 finished CTA #3 (14503,0), 7 CTAs running
GPGPU-Sim uArch: core:  3, cta: 3 initialized @(14504,0)
GPGPU-Sim uArch: Shader 13 finished CTA #4 (14538,0), 7 CTAs running
GPGPU-Sim uArch: core: 13, cta: 4 initialized @(14539,0)
GPGPU-Sim uArch: Shader 4 finished CTA #5 (14665,0), 7 CTAs running
GPGPU-Sim uArch: core:  4, cta: 5 initialized @(14666,0)
GPGPU-Sim uArch: Shader 7 finished CTA #5 (14700,0), 7 CTAs running
GPGPU-Sim uArch: core:  7, cta: 5 initialized @(14701,0)
GPGPU-Sim uArch: Shader 3 finished CTA #5 (14740,0), 7 CTAs running
GPGPU-Sim uArch: core:  3, cta: 5 initialized @(14741,0)
GPGPU-Sim uArch: Shader 10 finished CTA #3 (14744,0), 7 CTAs running
GPGPU-Sim uArch: core: 10, cta: 3 initialized @(14745,0)
GPGPU-Sim uArch: Shader 1 finished CTA #4 (14940,0), 7 CTAs running
GPGPU-Sim uArch: core:  1, cta: 4 initialized @(14941,0)
GPGPU-Sim PTX: 1700000 instructions simulated : ctaid=(235,0,0) tid=(191,0,0)
GPGPU-Sim uArch: cycles simulated: 15000  inst.: 1700000 (ipc=113.3) sim_rate=80952 (inst/sec) elapsed = 0:0:00:21 / Tue Mar 22 12:40:02 2016
GPGPU-Sim uArch: Shader 11 finished CTA #4 (15109,0), 7 CTAs running
GPGPU-Sim uArch: core: 11, cta: 4 initialized @(15110,0)
GPGPU-Sim uArch: Shader 0 finished CTA #4 (15163,0), 7 CTAs running
GPGPU-Sim uArch: core:  0, cta: 4 initialized @(15164,0)
GPGPU-Sim uArch: Shader 12 finished CTA #5 (15208,0), 7 CTAs running
GPGPU-Sim uArch: core: 12, cta: 5 initialized @(15209,0)
GPGPU-Sim uArch: Shader 6 finished CTA #3 (15215,0), 7 CTAs running
GPGPU-Sim uArch: core:  6, cta: 3 initialized @(15216,0)
GPGPU-Sim uArch: Shader 2 finished CTA #5 (15233,0), 7 CTAs running
GPGPU-Sim uArch: core:  2, cta: 5 initialized @(15234,0)
GPGPU-Sim uArch: Shader 6 finished CTA #4 (15282,0), 7 CTAs running
GPGPU-Sim uArch: core:  6, cta: 4 initialized @(15283,0)
GPGPU-Sim uArch: Shader 9 finished CTA #5 (15376,0), 7 CTAs running
GPGPU-Sim uArch: core:  9, cta: 5 initialized @(15377,0)
GPGPU-Sim uArch: Shader 2 finished CTA #6 (15381,0), 7 CTAs running
GPGPU-Sim uArch: core:  2, cta: 6 initialized @(15382,0)
GPGPU-Sim uArch: Shader 1 finished CTA #5 (15466,0), 7 CTAs running
GPGPU-Sim uArch: core:  1, cta: 5 initialized @(15467,0)
GPGPU-Sim uArch: Shader 0 finished CTA #5 (15544,0), 7 CTAs running
GPGPU-Sim uArch: core:  0, cta: 5 initialized @(15545,0)
GPGPU-Sim uArch: Shader 10 finished CTA #4 (15547,0), 7 CTAs running
GPGPU-Sim uArch: core: 10, cta: 4 initialized @(15548,0)
GPGPU-Sim uArch: Shader 7 finished CTA #6 (15588,0), 7 CTAs running
GPGPU-Sim uArch: core:  7, cta: 6 initialized @(15589,0)
GPGPU-Sim uArch: Shader 11 finished CTA #5 (15720,0), 7 CTAs running
GPGPU-Sim uArch: core: 11, cta: 5 initialized @(15721,0)
GPGPU-Sim PTX: 1800000 instructions simulated : ctaid=(252,0,0) tid=(127,0,0)
GPGPU-Sim uArch: Shader 3 finished CTA #6 (15850,0), 7 CTAs running
GPGPU-Sim uArch: core:  3, cta: 6 initialized @(15851,0)
GPGPU-Sim uArch: Shader 5 finished CTA #4 (15977,0), 7 CTAs running
GPGPU-Sim uArch: core:  5, cta: 4 initialized @(15978,0)
GPGPU-Sim uArch: Shader 12 finished CTA #6 (15984,0), 7 CTAs running
GPGPU-Sim uArch: core: 12, cta: 6 initialized @(15985,0)
GPGPU-Sim uArch: Shader 0 finished CTA #6 (16002,0), 7 CTAs running
GPGPU-Sim uArch: core:  0, cta: 6 initialized @(16003,0)
GPGPU-Sim uArch: Shader 6 finished CTA #5 (16038,0), 7 CTAs running
GPGPU-Sim uArch: core:  6, cta: 5 initialized @(16039,0)
GPGPU-Sim uArch: Shader 8 finished CTA #5 (16125,0), 7 CTAs running
GPGPU-Sim uArch: core:  8, cta: 5 initialized @(16126,0)
GPGPU-Sim uArch: Shader 10 finished CTA #5 (16144,0), 7 CTAs running
GPGPU-Sim uArch: core: 10, cta: 5 initialized @(16145,0)
GPGPU-Sim uArch: Shader 1 finished CTA #6 (16360,0), 7 CTAs running
GPGPU-Sim uArch: core:  1, cta: 6 initialized @(16361,0)
GPGPU-Sim uArch: Shader 7 finished CTA #7 (16420,0), 7 CTAs running
GPGPU-Sim uArch: core:  7, cta: 7 initialized @(16421,0)
GPGPU-Sim uArch: cycles simulated: 16500  inst.: 1869568 (ipc=113.3) sim_rate=84980 (inst/sec) elapsed = 0:0:00:22 / Tue Mar 22 12:40:03 2016
GPGPU-Sim uArch: Shader 3 finished CTA #7 (16632,0), 7 CTAs running
GPGPU-Sim uArch: core:  3, cta: 7 initialized @(16633,0)
GPGPU-Sim uArch: Shader 13 finished CTA #5 (16741,0), 7 CTAs running
GPGPU-Sim uArch: core: 13, cta: 5 initialized @(16742,0)
GPGPU-Sim uArch: Shader 2 finished CTA #7 (16744,0), 7 CTAs running
GPGPU-Sim uArch: Shader 8 finished CTA #6 (16744,0), 7 CTAs running
GPGPU-Sim uArch: core:  2, cta: 7 initialized @(16745,0)
GPGPU-Sim uArch: core:  8, cta: 6 initialized @(16745,0)
GPGPU-Sim PTX: 1900000 instructions simulated : ctaid=(230,0,0) tid=(191,0,0)
GPGPU-Sim uArch: Shader 14 finished CTA #6 (16853,0), 7 CTAs running
GPGPU-Sim uArch: core: 14, cta: 6 initialized @(16854,0)
GPGPU-Sim uArch: Shader 12 finished CTA #7 (16856,0), 7 CTAs running
GPGPU-Sim uArch: core: 12, cta: 7 initialized @(16857,0)
GPGPU-Sim uArch: Shader 11 finished CTA #6 (16893,0), 7 CTAs running
GPGPU-Sim uArch: core: 11, cta: 6 initialized @(16894,0)
GPGPU-Sim uArch: Shader 4 finished CTA #6 (16894,0), 7 CTAs running
GPGPU-Sim uArch: core:  4, cta: 6 initialized @(16895,0)
GPGPU-Sim uArch: Shader 9 finished CTA #6 (16956,0), 7 CTAs running
GPGPU-Sim uArch: core:  9, cta: 6 initialized @(16957,0)
GPGPU-Sim uArch: Shader 10 finished CTA #6 (17048,0), 7 CTAs running
GPGPU-Sim uArch: core: 10, cta: 6 initialized @(17049,0)
GPGPU-Sim uArch: Shader 1 finished CTA #7 (17222,0), 7 CTAs running
GPGPU-Sim uArch: core:  1, cta: 7 initialized @(17223,0)
GPGPU-Sim uArch: Shader 2 finished CTA #0 (17397,0), 7 CTAs running
GPGPU-Sim uArch: core:  2, cta: 0 initialized @(17398,0)
GPGPU-Sim uArch: Shader 6 finished CTA #6 (17441,0), 7 CTAs running
GPGPU-Sim uArch: core:  6, cta: 6 initialized @(17442,0)
GPGPU-Sim uArch: Shader 4 finished CTA #7 (17474,0), 7 CTAs running
GPGPU-Sim uArch: core:  4, cta: 7 initialized @(17475,0)
GPGPU-Sim uArch: Shader 9 finished CTA #7 (17486,0), 7 CTAs running
GPGPU-Sim uArch: core:  9, cta: 7 initialized @(17487,0)
GPGPU-Sim uArch: Shader 0 finished CTA #7 (17669,0), 7 CTAs running
GPGPU-Sim uArch: core:  0, cta: 7 initialized @(17670,0)
GPGPU-Sim PTX: 2000000 instructions simulated : ctaid=(269,0,0) tid=(127,0,0)
GPGPU-Sim uArch: Shader 11 finished CTA #7 (17794,0), 7 CTAs running
GPGPU-Sim uArch: core: 11, cta: 7 initialized @(17795,0)
GPGPU-Sim uArch: Shader 8 finished CTA #7 (17799,0), 7 CTAs running
GPGPU-Sim uArch: core:  8, cta: 7 initialized @(17800,0)
GPGPU-Sim uArch: Shader 4 finished CTA #0 (17904,0), 7 CTAs running
GPGPU-Sim uArch: core:  4, cta: 0 initialized @(17905,0)
GPGPU-Sim uArch: Shader 12 finished CTA #0 (17929,0), 7 CTAs running
GPGPU-Sim uArch: core: 12, cta: 0 initialized @(17930,0)
GPGPU-Sim uArch: Shader 14 finished CTA #7 (17963,0), 7 CTAs running
GPGPU-Sim uArch: core: 14, cta: 7 initialized @(17964,0)
GPGPU-Sim uArch: Shader 5 finished CTA #5 (17985,0), 7 CTAs running
GPGPU-Sim uArch: core:  5, cta: 5 initialized @(17986,0)
GPGPU-Sim uArch: cycles simulated: 18000  inst.: 2029888 (ipc=112.8) sim_rate=88256 (inst/sec) elapsed = 0:0:00:23 / Tue Mar 22 12:40:04 2016
GPGPU-Sim uArch: Shader 7 finished CTA #0 (18005,0), 7 CTAs running
GPGPU-Sim uArch: core:  7, cta: 0 initialized @(18006,0)
GPGPU-Sim uArch: Shader 9 finished CTA #0 (18012,0), 7 CTAs running
GPGPU-Sim uArch: core:  9, cta: 0 initialized @(18013,0)
GPGPU-Sim uArch: Shader 10 finished CTA #7 (18086,0), 7 CTAs running
GPGPU-Sim uArch: core: 10, cta: 7 initialized @(18087,0)
GPGPU-Sim uArch: Shader 3 finished CTA #0 (18238,0), 7 CTAs running
GPGPU-Sim uArch: core:  3, cta: 0 initialized @(18239,0)
GPGPU-Sim uArch: Shader 4 finished CTA #1 (18434,0), 7 CTAs running
GPGPU-Sim uArch: core:  4, cta: 1 initialized @(18435,0)
GPGPU-Sim uArch: Shader 10 finished CTA #0 (18479,0), 7 CTAs running
GPGPU-Sim uArch: core: 10, cta: 0 initialized @(18480,0)
GPGPU-Sim uArch: Shader 0 finished CTA #0 (18495,0), 7 CTAs running
GPGPU-Sim uArch: core:  0, cta: 0 initialized @(18496,0)
GPGPU-Sim uArch: Shader 6 finished CTA #7 (18544,0), 7 CTAs running
GPGPU-Sim uArch: core:  6, cta: 7 initialized @(18545,0)
GPGPU-Sim PTX: 2100000 instructions simulated : ctaid=(291,0,0) tid=(127,0,0)
GPGPU-Sim uArch: Shader 14 finished CTA #0 (18647,0), 7 CTAs running
GPGPU-Sim uArch: core: 14, cta: 0 initialized @(18648,0)
GPGPU-Sim uArch: Shader 3 finished CTA #1 (18844,0), 7 CTAs running
GPGPU-Sim uArch: core:  3, cta: 1 initialized @(18845,0)
GPGPU-Sim uArch: Shader 11 finished CTA #0 (18897,0), 7 CTAs running
GPGPU-Sim uArch: core: 11, cta: 0 initialized @(18898,0)
GPGPU-Sim uArch: Shader 1 finished CTA #0 (18948,0), 7 CTAs running
GPGPU-Sim uArch: core:  1, cta: 0 initialized @(18949,0)
GPGPU-Sim uArch: Shader 13 finished CTA #6 (18973,0), 7 CTAs running
GPGPU-Sim uArch: core: 13, cta: 6 initialized @(18974,0)
GPGPU-Sim uArch: Shader 8 finished CTA #0 (18979,0), 7 CTAs running
GPGPU-Sim uArch: core:  8, cta: 0 initialized @(18980,0)
GPGPU-Sim uArch: Shader 10 finished CTA #1 (18988,0), 7 CTAs running
GPGPU-Sim uArch: core: 10, cta: 1 initialized @(18989,0)
GPGPU-Sim uArch: Shader 7 finished CTA #1 (19051,0), 7 CTAs running
GPGPU-Sim uArch: core:  7, cta: 1 initialized @(19052,0)
GPGPU-Sim uArch: Shader 12 finished CTA #1 (19053,0), 7 CTAs running
GPGPU-Sim uArch: core: 12, cta: 1 initialized @(19054,0)
GPGPU-Sim uArch: Shader 0 finished CTA #1 (19085,0), 7 CTAs running
GPGPU-Sim uArch: core:  0, cta: 1 initialized @(19086,0)
GPGPU-Sim uArch: Shader 2 finished CTA #1 (19139,0), 7 CTAs running
GPGPU-Sim uArch: core:  2, cta: 1 initialized @(19140,0)
GPGPU-Sim uArch: Shader 11 finished CTA #1 (19309,0), 7 CTAs running
GPGPU-Sim uArch: core: 11, cta: 1 initialized @(19310,0)
GPGPU-Sim uArch: Shader 7 finished CTA #2 (19372,0), 7 CTAs running
GPGPU-Sim uArch: core:  7, cta: 2 initialized @(19373,0)
GPGPU-Sim PTX: 2200000 instructions simulated : ctaid=(306,0,0) tid=(31,0,0)
GPGPU-Sim uArch: cycles simulated: 19500  inst.: 2200736 (ipc=112.9) sim_rate=91697 (inst/sec) elapsed = 0:0:00:24 / Tue Mar 22 12:40:05 2016
GPGPU-Sim uArch: Shader 12 finished CTA #2 (19506,0), 7 CTAs running
GPGPU-Sim uArch: core: 12, cta: 2 initialized @(19507,0)
GPGPU-Sim uArch: Shader 11 finished CTA #2 (19510,0), 7 CTAs running
GPGPU-Sim uArch: core: 11, cta: 2 initialized @(19511,0)
GPGPU-Sim uArch: Shader 9 finished CTA #1 (19546,0), 7 CTAs running
GPGPU-Sim uArch: core:  9, cta: 1 initialized @(19547,0)
GPGPU-Sim uArch: Shader 8 finished CTA #1 (19569,0), 7 CTAs running
GPGPU-Sim uArch: core:  8, cta: 1 initialized @(19570,0)
GPGPU-Sim uArch: Shader 3 finished CTA #2 (19575,0), 7 CTAs running
GPGPU-Sim uArch: core:  3, cta: 2 initialized @(19576,0)
GPGPU-Sim uArch: Shader 5 finished CTA #6 (19634,0), 7 CTAs running
GPGPU-Sim uArch: core:  5, cta: 6 initialized @(19635,0)
GPGPU-Sim uArch: Shader 6 finished CTA #0 (19701,0), 7 CTAs running
GPGPU-Sim uArch: core:  6, cta: 0 initialized @(19702,0)
GPGPU-Sim uArch: Shader 14 finished CTA #1 (19944,0), 7 CTAs running
GPGPU-Sim uArch: core: 14, cta: 1 initialized @(19945,0)
GPGPU-Sim uArch: Shader 13 finished CTA #7 (19988,0), 7 CTAs running
GPGPU-Sim uArch: core: 13, cta: 7 initialized @(19989,0)
GPGPU-Sim uArch: Shader 10 finished CTA #2 (20040,0), 7 CTAs running
GPGPU-Sim uArch: core: 10, cta: 2 initialized @(20041,0)
GPGPU-Sim uArch: Shader 6 finished CTA #1 (20206,0), 7 CTAs running
GPGPU-Sim uArch: core:  6, cta: 1 initialized @(20207,0)
GPGPU-Sim uArch: Shader 9 finished CTA #2 (20257,0), 7 CTAs running
GPGPU-Sim uArch: core:  9, cta: 2 initialized @(20258,0)
GPGPU-Sim uArch: Shader 1 finished CTA #1 (20302,0), 7 CTAs running
GPGPU-Sim uArch: core:  1, cta: 1 initialized @(20303,0)
GPGPU-Sim uArch: Shader 0 finished CTA #2 (20309,0), 7 CTAs running
GPGPU-Sim uArch: core:  0, cta: 2 initialized @(20310,0)
GPGPU-Sim PTX: 2300000 instructions simulated : ctaid=(332,0,0) tid=(63,0,0)
GPGPU-Sim uArch: Shader 13 finished CTA #0 (20487,0), 7 CTAs running
GPGPU-Sim uArch: core: 13, cta: 0 initialized @(20488,0)
GPGPU-Sim uArch: cycles simulated: 20500  inst.: 2317888 (ipc=113.1) sim_rate=92715 (inst/sec) elapsed = 0:0:00:25 / Tue Mar 22 12:40:06 2016
GPGPU-Sim uArch: Shader 1 finished CTA #2 (20522,0), 7 CTAs running
GPGPU-Sim uArch: core:  1, cta: 2 initialized @(20523,0)
GPGPU-Sim uArch: Shader 5 finished CTA #7 (20558,0), 7 CTAs running
GPGPU-Sim uArch: core:  5, cta: 7 initialized @(20559,0)
GPGPU-Sim uArch: Shader 2 finished CTA #2 (20580,0), 7 CTAs running
GPGPU-Sim uArch: core:  2, cta: 2 initialized @(20581,0)
GPGPU-Sim uArch: Shader 3 finished CTA #4 (20586,0), 7 CTAs running
GPGPU-Sim uArch: core:  3, cta: 4 initialized @(20587,0)
GPGPU-Sim uArch: Shader 8 finished CTA #2 (20638,0), 7 CTAs running
GPGPU-Sim uArch: core:  8, cta: 2 initialized @(20639,0)
GPGPU-Sim uArch: Shader 4 finished CTA #2 (20643,0), 7 CTAs running
GPGPU-Sim uArch: core:  4, cta: 2 initialized @(20644,0)
GPGPU-Sim uArch: Shader 10 finished CTA #3 (20651,0), 7 CTAs running
GPGPU-Sim uArch: core: 10, cta: 3 initialized @(20652,0)
GPGPU-Sim uArch: Shader 11 finished CTA #3 (20756,0), 7 CTAs running
GPGPU-Sim uArch: core: 11, cta: 3 initialized @(20757,0)
GPGPU-Sim uArch: Shader 0 finished CTA #3 (20825,0), 7 CTAs running
GPGPU-Sim uArch: core:  0, cta: 3 initialized @(20826,0)
GPGPU-Sim uArch: Shader 14 finished CTA #2 (21187,0), 7 CTAs running
GPGPU-Sim uArch: core: 14, cta: 2 initialized @(21188,0)
GPGPU-Sim PTX: 2400000 instructions simulated : ctaid=(326,0,0) tid=(127,0,0)
GPGPU-Sim uArch: Shader 9 finished CTA #3 (21272,0), 7 CTAs running
GPGPU-Sim uArch: core:  9, cta: 3 initialized @(21273,0)
GPGPU-Sim uArch: Shader 2 finished CTA #3 (21313,0), 7 CTAs running
GPGPU-Sim uArch: core:  2, cta: 3 initialized @(21314,0)
GPGPU-Sim uArch: Shader 4 finished CTA #3 (21347,0), 7 CTAs running
GPGPU-Sim uArch: core:  4, cta: 3 initialized @(21348,0)
GPGPU-Sim uArch: Shader 3 finished CTA #3 (21458,0), 7 CTAs running
GPGPU-Sim uArch: core:  3, cta: 3 initialized @(21459,0)
GPGPU-Sim uArch: Shader 5 finished CTA #0 (21574,0), 7 CTAs running
GPGPU-Sim uArch: core:  5, cta: 0 initialized @(21575,0)
GPGPU-Sim uArch: Shader 10 finished CTA #4 (21605,0), 7 CTAs running
GPGPU-Sim uArch: core: 10, cta: 4 initialized @(21606,0)
GPGPU-Sim uArch: Shader 8 finished CTA #3 (21636,0), 7 CTAs running
GPGPU-Sim uArch: core:  8, cta: 3 initialized @(21637,0)
GPGPU-Sim uArch: Shader 12 finished CTA #3 (21803,0), 7 CTAs running
GPGPU-Sim uArch: core: 12, cta: 3 initialized @(21804,0)
GPGPU-Sim uArch: Shader 11 finished CTA #4 (21828,0), 7 CTAs running
GPGPU-Sim uArch: core: 11, cta: 4 initialized @(21829,0)
GPGPU-Sim uArch: Shader 7 finished CTA #3 (21847,0), 7 CTAs running
GPGPU-Sim uArch: core:  7, cta: 3 initialized @(21848,0)
GPGPU-Sim uArch: Shader 3 finished CTA #5 (21878,0), 7 CTAs running
GPGPU-Sim uArch: core:  3, cta: 5 initialized @(21879,0)
GPGPU-Sim uArch: Shader 14 finished CTA #3 (21883,0), 7 CTAs running
GPGPU-Sim uArch: core: 14, cta: 3 initialized @(21884,0)
GPGPU-Sim uArch: Shader 0 finished CTA #4 (21919,0), 7 CTAs running
GPGPU-Sim uArch: core:  0, cta: 4 initialized @(21920,0)
GPGPU-Sim uArch: Shader 9 finished CTA #4 (21940,0), 7 CTAs running
GPGPU-Sim uArch: core:  9, cta: 4 initialized @(21941,0)
GPGPU-Sim PTX: 2500000 instructions simulated : ctaid=(342,0,0) tid=(127,0,0)
GPGPU-Sim uArch: Shader 6 finished CTA #2 (22170,0), 7 CTAs running
GPGPU-Sim uArch: core:  6, cta: 2 initialized @(22171,0)
GPGPU-Sim uArch: Shader 7 finished CTA #4 (22222,0), 7 CTAs running
GPGPU-Sim uArch: core:  7, cta: 4 initialized @(22223,0)
GPGPU-Sim uArch: Shader 5 finished CTA #1 (22244,0), 7 CTAs running
GPGPU-Sim uArch: core:  5, cta: 1 initialized @(22245,0)
GPGPU-Sim uArch: Shader 9 finished CTA #5 (22303,0), 7 CTAs running
GPGPU-Sim uArch: core:  9, cta: 5 initialized @(22304,0)
GPGPU-Sim uArch: Shader 13 finished CTA #1 (22342,0), 7 CTAs running
GPGPU-Sim uArch: core: 13, cta: 1 initialized @(22343,0)
GPGPU-Sim uArch: Shader 4 finished CTA #4 (22381,0), 7 CTAs running
GPGPU-Sim uArch: core:  4, cta: 4 initialized @(22382,0)
GPGPU-Sim uArch: Shader 1 finished CTA #3 (22472,0), 7 CTAs running
GPGPU-Sim uArch: core:  1, cta: 3 initialized @(22473,0)
[...]
traffic_breakdown_coretomem[GLOBAL_ACC_R] = 10937016 {8:1367127,}
traffic_breakdown_coretomem[GLOBAL_ACC_W] = 17273088 {136:127008,}
traffic_breakdown_coretomem[INST_ACC_R] = 1133248 {8:141656,}
traffic_breakdown_memtocore[CONST_ACC_R] = 6480 {72:90,}
traffic_breakdown_memtocore[GLOBAL_ACC_R] = 185929272 {136:1367127,}
traffic_breakdown_memtocore[GLOBAL_ACC_W] = 1016064 {8:127008,}
traffic_breakdown_memtocore[INST_ACC_R] = 19265216 {136:141656,}
maxmrqlatency = 780 
maxdqlatency = 0 
maxmflatency = 2954 
averagemflatency = 288 
max_icnt2mem_latency = 2077 
max_icnt2sh_latency = 3340335 
mrq_lat_table:144649 	7842 	5874 	20312 	86207 	57293 	60540 	42337 	16913 	371 	0 	0 	0 	0 	0 	0 	0 	0 	0 	0 	0 	0 	0 	0 	0 	0 	0 	0 	0 	0 	0 	0 	
dq_lat_table:0 	0 	0 	0 	0 	0 	0 	0 	0 	0 	0 	0 	0 	0 	0 	0 	0 	0 	0 	0 	0 	0 	0 	0 	0 	0 	0 	0 	0 	0 	0 	0 	
mf_lat_table:0 	0 	0 	0 	0 	0 	0 	888408 	511214 	39587 	54451 	565 	0 	0 	0 	0 	0 	0 	0 	0 	0 	0 	0 	0 	0 	0 	0 	0 	0 	0 	0 	0 	
icnt2mem_lat_table:0 	0 	0 	1279527 	199303 	65119 	22673 	25950 	24291 	17711 	1305 	2 	0 	0 	0 	0 	0 	0 	0 	0 	0 	0 	0 	0 	
icnt2sh_lat_table:0 	0 	0 	175724 	411743 	559955 	214773 	5022 	0 	21 	207 	885 	1779 	3819 	7472 	15047 	29379 	33406 	5203 	5691 	11099 	13000 	0 	0 	
mf_lat_pw_table:0 	0 	0 	0 	0 	0 	0 	5360 	896 	76 	323 	0 	0 	0 	0 	0 	0 	0 	0 	0 	0 	0 	0 	0 	0 	0 	0 	0 	0 	0 	0 	0 	
maximum concurrent accesses to same row:
dram[0]:        18        22        20        20        16        18        24        24        24        24        20        24        20        22        24        24 
dram[1]:        20        26        20        20        16        18        24        24        24        24        20        24        20        24        24        24 
dram[2]:        22        18        20        20        16        22        18        20        24        28        22        24        22        20        24        20 
dram[3]:        20        18        20        20        20        20        20        24        24        28        20        24        22        20        24        20 
dram[4]:        20        18        18        20        20        20        16        24        24        26        22        24        20        20        24        20 
dram[5]:        20        16        20        22        20        16        24        20        24        24        24        24        20        22        24        20 
maximum service time to same row:
dram[0]:     58513     58200    102931    114650    144645     77091     90196     74710     74150     76313    142290    109075     70255     72617     71010     78462 
dram[1]:     54525    101385     59406    128407     99527     69513     54545     54725     83378     73478     73151    106994     80871     76137     54651     84863 
dram[2]:     56503     57600     84872     85728    127227     89820     75623     77595     64063     94941     79303     99518     58441     87028     55469     84815 
dram[3]:     54890     57656     86785     88629     69805     89147     57112     54986     58431     58327     73448     87997     63619     70697     75732     54382 
dram[4]:     54835     57690     83412    111783    134203     86014     72109     72604     61506     74078    124635    129524     54649     56681     67859     54420 
dram[5]:     84222     84575     66781     70931    206853     77998    101832     76222     83440    118165    132772     54356     63903     71440     59049     54631 
average row accesses per activate:
dram[0]:  2.736873  2.863331  2.682259  2.857143  2.614143  2.820823  2.866152  3.026567  2.914541  3.024816  2.978102  3.045977  3.033091  2.861663  2.883835  2.807876 
dram[1]:  2.607822  2.842649  2.700227  2.843902  2.681844  2.748531  2.868371  2.926797  2.957627  2.927435  3.008731  3.039973  2.915297  2.949327  2.835511  2.799762 
dram[2]:  2.775089  2.720300  2.754232  2.842296  2.682259  2.806123  2.911301  3.027341  2.963351  3.102026  2.999331  3.080388  2.814815  3.067889  2.892704  2.765093 
dram[3]:  2.808408  2.761987  2.845732  2.850819  2.805721  2.665158  3.030447  2.796798  2.898919  3.043507  2.971655  2.913269  3.088154  3.022162  2.918597  2.737959 
dram[4]:  2.719178  2.887516  2.759953  2.871226  2.741520  2.786787  2.996658  2.909922  2.931190  3.052703  2.866456  2.940717  2.962034  2.829060  2.850519  2.803721 
dram[5]:  2.821860  2.756725  2.961270  2.729936  2.722733  2.675141  2.933377  2.983979  3.100555  3.002649  3.027910  3.057377  2.951571  2.886956  2.828068  2.851051 
average row locality = 442338/154111 = 2.870256
number of total memory accesses made:
dram[0]:         0         0         0         0         0         0         0         0         0         0         0         0         0         0         0         0 
dram[1]:         0         0         0         0         0         0         0         0         0         0         0         0         0         0         0         0 
dram[2]:         0         0         0         0         0         0         0         0         0         0         0         0         0         0         0         0 
dram[3]:         0         0         0         0         0         0         0         0         0         0         0         0         0         0         0         0 
dram[4]:         0         0         0         0         0         0         0         0         0         0         0         0         0         0         0         0 
dram[5]:         0         0         0         0         0         0         0         0         0         0         0         0         0         0         0         0 
total accesses: 0
min_bank_accesses = 0!
min_chip_accesses = 0!
number of total read accesses:
dram[0]:      3295      3349      3358      3356      3379      3344      3172      3161      3258      3198      3176      3193      3253      3283      3348      3362 
dram[1]:      3457      3335      3403      3320      3455      3362      3207      3196      3225      3287      3168      3175      3282      3268      3431      3368 
dram[2]:      3357      3373      3374      3360      3386      3363      3149      3145      3216      3127      3172      3133      3306      3187      3374      3282 
dram[3]:      3332      3437      3323      3357      3392      3400      3197      3258      3248      3235      3196      3189      3154      3168      3317      3431 
dram[4]:      3420      3328      3301      3316      3372      3328      3201      3174      3246      3206      3217      3202      3273      3302      3328      3327 
dram[5]:      3329      3370      3320      3316      3427      3423      3165      3186      3159      3222      3136      3164      3180      3316      3311      3403 
total reads: 315330
bank skew: 3457/3127 = 1.11
chip skew: 52939/52304 = 1.01
number of total write accesses:
dram[0]:      1344      1344      1344      1344      1316      1316      1282      1282      1312      1312      1312      1312      1330      1330      1344      1344 
dram[1]:      1344      1344      1344      1344      1316      1316      1282      1282      1312      1312      1312      1312      1330      1330      1344      1344 
dram[2]:      1344      1344      1344      1344      1316      1312      1282      1284      1312      1312      1312      1312      1330      1332      1344      1344 
dram[3]:      1344      1344      1344      1344      1316      1312      1282      1284      1312      1312      1312      1312      1330      1332      1344      1344 
dram[4]:      1344      1344      1344      1344      1316      1312      1282      1284      1312      1312      1312      1312      1330      1332      1344      1344 
dram[5]:      1344      1344      1344      1344      1316      1312      1282      1284      1312      1312      1312      1312      1330      1332      1344      1344 
total reads: 127008
bank skew: 1344/1282 = 1.05
chip skew: 21168/21168 = 1.00
average mf latency per bank:
dram[0]:        984       988      1000      1000      1009      1004      1004      1015       968      1035       878       894       897       911       964       968
dram[1]:        932       981       982      1019       989      1018       994      1025       999       957       871       874       867       907       937       965
dram[2]:        962       958      1009      1027      1006      1051      1025      1051      1006      1006       865       884       878       904       952       929
dram[3]:        990       950      1022      1014       996      1014       981      1017       972      1015       881       868       900       915       973       915
dram[4]:        986       936      1053       997      1060       998      1074      1021      1044       997       900       854       935       867      1006       920
dram[5]:       1037       982      1043      1028      1040      1001      1103       989      1113       974       936       842       964       883      1038       961
maximum mf latency per bank:
dram[0]:       2154      2277      2509      2345      2237      2328      1992      2247      2090      2109      1992      2296      2457      2190      2954      2034
dram[1]:       2496      1960      2185      2096      2387      2248      2817      1965      2070      1953      2072      2003      2154      2473      2225      2004
dram[2]:       2549      2420      2426      2507      2080      2727      2133      2354      2026      1926      2147      2167      2331      2570      2601      2101
dram[3]:       2414      2141      2450      2582      2298      2604      2035      2097      2095      2120      2115      2087      2237      2236      2172      1952
dram[4]:       2345      2182      2551      2302      2841      2487      2332      2255      1952      2104      2233      2312      2246      2282      2871      1984
dram[5]:       2454      2496      2229      2591      2465      2721      2179      2259      2064      2380      2290      2130      2403      2539      2035      2457

Number of Memory Banks Accessed per Memory Operation per Warp (from 0):
0	0	0	0	0	0	0	0	0	0	0	0	0	0	0	0	0	0	0	0	0	0	0	0	0	0	0	0	0	0	0	0	0	0	0	0	0	0	0	0	0	0	0	0	0	0	0	0	0	0	0	0	0	0	0	0	0	0	0	0	0	0	0	0	0	0	0	0	0	0	0	0	0	0	0	0	0	0	0	0	0	0	0	0	0	0	0	0	0	0	0	0	0	0	0	0	
Average # of Memory Banks Accessed per Memory Operation per Warp=-nan

position of mrq chosen
0	0	0	0	0	0	0	0	0	0	0	0	0	0	0	0	

average position of mrq chosen = -nan
Memory Partition 0: 
Cache L2_bank_000:
MSHR contents

Cache L2_bank_001:
MSHR contents

In Dram Latency Queue (total = 0): 
DRAM[0]: 16 bks, busW=4 BL=8 CL=12, tRRD=2 tCCD=6, tRCD=12 tRAS=28 tRP=12 tRC=40
n_cmd=4409240 n_nop=4210604 n_act=25673 n_pre=25657 n_req=73653 n_rd=104970 n_write=42336 bw_util=0.06682
n_activity=1128853 dram_eff=0.261
bk0: 6590a 4309329i bk1: 6698a 4307304i bk2: 6716a 4302643i bk3: 6712a 4302665i bk4: 6758a 4301891i bk5: 6688a 4303340i bk6: 6344a 4313208i bk7: 6322a 4313755i bk8: 6516a 4311550i bk9: 6396a 4313985i bk10: 6352a 4310173i bk11: 6386a 4309759i bk12: 6506a 4307272i bk13: 6566a 4306026i bk14: 6696a 4306648i bk15: 6724a 4306310i 
dram_util_bins: 0 0 0 0 0 0 0 0 0 0
dram_eff_bins: 0 0 0 0 0 0 0 0 0 0
mrqq: max=16 avg=1.16799
Memory Partition 1: 
Cache L2_bank_002:
MSHR contents

Cache L2_bank_003:
MSHR contents

In Dram Latency Queue (total = 0): 
DRAM[1]: 16 bks, busW=4 BL=8 CL=12, tRRD=2 tCCD=6, tRCD=12 tRAS=28 tRP=12 tRC=40
n_cmd=4409240 n_nop=4208962 n_act=26040 n_pre=26024 n_req=74107 n_rd=105878 n_write=42336 bw_util=0.06723
n_activity=1146504 dram_eff=0.2585
bk0: 6914a 4305161i bk1: 6670a 4307541i bk2: 6806a 4301707i bk3: 6640a 4304318i bk4: 6910a 4301580i bk5: 6724a 4303848i bk6: 6414a 4311521i bk7: 6392a 4312096i bk8: 6450a 4313294i bk9: 6574a 4311763i bk10: 6336a 4310481i bk11: 6350a 4310574i bk12: 6564a 4306851i bk13: 6536a 4307540i bk14: 6862a 4305516i bk15: 6736a 4307624i 
dram_util_bins: 0 0 0 0 0 0 0 0 0 0
dram_eff_bins: 0 0 0 0 0 0 0 0 0 0
mrqq: max=16 avg=1.16785
Memory Partition 2: 
Cache L2_bank_004:
MSHR contents

Cache L2_bank_005:
MSHR contents

In Dram Latency Queue (total = 0): 
DRAM[2]: 16 bks, busW=4 BL=8 CL=12, tRRD=2 tCCD=6, tRCD=12 tRAS=28 tRP=12 tRC=40
n_cmd=4409240 n_nop=4211270 n_act=25521 n_pre=25505 n_req=73472 n_rd=104608 n_write=42336 bw_util=0.06665
n_activity=1115659 dram_eff=0.2634
bk0: 6714a 4307920i bk1: 6746a 4306365i bk2: 6748a 4302101i bk3: 6720a 4301557i bk4: 6772a 4301995i bk5: 6726a 4302643i bk6: 6298a 4312410i bk7: 6290a 4313068i bk8: 6432a 4312511i bk9: 6254a 4314757i bk10: 6344a 4309978i bk11: 6266a 4310200i bk12: 6612a 4306353i bk13: 6374a 4308907i bk14: 6748a 4307016i bk15: 6564a 4308057i 
dram_util_bins: 0 0 0 0 0 0 0 0 0 0
dram_eff_bins: 0 0 0 0 0 0 0 0 0 0
mrqq: max=16 avg=1.17154
Memory Partition 3: 
Cache L2_bank_006:
MSHR contents

Cache L2_bank_007:
MSHR contents

In Dram Latency Queue (total = 0): 
DRAM[3]: 16 bks, busW=4 BL=8 CL=12, tRRD=2 tCCD=6, tRCD=12 tRAS=28 tRP=12 tRC=40
n_cmd=4409240 n_nop=4210364 n_act=25644 n_pre=25628 n_req=73802 n_rd=105268 n_write=42336 bw_util=0.06695
n_activity=1130007 dram_eff=0.2612
bk0: 6664a 4309077i bk1: 6874a 4305290i bk2: 6646a 4304596i bk3: 6714a 4303267i bk4: 6784a 4303650i bk5: 6800a 4302095i bk6: 6394a 4312042i bk7: 6516a 4310325i bk8: 6496a 4311780i bk9: 6470a 4311803i bk10: 6392a 4308919i bk11: 6378a 4309282i bk12: 6308a 4310197i bk13: 6336a 4309521i bk14: 6634a 4309274i bk15: 6862a 4305126i 
dram_util_bins: 0 0 0 0 0 0 0 0 0 0
dram_eff_bins: 0 0 0 0 0 0 0 0 0 0
mrqq: max=16 avg=1.16973
Memory Partition 4: 
Cache L2_bank_008:
MSHR contents
MSHR: tag=0x8179fc00, atomic=0 1 entries : 0x7f9e4da7e770 :  mf: uid=11488012, sid13:w10, part=4, addr=0x8179fc00, load , size=128, unknown  status = IN_PARTITION_DRAM (3340333), 

Cache L2_bank_009:
MSHR contents

In Dram Latency Queue (total = 0): 
DRAM[4]: 16 bks, busW=4 BL=8 CL=12, tRRD=2 tCCD=6, tRCD=12 tRAS=28 tRP=12 tRC=40
n_cmd=4409240 n_nop=4210386 n_act=25726 n_pre=25710 n_req=73709 n_rd=105082 n_write=42336 bw_util=0.06687
n_activity=1142662 dram_eff=0.258
bk0: 6840a 4305996i bk1: 6656a 4308402i bk2: 6602a 4304011i bk3: 6632a 4304405i bk4: 6744a 4303973i bk5: 6656a 4304345i bk6: 6402a 4313065i bk7: 6348a 4312642i bk8: 6492a 4312155i bk9: 6412a 4312880i bk10: 6434a 4309202i bk11: 6404a 4307751i bk12: 6546a 4306759i bk13: 6604a 4306134i bk14: 6656a 4308103i bk15: 6654a 4308178i 
dram_util_bins: 0 0 0 0 0 0 0 0 0 0
dram_eff_bins: 0 0 0 0 0 0 0 0 0 0
mrqq: max=16 avg=1.16833
Memory Partition 5: 
Cache L2_bank_010:
MSHR contents

Cache L2_bank_011:
MSHR contents

In Dram Latency Queue (total = 0): 
DRAM[5]: 16 bks, busW=4 BL=8 CL=12, tRRD=2 tCCD=6, tRCD=12 tRAS=28 tRP=12 tRC=40
n_cmd=4409240 n_nop=4211050 n_act=25508 n_pre=25492 n_req=73595 n_rd=104854 n_write=42336 bw_util=0.06676
n_activity=1116044 dram_eff=0.2638
bk0: 6658a 4308131i bk1: 6740a 4306252i bk2: 6640a 4304286i bk3: 6632a 4303222i bk4: 6854a 4300801i bk5: 6846a 4300665i bk6: 6330a 4312836i bk7: 6372a 4312375i bk8: 6318a 4314914i bk9: 6444a 4311404i bk10: 6272a 4309747i bk11: 6328a 4309554i bk12: 6360a 4308434i bk13: 6632a 4305059i bk14: 6622a 4308771i bk15: 6806a 4305972i 
dram_util_bins: 0 0 0 0 0 0 0 0 0 0
dram_eff_bins: 0 0 0 0 0 0 0 0 0 0
mrqq: max=16 avg=1.16344

========= L2 cache stats =========
L2_cache_bank[0]: Access = 136629, Miss = 26239, Miss_rate = 0.192, Pending_hits = 123, Reservation_fails = 1167
L2_cache_bank[1]: Access = 136122, Miss = 26246, Miss_rate = 0.193, Pending_hits = 111, Reservation_fails = 1254
L2_cache_bank[2]: Access = 129916, Miss = 26628, Miss_rate = 0.205, Pending_hits = 89, Reservation_fails = 1448
L2_cache_bank[3]: Access = 137135, Miss = 26311, Miss_rate = 0.192, Pending_hits = 83, Reservation_fails = 1103
L2_cache_bank[4]: Access = 131071, Miss = 26334, Miss_rate = 0.201, Pending_hits = 66, Reservation_fails = 1268
L2_cache_bank[5]: Access = 139669, Miss = 25970, Miss_rate = 0.186, Pending_hits = 73, Reservation_fails = 890
L2_cache_bank[6]: Access = 139150, Miss = 26159, Miss_rate = 0.188, Pending_hits = 62, Reservation_fails = 1423
L2_cache_bank[7]: Access = 135210, Miss = 26475, Miss_rate = 0.196, Pending_hits = 79, Reservation_fails = 1260
L2_cache_bank[8]: Access = 142990, Miss = 26358, Miss_rate = 0.184, Pending_hits = 102, Reservation_fails = 1049
L2_cache_bank[9]: Access = 130320, Miss = 26183, Miss_rate = 0.201, Pending_hits = 76, Reservation_fails = 962
L2_cache_bank[10]: Access = 140507, Miss = 26027, Miss_rate = 0.185, Pending_hits = 76, Reservation_fails = 774
L2_cache_bank[11]: Access = 137162, Miss = 26400, Miss_rate = 0.192, Pending_hits = 109, Reservation_fails = 996
L2_total_cache_accesses = 1635881
L2_total_cache_misses = 315330
L2_total_cache_miss_rate = 0.1928
L2_total_cache_pending_hits = 1049
L2_total_cache_reservation_fails = 13594
L2_total_cache_breakdown:
	L2_cache_stats_breakdown[GLOBAL_ACC_R][HIT] = 1178047
	L2_cache_stats_breakdown[GLOBAL_ACC_R][HIT_RESERVED] = 858
	L2_cache_stats_breakdown[GLOBAL_ACC_R][MISS] = 188222
	L2_cache_stats_breakdown[GLOBAL_ACC_R][RESERVATION_FAIL] = 174
	L2_cache_stats_breakdown[CONST_ACC_R][HIT] = 62
	L2_cache_stats_breakdown[CONST_ACC_R][HIT_RESERVED] = 18
	L2_cache_stats_breakdown[CONST_ACC_R][MISS] = 10
	L2_cache_stats_breakdown[CONST_ACC_R][RESERVATION_FAIL] = 621
	L2_cache_stats_breakdown[GLOBAL_ACC_W][MISS] = 127008
	L2_cache_stats_breakdown[GLOBAL_ACC_W][RESERVATION_FAIL] = 7558
	L2_cache_stats_breakdown[INST_ACC_R][HIT] = 141393
	L2_cache_stats_breakdown[INST_ACC_R][HIT_RESERVED] = 173
	L2_cache_stats_breakdown[INST_ACC_R][MISS] = 90
	L2_cache_stats_breakdown[INST_ACC_R][RESERVATION_FAIL] = 5241
L2_cache_data_port_util = 0.132
L2_cache_fill_port_util = 0.031

icnt_total_pkts_mem_to_simt=7671193
icnt_total_pkts_simt_to_mem=2143913
LD_mem_lat_dist  0 0 0 0 0 0 0 0 0 0 0 0 0 0 0 0 0 0 0 0 0 0 0 0 0 0 0
ST_mem_lat_dist  0 0 0 0 0 0 0 0 0 0 0 0 0 0 0 0 0 0 0 0 0 0 0 0 0 0 0
----------------------------Interconnect-DETAILS--------------------------------
Class 0:
Packet latency average = 23.6081
	minimum = 6
	maximum = 361
Network latency average = 18.9986
	minimum = 6
	maximum = 361
Slowest packet = 2512918
Flit latency average = 20.1286
	minimum = 6
	maximum = 361
Slowest flit = 7538086
Fragmentation average = 0.00174154
	minimum = 0
	maximum = 237
Injected packet rate average = 0.0388371
	minimum = 0.0345196 (at node 12)
	maximum = 0.0460216 (at node 23)
Accepted packet rate average = 0.0388371
	minimum = 0.0345196 (at node 12)
	maximum = 0.0460216 (at node 23)
Injected flit rate average = 0.11651
	minimum = 0.0373248 (at node 12)
	maximum = 0.226591 (at node 23)
Accepted flit rate average= 0.11651
	minimum = 0.0449613 (at node 17)
	maximum = 0.17337 (at node 14)
Injected packet length average = 2.99996
Accepted packet length average = 2.99996
Total in-flight flits = 0 (0 measured)
====== Overall Traffic Statistics ======
====== Traffic class 0 ======
Packet latency average = 38.1864 (5 samples)
	minimum = 6 (5 samples)
	maximum = 765.2 (5 samples)
Network latency average = 29.6285 (5 samples)
	minimum = 6 (5 samples)
	maximum = 705.2 (5 samples)
Flit latency average = 35.1132 (5 samples)
	minimum = 6 (5 samples)
	maximum = 702.8 (5 samples)
Fragmentation average = 2.37194 (5 samples)
	minimum = 0 (5 samples)
	maximum = 408.6 (5 samples)
Injected packet rate average = 0.0299971 (5 samples)
	minimum = 0.0257864 (5 samples)
	maximum = 0.0343448 (5 samples)
Accepted packet rate average = 0.0299971 (5 samples)
	minimum = 0.0257864 (5 samples)
	maximum = 0.0343448 (5 samples)
Injected flit rate average = 0.0899845 (5 samples)
	minimum = 0.0331125 (5 samples)
	maximum = 0.152012 (5 samples)
Accepted flit rate average = 0.0899845 (5 samples)
	minimum = 0.0299288 (5 samples)
	maximum = 0.156077 (5 samples)
Injected packet size average = 2.99977 (5 samples)
Accepted packet size average = 2.99977 (5 samples)
Hops average = 1 (5 samples)
