

        *** GPGPU-Sim Simulator Version 3.2.2  [build 0] ***


GPGPU-Sim PTX: simulation mode 0 (can change with PTX_SIM_MODE_FUNC environment variable:
               1=functional simulation only, 0=detailed performance simulator)
GPGPU-Sim: Configuration options:

-network_mode                           1 # Interconnection network mode
-inter_config_file   config_fermi_islip.icnt # Interconnection network config file
-gpgpu_ptx_use_cuobjdump                    1 # Use cuobjdump to extract ptx and sass from binaries
-gpgpu_experimental_lib_support                    0 # Try to extract code from cuda libraries [Broken because of unknown cudaGetExportTable]
-gpgpu_ptx_convert_to_ptxplus                    0 # Convert SASS (native ISA) to ptxplus and run ptxplus
-gpgpu_ptx_force_max_capability                   20 # Force maximum compute capability
-gpgpu_ptx_inst_debug_to_file                    0 # Dump executed instructions' debug information to file
-gpgpu_ptx_inst_debug_file       inst_debug.txt # Executed instructions' debug output file
-gpgpu_ptx_inst_debug_thread_uid                    1 # Thread UID for executed instructions' debug output
-gpgpu_simd_model                       1 # 1 = post-dominator
-gpgpu_shader_core_pipeline              1536:32 # shader core pipeline config, i.e., {<nthread>:<warpsize>}
-gpgpu_tex_cache:l1  4:128:24,L:R:m:N:L,F:128:4,128:2 # per-shader L1 texture cache  (READ-ONLY) config  {<nsets>:<bsize>:<assoc>,<rep>:<wr>:<alloc>:<wr_alloc>,<mshr>:<N>:<merge>,<mq>:<rf>}
-gpgpu_const_cache:l1 64:64:2,L:R:f:N:L,A:2:32,4 # per-shader L1 constant memory cache  (READ-ONLY) config  {<nsets>:<bsize>:<assoc>,<rep>:<wr>:<alloc>:<wr_alloc>,<mshr>:<N>:<merge>,<mq>} 
-gpgpu_cache:il1     4:128:4,L:R:f:N:L,A:2:32,4 # shader L1 instruction cache config  {<nsets>:<bsize>:<assoc>,<rep>:<wr>:<alloc>:<wr_alloc>,<mshr>:<N>:<merge>,<mq>} 
-gpgpu_cache:dl1     32:128:4,L:L:m:N:H,A:32:8,8:2,0,1:0:1:1:0:1,1:4:8:16:32:64,/sciclone/data10/hwang07/GPU_RESEARCH/swl/swl_outputs/RESULTS/swl24/ # per-shader L1 data cache config  {<nsets>:<bsize>:<assoc>,<rep>:<wr>:<alloc>:<wr_alloc>,<mshr>:<N>:<merge>,<mq> | none}
-gpgpu_cache:dl1PrefL1                 none # per-shader L1 data cache config  {<nsets>:<bsize>:<assoc>,<rep>:<wr>:<alloc>:<wr_alloc>,<mshr>:<N>:<merge>,<mq> | none}
-gpgpu_cache:dl1PreShared                 none # per-shader L1 data cache config  {<nsets>:<bsize>:<assoc>,<rep>:<wr>:<alloc>:<wr_alloc>,<mshr>:<N>:<merge>,<mq> | none}
-gmem_skip_L1D                          0 # global memory access skip L1D cache (implements -Xptxas -dlcm=cg, default=no skip)
-gpgpu_perfect_mem                      0 # enable perfect memory mode (no cache miss)
-n_regfile_gating_group                    4 # group of lanes that should be read/written together)
-gpgpu_clock_gated_reg_file                    0 # enable clock gated reg file for power calculations
-gpgpu_clock_gated_lanes                    0 # enable clock gated lanes for power calculations
-gpgpu_shader_registers                32768 # Number of registers per shader core. Limits number of concurrent CTAs. (default 8192)
-gpgpu_shader_cta                       8 # Maximum number of concurrent CTAs in shader (default 8)
-gpgpu_num_cta_barriers                   16 # Maximum number of named barriers per CTA (default 16)
-gpgpu_n_clusters                      15 # number of processing clusters
-gpgpu_n_cores_per_cluster                    1 # number of simd cores per cluster
-gpgpu_n_cluster_ejection_buffer_size                    8 # number of packets in ejection buffer
-gpgpu_n_ldst_response_buffer_size                    2 # number of response packets in ld/st unit ejection buffer
-gpgpu_shmem_size                   16384 # Size of shared memory per shader core (default 16kB)
-gpgpu_shmem_size                   49152 # Size of shared memory per shader core (default 16kB)
-gpgpu_shmem_size_PrefL1                16384 # Size of shared memory per shader core (default 16kB)
-gpgpu_shmem_size_PrefShared                16384 # Size of shared memory per shader core (default 16kB)
-gpgpu_shmem_num_banks                   32 # Number of banks in the shared memory in each shader core (default 16)
-gpgpu_shmem_limited_broadcast                    0 # Limit shared memory to do one broadcast per cycle (default on)
-gpgpu_shmem_warp_parts                    1 # Number of portions a warp is divided into for shared memory bank conflict check 
-gpgpu_warpdistro_shader                   -1 # Specify which shader core to collect the warp size distribution from
-gpgpu_warp_issue_shader                    0 # Specify which shader core to collect the warp issue distribution from
-gpgpu_local_mem_map                    1 # Mapping from local memory space address to simulated GPU physical address space (default = enabled)
-gpgpu_num_reg_banks                   16 # Number of register banks (default = 8)
-gpgpu_reg_bank_use_warp_id                    0 # Use warp ID in mapping registers to banks (default = off)
-gpgpu_operand_collector_num_units_sp                    6 # number of collector units (default = 4)
-gpgpu_operand_collector_num_units_sfu                    8 # number of collector units (default = 4)
-gpgpu_operand_collector_num_units_mem                    2 # number of collector units (default = 2)
-gpgpu_operand_collector_num_units_gen                    0 # number of collector units (default = 0)
-gpgpu_operand_collector_num_in_ports_sp                    2 # number of collector unit in ports (default = 1)
-gpgpu_operand_collector_num_in_ports_sfu                    1 # number of collector unit in ports (default = 1)
-gpgpu_operand_collector_num_in_ports_mem                    1 # number of collector unit in ports (default = 1)
-gpgpu_operand_collector_num_in_ports_gen                    0 # number of collector unit in ports (default = 0)
-gpgpu_operand_collector_num_out_ports_sp                    2 # number of collector unit in ports (default = 1)
-gpgpu_operand_collector_num_out_ports_sfu                    1 # number of collector unit in ports (default = 1)
-gpgpu_operand_collector_num_out_ports_mem                    1 # number of collector unit in ports (default = 1)
-gpgpu_operand_collector_num_out_ports_gen                    0 # number of collector unit in ports (default = 0)
-gpgpu_coalesce_arch                   13 # Coalescing arch (default = 13, anything else is off for now)
-gpgpu_num_sched_per_core                    2 # Number of warp schedulers per core
-gpgpu_max_insn_issue_per_warp                    1 # Max number of instructions that can be issued per warp in one cycle by scheduler
-gpgpu_simt_core_sim_order                    1 # Select the simulation order of cores in a cluster (0=Fix, 1=Round-Robin)
-gpgpu_pipeline_widths        2,1,1,2,1,1,2 # Pipeline widths ID_OC_SP,ID_OC_SFU,ID_OC_MEM,OC_EX_SP,OC_EX_SFU,OC_EX_MEM,EX_WB
-gpgpu_num_sp_units                     2 # Number of SP units (default=1)
-gpgpu_num_sfu_units                    1 # Number of SF units (default=1)
-gpgpu_num_mem_units                    1 # Number if ldst units (default=1) WARNING: not hooked up to anything
-gpgpu_scheduler       warp_limiting:2:24 # Scheduler configuration: < lrr | gto | two_level_active > If two_level_active:<num_active_warps>:<inner_prioritization>:<outer_prioritization>For complete list of prioritization values see shader.h enum scheduler_prioritization_typeDefault: gto
-gpgpu_dram_scheduler                    1 # 0 = fifo, 1 = FR-FCFS (defaul)
-gpgpu_dram_partition_queues              8:8:8:8 # i2$:$2d:d2$:$2i
-l2_ideal                               0 # Use a ideal L2 cache that always hit
-gpgpu_cache:dl2     64:128:8,L:B:m:W:L,A:32:4,4:0,32 # unified banked L2 data cache config  {<nsets>:<bsize>:<assoc>,<rep>:<wr>:<alloc>:<wr_alloc>,<mshr>:<N>:<merge>,<mq>}
-gpgpu_cache:dl2_texture_only                    0 # L2 cache used for texture only
-gpgpu_n_mem                            6 # number of memory modules (e.g. memory controllers) in gpu
-gpgpu_n_sub_partition_per_mchannel                    2 # number of memory subpartition in each memory module
-gpgpu_n_mem_per_ctrlr                    2 # number of memory chips per memory controller
-gpgpu_memlatency_stat                   14 # track and display latency statistics 0x2 enables MC, 0x4 enables queue logs
-gpgpu_frfcfs_dram_sched_queue_size                   16 # 0 = unlimited (default); # entries per chip
-gpgpu_dram_return_queue_size                  116 # 0 = unlimited (default); # entries per chip
-gpgpu_dram_buswidth                    4 # default = 4 bytes (8 bytes per cycle at DDR)
-gpgpu_dram_burst_length                    8 # Burst length of each DRAM request (default = 4 data bus cycle)
-dram_data_command_freq_ratio                    4 # Frequency ratio between DRAM data bus and command bus (default = 2 times, i.e. DDR)
-gpgpu_dram_timing_opt nbk=16:CCD=2:RRD=6:RCD=12:RAS=28:RP=12:RC=40: CL=12:WL=4:CDLR=5:WR=12:nbkgrp=4:CCDL=3:RTPL=2 # DRAM timing parameters = {nbk:tCCD:tRRD:tRCD:tRAS:tRP:tRC:CL:WL:tCDLR:tWR:nbkgrp:tCCDL:tRTPL}
-rop_latency                          120 # ROP queue latency (default 85)
-dram_latency                         100 # DRAM latency (default 30)
-gpgpu_mem_addr_mapping dramid@8;00000000.00000000.00000000.00000000.0000RRRR.RRRRRRRR.BBBCCCCB.CCSSSSSS # mapping memory address to dram model {dramid@<start bit>;<memory address map>}
-gpgpu_mem_addr_test                    0 # run sweep test to check address mapping for aliased address
-gpgpu_mem_address_mask                    1 # 0 = old addressing mask, 1 = new addressing mask, 2 = new add. mask + flipped bank sel and chip sel bits
-gpuwattch_xml_file  gpuwattch_gtx480.xml # GPUWattch XML file
-power_simulation_enabled                    0 # Turn on power simulator (1=On, 0=Off)
-power_per_cycle_dump                    0 # Dump detailed power output each cycle
-power_trace_enabled                    0 # produce a file for the power trace (1=On, 0=Off)
-power_trace_zlevel                     6 # Compression level of the power trace output log (0=no comp, 9=highest)
-steady_power_levels_enabled                    0 # produce a file for the steady power levels (1=On, 0=Off)
-steady_state_definition                  8:4 # allowed deviation:number of samples
-gpgpu_max_cycle                        0 # terminates gpu simulation early (0 = no limit)
-gpgpu_max_insn                         0 # terminates gpu simulation early (0 = no limit)
-gpgpu_max_cta                          0 # terminates gpu simulation early (0 = no limit)
-gpgpu_runtime_stat                   500 # display runtime statistics such as dram utilization {<freq>:<flag>}
-liveness_message_freq                    1 # Minimum number of seconds between simulation liveness messages (0 = always print)
-gpgpu_flush_l1_cache                    0 # Flush L1 cache at the end of each kernel call
-gpgpu_flush_l2_cache                    0 # Flush L2 cache at the end of each kernel call
-gpgpu_deadlock_detect                    1 # Stop the simulation at deadlock (1=on (default), 0=off)
-gpgpu_ptx_instruction_classification                    0 # if enabled will classify ptx instruction types per kernel (Max 255 kernels now)
-gpgpu_ptx_sim_mode                     0 # Select between Performance (default) or Functional simulation (1)
-gpgpu_clock_domains 700.0:700.0:700.0:924.0 # Clock Domain Frequencies in MhZ {<Core Clock>:<ICNT Clock>:<L2 Clock>:<DRAM Clock>}
-gpgpu_max_concurrent_kernel                    8 # maximum kernels that can run concurrently on GPU
-gpgpu_cflog_interval                    0 # Interval between each snapshot in control flow logger
-visualizer_enabled                     0 # Turn on visualizer output (1=On, 0=Off)
-visualizer_outputfile                 NULL # Specifies the output log file for visualizer
-visualizer_zlevel                      6 # Compression level of the visualizer output log (0=no comp, 9=highest)
-trace_enabled                          0 # Turn on traces
-trace_components                    none # comma seperated list of traces to enable. Complete list found in trace_streams.tup. Default none
-trace_sampling_core                    0 # The core which is printed using CORE_DPRINTF. Default 0
-trace_sampling_memory_partition                   -1 # The memory partition which is printed using MEMPART_DPRINTF. Default -1 (i.e. all)
-enable_ptx_file_line_stats                    1 # Turn on PTX source line statistic profiling. (1 = On)
-ptx_line_stats_filename gpgpu_inst_stats.txt # Output file for PTX source line statistics.
-save_embedded_ptx                      0 # saves ptx files embedded in binary as <n>.ptx
-keep                                   0 # keep intermediate files created by GPGPU-Sim when interfacing with external programs
-gpgpu_ptx_save_converted_ptxplus                    0 # Saved converted ptxplus to a file
-ptx_opcode_latency_int         4,13,4,5,145 # Opcode latencies for integers <ADD,MAX,MUL,MAD,DIV>Default 1,1,19,25,145
-ptx_opcode_latency_fp          4,13,4,5,39 # Opcode latencies for single precision floating points <ADD,MAX,MUL,MAD,DIV>Default 1,1,1,1,30
-ptx_opcode_latency_dp         8,19,8,8,330 # Opcode latencies for double precision floating points <ADD,MAX,MUL,MAD,DIV>Default 8,8,8,8,335
-ptx_opcode_initiation_int            1,2,2,1,8 # Opcode initiation intervals for integers <ADD,MAX,MUL,MAD,DIV>Default 1,1,4,4,32
-ptx_opcode_initiation_fp            1,2,1,1,4 # Opcode initiation intervals for single precision floating points <ADD,MAX,MUL,MAD,DIV>Default 1,1,1,1,5
-ptx_opcode_initiation_dp         8,16,8,8,130 # Opcode initiation intervals for double precision floating points <ADD,MAX,MUL,MAD,DIV>Default 8,8,8,8,130
DRAM Timing Options:
nbk                                    16 # number of banks
CCD                                     2 # column to column delay
RRD                                     6 # minimal delay between activation of rows in different banks
RCD                                    12 # row to column delay
RAS                                    28 # time needed to activate row
RP                                     12 # time needed to precharge (deactivate) row
RC                                     40 # row cycle time
CDLR                                    5 # switching from write to read (changes tWTR)
WR                                     12 # last data-in to row precharge
CL                                     12 # CAS latency
WL                                      4 # Write latency
nbkgrp                                  4 # number of bank groups
CCDL                                    3 # column to column delay between accesses to different bank groups
RTPL                                    2 # read to precharge delay between accesses to different bank groups
Total number of memory sub partition = 12
addr_dec_mask[CHIP]  = 0000000000000000 	high:64 low:0
addr_dec_mask[BK]    = 000000000000e100 	high:16 low:8
addr_dec_mask[ROW]   = 000000000fff0000 	high:28 low:16
addr_dec_mask[COL]   = 0000000000001eff 	high:13 low:0
addr_dec_mask[BURST] = 000000000000003f 	high:6 low:0
sub_partition_id_mask = 0000000000000100
GPGPU-Sim uArch: clock freqs: 700000000.000000:700000000.000000:700000000.000000:924000000.000000
GPGPU-Sim uArch: clock periods: 0.00000000142857142857:0.00000000142857142857:0.00000000142857142857:0.00000000108225108225
*** Initializing Memory Statistics ***
GPGPU-Sim uArch: interconnect node map (shaderID+MemID to icntID)
GPGPU-Sim uArch: Memory nodes ID start from index: 15
GPGPU-Sim uArch:    0   1   2   3   4
GPGPU-Sim uArch:    5   6   7   8   9
GPGPU-Sim uArch:   10  11  12  13  14
GPGPU-Sim uArch:   15  16  17  18  19
GPGPU-Sim uArch:   20  21  22  23  24
GPGPU-Sim uArch:   25  26
GPGPU-Sim uArch: interconnect node reverse map (icntID to shaderID+MemID)
GPGPU-Sim uArch: Memory nodes start from ID: 15
GPGPU-Sim uArch:    0   1   2   3   4
GPGPU-Sim uArch:    5   6   7   8   9
GPGPU-Sim uArch:   10  11  12  13  14
GPGPU-Sim uArch:   15  16  17  18  19
GPGPU-Sim uArch:   20  21  22  23  24
GPGPU-Sim uArch:   25  26
af04f0b458cb08397a3295dafdcb0262  /sciclone/data10/hwang07/adwait/applications/benchmarks/CUDA/TRA/gpgpu_ptx_sim__TRA
GPGPU-Sim uArch: performance model initialization complete.
GPGPU-Sim PTX: __cudaRegisterFatBinary, fat_cubin_handle = 1, filename=transpose.cu
self exe links to: /sciclone/data10/hwang07/adwait/applications/benchmarks/CUDA/TRA/gpgpu_ptx_sim__TRA
Running md5sum using "md5sum /sciclone/data10/hwang07/adwait/applications/benchmarks/CUDA/TRA/gpgpu_ptx_sim__TRA "
Parsing file _cuobjdump_complete_output_SYi9x3
######### cuobjdump parser ########
## Adding new section ELF
Adding arch: sm_20
Adding identifier: transpose.cu
## Adding new section PTX
Adding ptx filename: _cuobjdump_1.ptx
Adding arch: sm_20
Adding identifier: transpose.cu
Done parsing!!!
GPGPU-Sim PTX: __cudaRegisterFunction _Z15transpose_naivePfS_ii : hostFun 0x0x404f49, fat_cubin_handle = 1
GPGPU-Sim PTX: allocating shared region for "__cuda___cuda_local_var_42235_32_non_const_block24" from 0x0 to 0x440 (shared memory space)
GPGPU-Sim PTX: instruction assembly for function '_Z9transposePfS_ii'...   done.
GPGPU-Sim PTX: finding reconvergence points for '_Z9transposePfS_ii'...
GPGPU-Sim PTX: Finding dominators for '_Z9transposePfS_ii'...
GPGPU-Sim PTX: Finding immediate dominators for '_Z9transposePfS_ii'...
GPGPU-Sim PTX: Finding postdominators for '_Z9transposePfS_ii'...
GPGPU-Sim PTX: Finding immediate postdominators for '_Z9transposePfS_ii'...
GPGPU-Sim PTX: pre-decoding instructions for '_Z9transposePfS_ii'...
GPGPU-Sim PTX: reconvergence points for _Z9transposePfS_ii...
GPGPU-Sim PTX:  1 (potential) branch divergence @  PC=0x088 (_1.ptx:81) @%p1 bra $Lt_0_2306;
GPGPU-Sim PTX:    immediate post dominator      @  PC=0x108 (_1.ptx:99) mov.u64 %rd1, __cuda___cuda_local_var_42235_32_non_const_block24;
GPGPU-Sim PTX:  2 (potential) branch divergence @  PC=0x160 (_1.ptx:111) @%p2 bra $Lt_0_2818;
GPGPU-Sim PTX:    immediate post dominator      @  PC=0x1d8 (_1.ptx:129) exit;
GPGPU-Sim PTX: ... end of reconvergence points for _Z9transposePfS_ii
GPGPU-Sim PTX: ... done pre-decoding instructions for '_Z9transposePfS_ii'.
GPGPU-Sim PTX: instruction assembly for function '_Z15transpose_naivePfS_ii'...   done.
GPGPU-Sim PTX: finding reconvergence points for '_Z15transpose_naivePfS_ii'...
GPGPU-Sim PTX: Finding dominators for '_Z15transpose_naivePfS_ii'...
GPGPU-Sim PTX: Finding immediate dominators for '_Z15transpose_naivePfS_ii'...
GPGPU-Sim PTX: Finding postdominators for '_Z15transpose_naivePfS_ii'...
GPGPU-Sim PTX: Finding immediate postdominators for '_Z15transpose_naivePfS_ii'...
GPGPU-Sim PTX: pre-decoding instructions for '_Z15transpose_naivePfS_ii'...
GPGPU-Sim PTX: reconvergence points for _Z15transpose_naivePfS_ii...
GPGPU-Sim PTX:  1 (potential) branch divergence @  PC=0x278 (_1.ptx:164) @%p1 bra $Lt_1_1282;
GPGPU-Sim PTX:    immediate post dominator      @  PC=0x2f0 (_1.ptx:182) exit;
GPGPU-Sim PTX: ... end of reconvergence points for _Z15transpose_naivePfS_ii
GPGPU-Sim PTX: ... done pre-decoding instructions for '_Z15transpose_naivePfS_ii'.
GPGPU-Sim PTX: finished parsing EMBEDDED .ptx file _1.ptx
Adding _cuobjdump_1.ptx with cubin handle 1
GPGPU-Sim PTX: extracting embedded .ptx to temporary file "_ptx_SNdIAY"
Running: cat _ptx_SNdIAY | sed 's/.version 1.5/.version 1.4/' | sed 's/, texmode_independent//' | sed 's/\(\.extern \.const\[1\] .b8 \w\+\)\[\]/\1\[1\]/' | sed 's/const\[.\]/const\[0\]/g' > _ptx2_qEp5LT
GPGPU-Sim PTX: generating ptxinfo using "$CUDA_INSTALL_PATH/bin/ptxas --gpu-name=sm_20 -v _ptx2_qEp5LT --output-file  /dev/null 2> _ptx_SNdIAYinfo"
GPGPU-Sim PTX: Kernel '_Z15transpose_naivePfS_ii' : regs=8, lmem=0, smem=0, cmem=56
GPGPU-Sim PTX: Kernel '_Z9transposePfS_ii' : regs=9, lmem=0, smem=1088, cmem=56
GPGPU-Sim PTX: removing ptxinfo using "rm -f _ptx_SNdIAY _ptx2_qEp5LT _ptx_SNdIAYinfo"
GPGPU-Sim PTX: loading globals with explicit initializers... 
GPGPU-Sim PTX: finished loading globals (0 bytes total).
GPGPU-Sim PTX: loading constants with explicit initializers...  done.
GPGPU-Sim PTX: __cudaRegisterFunction _Z9transposePfS_ii : hostFun 0x0x404e59, fat_cubin_handle = 1

GPGPU-Sim PTX: cudaLaunch for 0x0x404f49 (mode=performance simulation) on stream 0
GPGPU-Sim PTX: pushing kernel '_Z15transpose_naivePfS_ii' to stream 0, gridDim= (16,256,1) blockDim = (16,16,1) 
kernel '_Z15transpose_naivePfS_ii' transfer to GPU hardware scheduler
GPGPU-Sim uArch: Shader 1 bind to kernel 1 '_Z15transpose_naivePfS_ii'
GPGPU-Sim uArch: CTA/core = 6, limited by: threads
GPGPU-Sim uArch: core:  1, cta: 0 initialized @(1,0)
GPGPU-Sim uArch: Shader 2 bind to kernel 1 '_Z15transpose_naivePfS_ii'
GPGPU-Sim uArch: core:  2, cta: 0 initialized @(1,0)
GPGPU-Sim uArch: Shader 3 bind to kernel 1 '_Z15transpose_naivePfS_ii'
GPGPU-Sim uArch: core:  3, cta: 0 initialized @(1,0)
GPGPU-Sim uArch: Shader 4 bind to kernel 1 '_Z15transpose_naivePfS_ii'
GPGPU-Sim uArch: core:  4, cta: 0 initialized @(1,0)
GPGPU-Sim uArch: Shader 5 bind to kernel 1 '_Z15transpose_naivePfS_ii'
GPGPU-Sim uArch: core:  5, cta: 0 initialized @(1,0)
GPGPU-Sim uArch: Shader 6 bind to kernel 1 '_Z15transpose_naivePfS_ii'
GPGPU-Sim uArch: core:  6, cta: 0 initialized @(1,0)
GPGPU-Sim uArch: Shader 7 bind to kernel 1 '_Z15transpose_naivePfS_ii'
GPGPU-Sim uArch: core:  7, cta: 0 initialized @(1,0)
GPGPU-Sim uArch: Shader 8 bind to kernel 1 '_Z15transpose_naivePfS_ii'
GPGPU-Sim uArch: core:  8, cta: 0 initialized @(1,0)
GPGPU-Sim uArch: Shader 9 bind to kernel 1 '_Z15transpose_naivePfS_ii'
GPGPU-Sim uArch: core:  9, cta: 0 initialized @(1,0)
GPGPU-Sim uArch: Shader 10 bind to kernel 1 '_Z15transpose_naivePfS_ii'
GPGPU-Sim uArch: core: 10, cta: 0 initialized @(1,0)
GPGPU-Sim uArch: Shader 11 bind to kernel 1 '_Z15transpose_naivePfS_ii'
GPGPU-Sim uArch: core: 11, cta: 0 initialized @(1,0)
GPGPU-Sim uArch: Shader 12 bind to kernel 1 '_Z15transpose_naivePfS_ii'
GPGPU-Sim uArch: core: 12, cta: 0 initialized @(1,0)
GPGPU-Sim uArch: Shader 13 bind to kernel 1 '_Z15transpose_naivePfS_ii'
GPGPU-Sim uArch: core: 13, cta: 0 initialized @(1,0)
GPGPU-Sim uArch: Shader 14 bind to kernel 1 '_Z15transpose_naivePfS_ii'
GPGPU-Sim uArch: core: 14, cta: 0 initialized @(1,0)
GPGPU-Sim uArch: Shader 0 bind to kernel 1 '_Z15transpose_naivePfS_ii'
GPGPU-Sim uArch: core:  0, cta: 0 initialized @(1,0)
GPGPU-Sim uArch: core:  1, cta: 1 initialized @(2,0)
GPGPU-Sim uArch: core:  2, cta: 1 initialized @(2,0)
GPGPU-Sim uArch: core:  3, cta: 1 initialized @(2,0)
GPGPU-Sim uArch: core:  4, cta: 1 initialized @(2,0)
GPGPU-Sim uArch: core:  5, cta: 1 initialized @(2,0)
GPGPU-Sim uArch: core:  6, cta: 1 initialized @(2,0)
GPGPU-Sim uArch: core:  7, cta: 1 initialized @(2,0)
GPGPU-Sim uArch: core:  8, cta: 1 initialized @(2,0)
GPGPU-Sim uArch: core:  9, cta: 1 initialized @(2,0)
GPGPU-Sim uArch: core: 10, cta: 1 initialized @(2,0)
GPGPU-Sim uArch: core: 11, cta: 1 initialized @(2,0)
GPGPU-Sim uArch: core: 12, cta: 1 initialized @(2,0)
GPGPU-Sim uArch: core: 13, cta: 1 initialized @(2,0)
GPGPU-Sim uArch: core: 14, cta: 1 initialized @(2,0)
GPGPU-Sim uArch: core:  0, cta: 1 initialized @(2,0)
GPGPU-Sim uArch: core:  1, cta: 2 initialized @(3,0)
GPGPU-Sim uArch: core:  2, cta: 2 initialized @(3,0)
GPGPU-Sim uArch: core:  3, cta: 2 initialized @(3,0)
GPGPU-Sim uArch: core:  4, cta: 2 initialized @(3,0)
GPGPU-Sim uArch: core:  5, cta: 2 initialized @(3,0)
GPGPU-Sim uArch: core:  6, cta: 2 initialized @(3,0)
GPGPU-Sim uArch: core:  7, cta: 2 initialized @(3,0)
GPGPU-Sim uArch: core:  8, cta: 2 initialized @(3,0)
GPGPU-Sim uArch: core:  9, cta: 2 initialized @(3,0)
GPGPU-Sim uArch: core: 10, cta: 2 initialized @(3,0)
GPGPU-Sim uArch: core: 11, cta: 2 initialized @(3,0)
GPGPU-Sim uArch: core: 12, cta: 2 initialized @(3,0)
GPGPU-Sim uArch: core: 13, cta: 2 initialized @(3,0)
GPGPU-Sim uArch: core: 14, cta: 2 initialized @(3,0)
GPGPU-Sim uArch: core:  0, cta: 2 initialized @(3,0)
GPGPU-Sim uArch: core:  1, cta: 3 initialized @(4,0)
GPGPU-Sim uArch: core:  2, cta: 3 initialized @(4,0)
GPGPU-Sim uArch: core:  3, cta: 3 initialized @(4,0)
GPGPU-Sim uArch: core:  4, cta: 3 initialized @(4,0)
GPGPU-Sim uArch: core:  5, cta: 3 initialized @(4,0)
GPGPU-Sim uArch: core:  6, cta: 3 initialized @(4,0)
GPGPU-Sim uArch: core:  7, cta: 3 initialized @(4,0)
GPGPU-Sim uArch: core:  8, cta: 3 initialized @(4,0)
GPGPU-Sim uArch: core:  9, cta: 3 initialized @(4,0)
GPGPU-Sim uArch: core: 10, cta: 3 initialized @(4,0)
GPGPU-Sim uArch: core: 11, cta: 3 initialized @(4,0)
GPGPU-Sim uArch: core: 12, cta: 3 initialized @(4,0)
GPGPU-Sim uArch: core: 13, cta: 3 initialized @(4,0)
GPGPU-Sim uArch: core: 14, cta: 3 initialized @(4,0)
GPGPU-Sim uArch: core:  0, cta: 3 initialized @(4,0)
GPGPU-Sim uArch: core:  1, cta: 4 initialized @(5,0)
GPGPU-Sim uArch: core:  2, cta: 4 initialized @(5,0)
GPGPU-Sim uArch: core:  3, cta: 4 initialized @(5,0)
GPGPU-Sim uArch: core:  4, cta: 4 initialized @(5,0)
GPGPU-Sim uArch: core:  5, cta: 4 initialized @(5,0)
GPGPU-Sim uArch: core:  6, cta: 4 initialized @(5,0)
GPGPU-Sim uArch: core:  7, cta: 4 initialized @(5,0)
GPGPU-Sim uArch: core:  8, cta: 4 initialized @(5,0)
GPGPU-Sim uArch: core:  9, cta: 4 initialized @(5,0)
GPGPU-Sim uArch: core: 10, cta: 4 initialized @(5,0)
GPGPU-Sim uArch: core: 11, cta: 4 initialized @(5,0)
GPGPU-Sim uArch: core: 12, cta: 4 initialized @(5,0)
GPGPU-Sim uArch: core: 13, cta: 4 initialized @(5,0)
GPGPU-Sim uArch: core: 14, cta: 4 initialized @(5,0)
GPGPU-Sim uArch: core:  0, cta: 4 initialized @(5,0)
GPGPU-Sim uArch: core:  1, cta: 5 initialized @(6,0)
GPGPU-Sim uArch: core:  2, cta: 5 initialized @(6,0)
GPGPU-Sim uArch: core:  3, cta: 5 initialized @(6,0)
GPGPU-Sim uArch: core:  4, cta: 5 initialized @(6,0)
GPGPU-Sim uArch: core:  5, cta: 5 initialized @(6,0)
GPGPU-Sim uArch: core:  6, cta: 5 initialized @(6,0)
GPGPU-Sim uArch: core:  7, cta: 5 initialized @(6,0)
GPGPU-Sim uArch: core:  8, cta: 5 initialized @(6,0)
GPGPU-Sim uArch: core:  9, cta: 5 initialized @(6,0)
GPGPU-Sim uArch: core: 10, cta: 5 initialized @(6,0)
GPGPU-Sim uArch: core: 11, cta: 5 initialized @(6,0)
GPGPU-Sim uArch: core: 12, cta: 5 initialized @(6,0)
GPGPU-Sim uArch: core: 13, cta: 5 initialized @(6,0)
GPGPU-Sim uArch: core: 14, cta: 5 initialized @(6,0)
GPGPU-Sim uArch: core:  0, cta: 5 initialized @(6,0)
GPGPU-Sim uArch: cycles simulated: 500  inst.: 92064 (ipc=184.1) sim_rate=46032 (inst/sec) elapsed = 0:0:00:02 / Tue Mar 22 13:04:40 2016
GPGPU-Sim PTX: 100000 instructions simulated : ctaid=(5,0,0) tid=(15,9,0)
GPGPU-Sim PTX: 200000 instructions simulated : ctaid=(8,5,0) tid=(15,9,0)
GPGPU-Sim PTX: 300000 instructions simulated : ctaid=(9,0,0) tid=(15,15,0)
GPGPU-Sim PTX: 400000 instructions simulated : ctaid=(6,3,0) tid=(15,9,0)
GPGPU-Sim PTX: 500000 instructions simulated : ctaid=(10,1,0) tid=(15,15,0)
GPGPU-Sim uArch: cycles simulated: 1500  inst.: 538176 (ipc=358.8) sim_rate=179392 (inst/sec) elapsed = 0:0:00:03 / Tue Mar 22 13:04:41 2016
GPGPU-Sim PTX: 600000 instructions simulated : ctaid=(4,1,0) tid=(15,9,0)
GPGPU-Sim uArch: cycles simulated: 2000  inst.: 641888 (ipc=320.9) sim_rate=160472 (inst/sec) elapsed = 0:0:00:04 / Tue Mar 22 13:04:42 2016
GPGPU-Sim uArch: cycles simulated: 3500  inst.: 647232 (ipc=184.9) sim_rate=129446 (inst/sec) elapsed = 0:0:00:05 / Tue Mar 22 13:04:43 2016
GPGPU-Sim uArch: cycles simulated: 4500  inst.: 649408 (ipc=144.3) sim_rate=108234 (inst/sec) elapsed = 0:0:00:06 / Tue Mar 22 13:04:44 2016
GPGPU-Sim uArch: cycles simulated: 5500  inst.: 651488 (ipc=118.5) sim_rate=93069 (inst/sec) elapsed = 0:0:00:07 / Tue Mar 22 13:04:45 2016
GPGPU-Sim uArch: cycles simulated: 7000  inst.: 653408 (ipc=93.3) sim_rate=81676 (inst/sec) elapsed = 0:0:00:08 / Tue Mar 22 13:04:46 2016
GPGPU-Sim uArch: cycles simulated: 8000  inst.: 654272 (ipc=81.8) sim_rate=72696 (inst/sec) elapsed = 0:0:00:09 / Tue Mar 22 13:04:47 2016
GPGPU-Sim uArch: cycles simulated: 9500  inst.: 656256 (ipc=69.1) sim_rate=65625 (inst/sec) elapsed = 0:0:00:10 / Tue Mar 22 13:04:48 2016
GPGPU-Sim uArch: cycles simulated: 10500  inst.: 657280 (ipc=62.6) sim_rate=59752 (inst/sec) elapsed = 0:0:00:11 / Tue Mar 22 13:04:49 2016
GPGPU-Sim uArch: cycles simulated: 12000  inst.: 659936 (ipc=55.0) sim_rate=54994 (inst/sec) elapsed = 0:0:00:12 / Tue Mar 22 13:04:50 2016
GPGPU-Sim uArch: cycles simulated: 13000  inst.: 662336 (ipc=50.9) sim_rate=50948 (inst/sec) elapsed = 0:0:00:13 / Tue Mar 22 13:04:51 2016
GPGPU-Sim uArch: cycles simulated: 14500  inst.: 666880 (ipc=46.0) sim_rate=47634 (inst/sec) elapsed = 0:0:00:14 / Tue Mar 22 13:04:52 2016
GPGPU-Sim PTX: 700000 instructions simulated : ctaid=(9,5,0) tid=(15,1,0)
GPGPU-Sim uArch: cycles simulated: 16000  inst.: 675840 (ipc=42.2) sim_rate=45056 (inst/sec) elapsed = 0:0:00:15 / Tue Mar 22 13:04:53 2016
GPGPU-Sim uArch: cycles simulated: 17000  inst.: 679840 (ipc=40.0) sim_rate=42490 (inst/sec) elapsed = 0:0:00:16 / Tue Mar 22 13:04:54 2016
GPGPU-Sim uArch: Shader 0 finished CTA #0 (18412,0), 5 CTAs running
GPGPU-Sim uArch: core:  0, cta: 0 initialized @(18413,0)
GPGPU-Sim uArch: cycles simulated: 18500  inst.: 691008 (ipc=37.4) sim_rate=40647 (inst/sec) elapsed = 0:0:00:17 / Tue Mar 22 13:04:55 2016
GPGPU-Sim uArch: Shader 11 finished CTA #0 (18837,0), 5 CTAs running
GPGPU-Sim uArch: core: 11, cta: 0 initialized @(18838,0)
GPGPU-Sim uArch: Shader 5 finished CTA #0 (19127,0), 5 CTAs running
GPGPU-Sim uArch: core:  5, cta: 0 initialized @(19128,0)
GPGPU-Sim uArch: cycles simulated: 19500  inst.: 704928 (ipc=36.2) sim_rate=39162 (inst/sec) elapsed = 0:0:00:18 / Tue Mar 22 13:04:56 2016
GPGPU-Sim uArch: Shader 12 finished CTA #0 (19554,0), 5 CTAs running
GPGPU-Sim uArch: core: 12, cta: 0 initialized @(19555,0)
GPGPU-Sim uArch: Shader 8 finished CTA #0 (19649,0), 5 CTAs running
GPGPU-Sim uArch: core:  8, cta: 0 initialized @(19650,0)
GPGPU-Sim uArch: Shader 10 finished CTA #0 (19695,0), 5 CTAs running
GPGPU-Sim uArch: core: 10, cta: 0 initialized @(19696,0)
GPGPU-Sim uArch: Shader 1 finished CTA #0 (19801,0), 5 CTAs running
GPGPU-Sim uArch: core:  1, cta: 0 initialized @(19802,0)
GPGPU-Sim uArch: Shader 4 finished CTA #0 (19803,0), 5 CTAs running
GPGPU-Sim uArch: core:  4, cta: 0 initialized @(19804,0)
GPGPU-Sim uArch: Shader 3 finished CTA #0 (19856,0), 5 CTAs running
GPGPU-Sim uArch: core:  3, cta: 0 initialized @(19857,0)
GPGPU-Sim uArch: Shader 2 finished CTA #0 (19900,0), 5 CTAs running
GPGPU-Sim uArch: core:  2, cta: 0 initialized @(19901,0)
GPGPU-Sim uArch: Shader 9 finished CTA #0 (20265,0), 5 CTAs running
GPGPU-Sim uArch: core:  9, cta: 0 initialized @(20266,0)
GPGPU-Sim uArch: cycles simulated: 21000  inst.: 733952 (ipc=35.0) sim_rate=38629 (inst/sec) elapsed = 0:0:00:19 / Tue Mar 22 13:04:57 2016
GPGPU-Sim uArch: Shader 0 finished CTA #1 (21404,0), 5 CTAs running
GPGPU-Sim uArch: core:  0, cta: 1 initialized @(21405,0)
GPGPU-Sim uArch: Shader 13 finished CTA #0 (21647,0), 5 CTAs running
GPGPU-Sim uArch: core: 13, cta: 0 initialized @(21648,0)
GPGPU-Sim uArch: cycles simulated: 22000  inst.: 761920 (ipc=34.6) sim_rate=38096 (inst/sec) elapsed = 0:0:00:20 / Tue Mar 22 13:04:58 2016
GPGPU-Sim uArch: Shader 14 finished CTA #0 (22173,0), 5 CTAs running
GPGPU-Sim uArch: core: 14, cta: 0 initialized @(22174,0)
GPGPU-Sim uArch: Shader 14 finished CTA #1 (22339,0), 5 CTAs running
GPGPU-Sim uArch: core: 14, cta: 1 initialized @(22340,0)
GPGPU-Sim uArch: Shader 0 finished CTA #2 (22467,0), 5 CTAs running
GPGPU-Sim uArch: core:  0, cta: 2 initialized @(22468,0)
GPGPU-Sim PTX: 800000 instructions simulated : ctaid=(9,6,0) tid=(15,9,0)
GPGPU-Sim uArch: Shader 7 finished CTA #0 (22651,0), 5 CTAs running
GPGPU-Sim uArch: core:  7, cta: 0 initialized @(22652,0)
GPGPU-Sim uArch: cycles simulated: 23000  inst.: 785600 (ipc=34.2) sim_rate=37409 (inst/sec) elapsed = 0:0:00:21 / Tue Mar 22 13:04:59 2016
GPGPU-Sim uArch: Shader 6 finished CTA #0 (23002,0), 5 CTAs running
GPGPU-Sim uArch: core:  6, cta: 0 initialized @(23003,0)
GPGPU-Sim uArch: Shader 2 finished CTA #1 (23382,0), 5 CTAs running
GPGPU-Sim uArch: core:  2, cta: 1 initialized @(23383,0)
GPGPU-Sim uArch: Shader 14 finished CTA #3 (23497,0), 5 CTAs running
GPGPU-Sim uArch: core: 14, cta: 3 initialized @(23498,0)
GPGPU-Sim uArch: Shader 1 finished CTA #1 (23741,0), 5 CTAs running
GPGPU-Sim uArch: core:  1, cta: 1 initialized @(23742,0)
GPGPU-Sim uArch: Shader 2 finished CTA #2 (23869,0), 5 CTAs running
GPGPU-Sim uArch: core:  2, cta: 2 initialized @(23870,0)
GPGPU-Sim uArch: Shader 3 finished CTA #1 (24190,0), 5 CTAs running
GPGPU-Sim uArch: core:  3, cta: 1 initialized @(24191,0)
GPGPU-Sim uArch: Shader 4 finished CTA #1 (24429,0), 5 CTAs running
GPGPU-Sim uArch: core:  4, cta: 1 initialized @(24430,0)
GPGPU-Sim uArch: cycles simulated: 24500  inst.: 849472 (ipc=34.7) sim_rate=38612 (inst/sec) elapsed = 0:0:00:22 / Tue Mar 22 13:05:00 2016
GPGPU-Sim uArch: Shader 6 finished CTA #2 (24712,0), 5 CTAs running
GPGPU-Sim uArch: core:  6, cta: 2 initialized @(24713,0)
GPGPU-Sim uArch: Shader 6 finished CTA #1 (24748,0), 5 CTAs running
GPGPU-Sim uArch: core:  6, cta: 1 initialized @(24749,0)
GPGPU-Sim uArch: Shader 3 finished CTA #3 (24899,0), 5 CTAs running
GPGPU-Sim uArch: core:  3, cta: 3 initialized @(24900,0)
GPGPU-Sim PTX: 900000 instructions simulated : ctaid=(14,5,0) tid=(15,5,0)
GPGPU-Sim uArch: Shader 0 finished CTA #3 (25111,0), 5 CTAs running
GPGPU-Sim uArch: core:  0, cta: 3 initialized @(25112,0)
GPGPU-Sim uArch: Shader 14 finished CTA #5 (25291,0), 5 CTAs running
GPGPU-Sim uArch: core: 14, cta: 5 initialized @(25292,0)
GPGPU-Sim uArch: Shader 7 finished CTA #1 (25498,0), 5 CTAs running
GPGPU-Sim uArch: core:  7, cta: 1 initialized @(25499,0)
GPGPU-Sim uArch: cycles simulated: 25500  inst.: 891648 (ipc=35.0) sim_rate=38767 (inst/sec) elapsed = 0:0:00:23 / Tue Mar 22 13:05:01 2016
GPGPU-Sim uArch: Shader 5 finished CTA #1 (25576,0), 5 CTAs running
GPGPU-Sim uArch: core:  5, cta: 1 initialized @(25577,0)
GPGPU-Sim uArch: Shader 13 finished CTA #1 (25631,0), 5 CTAs running
GPGPU-Sim uArch: core: 13, cta: 1 initialized @(25632,0)
GPGPU-Sim uArch: Shader 14 finished CTA #2 (26224,0), 5 CTAs running
GPGPU-Sim uArch: core: 14, cta: 2 initialized @(26225,0)
GPGPU-Sim uArch: Shader 1 finished CTA #2 (26295,0), 5 CTAs running
GPGPU-Sim uArch: core:  1, cta: 2 initialized @(26296,0)
GPGPU-Sim uArch: cycles simulated: 26500  inst.: 926496 (ipc=35.0) sim_rate=38604 (inst/sec) elapsed = 0:0:00:24 / Tue Mar 22 13:05:02 2016
GPGPU-Sim uArch: Shader 2 finished CTA #3 (26685,0), 5 CTAs running
GPGPU-Sim uArch: core:  2, cta: 3 initialized @(26686,0)
GPGPU-Sim uArch: Shader 0 finished CTA #4 (26711,0), 5 CTAs running
GPGPU-Sim uArch: core:  0, cta: 4 initialized @(26712,0)
GPGPU-Sim uArch: Shader 5 finished CTA #2 (26780,0), 5 CTAs running
GPGPU-Sim uArch: core:  5, cta: 2 initialized @(26781,0)
GPGPU-Sim uArch: Shader 9 finished CTA #1 (26825,0), 5 CTAs running
GPGPU-Sim uArch: core:  9, cta: 1 initialized @(26826,0)
GPGPU-Sim uArch: Shader 8 finished CTA #1 (26827,0), 5 CTAs running
GPGPU-Sim uArch: core:  8, cta: 1 initialized @(26828,0)
GPGPU-Sim uArch: Shader 12 finished CTA #1 (27250,0), 5 CTAs running
GPGPU-Sim uArch: core: 12, cta: 1 initialized @(27251,0)
GPGPU-Sim uArch: Shader 3 finished CTA #2 (27344,0), 5 CTAs running
GPGPU-Sim uArch: core:  3, cta: 2 initialized @(27345,0)
GPGPU-Sim uArch: Shader 10 finished CTA #1 (27350,0), 5 CTAs running
GPGPU-Sim uArch: core: 10, cta: 1 initialized @(27351,0)
GPGPU-Sim PTX: 1000000 instructions simulated : ctaid=(5,7,0) tid=(15,5,0)
GPGPU-Sim uArch: Shader 4 finished CTA #2 (27460,0), 5 CTAs running
GPGPU-Sim uArch: core:  4, cta: 2 initialized @(27461,0)
GPGPU-Sim uArch: Shader 14 finished CTA #4 (27472,0), 5 CTAs running
GPGPU-Sim uArch: core: 14, cta: 4 initialized @(27473,0)
GPGPU-Sim uArch: cycles simulated: 27500  inst.: 984384 (ipc=35.8) sim_rate=39375 (inst/sec) elapsed = 0:0:00:25 / Tue Mar 22 13:05:03 2016
GPGPU-Sim uArch: Shader 0 finished CTA #5 (27508,0), 5 CTAs running
GPGPU-Sim uArch: core:  0, cta: 5 initialized @(27509,0)
GPGPU-Sim uArch: Shader 6 finished CTA #3 (27850,0), 5 CTAs running
GPGPU-Sim uArch: core:  6, cta: 3 initialized @(27851,0)
GPGPU-Sim uArch: Shader 6 finished CTA #4 (28011,0), 5 CTAs running
GPGPU-Sim uArch: core:  6, cta: 4 initialized @(28012,0)
GPGPU-Sim uArch: Shader 11 finished CTA #1 (28150,0), 5 CTAs running
GPGPU-Sim uArch: core: 11, cta: 1 initialized @(28151,0)
GPGPU-Sim uArch: Shader 13 finished CTA #2 (28307,0), 5 CTAs running
GPGPU-Sim uArch: core: 13, cta: 2 initialized @(28308,0)
GPGPU-Sim uArch: Shader 0 finished CTA #0 (28423,0), 5 CTAs running
GPGPU-Sim uArch: core:  0, cta: 0 initialized @(28424,0)
GPGPU-Sim uArch: Shader 1 finished CTA #3 (28641,0), 5 CTAs running
GPGPU-Sim uArch: core:  1, cta: 3 initialized @(28642,0)
GPGPU-Sim uArch: Shader 2 finished CTA #4 (28751,0), 5 CTAs running
GPGPU-Sim uArch: core:  2, cta: 4 initialized @(28752,0)
GPGPU-Sim uArch: Shader 5 finished CTA #3 (28881,0), 5 CTAs running
GPGPU-Sim uArch: core:  5, cta: 3 initialized @(28882,0)
GPGPU-Sim uArch: Shader 6 finished CTA #5 (28893,0), 5 CTAs running
GPGPU-Sim uArch: core:  6, cta: 5 initialized @(28894,0)
GPGPU-Sim uArch: Shader 7 finished CTA #2 (28930,0), 5 CTAs running
GPGPU-Sim uArch: core:  7, cta: 2 initialized @(28931,0)
GPGPU-Sim uArch: cycles simulated: 29000  inst.: 1038944 (ipc=35.8) sim_rate=39959 (inst/sec) elapsed = 0:0:00:26 / Tue Mar 22 13:05:04 2016
GPGPU-Sim uArch: Shader 8 finished CTA #2 (29418,0), 5 CTAs running
GPGPU-Sim uArch: core:  8, cta: 2 initialized @(29419,0)
GPGPU-Sim uArch: Shader 12 finished CTA #2 (29535,0), 5 CTAs running
GPGPU-Sim uArch: core: 12, cta: 2 initialized @(29536,0)
GPGPU-Sim uArch: Shader 10 finished CTA #2 (29683,0), 5 CTAs running
GPGPU-Sim uArch: core: 10, cta: 2 initialized @(29684,0)
GPGPU-Sim uArch: Shader 5 finished CTA #4 (29743,0), 5 CTAs running
GPGPU-Sim uArch: core:  5, cta: 4 initialized @(29744,0)
GPGPU-Sim uArch: Shader 4 finished CTA #3 (29747,0), 5 CTAs running
GPGPU-Sim uArch: core:  4, cta: 3 initialized @(29748,0)
GPGPU-Sim uArch: cycles simulated: 30000  inst.: 1066400 (ipc=35.5) sim_rate=39496 (inst/sec) elapsed = 0:0:00:27 / Tue Mar 22 13:05:05 2016
GPGPU-Sim PTX: 1100000 instructions simulated : ctaid=(8,3,0) tid=(15,15,0)
GPGPU-Sim uArch: Shader 9 finished CTA #2 (30110,0), 5 CTAs running
GPGPU-Sim uArch: core:  9, cta: 2 initialized @(30111,0)
GPGPU-Sim uArch: Shader 11 finished CTA #2 (30225,0), 5 CTAs running
GPGPU-Sim uArch: core: 11, cta: 2 initialized @(30226,0)
GPGPU-Sim uArch: Shader 13 finished CTA #3 (30264,0), 5 CTAs running
GPGPU-Sim uArch: core: 13, cta: 3 initialized @(30265,0)
GPGPU-Sim uArch: Shader 14 finished CTA #0 (30283,0), 5 CTAs running
GPGPU-Sim uArch: core: 14, cta: 0 initialized @(30284,0)
GPGPU-Sim uArch: Shader 2 finished CTA #5 (30382,0), 5 CTAs running
GPGPU-Sim uArch: core:  2, cta: 5 initialized @(30383,0)
GPGPU-Sim uArch: Shader 1 finished CTA #4 (30757,0), 5 CTAs running
GPGPU-Sim uArch: core:  1, cta: 4 initialized @(30758,0)
GPGPU-Sim uArch: cycles simulated: 31000  inst.: 1114656 (ipc=36.0) sim_rate=39809 (inst/sec) elapsed = 0:0:00:28 / Tue Mar 22 13:05:06 2016
GPGPU-Sim uArch: Shader 8 finished CTA #3 (31163,0), 5 CTAs running
GPGPU-Sim uArch: core:  8, cta: 3 initialized @(31164,0)
GPGPU-Sim uArch: Shader 5 finished CTA #5 (31271,0), 5 CTAs running
GPGPU-Sim uArch: core:  5, cta: 5 initialized @(31272,0)
GPGPU-Sim uArch: Shader 12 finished CTA #3 (31287,0), 5 CTAs running
GPGPU-Sim uArch: core: 12, cta: 3 initialized @(31288,0)
GPGPU-Sim uArch: Shader 3 finished CTA #4 (31322,0), 5 CTAs running
GPGPU-Sim uArch: core:  3, cta: 4 initialized @(31323,0)
GPGPU-Sim uArch: Shader 10 finished CTA #3 (31435,0), 5 CTAs running
GPGPU-Sim uArch: core: 10, cta: 3 initialized @(31436,0)
GPGPU-Sim uArch: Shader 7 finished CTA #3 (31534,0), 5 CTAs running
GPGPU-Sim uArch: core:  7, cta: 3 initialized @(31535,0)
GPGPU-Sim uArch: Shader 9 finished CTA #3 (31591,0), 5 CTAs running
GPGPU-Sim uArch: core:  9, cta: 3 initialized @(31592,0)
GPGPU-Sim uArch: Shader 11 finished CTA #3 (31634,0), 5 CTAs running
GPGPU-Sim uArch: core: 11, cta: 3 initialized @(31635,0)
GPGPU-Sim uArch: Shader 4 finished CTA #4 (31638,0), 5 CTAs running
GPGPU-Sim uArch: core:  4, cta: 4 initialized @(31639,0)
GPGPU-Sim uArch: Shader 13 finished CTA #4 (31874,0), 5 CTAs running
GPGPU-Sim uArch: core: 13, cta: 4 initialized @(31875,0)
GPGPU-Sim uArch: cycles simulated: 32000  inst.: 1157216 (ipc=36.2) sim_rate=39904 (inst/sec) elapsed = 0:0:00:29 / Tue Mar 22 13:05:07 2016
GPGPU-Sim uArch: Shader 0 finished CTA #1 (32090,0), 5 CTAs running
GPGPU-Sim uArch: core:  0, cta: 1 initialized @(32091,0)
GPGPU-Sim PTX: 1200000 instructions simulated : ctaid=(6,10,0) tid=(15,15,0)
GPGPU-Sim uArch: cycles simulated: 33000  inst.: 1184480 (ipc=35.9) sim_rate=39482 (inst/sec) elapsed = 0:0:00:30 / Tue Mar 22 13:05:08 2016
GPGPU-Sim uArch: Shader 8 finished CTA #4 (33344,0), 5 CTAs running
GPGPU-Sim uArch: core:  8, cta: 4 initialized @(33345,0)
GPGPU-Sim uArch: Shader 11 finished CTA #4 (33620,0), 5 CTAs running
GPGPU-Sim uArch: core: 11, cta: 4 initialized @(33621,0)
GPGPU-Sim uArch: Shader 14 finished CTA #1 (33715,0), 5 CTAs running
GPGPU-Sim uArch: core: 14, cta: 1 initialized @(33716,0)
GPGPU-Sim uArch: Shader 12 finished CTA #4 (33858,0), 5 CTAs running
GPGPU-Sim uArch: core: 12, cta: 4 initialized @(33859,0)
GPGPU-Sim uArch: Shader 9 finished CTA #4 (33913,0), 5 CTAs running
GPGPU-Sim uArch: core:  9, cta: 4 initialized @(33914,0)
GPGPU-Sim uArch: cycles simulated: 34000  inst.: 1233792 (ipc=36.3) sim_rate=39799 (inst/sec) elapsed = 0:0:00:31 / Tue Mar 22 13:05:09 2016
GPGPU-Sim uArch: Shader 10 finished CTA #4 (34098,0), 5 CTAs running
GPGPU-Sim uArch: core: 10, cta: 4 initialized @(34099,0)
GPGPU-Sim uArch: Shader 1 finished CTA #5 (34377,0), 5 CTAs running
GPGPU-Sim uArch: core:  1, cta: 5 initialized @(34378,0)
GPGPU-Sim PTX: 1300000 instructions simulated : ctaid=(5,10,0) tid=(15,15,0)
GPGPU-Sim uArch: Shader 3 finished CTA #5 (34626,0), 5 CTAs running
GPGPU-Sim uArch: core:  3, cta: 5 initialized @(34627,0)
GPGPU-Sim uArch: cycles simulated: 35000  inst.: 1298112 (ipc=37.1) sim_rate=40566 (inst/sec) elapsed = 0:0:00:32 / Tue Mar 22 13:05:10 2016
GPGPU-Sim uArch: Shader 6 finished CTA #0 (35012,0), 5 CTAs running
GPGPU-Sim uArch: core:  6, cta: 0 initialized @(35013,0)
GPGPU-Sim uArch: Shader 7 finished CTA #4 (35141,0), 5 CTAs running
GPGPU-Sim uArch: core:  7, cta: 4 initialized @(35142,0)
GPGPU-Sim uArch: Shader 0 finished CTA #2 (35369,0), 5 CTAs running
GPGPU-Sim uArch: core:  0, cta: 2 initialized @(35370,0)
GPGPU-Sim uArch: Shader 8 finished CTA #5 (35574,0), 5 CTAs running
GPGPU-Sim uArch: core:  8, cta: 5 initialized @(35575,0)
GPGPU-Sim uArch: Shader 13 finished CTA #5 (36197,0), 5 CTAs running
GPGPU-Sim uArch: core: 13, cta: 5 initialized @(36198,0)
GPGPU-Sim uArch: cycles simulated: 36500  inst.: 1348032 (ipc=36.9) sim_rate=40849 (inst/sec) elapsed = 0:0:00:33 / Tue Mar 22 13:05:11 2016
GPGPU-Sim uArch: Shader 4 finished CTA #5 (36543,0), 5 CTAs running
GPGPU-Sim uArch: core:  4, cta: 5 initialized @(36544,0)
GPGPU-Sim uArch: Shader 12 finished CTA #5 (36555,0), 5 CTAs running
GPGPU-Sim uArch: core: 12, cta: 5 initialized @(36556,0)
GPGPU-Sim uArch: Shader 9 finished CTA #5 (36635,0), 5 CTAs running
GPGPU-Sim uArch: core:  9, cta: 5 initialized @(36636,0)
GPGPU-Sim PTX: 1400000 instructions simulated : ctaid=(5,11,0) tid=(15,1,0)
GPGPU-Sim uArch: Shader 14 finished CTA #3 (37061,0), 5 CTAs running
GPGPU-Sim uArch: core: 14, cta: 3 initialized @(37062,0)
GPGPU-Sim uArch: cycles simulated: 37500  inst.: 1392064 (ipc=37.1) sim_rate=40943 (inst/sec) elapsed = 0:0:00:34 / Tue Mar 22 13:05:12 2016
GPGPU-Sim uArch: Shader 11 finished CTA #5 (37802,0), 5 CTAs running
GPGPU-Sim uArch: core: 11, cta: 5 initialized @(37803,0)
GPGPU-Sim uArch: Shader 6 finished CTA #2 (37910,0), 5 CTAs running
GPGPU-Sim uArch: core:  6, cta: 2 initialized @(37911,0)
GPGPU-Sim uArch: Shader 0 finished CTA #3 (37924,0), 5 CTAs running
GPGPU-Sim uArch: core:  0, cta: 3 initialized @(37925,0)
GPGPU-Sim uArch: Shader 6 finished CTA #1 (37964,0), 5 CTAs running
GPGPU-Sim uArch: core:  6, cta: 1 initialized @(37965,0)
GPGPU-Sim uArch: cycles simulated: 38500  inst.: 1430144 (ipc=37.1) sim_rate=40861 (inst/sec) elapsed = 0:0:00:35 / Tue Mar 22 13:05:13 2016
GPGPU-Sim uArch: Shader 2 finished CTA #0 (38667,0), 5 CTAs running
GPGPU-Sim uArch: core:  2, cta: 0 initialized @(38668,0)
GPGPU-Sim uArch: cycles simulated: 39500  inst.: 1454784 (ipc=36.8) sim_rate=40410 (inst/sec) elapsed = 0:0:00:36 / Tue Mar 22 13:05:14 2016
GPGPU-Sim PTX: 1500000 instructions simulated : ctaid=(12,10,0) tid=(15,13,0)
GPGPU-Sim uArch: Shader 14 finished CTA #5 (40075,0), 5 CTAs running
GPGPU-Sim uArch: core: 14, cta: 5 initialized @(40076,0)
GPGPU-Sim uArch: Shader 14 finished CTA #2 (40286,0), 5 CTAs running
GPGPU-Sim uArch: core: 14, cta: 2 initialized @(40287,0)
GPGPU-Sim uArch: cycles simulated: 40500  inst.: 1485312 (ipc=36.7) sim_rate=40143 (inst/sec) elapsed = 0:0:00:37 / Tue Mar 22 13:05:15 2016
GPGPU-Sim uArch: Shader 10 finished CTA #5 (41257,0), 5 CTAs running
GPGPU-Sim uArch: core: 10, cta: 5 initialized @(41258,0)
GPGPU-Sim uArch: Shader 0 finished CTA #4 (41328,0), 5 CTAs running
GPGPU-Sim uArch: core:  0, cta: 4 initialized @(41329,0)
GPGPU-Sim uArch: Shader 7 finished CTA #5 (41971,0), 5 CTAs running
GPGPU-Sim uArch: core:  7, cta: 5 initialized @(41972,0)
GPGPU-Sim uArch: Shader 1 finished CTA #0 (41977,0), 5 CTAs running
GPGPU-Sim uArch: core:  1, cta: 0 initialized @(41978,0)
GPGPU-Sim uArch: cycles simulated: 42000  inst.: 1508320 (ipc=35.9) sim_rate=39692 (inst/sec) elapsed = 0:0:00:38 / Tue Mar 22 13:05:16 2016
GPGPU-Sim uArch: Shader 3 finished CTA #0 (42090,0), 5 CTAs running
GPGPU-Sim uArch: core:  3, cta: 0 initialized @(42091,0)
GPGPU-Sim uArch: Shader 10 finished CTA #0 (42155,0), 5 CTAs running
GPGPU-Sim uArch: core: 10, cta: 0 initialized @(42156,0)
GPGPU-Sim uArch: Shader 2 finished CTA #1 (42510,0), 5 CTAs running
GPGPU-Sim uArch: core:  2, cta: 1 initialized @(42511,0)
GPGPU-Sim uArch: Shader 2 finished CTA #2 (42728,0), 5 CTAs running
GPGPU-Sim uArch: core:  2, cta: 2 initialized @(42729,0)
GPGPU-Sim uArch: Shader 5 finished CTA #0 (42950,0), 5 CTAs running
GPGPU-Sim uArch: core:  5, cta: 0 initialized @(42951,0)
GPGPU-Sim uArch: cycles simulated: 43000  inst.: 1537344 (ipc=35.8) sim_rate=39419 (inst/sec) elapsed = 0:0:00:39 / Tue Mar 22 13:05:17 2016
GPGPU-Sim uArch: Shader 13 finished CTA #0 (43074,0), 5 CTAs running
GPGPU-Sim uArch: core: 13, cta: 0 initialized @(43075,0)
GPGPU-Sim PTX: 1600000 instructions simulated : ctaid=(1,10,0) tid=(15,3,0)
GPGPU-Sim uArch: Shader 7 finished CTA #0 (43399,0), 5 CTAs running
GPGPU-Sim uArch: core:  7, cta: 0 initialized @(43400,0)
GPGPU-Sim uArch: Shader 6 finished CTA #3 (43415,0), 5 CTAs running
GPGPU-Sim uArch: core:  6, cta: 3 initialized @(43416,0)
GPGPU-Sim uArch: Shader 1 finished CTA #1 (43442,0), 5 CTAs running
GPGPU-Sim uArch: core:  1, cta: 1 initialized @(43443,0)
GPGPU-Sim uArch: Shader 3 finished CTA #1 (43738,0), 5 CTAs running
GPGPU-Sim uArch: core:  3, cta: 1 initialized @(43739,0)
GPGPU-Sim uArch: Shader 11 finished CTA #0 (43742,0), 5 CTAs running
GPGPU-Sim uArch: core: 11, cta: 0 initialized @(43743,0)
GPGPU-Sim uArch: Shader 7 finished CTA #1 (43760,0), 5 CTAs running
GPGPU-Sim uArch: core:  7, cta: 1 initialized @(43761,0)
GPGPU-Sim uArch: cycles simulated: 44000  inst.: 1594720 (ipc=36.2) sim_rate=39868 (inst/sec) elapsed = 0:0:00:40 / Tue Mar 22 13:05:18 2016
GPGPU-Sim uArch: Shader 2 finished CTA #3 (44064,0), 5 CTAs running
GPGPU-Sim uArch: core:  2, cta: 3 initialized @(44065,0)
GPGPU-Sim uArch: Shader 3 finished CTA #3 (44102,0), 5 CTAs running
GPGPU-Sim uArch: core:  3, cta: 3 initialized @(44103,0)
GPGPU-Sim uArch: Shader 0 finished CTA #5 (44131,0), 5 CTAs running
GPGPU-Sim uArch: core:  0, cta: 5 initialized @(44132,0)
GPGPU-Sim uArch: Shader 9 finished CTA #0 (45192,0), 5 CTAs running
GPGPU-Sim uArch: core:  9, cta: 0 initialized @(45193,0)
GPGPU-Sim uArch: Shader 12 finished CTA #0 (45272,0), 5 CTAs running
GPGPU-Sim uArch: core: 12, cta: 0 initialized @(45273,0)
GPGPU-Sim uArch: cycles simulated: 45500  inst.: 1644128 (ipc=36.1) sim_rate=40100 (inst/sec) elapsed = 0:0:00:41 / Tue Mar 22 13:05:19 2016
GPGPU-Sim uArch: Shader 5 finished CTA #1 (45510,0), 5 CTAs running
GPGPU-Sim uArch: core:  5, cta: 1 initialized @(45511,0)
GPGPU-Sim uArch: Shader 5 finished CTA #2 (45574,0), 5 CTAs running
GPGPU-Sim uArch: core:  5, cta: 2 initialized @(45575,0)
GPGPU-Sim PTX: 1700000 instructions simulated : ctaid=(5,13,0) tid=(15,3,0)
GPGPU-Sim uArch: Shader 8 finished CTA #0 (45733,0), 5 CTAs running
GPGPU-Sim uArch: core:  8, cta: 0 initialized @(45734,0)
GPGPU-Sim uArch: Shader 4 finished CTA #0 (45915,0), 5 CTAs running
GPGPU-Sim uArch: core:  4, cta: 0 initialized @(45916,0)
GPGPU-Sim uArch: Shader 14 finished CTA #4 (45933,0), 5 CTAs running
GPGPU-Sim uArch: core: 14, cta: 4 initialized @(45934,0)
GPGPU-Sim uArch: Shader 6 finished CTA #4 (46152,0), 5 CTAs running
GPGPU-Sim uArch: core:  6, cta: 4 initialized @(46153,0)
GPGPU-Sim uArch: Shader 4 finished CTA #1 (46220,0), 5 CTAs running
GPGPU-Sim uArch: core:  4, cta: 1 initialized @(46221,0)
GPGPU-Sim uArch: Shader 9 finished CTA #1 (46254,0), 5 CTAs running
GPGPU-Sim uArch: core:  9, cta: 1 initialized @(46255,0)
GPGPU-Sim uArch: Shader 10 finished CTA #1 (46336,0), 5 CTAs running
GPGPU-Sim uArch: core: 10, cta: 1 initialized @(46337,0)
GPGPU-Sim uArch: cycles simulated: 46500  inst.: 1693344 (ipc=36.4) sim_rate=40317 (inst/sec) elapsed = 0:0:00:42 / Tue Mar 22 13:05:20 2016
GPGPU-Sim uArch: Shader 3 finished CTA #2 (46595,0), 5 CTAs running
GPGPU-Sim uArch: core:  3, cta: 2 initialized @(46596,0)
GPGPU-Sim uArch: Shader 13 finished CTA #1 (46784,0), 5 CTAs running
GPGPU-Sim uArch: core: 13, cta: 1 initialized @(46785,0)
GPGPU-Sim uArch: Shader 7 finished CTA #2 (46915,0), 5 CTAs running
GPGPU-Sim uArch: core:  7, cta: 2 initialized @(46916,0)
GPGPU-Sim uArch: cycles simulated: 47500  inst.: 1711968 (ipc=36.0) sim_rate=39813 (inst/sec) elapsed = 0:0:00:43 / Tue Mar 22 13:05:21 2016
GPGPU-Sim uArch: Shader 12 finished CTA #1 (47949,0), 5 CTAs running
GPGPU-Sim uArch: core: 12, cta: 1 initialized @(47950,0)
GPGPU-Sim uArch: Shader 5 finished CTA #3 (48047,0), 5 CTAs running
GPGPU-Sim uArch: core:  5, cta: 3 initialized @(48048,0)
GPGPU-Sim uArch: Shader 1 finished CTA #2 (48178,0), 5 CTAs running
GPGPU-Sim uArch: core:  1, cta: 2 initialized @(48179,0)
GPGPU-Sim uArch: Shader 2 finished CTA #4 (48473,0), 5 CTAs running
GPGPU-Sim uArch: core:  2, cta: 4 initialized @(48474,0)
GPGPU-Sim uArch: Shader 8 finished CTA #1 (48799,0), 5 CTAs running
GPGPU-Sim uArch: core:  8, cta: 1 initialized @(48800,0)
GPGPU-Sim PTX: 1800000 instructions simulated : ctaid=(4,14,0) tid=(15,9,0)
GPGPU-Sim uArch: cycles simulated: 49000  inst.: 1759136 (ipc=35.9) sim_rate=39980 (inst/sec) elapsed = 0:0:00:44 / Tue Mar 22 13:05:22 2016
GPGPU-Sim uArch: Shader 1 finished CTA #3 (49073,0), 5 CTAs running
GPGPU-Sim uArch: core:  1, cta: 3 initialized @(49074,0)
GPGPU-Sim uArch: Shader 4 finished CTA #2 (49733,0), 5 CTAs running
GPGPU-Sim uArch: core:  4, cta: 2 initialized @(49734,0)
GPGPU-Sim uArch: Shader 7 finished CTA #3 (49783,0), 5 CTAs running
GPGPU-Sim uArch: core:  7, cta: 3 initialized @(49784,0)
GPGPU-Sim uArch: Shader 3 finished CTA #4 (49829,0), 5 CTAs running
GPGPU-Sim uArch: core:  3, cta: 4 initialized @(49830,0)
GPGPU-Sim uArch: Shader 0 finished CTA #0 (49831,0), 5 CTAs running
GPGPU-Sim uArch: core:  0, cta: 0 initialized @(49832,0)
GPGPU-Sim uArch: Shader 13 finished CTA #2 (49997,0), 5 CTAs running
GPGPU-Sim uArch: core: 13, cta: 2 initialized @(49998,0)
GPGPU-Sim uArch: cycles simulated: 50000  inst.: 1823104 (ipc=36.5) sim_rate=40513 (inst/sec) elapsed = 0:0:00:45 / Tue Mar 22 13:05:23 2016
GPGPU-Sim uArch: Shader 11 finished CTA #1 (50081,0), 5 CTAs running
GPGPU-Sim uArch: core: 11, cta: 1 initialized @(50082,0)
GPGPU-Sim PTX: 1900000 instructions simulated : ctaid=(14,10,0) tid=(15,11,0)
GPGPU-Sim uArch: Shader 12 finished CTA #2 (50372,0), 5 CTAs running
GPGPU-Sim uArch: core: 12, cta: 2 initialized @(50373,0)
GPGPU-Sim uArch: Shader 5 finished CTA #4 (50474,0), 5 CTAs running
GPGPU-Sim uArch: core:  5, cta: 4 initialized @(50475,0)
GPGPU-Sim uArch: cycles simulated: 51000  inst.: 1868640 (ipc=36.6) sim_rate=40622 (inst/sec) elapsed = 0:0:00:46 / Tue Mar 22 13:05:24 2016
GPGPU-Sim uArch: Shader 14 finished CTA #0 (51267,0), 5 CTAs running
GPGPU-Sim uArch: core: 14, cta: 0 initialized @(51268,0)
GPGPU-Sim uArch: Shader 9 finished CTA #2 (51517,0), 5 CTAs running
GPGPU-Sim uArch: core:  9, cta: 2 initialized @(51518,0)
GPGPU-Sim uArch: Shader 1 finished CTA #4 (51870,0), 5 CTAs running
GPGPU-Sim uArch: core:  1, cta: 4 initialized @(51871,0)
GPGPU-Sim uArch: Shader 6 finished CTA #5 (52075,0), 5 CTAs running
GPGPU-Sim uArch: core:  6, cta: 5 initialized @(52076,0)
GPGPU-Sim PTX: 2000000 instructions simulated : ctaid=(9,12,0) tid=(15,3,0)
GPGPU-Sim uArch: Shader 10 finished CTA #2 (52280,0), 5 CTAs running
GPGPU-Sim uArch: core: 10, cta: 2 initialized @(52281,0)
GPGPU-Sim uArch: Shader 3 finished CTA #5 (52287,0), 5 CTAs running
GPGPU-Sim uArch: core:  3, cta: 5 initialized @(52288,0)
GPGPU-Sim uArch: Shader 4 finished CTA #3 (52369,0), 5 CTAs running
GPGPU-Sim uArch: core:  4, cta: 3 initialized @(52370,0)
GPGPU-Sim uArch: Shader 7 finished CTA #4 (52388,0), 5 CTAs running
GPGPU-Sim uArch: core:  7, cta: 4 initialized @(52389,0)
GPGPU-Sim uArch: Shader 2 finished CTA #5 (52452,0), 5 CTAs running
GPGPU-Sim uArch: core:  2, cta: 5 initialized @(52453,0)
GPGPU-Sim uArch: cycles simulated: 52500  inst.: 1965856 (ipc=37.4) sim_rate=41826 (inst/sec) elapsed = 0:0:00:47 / Tue Mar 22 13:05:25 2016
GPGPU-Sim uArch: Shader 5 finished CTA #5 (52673,0), 5 CTAs running
GPGPU-Sim uArch: core:  5, cta: 5 initialized @(52674,0)
GPGPU-Sim uArch: Shader 8 finished CTA #2 (52909,0), 5 CTAs running
GPGPU-Sim uArch: core:  8, cta: 2 initialized @(52910,0)
GPGPU-Sim uArch: Shader 3 finished CTA #0 (52933,0), 5 CTAs running
GPGPU-Sim uArch: core:  3, cta: 0 initialized @(52934,0)
GPGPU-Sim uArch: Shader 12 finished CTA #3 (53030,0), 5 CTAs running
GPGPU-Sim uArch: core: 12, cta: 3 initialized @(53031,0)
GPGPU-Sim uArch: Shader 11 finished CTA #2 (53075,0), 5 CTAs running
GPGPU-Sim uArch: core: 11, cta: 2 initialized @(53076,0)
GPGPU-Sim uArch: Shader 0 finished CTA #1 (53151,0), 5 CTAs running
GPGPU-Sim uArch: core:  0, cta: 1 initialized @(53152,0)
GPGPU-Sim uArch: cycles simulated: 53500  inst.: 2004480 (ipc=37.5) sim_rate=41760 (inst/sec) elapsed = 0:0:00:48 / Tue Mar 22 13:05:26 2016
GPGPU-Sim uArch: Shader 9 finished CTA #3 (53741,0), 5 CTAs running
GPGPU-Sim uArch: core:  9, cta: 3 initialized @(53742,0)
GPGPU-Sim uArch: Shader 2 finished CTA #0 (53780,0), 5 CTAs running
GPGPU-Sim uArch: core:  2, cta: 0 initialized @(53781,0)
GPGPU-Sim uArch: Shader 4 finished CTA #4 (54066,0), 5 CTAs running
GPGPU-Sim uArch: core:  4, cta: 4 initialized @(54067,0)
GPGPU-Sim uArch: Shader 7 finished CTA #5 (54389,0), 5 CTAs running
GPGPU-Sim uArch: core:  7, cta: 5 initialized @(54390,0)
GPGPU-Sim uArch: Shader 0 finished CTA #2 (54456,0), 5 CTAs running
GPGPU-Sim uArch: core:  0, cta: 2 initialized @(54457,0)
GPGPU-Sim PTX: 2100000 instructions simulated : ctaid=(1,16,0) tid=(15,7,0)
GPGPU-Sim uArch: Shader 8 finished CTA #3 (54521,0), 5 CTAs running
GPGPU-Sim uArch: core:  8, cta: 3 initialized @(54522,0)
GPGPU-Sim uArch: Shader 13 finished CTA #3 (54530,0), 5 CTAs running
GPGPU-Sim uArch: core: 13, cta: 3 initialized @(54531,0)
GPGPU-Sim uArch: Shader 10 finished CTA #3 (54779,0), 5 CTAs running
GPGPU-Sim uArch: core: 10, cta: 3 initialized @(54780,0)
GPGPU-Sim uArch: cycles simulated: 55000  inst.: 2057664 (ipc=37.4) sim_rate=41993 (inst/sec) elapsed = 0:0:00:49 / Tue Mar 22 13:05:27 2016
GPGPU-Sim uArch: Shader 2 finished CTA #1 (55051,0), 5 CTAs running
GPGPU-Sim uArch: core:  2, cta: 1 initialized @(55052,0)
GPGPU-Sim uArch: Shader 11 finished CTA #3 (55313,0), 5 CTAs running
GPGPU-Sim uArch: core: 11, cta: 3 initialized @(55314,0)
GPGPU-Sim uArch: Shader 0 finished CTA #3 (55631,0), 5 CTAs running
GPGPU-Sim uArch: core:  0, cta: 3 initialized @(55632,0)
GPGPU-Sim uArch: Shader 8 finished CTA #4 (55646,0), 5 CTAs running
GPGPU-Sim uArch: core:  8, cta: 4 initialized @(55647,0)
GPGPU-Sim uArch: Shader 1 finished CTA #5 (55942,0), 5 CTAs running
GPGPU-Sim uArch: core:  1, cta: 5 initialized @(55943,0)
GPGPU-Sim uArch: Shader 10 finished CTA #4 (55945,0), 5 CTAs running
GPGPU-Sim uArch: core: 10, cta: 4 initialized @(55946,0)
GPGPU-Sim uArch: Shader 12 finished CTA #4 (56009,0), 5 CTAs running
GPGPU-Sim uArch: core: 12, cta: 4 initialized @(56010,0)
GPGPU-Sim uArch: Shader 13 finished CTA #4 (56230,0), 5 CTAs running
GPGPU-Sim uArch: core: 13, cta: 4 initialized @(56231,0)
GPGPU-Sim uArch: Shader 10 finished CTA #5 (56434,0), 5 CTAs running
GPGPU-Sim uArch: core: 10, cta: 5 initialized @(56435,0)
GPGPU-Sim PTX: 2200000 instructions simulated : ctaid=(13,16,0) tid=(15,1,0)
GPGPU-Sim uArch: cycles simulated: 56500  inst.: 2136736 (ipc=37.8) sim_rate=42734 (inst/sec) elapsed = 0:0:00:50 / Tue Mar 22 13:05:28 2016
GPGPU-Sim uArch: Shader 11 finished CTA #4 (56807,0), 5 CTAs running
GPGPU-Sim uArch: core: 11, cta: 4 initialized @(56808,0)
GPGPU-Sim uArch: Shader 8 finished CTA #5 (56890,0), 5 CTAs running
GPGPU-Sim uArch: core:  8, cta: 5 initialized @(56891,0)
GPGPU-Sim uArch: Shader 4 finished CTA #5 (56991,0), 5 CTAs running
GPGPU-Sim uArch: core:  4, cta: 5 initialized @(56992,0)
GPGPU-Sim uArch: Shader 13 finished CTA #5 (57294,0), 5 CTAs running
GPGPU-Sim uArch: core: 13, cta: 5 initialized @(57295,0)
GPGPU-Sim uArch: Shader 5 finished CTA #0 (57402,0), 5 CTAs running
GPGPU-Sim uArch: core:  5, cta: 0 initialized @(57403,0)
GPGPU-Sim uArch: Shader 1 finished CTA #0 (57457,0), 5 CTAs running
GPGPU-Sim uArch: core:  1, cta: 0 initialized @(57458,0)
GPGPU-Sim uArch: cycles simulated: 57500  inst.: 2177664 (ipc=37.9) sim_rate=42699 (inst/sec) elapsed = 0:0:00:51 / Tue Mar 22 13:05:29 2016
GPGPU-Sim uArch: Shader 3 finished CTA #1 (58315,0), 5 CTAs running
GPGPU-Sim uArch: core:  3, cta: 1 initialized @(58316,0)
GPGPU-Sim uArch: Shader 12 finished CTA #5 (58327,0), 5 CTAs running
GPGPU-Sim uArch: core: 12, cta: 5 initialized @(58328,0)
GPGPU-Sim uArch: cycles simulated: 58500  inst.: 2213440 (ipc=37.8) sim_rate=42566 (inst/sec) elapsed = 0:0:00:52 / Tue Mar 22 13:05:30 2016
GPGPU-Sim uArch: Shader 9 finished CTA #4 (58969,0), 5 CTAs running
GPGPU-Sim uArch: core:  9, cta: 4 initialized @(58970,0)
GPGPU-Sim PTX: 2300000 instructions simulated : ctaid=(6,17,0) tid=(15,1,0)
GPGPU-Sim uArch: Shader 14 finished CTA #1 (59884,0), 5 CTAs running
GPGPU-Sim uArch: core: 14, cta: 1 initialized @(59885,0)
GPGPU-Sim uArch: cycles simulated: 60000  inst.: 2250624 (ipc=37.5) sim_rate=42464 (inst/sec) elapsed = 0:0:00:53 / Tue Mar 22 13:05:31 2016
GPGPU-Sim uArch: Shader 14 finished CTA #3 (60038,0), 5 CTAs running
GPGPU-Sim uArch: core: 14, cta: 3 initialized @(60039,0)
GPGPU-Sim uArch: Shader 13 finished CTA #0 (60101,0), 5 CTAs running
GPGPU-Sim uArch: core: 13, cta: 0 initialized @(60102,0)
GPGPU-Sim uArch: Shader 0 finished CTA #4 (60445,0), 5 CTAs running
GPGPU-Sim uArch: core:  0, cta: 4 initialized @(60446,0)
GPGPU-Sim uArch: Shader 7 finished CTA #0 (60824,0), 5 CTAs running
GPGPU-Sim uArch: core:  7, cta: 0 initialized @(60825,0)
GPGPU-Sim uArch: Shader 11 finished CTA #5 (60839,0), 5 CTAs running
GPGPU-Sim uArch: core: 11, cta: 5 initialized @(60840,0)
GPGPU-Sim uArch: Shader 8 finished CTA #0 (60981,0), 5 CTAs running
GPGPU-Sim uArch: core:  8, cta: 0 initialized @(60982,0)
GPGPU-Sim uArch: cycles simulated: 61000  inst.: 2289696 (ipc=37.5) sim_rate=42401 (inst/sec) elapsed = 0:0:00:54 / Tue Mar 22 13:05:32 2016
GPGPU-Sim uArch: Shader 10 finished CTA #0 (61132,0), 5 CTAs running
GPGPU-Sim uArch: core: 10, cta: 0 initialized @(61133,0)
GPGPU-Sim uArch: Shader 6 finished CTA #0 (61220,0), 5 CTAs running
GPGPU-Sim uArch: core:  6, cta: 0 initialized @(61221,0)
GPGPU-Sim uArch: Shader 5 finished CTA #1 (61439,0), 5 CTAs running
GPGPU-Sim uArch: core:  5, cta: 1 initialized @(61440,0)
GPGPU-Sim uArch: Shader 12 finished CTA #0 (61524,0), 5 CTAs running
GPGPU-Sim uArch: core: 12, cta: 0 initialized @(61525,0)
GPGPU-Sim uArch: Shader 14 finished CTA #5 (61591,0), 5 CTAs running
GPGPU-Sim uArch: core: 14, cta: 5 initialized @(61592,0)
GPGPU-Sim PTX: 2400000 instructions simulated : ctaid=(10,12,0) tid=(15,11,0)
GPGPU-Sim uArch: Shader 3 finished CTA #3 (62147,0), 5 CTAs running
GPGPU-Sim uArch: Shader 13 finished CTA #1 (62147,0), 5 CTAs running
GPGPU-Sim uArch: core:  3, cta: 3 initialized @(62148,0)
GPGPU-Sim uArch: core: 13, cta: 1 initialized @(62148,0)
GPGPU-Sim uArch: Shader 6 finished CTA #2 (62213,0), 5 CTAs running
GPGPU-Sim uArch: core:  6, cta: 2 initialized @(62214,0)
GPGPU-Sim uArch: Shader 1 finished CTA #1 (62244,0), 5 CTAs running
GPGPU-Sim uArch: core:  1, cta: 1 initialized @(62245,0)
GPGPU-Sim uArch: Shader 14 finished CTA #2 (62481,0), 5 CTAs running
GPGPU-Sim uArch: core: 14, cta: 2 initialized @(62482,0)
GPGPU-Sim uArch: Shader 9 finished CTA #5 (62491,0), 5 CTAs running
GPGPU-Sim uArch: core:  9, cta: 5 initialized @(62492,0)
GPGPU-Sim uArch: cycles simulated: 62500  inst.: 2356416 (ipc=37.7) sim_rate=42843 (inst/sec) elapsed = 0:0:00:55 / Tue Mar 22 13:05:33 2016
GPGPU-Sim uArch: Shader 0 finished CTA #5 (62527,0), 5 CTAs running
GPGPU-Sim uArch: core:  0, cta: 5 initialized @(62528,0)
GPGPU-Sim uArch: Shader 6 finished CTA #1 (62538,0), 5 CTAs running
GPGPU-Sim uArch: core:  6, cta: 1 initialized @(62539,0)
GPGPU-Sim uArch: Shader 11 finished CTA #0 (62872,0), 5 CTAs running
GPGPU-Sim uArch: core: 11, cta: 0 initialized @(62873,0)
GPGPU-Sim uArch: Shader 2 finished CTA #2 (63298,0), 5 CTAs running
GPGPU-Sim uArch: core:  2, cta: 2 initialized @(63299,0)
GPGPU-Sim uArch: cycles simulated: 63500  inst.: 2388960 (ipc=37.6) sim_rate=42660 (inst/sec) elapsed = 0:0:00:56 / Tue Mar 22 13:05:34 2016
GPGPU-Sim uArch: Shader 8 finished CTA #1 (63643,0), 5 CTAs running
GPGPU-Sim uArch: core:  8, cta: 1 initialized @(63644,0)
GPGPU-Sim uArch: Shader 12 finished CTA #1 (63894,0), 5 CTAs running
GPGPU-Sim uArch: core: 12, cta: 1 initialized @(63895,0)
GPGPU-Sim uArch: Shader 14 finished CTA #4 (64359,0), 5 CTAs running
GPGPU-Sim uArch: core: 14, cta: 4 initialized @(64360,0)
GPGPU-Sim uArch: Shader 10 finished CTA #1 (64396,0), 5 CTAs running
GPGPU-Sim uArch: core: 10, cta: 1 initialized @(64397,0)
GPGPU-Sim PTX: 2500000 instructions simulated : ctaid=(0,19,0) tid=(15,7,0)
GPGPU-Sim uArch: Shader 13 finished CTA #2 (64555,0), 5 CTAs running
GPGPU-Sim uArch: core: 13, cta: 2 initialized @(64556,0)
GPGPU-Sim uArch: Shader 3 finished CTA #2 (64603,0), 5 CTAs running
GPGPU-Sim uArch: core:  3, cta: 2 initialized @(64604,0)
GPGPU-Sim uArch: Shader 4 finished CTA #0 (64656,0), 5 CTAs running
GPGPU-Sim uArch: core:  4, cta: 0 initialized @(64657,0)
GPGPU-Sim uArch: Shader 1 finished CTA #2 (64812,0), 5 CTAs running
GPGPU-Sim uArch: core:  1, cta: 2 initialized @(64813,0)
GPGPU-Sim uArch: cycles simulated: 65000  inst.: 2459040 (ipc=37.8) sim_rate=43141 (inst/sec) elapsed = 0:0:00:57 / Tue Mar 22 13:05:35 2016
GPGPU-Sim uArch: Shader 0 finished CTA #0 (65054,0), 5 CTAs running
GPGPU-Sim uArch: core:  0, cta: 0 initialized @(65055,0)
GPGPU-Sim uArch: Shader 9 finished CTA #0 (65087,0), 5 CTAs running
GPGPU-Sim uArch: core:  9, cta: 0 initialized @(65088,0)
GPGPU-Sim uArch: Shader 7 finished CTA #1 (65171,0), 5 CTAs running
GPGPU-Sim uArch: core:  7, cta: 1 initialized @(65172,0)
GPGPU-Sim uArch: Shader 5 finished CTA #2 (65360,0), 5 CTAs running
GPGPU-Sim uArch: core:  5, cta: 2 initialized @(65361,0)
GPGPU-Sim uArch: Shader 6 finished CTA #3 (65427,0), 5 CTAs running
GPGPU-Sim uArch: core:  6, cta: 3 initialized @(65428,0)
GPGPU-Sim uArch: Shader 12 finished CTA #2 (65789,0), 5 CTAs running
GPGPU-Sim uArch: core: 12, cta: 2 initialized @(65790,0)
GPGPU-Sim PTX: 2600000 instructions simulated : ctaid=(8,19,0) tid=(15,1,0)
GPGPU-Sim uArch: Shader 2 finished CTA #3 (65937,0), 5 CTAs running
GPGPU-Sim uArch: core:  2, cta: 3 initialized @(65938,0)
GPGPU-Sim uArch: cycles simulated: 66000  inst.: 2531968 (ipc=38.4) sim_rate=43654 (inst/sec) elapsed = 0:0:00:58 / Tue Mar 22 13:05:36 2016
GPGPU-Sim uArch: Shader 11 finished CTA #1 (66306,0), 5 CTAs running
GPGPU-Sim uArch: core: 11, cta: 1 initialized @(66307,0)
GPGPU-Sim uArch: Shader 4 finished CTA #1 (66323,0), 5 CTAs running
GPGPU-Sim uArch: core:  4, cta: 1 initialized @(66324,0)
GPGPU-Sim uArch: Shader 14 finished CTA #0 (66352,0), 5 CTAs running
GPGPU-Sim uArch: core: 14, cta: 0 initialized @(66353,0)
GPGPU-Sim uArch: Shader 1 finished CTA #3 (66395,0), 5 CTAs running
GPGPU-Sim uArch: core:  1, cta: 3 initialized @(66396,0)
GPGPU-Sim uArch: Shader 6 finished CTA #4 (66409,0), 5 CTAs running
GPGPU-Sim uArch: core:  6, cta: 4 initialized @(66410,0)
GPGPU-Sim uArch: Shader 9 finished CTA #1 (66413,0), 5 CTAs running
GPGPU-Sim uArch: core:  9, cta: 1 initialized @(66414,0)
GPGPU-Sim uArch: Shader 10 finished CTA #2 (66746,0), 5 CTAs running
GPGPU-Sim uArch: core: 10, cta: 2 initialized @(66747,0)
GPGPU-Sim uArch: Shader 9 finished CTA #2 (66779,0), 5 CTAs running
GPGPU-Sim uArch: core:  9, cta: 2 initialized @(66780,0)
GPGPU-Sim uArch: Shader 5 finished CTA #5 (66872,0), 5 CTAs running
GPGPU-Sim uArch: core:  5, cta: 5 initialized @(66873,0)
GPGPU-Sim uArch: cycles simulated: 67000  inst.: 2583072 (ipc=38.6) sim_rate=43780 (inst/sec) elapsed = 0:0:00:59 / Tue Mar 22 13:05:37 2016
GPGPU-Sim uArch: Shader 8 finished CTA #2 (67176,0), 5 CTAs running
GPGPU-Sim uArch: core:  8, cta: 2 initialized @(67177,0)
GPGPU-Sim PTX: 2700000 instructions simulated : ctaid=(3,15,0) tid=(15,3,0)
GPGPU-Sim uArch: cycles simulated: 68500  inst.: 2622656 (ipc=38.3) sim_rate=43710 (inst/sec) elapsed = 0:0:01:00 / Tue Mar 22 13:05:38 2016
GPGPU-Sim uArch: Shader 2 finished CTA #4 (68695,0), 5 CTAs running
GPGPU-Sim uArch: core:  2, cta: 4 initialized @(68696,0)
GPGPU-Sim uArch: Shader 2 finished CTA #5 (68713,0), 5 CTAs running
GPGPU-Sim uArch: core:  2, cta: 5 initialized @(68714,0)
GPGPU-Sim uArch: Shader 13 finished CTA #3 (69316,0), 5 CTAs running
GPGPU-Sim uArch: core: 13, cta: 3 initialized @(69317,0)
GPGPU-Sim uArch: cycles simulated: 69500  inst.: 2654304 (ipc=38.2) sim_rate=43513 (inst/sec) elapsed = 0:0:01:01 / Tue Mar 22 13:05:39 2016
GPGPU-Sim uArch: Shader 11 finished CTA #2 (69628,0), 5 CTAs running
GPGPU-Sim uArch: core: 11, cta: 2 initialized @(69629,0)
GPGPU-Sim uArch: Shader 3 finished CTA #4 (69681,0), 5 CTAs running
GPGPU-Sim uArch: core:  3, cta: 4 initialized @(69682,0)
GPGPU-Sim uArch: Shader 0 finished CTA #1 (70244,0), 5 CTAs running
GPGPU-Sim uArch: core:  0, cta: 1 initialized @(70245,0)
GPGPU-Sim uArch: Shader 4 finished CTA #2 (70278,0), 5 CTAs running
GPGPU-Sim uArch: core:  4, cta: 2 initialized @(70279,0)
GPGPU-Sim uArch: cycles simulated: 70500  inst.: 2694080 (ipc=38.2) sim_rate=43452 (inst/sec) elapsed = 0:0:01:02 / Tue Mar 22 13:05:40 2016
GPGPU-Sim uArch: Shader 4 finished CTA #3 (70682,0), 5 CTAs running
GPGPU-Sim uArch: core:  4, cta: 3 initialized @(70683,0)
GPGPU-Sim uArch: Shader 5 finished CTA #3 (71819,0), 5 CTAs running
GPGPU-Sim uArch: core:  5, cta: 3 initialized @(71820,0)
GPGPU-Sim uArch: cycles simulated: 72000  inst.: 2713408 (ipc=37.7) sim_rate=43069 (inst/sec) elapsed = 0:0:01:03 / Tue Mar 22 13:05:41 2016
GPGPU-Sim uArch: Shader 5 finished CTA #4 (72019,0), 5 CTAs running
GPGPU-Sim uArch: core:  5, cta: 4 initialized @(72020,0)
GPGPU-Sim uArch: Shader 7 finished CTA #2 (72072,0), 5 CTAs running
GPGPU-Sim uArch: core:  7, cta: 2 initialized @(72073,0)
GPGPU-Sim PTX: 2800000 instructions simulated : ctaid=(0,21,0) tid=(15,13,0)
GPGPU-Sim uArch: Shader 13 finished CTA #4 (72653,0), 5 CTAs running
GPGPU-Sim uArch: core: 13, cta: 4 initialized @(72654,0)
GPGPU-Sim uArch: cycles simulated: 73000  inst.: 2733664 (ipc=37.4) sim_rate=42713 (inst/sec) elapsed = 0:0:01:04 / Tue Mar 22 13:05:42 2016
GPGPU-Sim uArch: Shader 7 finished CTA #3 (73025,0), 5 CTAs running
GPGPU-Sim uArch: core:  7, cta: 3 initialized @(73026,0)
GPGPU-Sim uArch: Shader 7 finished CTA #4 (73204,0), 5 CTAs running
GPGPU-Sim uArch: core:  7, cta: 4 initialized @(73205,0)
GPGPU-Sim uArch: Shader 1 finished CTA #4 (73331,0), 5 CTAs running
GPGPU-Sim uArch: core:  1, cta: 4 initialized @(73332,0)
GPGPU-Sim uArch: Shader 10 finished CTA #3 (73823,0), 5 CTAs running
GPGPU-Sim uArch: core: 10, cta: 3 initialized @(73824,0)
GPGPU-Sim uArch: Shader 8 finished CTA #3 (74114,0), 5 CTAs running
GPGPU-Sim uArch: core:  8, cta: 3 initialized @(74115,0)
GPGPU-Sim uArch: Shader 9 finished CTA #3 (74140,0), 5 CTAs running
GPGPU-Sim uArch: core:  9, cta: 3 initialized @(74141,0)
GPGPU-Sim uArch: Shader 2 finished CTA #0 (74185,0), 5 CTAs running
GPGPU-Sim uArch: core:  2, cta: 0 initialized @(74186,0)
GPGPU-Sim uArch: Shader 12 finished CTA #3 (74187,0), 5 CTAs running
GPGPU-Sim uArch: core: 12, cta: 3 initialized @(74188,0)
GPGPU-Sim uArch: cycles simulated: 74500  inst.: 2810880 (ipc=37.7) sim_rate=43244 (inst/sec) elapsed = 0:0:01:05 / Tue Mar 22 13:05:43 2016
GPGPU-Sim uArch: Shader 3 finished CTA #5 (74511,0), 5 CTAs running
GPGPU-Sim uArch: core:  3, cta: 5 initialized @(74512,0)
GPGPU-Sim uArch: Shader 3 finished CTA #0 (74536,0), 5 CTAs running
GPGPU-Sim uArch: core:  3, cta: 0 initialized @(74537,0)
GPGPU-Sim PTX: 2900000 instructions simulated : ctaid=(11,21,0) tid=(15,3,0)
GPGPU-Sim uArch: Shader 2 finished CTA #1 (74722,0), 5 CTAs running
GPGPU-Sim uArch: core:  2, cta: 1 initialized @(74723,0)
GPGPU-Sim uArch: Shader 5 finished CTA #0 (75244,0), 5 CTAs running
GPGPU-Sim uArch: core:  5, cta: 0 initialized @(75245,0)
GPGPU-Sim uArch: Shader 6 finished CTA #5 (75350,0), 5 CTAs running
GPGPU-Sim uArch: core:  6, cta: 5 initialized @(75351,0)
GPGPU-Sim uArch: cycles simulated: 75500  inst.: 2844672 (ipc=37.7) sim_rate=43101 (inst/sec) elapsed = 0:0:01:06 / Tue Mar 22 13:05:44 2016
GPGPU-Sim uArch: Shader 11 finished CTA #3 (75543,0), 5 CTAs running
GPGPU-Sim uArch: core: 11, cta: 3 initialized @(75544,0)
GPGPU-Sim uArch: Shader 4 finished CTA #4 (75575,0), 5 CTAs running
GPGPU-Sim uArch: core:  4, cta: 4 initialized @(75576,0)
GPGPU-Sim uArch: Shader 0 finished CTA #2 (75926,0), 5 CTAs running
GPGPU-Sim uArch: core:  0, cta: 2 initialized @(75927,0)
GPGPU-Sim uArch: Shader 10 finished CTA #4 (76214,0), 5 CTAs running
GPGPU-Sim uArch: core: 10, cta: 4 initialized @(76215,0)
GPGPU-Sim uArch: Shader 8 finished CTA #4 (76499,0), 5 CTAs running
GPGPU-Sim uArch: core:  8, cta: 4 initialized @(76500,0)
GPGPU-Sim uArch: cycles simulated: 76500  inst.: 2874272 (ipc=37.6) sim_rate=42899 (inst/sec) elapsed = 0:0:01:07 / Tue Mar 22 13:05:45 2016
GPGPU-Sim uArch: Shader 7 finished CTA #5 (76656,0), 5 CTAs running
GPGPU-Sim uArch: core:  7, cta: 5 initialized @(76657,0)
GPGPU-Sim uArch: Shader 9 finished CTA #4 (77124,0), 5 CTAs running
GPGPU-Sim uArch: core:  9, cta: 4 initialized @(77125,0)
GPGPU-Sim uArch: Shader 3 finished CTA #1 (77203,0), 5 CTAs running
GPGPU-Sim uArch: core:  3, cta: 1 initialized @(77204,0)
GPGPU-Sim uArch: Shader 2 finished CTA #2 (77296,0), 5 CTAs running
GPGPU-Sim uArch: core:  2, cta: 2 initialized @(77297,0)
GPGPU-Sim PTX: 3000000 instructions simulated : ctaid=(7,22,0) tid=(15,1,0)
GPGPU-Sim uArch: cycles simulated: 77500  inst.: 2925856 (ipc=37.8) sim_rate=43027 (inst/sec) elapsed = 0:0:01:08 / Tue Mar 22 13:05:46 2016
GPGPU-Sim uArch: Shader 14 finished CTA #1 (77572,0), 5 CTAs running
GPGPU-Sim uArch: core: 14, cta: 1 initialized @(77573,0)
GPGPU-Sim uArch: Shader 1 finished CTA #5 (77684,0), 5 CTAs running
GPGPU-Sim uArch: core:  1, cta: 5 initialized @(77685,0)
GPGPU-Sim uArch: Shader 11 finished CTA #4 (77725,0), 5 CTAs running
GPGPU-Sim uArch: core: 11, cta: 4 initialized @(77726,0)
GPGPU-Sim uArch: Shader 5 finished CTA #1 (77880,0), 5 CTAs running
GPGPU-Sim uArch: core:  5, cta: 1 initialized @(77881,0)
GPGPU-Sim uArch: Shader 13 finished CTA #5 (77994,0), 5 CTAs running
GPGPU-Sim uArch: core: 13, cta: 5 initialized @(77995,0)
GPGPU-Sim uArch: Shader 6 finished CTA #0 (78262,0), 5 CTAs running
GPGPU-Sim uArch: core:  6, cta: 0 initialized @(78263,0)
GPGPU-Sim uArch: Shader 10 finished CTA #5 (78358,0), 5 CTAs running
GPGPU-Sim uArch: core: 10, cta: 5 initialized @(78359,0)
GPGPU-Sim uArch: cycles simulated: 78500  inst.: 2993472 (ipc=38.1) sim_rate=43383 (inst/sec) elapsed = 0:0:01:09 / Tue Mar 22 13:05:47 2016
GPGPU-Sim uArch: Shader 12 finished CTA #4 (78817,0), 5 CTAs running
GPGPU-Sim uArch: core: 12, cta: 4 initialized @(78818,0)
GPGPU-Sim PTX: 3100000 instructions simulated : ctaid=(15,22,0) tid=(15,3,0)
GPGPU-Sim uArch: Shader 2 finished CTA #3 (79439,0), 5 CTAs running
GPGPU-Sim uArch: core:  2, cta: 3 initialized @(79440,0)
GPGPU-Sim uArch: Shader 3 finished CTA #3 (79476,0), 5 CTAs running
GPGPU-Sim uArch: core:  3, cta: 3 initialized @(79477,0)
GPGPU-Sim uArch: Shader 9 finished CTA #5 (79588,0), 5 CTAs running
GPGPU-Sim uArch: core:  9, cta: 5 initialized @(79589,0)
GPGPU-Sim uArch: Shader 7 finished CTA #0 (79670,0), 5 CTAs running
GPGPU-Sim uArch: core:  7, cta: 0 initialized @(79671,0)
GPGPU-Sim uArch: Shader 4 finished CTA #5 (79789,0), 5 CTAs running
GPGPU-Sim uArch: core:  4, cta: 5 initialized @(79790,0)
GPGPU-Sim uArch: Shader 11 finished CTA #5 (79928,0), 5 CTAs running
GPGPU-Sim uArch: core: 11, cta: 5 initialized @(79929,0)
GPGPU-Sim uArch: cycles simulated: 80000  inst.: 3074560 (ipc=38.4) sim_rate=43922 (inst/sec) elapsed = 0:0:01:10 / Tue Mar 22 13:05:48 2016
GPGPU-Sim uArch: Shader 5 finished CTA #2 (80103,0), 5 CTAs running
GPGPU-Sim uArch: core:  5, cta: 2 initialized @(80104,0)
GPGPU-Sim uArch: Shader 10 finished CTA #0 (80241,0), 5 CTAs running
GPGPU-Sim uArch: core: 10, cta: 0 initialized @(80242,0)
GPGPU-Sim uArch: Shader 0 finished CTA #3 (80316,0), 5 CTAs running
GPGPU-Sim uArch: core:  0, cta: 3 initialized @(80317,0)
GPGPU-Sim PTX: 3200000 instructions simulated : ctaid=(0,22,0) tid=(15,9,0)
GPGPU-Sim uArch: Shader 13 finished CTA #0 (80751,0), 5 CTAs running
GPGPU-Sim uArch: core: 13, cta: 0 initialized @(80752,0)
GPGPU-Sim uArch: Shader 14 finished CTA #3 (80753,0), 5 CTAs running
GPGPU-Sim uArch: core: 14, cta: 3 initialized @(80754,0)
GPGPU-Sim uArch: Shader 4 finished CTA #0 (80978,0), 5 CTAs running
GPGPU-Sim uArch: core:  4, cta: 0 initialized @(80979,0)
GPGPU-Sim uArch: cycles simulated: 81000  inst.: 3113632 (ipc=38.4) sim_rate=43853 (inst/sec) elapsed = 0:0:01:11 / Tue Mar 22 13:05:49 2016
GPGPU-Sim uArch: Shader 0 finished CTA #4 (81156,0), 5 CTAs running
GPGPU-Sim uArch: core:  0, cta: 4 initialized @(81157,0)
GPGPU-Sim uArch: Shader 1 finished CTA #0 (81547,0), 5 CTAs running
GPGPU-Sim uArch: core:  1, cta: 0 initialized @(81548,0)
GPGPU-Sim uArch: Shader 7 finished CTA #1 (81555,0), 5 CTAs running
GPGPU-Sim uArch: core:  7, cta: 1 initialized @(81556,0)
GPGPU-Sim uArch: Shader 6 finished CTA #2 (81597,0), 5 CTAs running
GPGPU-Sim uArch: core:  6, cta: 2 initialized @(81598,0)
GPGPU-Sim uArch: Shader 13 finished CTA #1 (81599,0), 5 CTAs running
GPGPU-Sim uArch: core: 13, cta: 1 initialized @(81600,0)
GPGPU-Sim uArch: Shader 5 finished CTA #5 (81979,0), 5 CTAs running
GPGPU-Sim uArch: core:  5, cta: 5 initialized @(81980,0)
GPGPU-Sim uArch: cycles simulated: 82000  inst.: 3149184 (ipc=38.4) sim_rate=43738 (inst/sec) elapsed = 0:0:01:12 / Tue Mar 22 13:05:50 2016
GPGPU-Sim uArch: Shader 14 finished CTA #5 (82015,0), 5 CTAs running
GPGPU-Sim uArch: core: 14, cta: 5 initialized @(82016,0)
GPGPU-Sim uArch: Shader 8 finished CTA #5 (82122,0), 5 CTAs running
GPGPU-Sim uArch: core:  8, cta: 5 initialized @(82123,0)
GPGPU-Sim uArch: Shader 12 finished CTA #5 (82230,0), 5 CTAs running
GPGPU-Sim uArch: core: 12, cta: 5 initialized @(82231,0)
GPGPU-Sim uArch: Shader 0 finished CTA #5 (82474,0), 5 CTAs running
GPGPU-Sim uArch: core:  0, cta: 5 initialized @(82475,0)
GPGPU-Sim uArch: Shader 8 finished CTA #0 (82478,0), 5 CTAs running
GPGPU-Sim uArch: core:  8, cta: 0 initialized @(82479,0)
GPGPU-Sim uArch: Shader 1 finished CTA #1 (82506,0), 5 CTAs running
GPGPU-Sim uArch: core:  1, cta: 1 initialized @(82507,0)
GPGPU-Sim uArch: Shader 6 finished CTA #1 (82639,0), 5 CTAs running
GPGPU-Sim uArch: core:  6, cta: 1 initialized @(82640,0)
GPGPU-Sim uArch: Shader 9 finished CTA #0 (82821,0), 5 CTAs running
GPGPU-Sim uArch: core:  9, cta: 0 initialized @(82822,0)
GPGPU-Sim PTX: 3300000 instructions simulated : ctaid=(12,20,0) tid=(15,7,0)
GPGPU-Sim uArch: Shader 1 finished CTA #2 (83211,0), 5 CTAs running
GPGPU-Sim uArch: core:  1, cta: 2 initialized @(83212,0)
GPGPU-Sim uArch: Shader 0 finished CTA #0 (83228,0), 5 CTAs running
GPGPU-Sim uArch: core:  0, cta: 0 initialized @(83229,0)
GPGPU-Sim uArch: Shader 8 finished CTA #1 (83300,0), 5 CTAs running
GPGPU-Sim uArch: core:  8, cta: 1 initialized @(83301,0)
GPGPU-Sim uArch: cycles simulated: 83500  inst.: 3234432 (ipc=38.7) sim_rate=44307 (inst/sec) elapsed = 0:0:01:13 / Tue Mar 22 13:05:51 2016
GPGPU-Sim uArch: Shader 13 finished CTA #2 (83540,0), 5 CTAs running
GPGPU-Sim uArch: core: 13, cta: 2 initialized @(83541,0)
GPGPU-Sim uArch: Shader 3 finished CTA #2 (83843,0), 5 CTAs running
GPGPU-Sim uArch: core:  3, cta: 2 initialized @(83844,0)
GPGPU-Sim uArch: Shader 12 finished CTA #0 (83900,0), 5 CTAs running
GPGPU-Sim uArch: core: 12, cta: 0 initialized @(83901,0)
GPGPU-Sim uArch: cycles simulated: 84500  inst.: 3276736 (ipc=38.8) sim_rate=44280 (inst/sec) elapsed = 0:0:01:14 / Tue Mar 22 13:05:52 2016
GPGPU-Sim uArch: Shader 12 finished CTA #1 (84556,0), 5 CTAs running
GPGPU-Sim uArch: core: 12, cta: 1 initialized @(84557,0)
GPGPU-Sim uArch: Shader 12 finished CTA #2 (84573,0), 5 CTAs running
GPGPU-Sim uArch: core: 12, cta: 2 initialized @(84574,0)
GPGPU-Sim uArch: cycles simulated: 85500  inst.: 3286688 (ipc=38.4) sim_rate=43822 (inst/sec) elapsed = 0:0:01:15 / Tue Mar 22 13:05:53 2016
GPGPU-Sim uArch: Shader 6 finished CTA #3 (85558,0), 5 CTAs running
GPGPU-Sim uArch: core:  6, cta: 3 initialized @(85559,0)
GPGPU-Sim uArch: Shader 2 finished CTA #4 (85753,0), 5 CTAs running
GPGPU-Sim uArch: core:  2, cta: 4 initialized @(85754,0)
GPGPU-Sim PTX: 3400000 instructions simulated : ctaid=(10,24,0) tid=(15,9,0)
GPGPU-Sim uArch: Shader 1 finished CTA #3 (86060,0), 5 CTAs running
GPGPU-Sim uArch: core:  1, cta: 3 initialized @(86061,0)
GPGPU-Sim uArch: Shader 4 finished CTA #1 (86567,0), 5 CTAs running
GPGPU-Sim uArch: core:  4, cta: 1 initialized @(86568,0)
GPGPU-Sim uArch: cycles simulated: 87000  inst.: 3325504 (ipc=38.2) sim_rate=43756 (inst/sec) elapsed = 0:0:01:16 / Tue Mar 22 13:05:54 2016
GPGPU-Sim uArch: Shader 14 finished CTA #2 (87216,0), 5 CTAs running
GPGPU-Sim uArch: core: 14, cta: 2 initialized @(87217,0)
GPGPU-Sim uArch: Shader 8 finished CTA #2 (87454,0), 5 CTAs running
GPGPU-Sim uArch: core:  8, cta: 2 initialized @(87455,0)
GPGPU-Sim uArch: Shader 14 finished CTA #4 (87513,0), 5 CTAs running
GPGPU-Sim uArch: core: 14, cta: 4 initialized @(87514,0)
GPGPU-Sim uArch: Shader 11 finished CTA #0 (87521,0), 5 CTAs running
GPGPU-Sim uArch: core: 11, cta: 0 initialized @(87522,0)
GPGPU-Sim uArch: Shader 14 finished CTA #0 (87701,0), 5 CTAs running
GPGPU-Sim uArch: core: 14, cta: 0 initialized @(87702,0)
GPGPU-Sim uArch: Shader 11 finished CTA #1 (87735,0), 5 CTAs running
GPGPU-Sim uArch: core: 11, cta: 1 initialized @(87736,0)
[...]
dq_lat_table:0 	0 	0 	0 	0 	0 	0 	0 	0 	0 	0 	0 	0 	0 	0 	0 	0 	0 	0 	0 	0 	0 	0 	0 	0 	0 	0 	0 	0 	0 	0 	0 	
mf_lat_table:0 	0 	0 	0 	0 	0 	0 	33498 	199135 	337791 	147505 	0 	0 	0 	0 	0 	0 	0 	0 	0 	0 	0 	0 	0 	0 	0 	0 	0 	0 	0 	0 	0 	
icnt2mem_lat_table:0 	0 	0 	19642 	9883 	130820 	64156 	63116 	203546 	221554 	5302 	0 	0 	0 	0 	0 	0 	0 	0 	0 	0 	0 	0 	0 	
icnt2sh_lat_table:0 	0 	0 	48929 	53111 	22956 	3079 	30 	0 	0 	0 	492 	1084 	2403 	9091 	19579 	38349 	78809 	160103 	277222 	2692 	0 	0 	0 	
mf_lat_pw_table:0 	0 	0 	0 	0 	0 	0 	1 	43 	1967 	97 	0 	0 	0 	0 	0 	0 	0 	0 	0 	0 	0 	0 	0 	0 	0 	0 	0 	0 	0 	0 	0 	
maximum concurrent accesses to same row:
dram[0]:        32        32        32        32        32        32        32        32        32        32        32        31        32        32        32        32 
dram[1]:        32        32        32        30        32        32        32        32        29        32        32        32        32        32        32        32 
dram[2]:        32        32        32        32        32        32        32        32        32        32        31        32        32        32        32        32 
dram[3]:        32        32        32        32        32        32        32        32        32        31        32        32        32        32        32        32 
dram[4]:        26        32        32        32        32        32        32        32        32        32        32        32        32        32        32        32 
dram[5]:        32        32        32        32        32        32        32        32        30        32        32        32        32        32        32        32 
maximum service time to same row:
dram[0]:     25186     30747     25491     30738     25415     29003     26368     28952     26370     28603     26369     27650     26370     32697     26263     32688 
dram[1]:     25057     43790     25695     43781     25650     42068     27596     43340     26050     42956     27047     27678     26724     35477     28123     43799 
dram[2]:     30165     25186     30741     25313     29011     25275     28964     26359     28599     26360     27653     26361     32700     26361     32691     26088 
dram[3]:     43793     26107     43784     25695     42075     25695     43340     27172     42953     27611     27686     26334     35479     25939     43802     28123 
dram[4]:     25178     30745     27642     30735     25593     29005     26368     28956     26369     28541     33916     28797     26369     32694     26120     32685 
dram[5]:     25687     43787     25685     43778     26148     43361     24531     43334     24960     42935     25266     27768     26594     35841     26723     43796 
average row accesses per activate:
dram[0]:  2.178364  2.179121  2.177225  2.159129  2.159428  2.181408  2.173321  2.201988  2.153167  2.170718  2.187254  2.210833  2.208480  2.202636  2.199672  2.201317 
dram[1]:  2.167048  2.176812  2.177188  2.180579  2.183458  2.190782  2.191859  2.214340  2.205555  2.189907  2.197630  2.204555  2.209983  2.227034  2.214391  2.236620 
dram[2]:  2.180691  2.185387  2.166260  2.173398  2.182484  2.180682  2.208461  2.178926  2.165141  2.159482  2.201912  2.198169  2.199464  2.201648  2.202594  2.186330 
dram[3]:  2.173052  2.161235  2.184032  2.179269  2.185394  2.183152  2.207951  2.196060  2.188409  2.195813  2.209116  2.191343  2.239062  2.226231  2.220318  2.225916 
dram[4]:  2.160267  2.176813  2.164856  2.163514  2.165430  2.191995  2.177078  2.198250  2.154698  2.171579  2.200675  2.194068  2.205700  2.200784  2.197368  2.203749 
dram[5]:  2.169696  2.160618  2.168051  2.168709  2.182323  2.179174  2.200346  2.208222  2.190793  2.199203  2.203438  2.223058  2.213547  2.228361  2.214843  2.230689 
average row locality = 1079710/492998 = 2.190090
number of total memory accesses made:
dram[0]:         0         0         0         0         0         0         0         0         0         0         0         0         0         0         0         0 
dram[1]:         0         0         0         0         0         0         0         0         0         0         0         0         0         0         0         0 
dram[2]:         0         0         0         0         0         0         0         0         0         0         0         0         0         0         0         0 
dram[3]:         0         0         0         0         0         0         0         0         0         0         0         0         0         0         0         0 
dram[4]:         0         0         0         0         0         0         0         0         0         0         0         0         0         0         0         0 
dram[5]:         0         0         0         0         0         0         0         0         0         0         0         0         0         0         0         0 
total accesses: 0
min_bank_accesses = 0!
min_chip_accesses = 0!
number of total read accesses:
dram[0]:      5504      5465      5439      5400      5500      5452      5535      5409      5591      5480      5339      5224      5130      5082      5147      5085 
dram[1]:      5271      5436      5197      5380      5285      5430      5371      5411      5415      5415      5174      5187      4959      5025      4952      5025 
dram[2]:      5466      5500      5429      5458      5469      5553      5429      5536      5473      5570      5247      5290      5065      5141      5083      5164 
dram[3]:      5441      5256      5401      5203      5434      5345      5409      5373      5458      5427      5242      5115      5017      4945      5035      4966 
dram[4]:      5506      5446      5452      5430      5535      5472      5517      5426      5570      5459      5315      5235      5135      5069      5130      5090 
dram[5]:      5245      5423      5174      5367      5307      5437      5371      5419      5410      5458      5150      5165      4963      5039      4963      5043 
total reads: 509376
bank skew: 5591/4945 = 1.13
chip skew: 85873/83933 = 1.02
number of total write accesses:
dram[0]:      6135      6141      6109      6106      6135      6140      6114      6114      6105      6129      5781      5797      5548      5614      5572      5609 
dram[1]:      6093      6186      6046      6140      6093      6168      6099      6139      6098      6128      5768      5752      5534      5569      5542      5590 
dram[2]:      6144      6135      6128      6111      6144      6142      6108      6106      6117      6102      5811      5758      5598      5548      5615      5584 
dram[3]:      6187      6084      6170      6066      6177      6110      6143      6108      6134      6112      5808      5719      5576      5545      5587      5547 
dram[4]:      6140      6139      6104      6121      6141      6139      6089      6128      6102      6109      5761      5788      5545      5596      5558      5607 
dram[5]:      6096      6186      6050      6138      6100      6178      6095      6130      6107      6134      5746      5768      5527      5568      5542      5584 
total reads: 570334
bank skew: 6187/5527 = 1.12
chip skew: 95151/94945 = 1.00
average mf latency per bank:
dram[0]:        482       470       486       476       488       474       490       476       489       474       482       470       481       475       482       475
dram[1]:        470       465       471       461       471       466       479       473       472       468       477       471       472       472       468       471
dram[2]:        478       488       480       489       477       488       479       493       480       493       478       485       485       487       482       488
dram[3]:        468       466       461       466       464       468       474       472       465       466       472       473       473       466       474       465
dram[4]:        490       476       495       479       495       476       497       475       495       477       487       472       488       480       492       477
dram[5]:        469       464       469       462       471       469       478       473       469       466       472       476       468       472       466       473
maximum mf latency per bank:
dram[0]:       1866      1577      1767      1683      1778      1602      1782      1584      1841      1687      1769      1615      1762      1566      1934      1636
dram[1]:       1799      1648      1721      1567      1721      1761      1937      1668      1872      1614      1796      1556      1703      1677      1752      1579
dram[2]:       1664      1869      1735      1856      1608      1788      1647      1921      1649      1803      1657      1732      1558      1925      1604      1919
dram[3]:       1715      1724      1635      1699      1582      1634      1615      1685      1578      1791      1565      1731      1684      1727      1761      1713
dram[4]:       1969      1664      1862      1696      1827      1625      1772      1677      1810      1628      1699      1660      1663      1605      1868      1542
dram[5]:       1798      1604      1710      1601      1661      1664      1831      1605      2034      1622      2009      1586      1813      1705      1920      1634

Number of Memory Banks Accessed per Memory Operation per Warp (from 0):
0	0	0	0	0	0	0	0	0	0	0	0	0	0	0	0	0	0	0	0	0	0	0	0	0	0	0	0	0	0	0	0	0	0	0	0	0	0	0	0	0	0	0	0	0	0	0	0	0	0	0	0	0	0	0	0	0	0	0	0	0	0	0	0	0	0	0	0	0	0	0	0	0	0	0	0	0	0	0	0	0	0	0	0	0	0	0	0	0	0	0	0	0	0	0	0	
Average # of Memory Banks Accessed per Memory Operation per Warp=-nan

position of mrq chosen
0	0	0	0	0	0	0	0	0	0	0	0	0	0	0	0	

average position of mrq chosen = -nan
Memory Partition 0: 
Cache L2_bank_000:
MSHR contents

Cache L2_bank_001:
MSHR contents

In Dram Latency Queue (total = 0): 
DRAM[0]: 16 bks, busW=4 BL=8 CL=12, tRRD=2 tCCD=6, tRCD=12 tRAS=28 tRP=12 tRC=40
n_cmd=1393738 n_nop=955990 n_act=82869 n_pre=82853 n_req=180931 n_rd=171564 n_write=100462 bw_util=0.3904
n_activity=1160215 dram_eff=0.4689
bk0: 11008a 1033698i bk1: 10930a 1030568i bk2: 10878a 1026003i bk3: 10800a 1022014i bk4: 11000a 1019507i bk5: 10904a 1018606i bk6: 11070a 1013610i bk7: 10818a 1012899i bk8: 11182a 1028452i bk9: 10960a 1026963i bk10: 10678a 1042694i bk11: 10448a 1043727i bk12: 10260a 1049394i bk13: 10164a 1044265i bk14: 10294a 1044449i bk15: 10170a 1041920i 
dram_util_bins: 0 0 0 0 0 0 0 0 0 0
dram_eff_bins: 0 0 0 0 0 0 0 0 0 0
mrqq: max=16 avg=6.942
Memory Partition 1: 
Cache L2_bank_002:
MSHR contents

Cache L2_bank_003:
MSHR contents
MSHR: tag=0x8057bf80, atomic=0 1 entries : 0x7f4c6b4675b0 :  mf: uid=17327838, sid06:w39, part=1, addr=0x8057bfc0, load , size=64, unknown  status = IN_PARTITION_DRAM (1055862), 
MSHR: tag=0x8056ff80, atomic=0 1 entries : 0x7f4c6ad7ffe0 :  mf: uid=17327834, sid06:w37, part=1, addr=0x8056ffc0, load , size=64, unknown  status = IN_PARTITION_DRAM (1055862), 
MSHR: tag=0x8054bf80, atomic=0 1 entries : 0x7f4c6b2767c0 :  mf: uid=17327837, sid06:w33, part=1, addr=0x8054bfc0, load , size=64, unknown  status = IN_PARTITION_DRAM (1055861), 

In Dram Latency Queue (total = 0): 
DRAM[1]: 16 bks, busW=4 BL=8 CL=12, tRRD=2 tCCD=6, tRCD=12 tRAS=28 tRP=12 tRC=40
n_cmd=1393738 n_nop=962550 n_act=81406 n_pre=81390 n_req=178878 n_rd=167864 n_write=100528 bw_util=0.3851
n_activity=1147102 dram_eff=0.4679
bk0: 10542a 1041129i bk1: 10872a 1029594i bk2: 10394a 1037798i bk3: 10760a 1025892i bk4: 10570a 1028862i bk5: 10860a 1018776i bk6: 10742a 1021750i bk7: 10822a 1014964i bk8: 10830a 1038419i bk9: 10830a 1032682i bk10: 10348a 1049546i bk11: 10374a 1045967i bk12: 9918a 1056945i bk13: 10050a 1052686i bk14: 9904a 1057293i bk15: 10048a 1046196i 
dram_util_bins: 0 0 0 0 0 0 0 0 0 0
dram_eff_bins: 0 0 0 0 0 0 0 0 0 0
mrqq: max=16 avg=6.89898
Memory Partition 2: 
Cache L2_bank_004:
MSHR contents

Cache L2_bank_005:
MSHR contents

In Dram Latency Queue (total = 0): 
DRAM[2]: 16 bks, busW=4 BL=8 CL=12, tRRD=2 tCCD=6, tRCD=12 tRAS=28 tRP=12 tRC=40
n_cmd=1393738 n_nop=955967 n_act=82839 n_pre=82823 n_req=181024 n_rd=171746 n_write=100363 bw_util=0.3905
n_activity=1160247 dram_eff=0.4691
bk0: 10932a 1031164i bk1: 11000a 1032232i bk2: 10858a 1023622i bk3: 10916a 1022292i bk4: 10938a 1018493i bk5: 11106a 1015795i bk6: 10858a 1016173i bk7: 11072a 1012933i bk8: 10946a 1030452i bk9: 11140a 1027919i bk10: 10494a 1039490i bk11: 10580a 1046756i bk12: 10130a 1047703i bk13: 10282a 1047070i bk14: 10166a 1041138i bk15: 10328a 1041404i 
dram_util_bins: 0 0 0 0 0 0 0 0 0 0
dram_eff_bins: 0 0 0 0 0 0 0 0 0 0
mrqq: max=16 avg=6.96804
Memory Partition 3: 
Cache L2_bank_006:
MSHR contents

Cache L2_bank_007:
MSHR contents

In Dram Latency Queue (total = 0): 
DRAM[3]: 16 bks, busW=4 BL=8 CL=12, tRRD=2 tCCD=6, tRCD=12 tRAS=28 tRP=12 tRC=40
n_cmd=1393738 n_nop=961948 n_act=81535 n_pre=81519 n_req=179140 n_rd=168134 n_write=100602 bw_util=0.3856
n_activity=1147512 dram_eff=0.4684
bk0: 10882a 1031044i bk1: 10512a 1042425i bk2: 10802a 1026688i bk3: 10406a 1037423i bk4: 10868a 1018539i bk5: 10690a 1024027i bk6: 10818a 1014135i bk7: 10746a 1019821i bk8: 10916a 1034473i bk9: 10854a 1036082i bk10: 10484a 1040414i bk11: 10230a 1051255i bk12: 10034a 1053584i bk13: 9890a 1058524i bk14: 10070a 1047656i bk15: 9932a 1056125i 
dram_util_bins: 0 0 0 0 0 0 0 0 0 0
dram_eff_bins: 0 0 0 0 0 0 0 0 0 0
mrqq: max=16 avg=6.89209
Memory Partition 4: 
Cache L2_bank_008:
MSHR contents

Cache L2_bank_009:
MSHR contents

In Dram Latency Queue (total = 0): 
DRAM[4]: 16 bks, busW=4 BL=8 CL=12, tRRD=2 tCCD=6, tRCD=12 tRAS=28 tRP=12 tRC=40
n_cmd=1393738 n_nop=956118 n_act=82873 n_pre=82857 n_req=180854 n_rd=171574 n_write=100316 bw_util=0.3902
n_activity=1160271 dram_eff=0.4687
bk0: 11012a 1034746i bk1: 10892a 1030938i bk2: 10904a 1025673i bk3: 10860a 1021492i bk4: 11070a 1015944i bk5: 10944a 1015609i bk6: 11034a 1014371i bk7: 10852a 1013350i bk8: 11140a 1028671i bk9: 10918a 1030761i bk10: 10630a 1043664i bk11: 10470a 1044306i bk12: 10270a 1049631i bk13: 10138a 1045066i bk14: 10260a 1045033i bk15: 10180a 1042529i 
dram_util_bins: 0 0 0 0 0 0 0 0 0 0
dram_eff_bins: 0 0 0 0 0 0 0 0 0 0
mrqq: max=16 avg=6.94339
Memory Partition 5: 
Cache L2_bank_010:
MSHR contents

Cache L2_bank_011:
MSHR contents

In Dram Latency Queue (total = 0): 
DRAM[5]: 16 bks, busW=4 BL=8 CL=12, tRRD=2 tCCD=6, tRCD=12 tRAS=28 tRP=12 tRC=40
n_cmd=1393738 n_nop=962442 n_act=81477 n_pre=81461 n_req=178883 n_rd=167868 n_write=100490 bw_util=0.3851
n_activity=1147702 dram_eff=0.4676
bk0: 10490a 1043887i bk1: 10846a 1031598i bk2: 10348a 1038226i bk3: 10734a 1026397i bk4: 10614a 1027954i bk5: 10874a 1017762i bk6: 10742a 1021525i bk7: 10838a 1013263i bk8: 10820a 1038272i bk9: 10916a 1034052i bk10: 10300a 1052008i bk11: 10330a 1047505i bk12: 9926a 1057544i bk13: 10078a 1053201i bk14: 9926a 1057162i bk15: 10086a 1045406i 
dram_util_bins: 0 0 0 0 0 0 0 0 0 0
dram_eff_bins: 0 0 0 0 0 0 0 0 0 0
mrqq: max=16 avg=6.87916

========= L2 cache stats =========
L2_cache_bank[0]: Access = 59914, Miss = 43185, Miss_rate = 0.721, Pending_hits = 7947, Reservation_fails = 228939
L2_cache_bank[1]: Access = 59870, Miss = 42597, Miss_rate = 0.711, Pending_hits = 8690, Reservation_fails = 217651
L2_cache_bank[2]: Access = 59852, Miss = 41624, Miss_rate = 0.695, Pending_hits = 8996, Reservation_fails = 215030
L2_cache_bank[3]: Access = 59756, Miss = 42309, Miss_rate = 0.708, Pending_hits = 8835, Reservation_fails = 206257
L2_cache_bank[4]: Access = 59933, Miss = 42661, Miss_rate = 0.712, Pending_hits = 8663, Reservation_fails = 219632
L2_cache_bank[5]: Access = 59836, Miss = 43212, Miss_rate = 0.722, Pending_hits = 7967, Reservation_fails = 232869
L2_cache_bank[6]: Access = 59793, Miss = 42437, Miss_rate = 0.710, Pending_hits = 8837, Reservation_fails = 206738
L2_cache_bank[7]: Access = 59797, Miss = 41630, Miss_rate = 0.696, Pending_hits = 8988, Reservation_fails = 213526
L2_cache_bank[8]: Access = 59835, Miss = 43160, Miss_rate = 0.721, Pending_hits = 7925, Reservation_fails = 233741
L2_cache_bank[9]: Access = 59879, Miss = 42627, Miss_rate = 0.712, Pending_hits = 8679, Reservation_fails = 215777
L2_cache_bank[10]: Access = 59789, Miss = 41583, Miss_rate = 0.695, Pending_hits = 9018, Reservation_fails = 212178
L2_cache_bank[11]: Access = 59765, Miss = 42351, Miss_rate = 0.709, Pending_hits = 8827, Reservation_fails = 207862
L2_total_cache_accesses = 718019
L2_total_cache_misses = 509376
L2_total_cache_miss_rate = 0.7094
L2_total_cache_pending_hits = 103372
L2_total_cache_reservation_fails = 2610200
L2_total_cache_breakdown:
	L2_cache_stats_breakdown[GLOBAL_ACC_R][HIT] = 53277
	L2_cache_stats_breakdown[GLOBAL_ACC_R][HIT_RESERVED] = 8030
	L2_cache_stats_breakdown[GLOBAL_ACC_R][MISS] = 66783
	L2_cache_stats_breakdown[GLOBAL_ACC_R][RESERVATION_FAIL] = 15322
	L2_cache_stats_breakdown[CONST_ACC_R][HIT] = 11
	L2_cache_stats_breakdown[CONST_ACC_R][HIT_RESERVED] = 3
	L2_cache_stats_breakdown[CONST_ACC_R][MISS] = 1
	L2_cache_stats_breakdown[CONST_ACC_R][RESERVATION_FAIL] = 94
	L2_cache_stats_breakdown[GLOBAL_ACC_W][HIT] = 51917
	L2_cache_stats_breakdown[GLOBAL_ACC_W][HIT_RESERVED] = 95321
	L2_cache_stats_breakdown[GLOBAL_ACC_W][MISS] = 442586
	L2_cache_stats_breakdown[GLOBAL_ACC_W][RESERVATION_FAIL] = 2594042
	L2_cache_stats_breakdown[INST_ACC_R][HIT] = 66
	L2_cache_stats_breakdown[INST_ACC_R][HIT_RESERVED] = 18
	L2_cache_stats_breakdown[INST_ACC_R][MISS] = 6
	L2_cache_stats_breakdown[INST_ACC_R][RESERVATION_FAIL] = 742
L2_cache_data_port_util = 0.022
L2_cache_fill_port_util = 0.161

icnt_total_pkts_mem_to_simt=1230769
icnt_total_pkts_simt_to_mem=1373379
LD_mem_lat_dist  0 0 0 0 0 0 0 0 0 0 0 0 0 0 0 0 0 0 0 0 0 0 0 0 0 0 0
ST_mem_lat_dist  0 0 0 0 0 0 0 0 0 0 0 0 0 0 0 0 0 0 0 0 0 0 0 0 0 0 0
----------------------------Interconnect-DETAILS--------------------------------
Class 0:
Packet latency average = 75.0455
	minimum = 6
	maximum = 1085
Network latency average = 45.4703
	minimum = 6
	maximum = 681
Slowest packet = 1178404
Flit latency average = 37.4743
	minimum = 6
	maximum = 681
Slowest flit = 2260039
Fragmentation average = 0.391503
	minimum = 0
	maximum = 411
Injected packet rate average = 0.0591241
	minimum = 0.0488013 (at node 2)
	maximum = 0.0668127 (at node 15)
Accepted packet rate average = 0.0591241
	minimum = 0.0488013 (at node 2)
	maximum = 0.0668127 (at node 15)
Injected flit rate average = 0.147591
	minimum = 0.0976823 (at node 2)
	maximum = 0.199984 (at node 15)
Accepted flit rate average= 0.147591
	minimum = 0.13322 (at node 18)
	maximum = 0.168035 (at node 9)
Injected packet length average = 2.4963
Accepted packet length average = 2.4963
Total in-flight flits = 0 (0 measured)
====== Overall Traffic Statistics ======
====== Traffic class 0 ======
Packet latency average = 90.1773 (2 samples)
	minimum = 6 (2 samples)
	maximum = 1124.5 (2 samples)
Network latency average = 51.569 (2 samples)
	minimum = 6 (2 samples)
	maximum = 848.5 (2 samples)
Flit latency average = 50.491 (2 samples)
	minimum = 6 (2 samples)
	maximum = 848.5 (2 samples)
Fragmentation average = 0.285942 (2 samples)
	minimum = 0 (2 samples)
	maximum = 492 (2 samples)
Injected packet rate average = 0.0539495 (2 samples)
	minimum = 0.0458263 (2 samples)
	maximum = 0.0608806 (2 samples)
Accepted packet rate average = 0.0539495 (2 samples)
	minimum = 0.0458263 (2 samples)
	maximum = 0.0608806 (2 samples)
Injected flit rate average = 0.114335 (2 samples)
	minimum = 0.0880861 (2 samples)
	maximum = 0.143486 (2 samples)
Accepted flit rate average = 0.114335 (2 samples)
	minimum = 0.0971829 (2 samples)
	maximum = 0.13597 (2 samples)
Injected packet size average = 2.1193 (2 samples)
Accepted packet size average = 2.1193 (2 samples)
Hops average = 1 (2 samples)
----------------------------END-of-Interconnect-DETAILS-------------------------
GPGPU-Sim API: Stream Manager State
