

        *** GPGPU-Sim Simulator Version 3.2.2  [build 0] ***


GPGPU-Sim PTX: simulation mode 0 (can change with PTX_SIM_MODE_FUNC environment variable:
               1=functional simulation only, 0=detailed performance simulator)
GPGPU-Sim: Configuration options:

-network_mode                           1 # Interconnection network mode
-inter_config_file   config_fermi_islip.icnt # Interconnection network config file
-gpgpu_ptx_use_cuobjdump                    1 # Use cuobjdump to extract ptx and sass from binaries
-gpgpu_experimental_lib_support                    0 # Try to extract code from cuda libraries [Broken because of unknown cudaGetExportTable]
-gpgpu_ptx_convert_to_ptxplus                    0 # Convert SASS (native ISA) to ptxplus and run ptxplus
-gpgpu_ptx_force_max_capability                   20 # Force maximum compute capability
-gpgpu_ptx_inst_debug_to_file                    0 # Dump executed instructions' debug information to file
-gpgpu_ptx_inst_debug_file       inst_debug.txt # Executed instructions' debug output file
-gpgpu_ptx_inst_debug_thread_uid                    1 # Thread UID for executed instructions' debug output
-gpgpu_simd_model                       1 # 1 = post-dominator
-gpgpu_shader_core_pipeline              1536:32 # shader core pipeline config, i.e., {<nthread>:<warpsize>}
-gpgpu_tex_cache:l1  4:128:24,L:R:m:N:L,F:128:4,128:2 # per-shader L1 texture cache  (READ-ONLY) config  {<nsets>:<bsize>:<assoc>,<rep>:<wr>:<alloc>:<wr_alloc>,<mshr>:<N>:<merge>,<mq>:<rf>}
-gpgpu_const_cache:l1 64:64:2,L:R:f:N:L,A:2:32,4 # per-shader L1 constant memory cache  (READ-ONLY) config  {<nsets>:<bsize>:<assoc>,<rep>:<wr>:<alloc>:<wr_alloc>,<mshr>:<N>:<merge>,<mq>} 
-gpgpu_cache:il1     4:128:4,L:R:f:N:L,A:2:32,4 # shader L1 instruction cache config  {<nsets>:<bsize>:<assoc>,<rep>:<wr>:<alloc>:<wr_alloc>,<mshr>:<N>:<merge>,<mq>} 
-gpgpu_cache:dl1     32:128:4,L:L:m:N:H,A:32:8,8:2,0,1:0:1:1:0:1,1:4:8:16:32:64,/sciclone/data10/hwang07/GPU_RESEARCH/swl/swl_outputs/RESULTS/swl4/ # per-shader L1 data cache config  {<nsets>:<bsize>:<assoc>,<rep>:<wr>:<alloc>:<wr_alloc>,<mshr>:<N>:<merge>,<mq> | none}
-gpgpu_cache:dl1PrefL1                 none # per-shader L1 data cache config  {<nsets>:<bsize>:<assoc>,<rep>:<wr>:<alloc>:<wr_alloc>,<mshr>:<N>:<merge>,<mq> | none}
-gpgpu_cache:dl1PreShared                 none # per-shader L1 data cache config  {<nsets>:<bsize>:<assoc>,<rep>:<wr>:<alloc>:<wr_alloc>,<mshr>:<N>:<merge>,<mq> | none}
-gmem_skip_L1D                          0 # global memory access skip L1D cache (implements -Xptxas -dlcm=cg, default=no skip)
-gpgpu_perfect_mem                      0 # enable perfect memory mode (no cache miss)
-n_regfile_gating_group                    4 # group of lanes that should be read/written together)
-gpgpu_clock_gated_reg_file                    0 # enable clock gated reg file for power calculations
-gpgpu_clock_gated_lanes                    0 # enable clock gated lanes for power calculations
-gpgpu_shader_registers                32768 # Number of registers per shader core. Limits number of concurrent CTAs. (default 8192)
-gpgpu_shader_cta                       8 # Maximum number of concurrent CTAs in shader (default 8)
-gpgpu_num_cta_barriers                   16 # Maximum number of named barriers per CTA (default 16)
-gpgpu_n_clusters                      15 # number of processing clusters
-gpgpu_n_cores_per_cluster                    1 # number of simd cores per cluster
-gpgpu_n_cluster_ejection_buffer_size                    8 # number of packets in ejection buffer
-gpgpu_n_ldst_response_buffer_size                    2 # number of response packets in ld/st unit ejection buffer
-gpgpu_shmem_size                   16384 # Size of shared memory per shader core (default 16kB)
-gpgpu_shmem_size                   49152 # Size of shared memory per shader core (default 16kB)
-gpgpu_shmem_size_PrefL1                16384 # Size of shared memory per shader core (default 16kB)
-gpgpu_shmem_size_PrefShared                16384 # Size of shared memory per shader core (default 16kB)
-gpgpu_shmem_num_banks                   32 # Number of banks in the shared memory in each shader core (default 16)
-gpgpu_shmem_limited_broadcast                    0 # Limit shared memory to do one broadcast per cycle (default on)
-gpgpu_shmem_warp_parts                    1 # Number of portions a warp is divided into for shared memory bank conflict check 
-gpgpu_warpdistro_shader                   -1 # Specify which shader core to collect the warp size distribution from
-gpgpu_warp_issue_shader                    0 # Specify which shader core to collect the warp issue distribution from
-gpgpu_local_mem_map                    1 # Mapping from local memory space address to simulated GPU physical address space (default = enabled)
-gpgpu_num_reg_banks                   16 # Number of register banks (default = 8)
-gpgpu_reg_bank_use_warp_id                    0 # Use warp ID in mapping registers to banks (default = off)
-gpgpu_operand_collector_num_units_sp                    6 # number of collector units (default = 4)
-gpgpu_operand_collector_num_units_sfu                    8 # number of collector units (default = 4)
-gpgpu_operand_collector_num_units_mem                    2 # number of collector units (default = 2)
-gpgpu_operand_collector_num_units_gen                    0 # number of collector units (default = 0)
-gpgpu_operand_collector_num_in_ports_sp                    2 # number of collector unit in ports (default = 1)
-gpgpu_operand_collector_num_in_ports_sfu                    1 # number of collector unit in ports (default = 1)
-gpgpu_operand_collector_num_in_ports_mem                    1 # number of collector unit in ports (default = 1)
-gpgpu_operand_collector_num_in_ports_gen                    0 # number of collector unit in ports (default = 0)
-gpgpu_operand_collector_num_out_ports_sp                    2 # number of collector unit in ports (default = 1)
-gpgpu_operand_collector_num_out_ports_sfu                    1 # number of collector unit in ports (default = 1)
-gpgpu_operand_collector_num_out_ports_mem                    1 # number of collector unit in ports (default = 1)
-gpgpu_operand_collector_num_out_ports_gen                    0 # number of collector unit in ports (default = 0)
-gpgpu_coalesce_arch                   13 # Coalescing arch (default = 13, anything else is off for now)
-gpgpu_num_sched_per_core                    2 # Number of warp schedulers per core
-gpgpu_max_insn_issue_per_warp                    1 # Max number of instructions that can be issued per warp in one cycle by scheduler
-gpgpu_simt_core_sim_order                    1 # Select the simulation order of cores in a cluster (0=Fix, 1=Round-Robin)
-gpgpu_pipeline_widths        2,1,1,2,1,1,2 # Pipeline widths ID_OC_SP,ID_OC_SFU,ID_OC_MEM,OC_EX_SP,OC_EX_SFU,OC_EX_MEM,EX_WB
-gpgpu_num_sp_units                     2 # Number of SP units (default=1)
-gpgpu_num_sfu_units                    1 # Number of SF units (default=1)
-gpgpu_num_mem_units                    1 # Number if ldst units (default=1) WARNING: not hooked up to anything
-gpgpu_scheduler        warp_limiting:2:4 # Scheduler configuration: < lrr | gto | two_level_active > If two_level_active:<num_active_warps>:<inner_prioritization>:<outer_prioritization>For complete list of prioritization values see shader.h enum scheduler_prioritization_typeDefault: gto
-gpgpu_dram_scheduler                    1 # 0 = fifo, 1 = FR-FCFS (defaul)
-gpgpu_dram_partition_queues              8:8:8:8 # i2$:$2d:d2$:$2i
-l2_ideal                               0 # Use a ideal L2 cache that always hit
-gpgpu_cache:dl2     64:128:8,L:B:m:W:L,A:32:4,4:0,32 # unified banked L2 data cache config  {<nsets>:<bsize>:<assoc>,<rep>:<wr>:<alloc>:<wr_alloc>,<mshr>:<N>:<merge>,<mq>}
-gpgpu_cache:dl2_texture_only                    0 # L2 cache used for texture only
-gpgpu_n_mem                            6 # number of memory modules (e.g. memory controllers) in gpu
-gpgpu_n_sub_partition_per_mchannel                    2 # number of memory subpartition in each memory module
-gpgpu_n_mem_per_ctrlr                    2 # number of memory chips per memory controller
-gpgpu_memlatency_stat                   14 # track and display latency statistics 0x2 enables MC, 0x4 enables queue logs
-gpgpu_frfcfs_dram_sched_queue_size                   16 # 0 = unlimited (default); # entries per chip
-gpgpu_dram_return_queue_size                  116 # 0 = unlimited (default); # entries per chip
-gpgpu_dram_buswidth                    4 # default = 4 bytes (8 bytes per cycle at DDR)
-gpgpu_dram_burst_length                    8 # Burst length of each DRAM request (default = 4 data bus cycle)
-dram_data_command_freq_ratio                    4 # Frequency ratio between DRAM data bus and command bus (default = 2 times, i.e. DDR)
-gpgpu_dram_timing_opt nbk=16:CCD=2:RRD=6:RCD=12:RAS=28:RP=12:RC=40: CL=12:WL=4:CDLR=5:WR=12:nbkgrp=4:CCDL=3:RTPL=2 # DRAM timing parameters = {nbk:tCCD:tRRD:tRCD:tRAS:tRP:tRC:CL:WL:tCDLR:tWR:nbkgrp:tCCDL:tRTPL}
-rop_latency                          120 # ROP queue latency (default 85)
-dram_latency                         100 # DRAM latency (default 30)
-gpgpu_mem_addr_mapping dramid@8;00000000.00000000.00000000.00000000.0000RRRR.RRRRRRRR.BBBCCCCB.CCSSSSSS # mapping memory address to dram model {dramid@<start bit>;<memory address map>}
-gpgpu_mem_addr_test                    0 # run sweep test to check address mapping for aliased address
-gpgpu_mem_address_mask                    1 # 0 = old addressing mask, 1 = new addressing mask, 2 = new add. mask + flipped bank sel and chip sel bits
-gpuwattch_xml_file  gpuwattch_gtx480.xml # GPUWattch XML file
-power_simulation_enabled                    0 # Turn on power simulator (1=On, 0=Off)
-power_per_cycle_dump                    0 # Dump detailed power output each cycle
-power_trace_enabled                    0 # produce a file for the power trace (1=On, 0=Off)
-power_trace_zlevel                     6 # Compression level of the power trace output log (0=no comp, 9=highest)
-steady_power_levels_enabled                    0 # produce a file for the steady power levels (1=On, 0=Off)
-steady_state_definition                  8:4 # allowed deviation:number of samples
-gpgpu_max_cycle                        0 # terminates gpu simulation early (0 = no limit)
-gpgpu_max_insn                         0 # terminates gpu simulation early (0 = no limit)
-gpgpu_max_cta                          0 # terminates gpu simulation early (0 = no limit)
-gpgpu_runtime_stat                   500 # display runtime statistics such as dram utilization {<freq>:<flag>}
-liveness_message_freq                    1 # Minimum number of seconds between simulation liveness messages (0 = always print)
-gpgpu_flush_l1_cache                    0 # Flush L1 cache at the end of each kernel call
-gpgpu_flush_l2_cache                    0 # Flush L2 cache at the end of each kernel call
-gpgpu_deadlock_detect                    1 # Stop the simulation at deadlock (1=on (default), 0=off)
-gpgpu_ptx_instruction_classification                    0 # if enabled will classify ptx instruction types per kernel (Max 255 kernels now)
-gpgpu_ptx_sim_mode                     0 # Select between Performance (default) or Functional simulation (1)
-gpgpu_clock_domains 700.0:700.0:700.0:924.0 # Clock Domain Frequencies in MhZ {<Core Clock>:<ICNT Clock>:<L2 Clock>:<DRAM Clock>}
-gpgpu_max_concurrent_kernel                    8 # maximum kernels that can run concurrently on GPU
-gpgpu_cflog_interval                    0 # Interval between each snapshot in control flow logger
-visualizer_enabled                     0 # Turn on visualizer output (1=On, 0=Off)
-visualizer_outputfile                 NULL # Specifies the output log file for visualizer
-visualizer_zlevel                      6 # Compression level of the visualizer output log (0=no comp, 9=highest)
-trace_enabled                          0 # Turn on traces
-trace_components                    none # comma seperated list of traces to enable. Complete list found in trace_streams.tup. Default none
-trace_sampling_core                    0 # The core which is printed using CORE_DPRINTF. Default 0
-trace_sampling_memory_partition                   -1 # The memory partition which is printed using MEMPART_DPRINTF. Default -1 (i.e. all)
-enable_ptx_file_line_stats                    1 # Turn on PTX source line statistic profiling. (1 = On)
-ptx_line_stats_filename gpgpu_inst_stats.txt # Output file for PTX source line statistics.
-save_embedded_ptx                      0 # saves ptx files embedded in binary as <n>.ptx
-keep                                   0 # keep intermediate files created by GPGPU-Sim when interfacing with external programs
-gpgpu_ptx_save_converted_ptxplus                    0 # Saved converted ptxplus to a file
-ptx_opcode_latency_int         4,13,4,5,145 # Opcode latencies for integers <ADD,MAX,MUL,MAD,DIV>Default 1,1,19,25,145
-ptx_opcode_latency_fp          4,13,4,5,39 # Opcode latencies for single precision floating points <ADD,MAX,MUL,MAD,DIV>Default 1,1,1,1,30
-ptx_opcode_latency_dp         8,19,8,8,330 # Opcode latencies for double precision floating points <ADD,MAX,MUL,MAD,DIV>Default 8,8,8,8,335
-ptx_opcode_initiation_int            1,2,2,1,8 # Opcode initiation intervals for integers <ADD,MAX,MUL,MAD,DIV>Default 1,1,4,4,32
-ptx_opcode_initiation_fp            1,2,1,1,4 # Opcode initiation intervals for single precision floating points <ADD,MAX,MUL,MAD,DIV>Default 1,1,1,1,5
-ptx_opcode_initiation_dp         8,16,8,8,130 # Opcode initiation intervals for double precision floating points <ADD,MAX,MUL,MAD,DIV>Default 8,8,8,8,130
DRAM Timing Options:
nbk                                    16 # number of banks
CCD                                     2 # column to column delay
RRD                                     6 # minimal delay between activation of rows in different banks
RCD                                    12 # row to column delay
RAS                                    28 # time needed to activate row
RP                                     12 # time needed to precharge (deactivate) row
RC                                     40 # row cycle time
CDLR                                    5 # switching from write to read (changes tWTR)
WR                                     12 # last data-in to row precharge
CL                                     12 # CAS latency
WL                                      4 # Write latency
nbkgrp                                  4 # number of bank groups
CCDL                                    3 # column to column delay between accesses to different bank groups
RTPL                                    2 # read to precharge delay between accesses to different bank groups
Total number of memory sub partition = 12
addr_dec_mask[CHIP]  = 0000000000000000 	high:64 low:0
addr_dec_mask[BK]    = 000000000000e100 	high:16 low:8
addr_dec_mask[ROW]   = 000000000fff0000 	high:28 low:16
addr_dec_mask[COL]   = 0000000000001eff 	high:13 low:0
addr_dec_mask[BURST] = 000000000000003f 	high:6 low:0
sub_partition_id_mask = 0000000000000100
GPGPU-Sim uArch: clock freqs: 700000000.000000:700000000.000000:700000000.000000:924000000.000000
GPGPU-Sim uArch: clock periods: 0.00000000142857142857:0.00000000142857142857:0.00000000142857142857:0.00000000108225108225
*** Initializing Memory Statistics ***
GPGPU-Sim uArch: interconnect node map (shaderID+MemID to icntID)
GPGPU-Sim uArch: Memory nodes ID start from index: 15
GPGPU-Sim uArch:    0   1   2   3   4
GPGPU-Sim uArch:    5   6   7   8   9
GPGPU-Sim uArch:   10  11  12  13  14
GPGPU-Sim uArch:   15  16  17  18  19
GPGPU-Sim uArch:   20  21  22  23  24
GPGPU-Sim uArch:   25  26
GPGPU-Sim uArch: interconnect node reverse map (icntID to shaderID+MemID)
GPGPU-Sim uArch: Memory nodes start from ID: 15
GPGPU-Sim uArch:    0   1   2   3   4
GPGPU-Sim uArch:    5   6   7   8   9
GPGPU-Sim uArch:   10  11  12  13  14
GPGPU-Sim uArch:   15  16  17  18  19
GPGPU-Sim uArch:   20  21  22  23  24
GPGPU-Sim uArch:   25  26
a694f6f961931330989587dbd586e872  /sciclone/data10/hwang07/adwait/applications/benchmarks/CUDA/KMN/gpgpu_ptx_sim__KMN
GPGPU-Sim uArch: performance model initialization complete.
GPGPU-Sim PTX: __cudaRegisterFatBinary, fat_cubin_handle = 1, filename=kmeans_cuda.cu
self exe links to: /sciclone/data10/hwang07/adwait/applications/benchmarks/CUDA/KMN/gpgpu_ptx_sim__KMN
Running md5sum using "md5sum /sciclone/data10/hwang07/adwait/applications/benchmarks/CUDA/KMN/gpgpu_ptx_sim__KMN "
Parsing file _cuobjdump_complete_output_1RFjwZ
######### cuobjdump parser ########
## Adding new section ELF
Adding arch: sm_20
Adding identifier: kmeans_cuda.cu
## Adding new section PTX
Adding ptx filename: _cuobjdump_1.ptx
Adding arch: sm_20
Adding identifier: kmeans_cuda.cu
Done parsing!!!
GPGPU-Sim PTX: __cudaRegisterFunction _Z11kmeansPointPfiiiPiS_S_S0_ : hostFun 0x0x402a5e, fat_cubin_handle = 1
GPGPU-Sim PTX: instruction assembly for function '_Z14invert_mappingPfS_ii'...   done.
GPGPU-Sim PTX: finding reconvergence points for '_Z14invert_mappingPfS_ii'...
GPGPU-Sim PTX: Finding dominators for '_Z14invert_mappingPfS_ii'...
GPGPU-Sim PTX: Finding immediate dominators for '_Z14invert_mappingPfS_ii'...
GPGPU-Sim PTX: Finding postdominators for '_Z14invert_mappingPfS_ii'...
GPGPU-Sim PTX: Finding immediate postdominators for '_Z14invert_mappingPfS_ii'...
GPGPU-Sim PTX: pre-decoding instructions for '_Z14invert_mappingPfS_ii'...
GPGPU-Sim PTX: reconvergence points for _Z14invert_mappingPfS_ii...
GPGPU-Sim PTX:  1 (potential) branch divergence @  PC=0x038 (_1.ptx:70) @%p1 bra $Lt_0_2050;
GPGPU-Sim PTX:    immediate post dominator      @  PC=0x110 (_1.ptx:103) exit;
GPGPU-Sim PTX:  2 (potential) branch divergence @  PC=0x058 (_1.ptx:74) @%p2 bra $Lt_0_2562;
GPGPU-Sim PTX:    immediate post dominator      @  PC=0x110 (_1.ptx:103) exit;
GPGPU-Sim PTX:  3 (potential) branch divergence @  PC=0x108 (_1.ptx:99) @%p3 bra $Lt_0_3074;
GPGPU-Sim PTX:    immediate post dominator      @  PC=0x110 (_1.ptx:103) exit;
GPGPU-Sim PTX: ... end of reconvergence points for _Z14invert_mappingPfS_ii
GPGPU-Sim PTX: ... done pre-decoding instructions for '_Z14invert_mappingPfS_ii'.
GPGPU-Sim PTX: instruction assembly for function '_Z11kmeansPointPfiiiPiS_S_S0_'...   done.
GPGPU-Sim PTX: finding reconvergence points for '_Z11kmeansPointPfiiiPiS_S_S0_'...
GPGPU-Sim PTX: Finding dominators for '_Z11kmeansPointPfiiiPiS_S_S0_'...
GPGPU-Sim PTX: Finding immediate dominators for '_Z11kmeansPointPfiiiPiS_S_S0_'...
GPGPU-Sim PTX: Finding postdominators for '_Z11kmeansPointPfiiiPiS_S_S0_'...
GPGPU-Sim PTX: Finding immediate postdominators for '_Z11kmeansPointPfiiiPiS_S_S0_'...
GPGPU-Sim PTX: pre-decoding instructions for '_Z11kmeansPointPfiiiPiS_S_S0_'...
GPGPU-Sim PTX: reconvergence points for _Z11kmeansPointPfiiiPiS_S_S0_...
GPGPU-Sim PTX:  1 (potential) branch divergence @  PC=0x180 (_1.ptx:136) @!%p1 bra $Lt_1_4866;
GPGPU-Sim PTX:    immediate post dominator      @  PC=0x320 (_1.ptx:202) @!%p1 bra $Lt_1_7682;
GPGPU-Sim PTX:  2 (potential) branch divergence @  PC=0x1a0 (_1.ptx:140) @%p2 bra $Lt_1_8194;
GPGPU-Sim PTX:    immediate post dominator      @  PC=0x320 (_1.ptx:202) @!%p1 bra $Lt_1_7682;
GPGPU-Sim PTX:  3 (potential) branch divergence @  PC=0x1e8 (_1.ptx:151) @!%p3 bra $Lt_1_8450;
GPGPU-Sim PTX:    immediate post dominator      @  PC=0x2c8 (_1.ptx:185) setp.lt.f32 %p5, %f2, %f1;
GPGPU-Sim PTX:  4 (potential) branch divergence @  PC=0x2b0 (_1.ptx:180) @%p4 bra $Lt_1_6402;
GPGPU-Sim PTX:    immediate post dominator      @  PC=0x2b8 (_1.ptx:181) bra.uni $Lt_1_5890;
GPGPU-Sim PTX:  5 (potential) branch divergence @  PC=0x2b8 (_1.ptx:181) bra.uni $Lt_1_5890;
GPGPU-Sim PTX:    immediate post dominator      @  PC=0x2c8 (_1.ptx:185) setp.lt.f32 %p5, %f2, %f1;
GPGPU-Sim PTX:  6 (potential) branch divergence @  PC=0x2d0 (_1.ptx:186) @!%p5 bra $Lt_1_6914;
GPGPU-Sim PTX:    immediate post dominator      @  PC=0x2e8 (_1.ptx:192) add.s32 %r18, %r18, 1;
GPGPU-Sim PTX:  7 (potential) branch divergence @  PC=0x2f8 (_1.ptx:194) @%p6 bra $Lt_1_5634;
GPGPU-Sim PTX:    immediate post dominator      @  PC=0x300 (_1.ptx:195) bra.uni $Lt_1_4610;
GPGPU-Sim PTX:  8 (potential) branch divergence @  PC=0x300 (_1.ptx:195) bra.uni $Lt_1_4610;
GPGPU-Sim PTX:    immediate post dominator      @  PC=0x320 (_1.ptx:202) @!%p1 bra $Lt_1_7682;
GPGPU-Sim PTX:  9 (potential) branch divergence @  PC=0x310 (_1.ptx:198) bra.uni $Lt_1_4610;
GPGPU-Sim PTX:    immediate post dominator      @  PC=0x320 (_1.ptx:202) @!%p1 bra $Lt_1_7682;
GPGPU-Sim PTX: 10 (potential) branch divergence @  PC=0x320 (_1.ptx:202) @!%p1 bra $Lt_1_7682;
GPGPU-Sim PTX:    immediate post dominator      @  PC=0x350 (_1.ptx:211) exit;
GPGPU-Sim PTX: ... end of reconvergence points for _Z11kmeansPointPfiiiPiS_S_S0_
GPGPU-Sim PTX: ... done pre-decoding instructions for '_Z11kmeansPointPfiiiPiS_S_S0_'.
GPGPU-Sim PTX: allocating global region for "t_features" from 0x100 to 0x104 (global memory space)
GPGPU-Sim PTX: allocating global region for "t_features_flipped" from 0x104 to 0x108 (global memory space)
GPGPU-Sim PTX: allocating global region for "t_clusters" from 0x108 to 0x10c (global memory space)
GPGPU-Sim PTX: finished parsing EMBEDDED .ptx file _1.ptx
Adding _cuobjdump_1.ptx with cubin handle 1
GPGPU-Sim PTX: extracting embedded .ptx to temporary file "_ptx_LfQPfl"
Running: cat _ptx_LfQPfl | sed 's/.version 1.5/.version 1.4/' | sed 's/, texmode_independent//' | sed 's/\(\.extern \.const\[1\] .b8 \w\+\)\[\]/\1\[1\]/' | sed 's/const\[.\]/const\[0\]/g' > _ptx2_gwsbJI
GPGPU-Sim PTX: generating ptxinfo using "$CUDA_INSTALL_PATH/bin/ptxas --gpu-name=sm_20 -v _ptx2_gwsbJI --output-file  /dev/null 2> _ptx_LfQPflinfo"
GPGPU-Sim PTX: Kernel '_Z11kmeansPointPfiiiPiS_S_S0_' : regs=15, lmem=0, smem=0, cmem=88
GPGPU-Sim PTX: Kernel '_Z14invert_mappingPfS_ii' : regs=10, lmem=0, smem=0, cmem=56
GPGPU-Sim PTX: removing ptxinfo using "rm -f _ptx_LfQPfl _ptx2_gwsbJI _ptx_LfQPflinfo"
GPGPU-Sim PTX: loading globals with explicit initializers... 
GPGPU-Sim PTX: finished loading globals (0 bytes total).
GPGPU-Sim PTX: loading constants with explicit initializers...  done.
GPGPU-Sim PTX: __cudaRegisterFunction _Z14invert_mappingPfS_ii : hostFun 0x0x4028ce, fat_cubin_handle = 1
GPGPU-Sim PTX: in __cudaRegisterTexture:
GPGPU-Sim PTX:   int dim = 1
GPGPU-Sim PTX:   int norm = 0
GPGPU-Sim PTX:   int ext = 0
GPGPU-Sim PTX:   Execution warning: Not finished implementing "void __cudaRegisterTexture(void**, const textureReference*, const void**, const char*, int, int, int)"
GPGPU-Sim PTX: in __cudaRegisterTexture:
GPGPU-Sim PTX:   int dim = 1
GPGPU-Sim PTX:   int norm = 0
GPGPU-Sim PTX:   int ext = 0
GPGPU-Sim PTX:   Execution warning: Not finished implementing "void __cudaRegisterTexture(void**, const textureReference*, const void**, const char*, int, int, int)"
GPGPU-Sim PTX: in __cudaRegisterTexture:
GPGPU-Sim PTX:   int dim = 1
GPGPU-Sim PTX:   int norm = 0
GPGPU-Sim PTX:   int ext = 0
GPGPU-Sim PTX:   Execution warning: Not finished implementing "void __cudaRegisterTexture(void**, const textureReference*, const void**, const char*, int, int, int)"

I/O completed

Number of objects: 28672
Number of features: 138

GPGPU-Sim PTX: cudaLaunch for 0x0x402a5e (mode=performance simulation) on stream 0
GPGPU-Sim PTX: pushing kernel '_Z11kmeansPointPfiiiPiS_S_S0_' to stream 0, gridDim= (11,11,1) blockDim = (256,1,1) 
kernel '_Z11kmeansPointPfiiiPiS_S_S0_' transfer to GPU hardware scheduler
GPGPU-Sim uArch: Shader 1 bind to kernel 1 '_Z11kmeansPointPfiiiPiS_S_S0_'
GPGPU-Sim uArch: CTA/core = 6, limited by: threads
GPGPU-Sim uArch: core:  1, cta: 0 initialized @(1,0)
GPGPU-Sim uArch: Shader 2 bind to kernel 1 '_Z11kmeansPointPfiiiPiS_S_S0_'
GPGPU-Sim uArch: core:  2, cta: 0 initialized @(1,0)
GPGPU-Sim uArch: Shader 3 bind to kernel 1 '_Z11kmeansPointPfiiiPiS_S_S0_'
GPGPU-Sim uArch: core:  3, cta: 0 initialized @(1,0)
GPGPU-Sim uArch: Shader 4 bind to kernel 1 '_Z11kmeansPointPfiiiPiS_S_S0_'
GPGPU-Sim uArch: core:  4, cta: 0 initialized @(1,0)
GPGPU-Sim uArch: Shader 5 bind to kernel 1 '_Z11kmeansPointPfiiiPiS_S_S0_'
GPGPU-Sim uArch: core:  5, cta: 0 initialized @(1,0)
GPGPU-Sim uArch: Shader 6 bind to kernel 1 '_Z11kmeansPointPfiiiPiS_S_S0_'
GPGPU-Sim uArch: core:  6, cta: 0 initialized @(1,0)
GPGPU-Sim uArch: Shader 7 bind to kernel 1 '_Z11kmeansPointPfiiiPiS_S_S0_'
GPGPU-Sim uArch: core:  7, cta: 0 initialized @(1,0)
GPGPU-Sim uArch: Shader 8 bind to kernel 1 '_Z11kmeansPointPfiiiPiS_S_S0_'
GPGPU-Sim uArch: core:  8, cta: 0 initialized @(1,0)
GPGPU-Sim uArch: Shader 9 bind to kernel 1 '_Z11kmeansPointPfiiiPiS_S_S0_'
GPGPU-Sim uArch: core:  9, cta: 0 initialized @(1,0)
GPGPU-Sim uArch: Shader 10 bind to kernel 1 '_Z11kmeansPointPfiiiPiS_S_S0_'
GPGPU-Sim uArch: core: 10, cta: 0 initialized @(1,0)
GPGPU-Sim uArch: Shader 11 bind to kernel 1 '_Z11kmeansPointPfiiiPiS_S_S0_'
GPGPU-Sim uArch: core: 11, cta: 0 initialized @(1,0)
GPGPU-Sim uArch: Shader 12 bind to kernel 1 '_Z11kmeansPointPfiiiPiS_S_S0_'
GPGPU-Sim uArch: core: 12, cta: 0 initialized @(1,0)
GPGPU-Sim uArch: Shader 13 bind to kernel 1 '_Z11kmeansPointPfiiiPiS_S_S0_'
GPGPU-Sim uArch: core: 13, cta: 0 initialized @(1,0)
GPGPU-Sim uArch: Shader 14 bind to kernel 1 '_Z11kmeansPointPfiiiPiS_S_S0_'
GPGPU-Sim uArch: core: 14, cta: 0 initialized @(1,0)
GPGPU-Sim uArch: Shader 0 bind to kernel 1 '_Z11kmeansPointPfiiiPiS_S_S0_'
GPGPU-Sim uArch: core:  0, cta: 0 initialized @(1,0)
GPGPU-Sim uArch: core:  1, cta: 1 initialized @(2,0)
GPGPU-Sim uArch: core:  2, cta: 1 initialized @(2,0)
GPGPU-Sim uArch: core:  3, cta: 1 initialized @(2,0)
GPGPU-Sim uArch: core:  4, cta: 1 initialized @(2,0)
GPGPU-Sim uArch: core:  5, cta: 1 initialized @(2,0)
GPGPU-Sim uArch: core:  6, cta: 1 initialized @(2,0)
GPGPU-Sim uArch: core:  7, cta: 1 initialized @(2,0)
GPGPU-Sim uArch: core:  8, cta: 1 initialized @(2,0)
GPGPU-Sim uArch: core:  9, cta: 1 initialized @(2,0)
GPGPU-Sim uArch: core: 10, cta: 1 initialized @(2,0)
GPGPU-Sim uArch: core: 11, cta: 1 initialized @(2,0)
GPGPU-Sim uArch: core: 12, cta: 1 initialized @(2,0)
GPGPU-Sim uArch: core: 13, cta: 1 initialized @(2,0)
GPGPU-Sim uArch: core: 14, cta: 1 initialized @(2,0)
GPGPU-Sim uArch: core:  0, cta: 1 initialized @(2,0)
GPGPU-Sim uArch: core:  1, cta: 2 initialized @(3,0)
GPGPU-Sim uArch: core:  2, cta: 2 initialized @(3,0)
GPGPU-Sim uArch: core:  3, cta: 2 initialized @(3,0)
GPGPU-Sim uArch: core:  4, cta: 2 initialized @(3,0)
GPGPU-Sim uArch: core:  5, cta: 2 initialized @(3,0)
GPGPU-Sim uArch: core:  6, cta: 2 initialized @(3,0)
GPGPU-Sim uArch: core:  7, cta: 2 initialized @(3,0)
GPGPU-Sim uArch: core:  8, cta: 2 initialized @(3,0)
GPGPU-Sim uArch: core:  9, cta: 2 initialized @(3,0)
GPGPU-Sim uArch: core: 10, cta: 2 initialized @(3,0)
GPGPU-Sim uArch: core: 11, cta: 2 initialized @(3,0)
GPGPU-Sim uArch: core: 12, cta: 2 initialized @(3,0)
GPGPU-Sim uArch: core: 13, cta: 2 initialized @(3,0)
GPGPU-Sim uArch: core: 14, cta: 2 initialized @(3,0)
GPGPU-Sim uArch: core:  0, cta: 2 initialized @(3,0)
GPGPU-Sim uArch: core:  1, cta: 3 initialized @(4,0)
GPGPU-Sim uArch: core:  2, cta: 3 initialized @(4,0)
GPGPU-Sim uArch: core:  3, cta: 3 initialized @(4,0)
GPGPU-Sim uArch: core:  4, cta: 3 initialized @(4,0)
GPGPU-Sim uArch: core:  5, cta: 3 initialized @(4,0)
GPGPU-Sim uArch: core:  6, cta: 3 initialized @(4,0)
GPGPU-Sim uArch: core:  7, cta: 3 initialized @(4,0)
GPGPU-Sim uArch: core:  8, cta: 3 initialized @(4,0)
GPGPU-Sim uArch: core:  9, cta: 3 initialized @(4,0)
GPGPU-Sim uArch: core: 10, cta: 3 initialized @(4,0)
GPGPU-Sim uArch: core: 11, cta: 3 initialized @(4,0)
GPGPU-Sim uArch: core: 12, cta: 3 initialized @(4,0)
GPGPU-Sim uArch: core: 13, cta: 3 initialized @(4,0)
GPGPU-Sim uArch: core: 14, cta: 3 initialized @(4,0)
GPGPU-Sim uArch: core:  0, cta: 3 initialized @(4,0)
GPGPU-Sim uArch: core:  1, cta: 4 initialized @(5,0)
GPGPU-Sim uArch: core:  2, cta: 4 initialized @(5,0)
GPGPU-Sim uArch: core:  3, cta: 4 initialized @(5,0)
GPGPU-Sim uArch: core:  4, cta: 4 initialized @(5,0)
GPGPU-Sim uArch: core:  5, cta: 4 initialized @(5,0)
GPGPU-Sim uArch: core:  6, cta: 4 initialized @(5,0)
GPGPU-Sim uArch: core:  7, cta: 4 initialized @(5,0)
GPGPU-Sim uArch: core:  8, cta: 4 initialized @(5,0)
GPGPU-Sim uArch: core:  9, cta: 4 initialized @(5,0)
GPGPU-Sim uArch: core: 10, cta: 4 initialized @(5,0)
GPGPU-Sim uArch: core: 11, cta: 4 initialized @(5,0)
GPGPU-Sim uArch: core: 12, cta: 4 initialized @(5,0)
GPGPU-Sim uArch: core: 13, cta: 4 initialized @(5,0)
GPGPU-Sim uArch: core: 14, cta: 4 initialized @(5,0)
GPGPU-Sim uArch: core:  0, cta: 4 initialized @(5,0)
GPGPU-Sim uArch: core:  1, cta: 5 initialized @(6,0)
GPGPU-Sim uArch: core:  2, cta: 5 initialized @(6,0)
GPGPU-Sim uArch: core:  3, cta: 5 initialized @(6,0)
GPGPU-Sim uArch: core:  4, cta: 5 initialized @(6,0)
GPGPU-Sim uArch: core:  5, cta: 5 initialized @(6,0)
GPGPU-Sim uArch: core:  6, cta: 5 initialized @(6,0)
GPGPU-Sim uArch: core:  7, cta: 5 initialized @(6,0)
GPGPU-Sim uArch: core:  8, cta: 5 initialized @(6,0)
GPGPU-Sim uArch: core:  9, cta: 5 initialized @(6,0)
GPGPU-Sim uArch: core: 10, cta: 5 initialized @(6,0)
GPGPU-Sim uArch: core: 11, cta: 5 initialized @(6,0)
GPGPU-Sim uArch: core: 12, cta: 5 initialized @(6,0)
GPGPU-Sim uArch: core: 13, cta: 5 initialized @(6,0)
GPGPU-Sim uArch: core: 14, cta: 5 initialized @(6,0)
GPGPU-Sim uArch: core:  0, cta: 5 initialized @(6,0)
GPGPU-Sim uArch: cycles simulated: 500  inst.: 42240 (ipc=84.5) sim_rate=4224 (inst/sec) elapsed = 0:0:00:10 / Tue Mar 22 12:46:22 2016
GPGPU-Sim uArch: cycles simulated: 1000  inst.: 84864 (ipc=84.9) sim_rate=7714 (inst/sec) elapsed = 0:0:00:11 / Tue Mar 22 12:46:23 2016
GPGPU-Sim PTX: 100000 instructions simulated : ctaid=(1,1,0) tid=(127,0,0)
GPGPU-Sim uArch: cycles simulated: 1500  inst.: 153600 (ipc=102.4) sim_rate=4654 (inst/sec) elapsed = 0:0:00:33 / Tue Mar 22 12:46:45 2016
GPGPU-Sim uArch: cycles simulated: 2500  inst.: 155328 (ipc=62.1) sim_rate=4568 (inst/sec) elapsed = 0:0:00:34 / Tue Mar 22 12:46:46 2016
GPGPU-Sim uArch: cycles simulated: 4000  inst.: 177088 (ipc=44.3) sim_rate=5059 (inst/sec) elapsed = 0:0:00:35 / Tue Mar 22 12:46:47 2016
GPGPU-Sim PTX: 200000 instructions simulated : ctaid=(7,0,0) tid=(31,0,0)
GPGPU-Sim uArch: cycles simulated: 6000  inst.: 210048 (ipc=35.0) sim_rate=5834 (inst/sec) elapsed = 0:0:00:36 / Tue Mar 22 12:46:48 2016
GPGPU-Sim uArch: cycles simulated: 7500  inst.: 230400 (ipc=30.7) sim_rate=6227 (inst/sec) elapsed = 0:0:00:37 / Tue Mar 22 12:46:49 2016
GPGPU-Sim uArch: cycles simulated: 9500  inst.: 264544 (ipc=27.8) sim_rate=6961 (inst/sec) elapsed = 0:0:00:38 / Tue Mar 22 12:46:50 2016
GPGPU-Sim PTX: 300000 instructions simulated : ctaid=(1,0,0) tid=(63,0,0)
GPGPU-Sim uArch: cycles simulated: 11000  inst.: 294144 (ipc=26.7) sim_rate=7542 (inst/sec) elapsed = 0:0:00:39 / Tue Mar 22 12:46:51 2016
GPGPU-Sim uArch: cycles simulated: 12500  inst.: 325888 (ipc=26.1) sim_rate=8147 (inst/sec) elapsed = 0:0:00:40 / Tue Mar 22 12:46:52 2016
GPGPU-Sim uArch: cycles simulated: 14000  inst.: 353184 (ipc=25.2) sim_rate=8614 (inst/sec) elapsed = 0:0:00:41 / Tue Mar 22 12:46:53 2016
GPGPU-Sim uArch: cycles simulated: 15500  inst.: 381472 (ipc=24.6) sim_rate=9082 (inst/sec) elapsed = 0:0:00:42 / Tue Mar 22 12:46:54 2016
GPGPU-Sim PTX: 400000 instructions simulated : ctaid=(2,0,0) tid=(63,0,0)
GPGPU-Sim uArch: cycles simulated: 16500  inst.: 402944 (ipc=24.4) sim_rate=9370 (inst/sec) elapsed = 0:0:00:43 / Tue Mar 22 12:46:55 2016
GPGPU-Sim uArch: cycles simulated: 18000  inst.: 430848 (ipc=23.9) sim_rate=9792 (inst/sec) elapsed = 0:0:00:44 / Tue Mar 22 12:46:56 2016
GPGPU-Sim uArch: cycles simulated: 19500  inst.: 458272 (ipc=23.5) sim_rate=10183 (inst/sec) elapsed = 0:0:00:45 / Tue Mar 22 12:46:57 2016
GPGPU-Sim uArch: cycles simulated: 21000  inst.: 481984 (ipc=23.0) sim_rate=10477 (inst/sec) elapsed = 0:0:00:46 / Tue Mar 22 12:46:58 2016
GPGPU-Sim PTX: 500000 instructions simulated : ctaid=(4,0,0) tid=(95,0,0)
GPGPU-Sim uArch: cycles simulated: 23000  inst.: 523232 (ipc=22.7) sim_rate=11132 (inst/sec) elapsed = 0:0:00:47 / Tue Mar 22 12:46:59 2016
GPGPU-Sim uArch: cycles simulated: 24500  inst.: 550304 (ipc=22.5) sim_rate=11464 (inst/sec) elapsed = 0:0:00:48 / Tue Mar 22 12:47:00 2016
GPGPU-Sim uArch: cycles simulated: 26000  inst.: 577440 (ipc=22.2) sim_rate=11784 (inst/sec) elapsed = 0:0:00:49 / Tue Mar 22 12:47:01 2016
GPGPU-Sim PTX: 600000 instructions simulated : ctaid=(2,1,0) tid=(127,0,0)
GPGPU-Sim uArch: cycles simulated: 28000  inst.: 618432 (ipc=22.1) sim_rate=12368 (inst/sec) elapsed = 0:0:00:50 / Tue Mar 22 12:47:02 2016
GPGPU-Sim uArch: cycles simulated: 29500  inst.: 645728 (ipc=21.9) sim_rate=12661 (inst/sec) elapsed = 0:0:00:51 / Tue Mar 22 12:47:03 2016
GPGPU-Sim uArch: cycles simulated: 31000  inst.: 673760 (ipc=21.7) sim_rate=12956 (inst/sec) elapsed = 0:0:00:52 / Tue Mar 22 12:47:04 2016
GPGPU-Sim PTX: 700000 instructions simulated : ctaid=(1,1,0) tid=(159,0,0)
GPGPU-Sim uArch: cycles simulated: 33000  inst.: 712064 (ipc=21.6) sim_rate=13435 (inst/sec) elapsed = 0:0:00:53 / Tue Mar 22 12:47:05 2016
GPGPU-Sim uArch: cycles simulated: 34500  inst.: 743552 (ipc=21.6) sim_rate=13769 (inst/sec) elapsed = 0:0:00:54 / Tue Mar 22 12:47:06 2016
GPGPU-Sim uArch: cycles simulated: 36000  inst.: 771584 (ipc=21.4) sim_rate=14028 (inst/sec) elapsed = 0:0:00:55 / Tue Mar 22 12:47:07 2016
GPGPU-Sim PTX: 800000 instructions simulated : ctaid=(3,0,0) tid=(127,0,0)
GPGPU-Sim uArch: cycles simulated: 37500  inst.: 804736 (ipc=21.5) sim_rate=14370 (inst/sec) elapsed = 0:0:00:56 / Tue Mar 22 12:47:08 2016
GPGPU-Sim uArch: cycles simulated: 39500  inst.: 836480 (ipc=21.2) sim_rate=14675 (inst/sec) elapsed = 0:0:00:57 / Tue Mar 22 12:47:09 2016
GPGPU-Sim uArch: cycles simulated: 41000  inst.: 861088 (ipc=21.0) sim_rate=14846 (inst/sec) elapsed = 0:0:00:58 / Tue Mar 22 12:47:10 2016
GPGPU-Sim PTX: 900000 instructions simulated : ctaid=(0,1,0) tid=(159,0,0)
GPGPU-Sim uArch: cycles simulated: 43000  inst.: 898976 (ipc=20.9) sim_rate=15236 (inst/sec) elapsed = 0:0:00:59 / Tue Mar 22 12:47:11 2016
GPGPU-Sim uArch: cycles simulated: 44500  inst.: 930400 (ipc=20.9) sim_rate=15506 (inst/sec) elapsed = 0:0:01:00 / Tue Mar 22 12:47:12 2016
GPGPU-Sim uArch: cycles simulated: 46000  inst.: 954720 (ipc=20.8) sim_rate=15651 (inst/sec) elapsed = 0:0:01:01 / Tue Mar 22 12:47:13 2016
GPGPU-Sim uArch: cycles simulated: 47500  inst.: 984864 (ipc=20.7) sim_rate=15884 (inst/sec) elapsed = 0:0:01:02 / Tue Mar 22 12:47:14 2016
GPGPU-Sim PTX: 1000000 instructions simulated : ctaid=(1,0,0) tid=(95,0,0)
GPGPU-Sim uArch: cycles simulated: 49500  inst.: 1020736 (ipc=20.6) sim_rate=16202 (inst/sec) elapsed = 0:0:01:03 / Tue Mar 22 12:47:15 2016
GPGPU-Sim uArch: cycles simulated: 51000  inst.: 1052608 (ipc=20.6) sim_rate=16447 (inst/sec) elapsed = 0:0:01:04 / Tue Mar 22 12:47:16 2016
GPGPU-Sim uArch: cycles simulated: 52500  inst.: 1081344 (ipc=20.6) sim_rate=16636 (inst/sec) elapsed = 0:0:01:05 / Tue Mar 22 12:47:17 2016
GPGPU-Sim PTX: 1100000 instructions simulated : ctaid=(5,0,0) tid=(31,0,0)
GPGPU-Sim uArch: cycles simulated: 54500  inst.: 1124160 (ipc=20.6) sim_rate=17032 (inst/sec) elapsed = 0:0:01:06 / Tue Mar 22 12:47:18 2016
GPGPU-Sim uArch: cycles simulated: 56000  inst.: 1155296 (ipc=20.6) sim_rate=17243 (inst/sec) elapsed = 0:0:01:07 / Tue Mar 22 12:47:19 2016
GPGPU-Sim uArch: cycles simulated: 57500  inst.: 1183904 (ipc=20.6) sim_rate=17410 (inst/sec) elapsed = 0:0:01:08 / Tue Mar 22 12:47:20 2016
GPGPU-Sim PTX: 1200000 instructions simulated : ctaid=(1,1,0) tid=(159,0,0)
GPGPU-Sim uArch: cycles simulated: 59500  inst.: 1217056 (ipc=20.5) sim_rate=17638 (inst/sec) elapsed = 0:0:01:09 / Tue Mar 22 12:47:21 2016
GPGPU-Sim uArch: cycles simulated: 61000  inst.: 1247232 (ipc=20.4) sim_rate=17817 (inst/sec) elapsed = 0:0:01:10 / Tue Mar 22 12:47:22 2016
GPGPU-Sim uArch: cycles simulated: 62500  inst.: 1270240 (ipc=20.3) sim_rate=17890 (inst/sec) elapsed = 0:0:01:11 / Tue Mar 22 12:47:23 2016
GPGPU-Sim PTX: 1300000 instructions simulated : ctaid=(2,0,0) tid=(223,0,0)
GPGPU-Sim uArch: cycles simulated: 64500  inst.: 1308864 (ipc=20.3) sim_rate=18178 (inst/sec) elapsed = 0:0:01:12 / Tue Mar 22 12:47:24 2016
GPGPU-Sim uArch: cycles simulated: 66000  inst.: 1332384 (ipc=20.2) sim_rate=18251 (inst/sec) elapsed = 0:0:01:13 / Tue Mar 22 12:47:25 2016
GPGPU-Sim uArch: cycles simulated: 67500  inst.: 1362432 (ipc=20.2) sim_rate=18411 (inst/sec) elapsed = 0:0:01:14 / Tue Mar 22 12:47:26 2016
GPGPU-Sim PTX: 1400000 instructions simulated : ctaid=(5,0,0) tid=(191,0,0)
GPGPU-Sim uArch: cycles simulated: 69000  inst.: 1391488 (ipc=20.2) sim_rate=18553 (inst/sec) elapsed = 0:0:01:15 / Tue Mar 22 12:47:27 2016
GPGPU-Sim uArch: cycles simulated: 71000  inst.: 1428608 (ipc=20.1) sim_rate=18797 (inst/sec) elapsed = 0:0:01:16 / Tue Mar 22 12:47:28 2016
GPGPU-Sim uArch: cycles simulated: 72500  inst.: 1454208 (ipc=20.1) sim_rate=18885 (inst/sec) elapsed = 0:0:01:17 / Tue Mar 22 12:47:29 2016
GPGPU-Sim uArch: cycles simulated: 74000  inst.: 1482976 (ipc=20.0) sim_rate=19012 (inst/sec) elapsed = 0:0:01:18 / Tue Mar 22 12:47:30 2016
GPGPU-Sim PTX: 1500000 instructions simulated : ctaid=(3,0,0) tid=(95,0,0)
GPGPU-Sim uArch: cycles simulated: 76000  inst.: 1523072 (ipc=20.0) sim_rate=19279 (inst/sec) elapsed = 0:0:01:19 / Tue Mar 22 12:47:31 2016
GPGPU-Sim uArch: cycles simulated: 77500  inst.: 1549312 (ipc=20.0) sim_rate=19366 (inst/sec) elapsed = 0:0:01:20 / Tue Mar 22 12:47:32 2016
GPGPU-Sim PTX: 1600000 instructions simulated : ctaid=(1,0,0) tid=(255,0,0)
GPGPU-Sim uArch: cycles simulated: 79500  inst.: 1589952 (ipc=20.0) sim_rate=19629 (inst/sec) elapsed = 0:0:01:21 / Tue Mar 22 12:47:33 2016
GPGPU-Sim uArch: cycles simulated: 81000  inst.: 1619328 (ipc=20.0) sim_rate=19747 (inst/sec) elapsed = 0:0:01:22 / Tue Mar 22 12:47:34 2016
GPGPU-Sim uArch: cycles simulated: 82500  inst.: 1644096 (ipc=19.9) sim_rate=19808 (inst/sec) elapsed = 0:0:01:23 / Tue Mar 22 12:47:35 2016
GPGPU-Sim uArch: cycles simulated: 84500  inst.: 1682240 (ipc=19.9) sim_rate=20026 (inst/sec) elapsed = 0:0:01:24 / Tue Mar 22 12:47:36 2016
GPGPU-Sim PTX: 1700000 instructions simulated : ctaid=(0,1,0) tid=(127,0,0)
GPGPU-Sim uArch: cycles simulated: 86000  inst.: 1708672 (ipc=19.9) sim_rate=20102 (inst/sec) elapsed = 0:0:01:25 / Tue Mar 22 12:47:37 2016
GPGPU-Sim uArch: cycles simulated: 87500  inst.: 1739424 (ipc=19.9) sim_rate=20225 (inst/sec) elapsed = 0:0:01:26 / Tue Mar 22 12:47:38 2016
GPGPU-Sim uArch: cycles simulated: 89000  inst.: 1765888 (ipc=19.8) sim_rate=20297 (inst/sec) elapsed = 0:0:01:27 / Tue Mar 22 12:47:39 2016
GPGPU-Sim PTX: 1800000 instructions simulated : ctaid=(1,0,0) tid=(159,0,0)
GPGPU-Sim uArch: cycles simulated: 90500  inst.: 1792480 (ipc=19.8) sim_rate=20369 (inst/sec) elapsed = 0:0:01:28 / Tue Mar 22 12:47:40 2016
GPGPU-Sim uArch: cycles simulated: 92000  inst.: 1822272 (ipc=19.8) sim_rate=20474 (inst/sec) elapsed = 0:0:01:29 / Tue Mar 22 12:47:41 2016
GPGPU-Sim uArch: cycles simulated: 93500  inst.: 1848352 (ipc=19.8) sim_rate=20537 (inst/sec) elapsed = 0:0:01:30 / Tue Mar 22 12:47:42 2016
GPGPU-Sim uArch: cycles simulated: 95500  inst.: 1884320 (ipc=19.7) sim_rate=20706 (inst/sec) elapsed = 0:0:01:31 / Tue Mar 22 12:47:43 2016
GPGPU-Sim PTX: 1900000 instructions simulated : ctaid=(3,1,0) tid=(95,0,0)
GPGPU-Sim uArch: cycles simulated: 97000  inst.: 1912128 (ipc=19.7) sim_rate=20784 (inst/sec) elapsed = 0:0:01:32 / Tue Mar 22 12:47:44 2016
GPGPU-Sim uArch: cycles simulated: 98500  inst.: 1934592 (ipc=19.6) sim_rate=20802 (inst/sec) elapsed = 0:0:01:33 / Tue Mar 22 12:47:45 2016
GPGPU-Sim uArch: cycles simulated: 100000  inst.: 1964224 (ipc=19.6) sim_rate=20896 (inst/sec) elapsed = 0:0:01:34 / Tue Mar 22 12:47:46 2016
GPGPU-Sim PTX: 2000000 instructions simulated : ctaid=(3,1,0) tid=(223,0,0)
GPGPU-Sim uArch: cycles simulated: 101500  inst.: 1992448 (ipc=19.6) sim_rate=20973 (inst/sec) elapsed = 0:0:01:35 / Tue Mar 22 12:47:47 2016
GPGPU-Sim uArch: cycles simulated: 103000  inst.: 2019808 (ipc=19.6) sim_rate=21039 (inst/sec) elapsed = 0:0:01:36 / Tue Mar 22 12:47:48 2016
GPGPU-Sim uArch: cycles simulated: 104500  inst.: 2046912 (ipc=19.6) sim_rate=21102 (inst/sec) elapsed = 0:0:01:37 / Tue Mar 22 12:47:49 2016
GPGPU-Sim uArch: cycles simulated: 106000  inst.: 2079456 (ipc=19.6) sim_rate=21218 (inst/sec) elapsed = 0:0:01:38 / Tue Mar 22 12:47:50 2016
GPGPU-Sim PTX: 2100000 instructions simulated : ctaid=(3,1,0) tid=(95,0,0)
GPGPU-Sim uArch: cycles simulated: 107500  inst.: 2105824 (ipc=19.6) sim_rate=21270 (inst/sec) elapsed = 0:0:01:39 / Tue Mar 22 12:47:51 2016
GPGPU-Sim uArch: cycles simulated: 109000  inst.: 2133504 (ipc=19.6) sim_rate=21335 (inst/sec) elapsed = 0:0:01:40 / Tue Mar 22 12:47:52 2016
GPGPU-Sim uArch: cycles simulated: 110000  inst.: 2151552 (ipc=19.6) sim_rate=21302 (inst/sec) elapsed = 0:0:01:41 / Tue Mar 22 12:47:53 2016
GPGPU-Sim uArch: cycles simulated: 111500  inst.: 2177856 (ipc=19.5) sim_rate=21351 (inst/sec) elapsed = 0:0:01:42 / Tue Mar 22 12:47:54 2016
GPGPU-Sim PTX: 2200000 instructions simulated : ctaid=(6,0,0) tid=(159,0,0)
GPGPU-Sim uArch: cycles simulated: 113500  inst.: 2217472 (ipc=19.5) sim_rate=21528 (inst/sec) elapsed = 0:0:01:43 / Tue Mar 22 12:47:55 2016
GPGPU-Sim uArch: cycles simulated: 115500  inst.: 2249696 (ipc=19.5) sim_rate=21631 (inst/sec) elapsed = 0:0:01:44 / Tue Mar 22 12:47:56 2016
GPGPU-Sim uArch: cycles simulated: 117000  inst.: 2274304 (ipc=19.4) sim_rate=21660 (inst/sec) elapsed = 0:0:01:45 / Tue Mar 22 12:47:57 2016
GPGPU-Sim PTX: 2300000 instructions simulated : ctaid=(3,0,0) tid=(127,0,0)
GPGPU-Sim uArch: cycles simulated: 119000  inst.: 2309632 (ipc=19.4) sim_rate=21788 (inst/sec) elapsed = 0:0:01:46 / Tue Mar 22 12:47:58 2016
GPGPU-Sim uArch: cycles simulated: 121000  inst.: 2340928 (ipc=19.3) sim_rate=21877 (inst/sec) elapsed = 0:0:01:47 / Tue Mar 22 12:47:59 2016
GPGPU-Sim uArch: cycles simulated: 123000  inst.: 2376672 (ipc=19.3) sim_rate=22006 (inst/sec) elapsed = 0:0:01:48 / Tue Mar 22 12:48:00 2016
GPGPU-Sim PTX: 2400000 instructions simulated : ctaid=(4,0,0) tid=(159,0,0)
GPGPU-Sim uArch: cycles simulated: 125000  inst.: 2411520 (ipc=19.3) sim_rate=22124 (inst/sec) elapsed = 0:0:01:49 / Tue Mar 22 12:48:01 2016
GPGPU-Sim uArch: cycles simulated: 126500  inst.: 2441376 (ipc=19.3) sim_rate=22194 (inst/sec) elapsed = 0:0:01:50 / Tue Mar 22 12:48:02 2016
GPGPU-Sim uArch: cycles simulated: 128000  inst.: 2466304 (ipc=19.3) sim_rate=22218 (inst/sec) elapsed = 0:0:01:51 / Tue Mar 22 12:48:03 2016
GPGPU-Sim PTX: 2500000 instructions simulated : ctaid=(2,0,0) tid=(255,0,0)
GPGPU-Sim uArch: cycles simulated: 129500  inst.: 2493824 (ipc=19.3) sim_rate=22266 (inst/sec) elapsed = 0:0:01:52 / Tue Mar 22 12:48:04 2016
GPGPU-Sim uArch: cycles simulated: 131000  inst.: 2516736 (ipc=19.2) sim_rate=22272 (inst/sec) elapsed = 0:0:01:53 / Tue Mar 22 12:48:05 2016
GPGPU-Sim uArch: cycles simulated: 133000  inst.: 2552448 (ipc=19.2) sim_rate=22389 (inst/sec) elapsed = 0:0:01:54 / Tue Mar 22 12:48:06 2016
GPGPU-Sim uArch: cycles simulated: 134500  inst.: 2579520 (ipc=19.2) sim_rate=22430 (inst/sec) elapsed = 0:0:01:55 / Tue Mar 22 12:48:07 2016
GPGPU-Sim PTX: 2600000 instructions simulated : ctaid=(7,0,0) tid=(95,0,0)
GPGPU-Sim uArch: cycles simulated: 136000  inst.: 2609248 (ipc=19.2) sim_rate=22493 (inst/sec) elapsed = 0:0:01:56 / Tue Mar 22 12:48:08 2016
GPGPU-Sim uArch: cycles simulated: 138000  inst.: 2646656 (ipc=19.2) sim_rate=22620 (inst/sec) elapsed = 0:0:01:57 / Tue Mar 22 12:48:09 2016
GPGPU-Sim uArch: cycles simulated: 139500  inst.: 2674144 (ipc=19.2) sim_rate=22662 (inst/sec) elapsed = 0:0:01:58 / Tue Mar 22 12:48:10 2016
GPGPU-Sim PTX: 2700000 instructions simulated : ctaid=(2,0,0) tid=(31,0,0)
GPGPU-Sim uArch: cycles simulated: 141000  inst.: 2700992 (ipc=19.2) sim_rate=22697 (inst/sec) elapsed = 0:0:01:59 / Tue Mar 22 12:48:11 2016
GPGPU-Sim uArch: cycles simulated: 142500  inst.: 2728384 (ipc=19.1) sim_rate=22736 (inst/sec) elapsed = 0:0:02:00 / Tue Mar 22 12:48:12 2016
GPGPU-Sim uArch: cycles simulated: 144500  inst.: 2762080 (ipc=19.1) sim_rate=22827 (inst/sec) elapsed = 0:0:02:01 / Tue Mar 22 12:48:13 2016
GPGPU-Sim PTX: 2800000 instructions simulated : ctaid=(2,1,0) tid=(95,0,0)
GPGPU-Sim uArch: cycles simulated: 146000  inst.: 2789056 (ipc=19.1) sim_rate=22861 (inst/sec) elapsed = 0:0:02:02 / Tue Mar 22 12:48:14 2016
GPGPU-Sim uArch: cycles simulated: 147500  inst.: 2816096 (ipc=19.1) sim_rate=22895 (inst/sec) elapsed = 0:0:02:03 / Tue Mar 22 12:48:15 2016
GPGPU-Sim uArch: cycles simulated: 149500  inst.: 2854752 (ipc=19.1) sim_rate=23022 (inst/sec) elapsed = 0:0:02:04 / Tue Mar 22 12:48:16 2016
GPGPU-Sim uArch: cycles simulated: 151000  inst.: 2882848 (ipc=19.1) sim_rate=23062 (inst/sec) elapsed = 0:0:02:05 / Tue Mar 22 12:48:17 2016
GPGPU-Sim PTX: 2900000 instructions simulated : ctaid=(1,0,0) tid=(223,0,0)
GPGPU-Sim uArch: cycles simulated: 152500  inst.: 2910368 (ipc=19.1) sim_rate=23098 (inst/sec) elapsed = 0:0:02:06 / Tue Mar 22 12:48:18 2016
GPGPU-Sim uArch: cycles simulated: 154500  inst.: 2945536 (ipc=19.1) sim_rate=23193 (inst/sec) elapsed = 0:0:02:07 / Tue Mar 22 12:48:19 2016
GPGPU-Sim uArch: cycles simulated: 156000  inst.: 2973408 (ipc=19.1) sim_rate=23229 (inst/sec) elapsed = 0:0:02:08 / Tue Mar 22 12:48:20 2016
GPGPU-Sim PTX: 3000000 instructions simulated : ctaid=(7,0,0) tid=(95,0,0)
GPGPU-Sim uArch: cycles simulated: 157500  inst.: 3003680 (ipc=19.1) sim_rate=23284 (inst/sec) elapsed = 0:0:02:09 / Tue Mar 22 12:48:21 2016
GPGPU-Sim uArch: cycles simulated: 159000  inst.: 3032320 (ipc=19.1) sim_rate=23325 (inst/sec) elapsed = 0:0:02:10 / Tue Mar 22 12:48:22 2016
GPGPU-Sim uArch: cycles simulated: 160500  inst.: 3055392 (ipc=19.0) sim_rate=23323 (inst/sec) elapsed = 0:0:02:11 / Tue Mar 22 12:48:23 2016
GPGPU-Sim PTX: 3100000 instructions simulated : ctaid=(1,0,0) tid=(95,0,0)
GPGPU-Sim uArch: cycles simulated: 162000  inst.: 3087104 (ipc=19.1) sim_rate=23387 (inst/sec) elapsed = 0:0:02:12 / Tue Mar 22 12:48:24 2016
GPGPU-Sim uArch: cycles simulated: 163500  inst.: 3114144 (ipc=19.0) sim_rate=23414 (inst/sec) elapsed = 0:0:02:13 / Tue Mar 22 12:48:25 2016
GPGPU-Sim uArch: cycles simulated: 165000  inst.: 3145440 (ipc=19.1) sim_rate=23473 (inst/sec) elapsed = 0:0:02:14 / Tue Mar 22 12:48:26 2016
GPGPU-Sim uArch: cycles simulated: 166500  inst.: 3176224 (ipc=19.1) sim_rate=23527 (inst/sec) elapsed = 0:0:02:15 / Tue Mar 22 12:48:27 2016
GPGPU-Sim PTX: 3200000 instructions simulated : ctaid=(0,0,0) tid=(31,0,0)
GPGPU-Sim uArch: cycles simulated: 168500  inst.: 3216096 (ipc=19.1) sim_rate=23647 (inst/sec) elapsed = 0:0:02:16 / Tue Mar 22 12:48:28 2016
GPGPU-Sim uArch: cycles simulated: 170000  inst.: 3245152 (ipc=19.1) sim_rate=23687 (inst/sec) elapsed = 0:0:02:17 / Tue Mar 22 12:48:29 2016
GPGPU-Sim uArch: cycles simulated: 171500  inst.: 3275392 (ipc=19.1) sim_rate=23734 (inst/sec) elapsed = 0:0:02:18 / Tue Mar 22 12:48:30 2016
GPGPU-Sim PTX: 3300000 instructions simulated : ctaid=(5,0,0) tid=(191,0,0)
GPGPU-Sim uArch: cycles simulated: 173000  inst.: 3303264 (ipc=19.1) sim_rate=23764 (inst/sec) elapsed = 0:0:02:19 / Tue Mar 22 12:48:31 2016
GPGPU-Sim uArch: cycles simulated: 175000  inst.: 3343392 (ipc=19.1) sim_rate=23881 (inst/sec) elapsed = 0:0:02:20 / Tue Mar 22 12:48:32 2016
GPGPU-Sim uArch: cycles simulated: 176500  inst.: 3366528 (ipc=19.1) sim_rate=23876 (inst/sec) elapsed = 0:0:02:21 / Tue Mar 22 12:48:33 2016
GPGPU-Sim PTX: 3400000 instructions simulated : ctaid=(10,0,0) tid=(191,0,0)
GPGPU-Sim uArch: cycles simulated: 178000  inst.: 3396736 (ipc=19.1) sim_rate=23920 (inst/sec) elapsed = 0:0:02:22 / Tue Mar 22 12:48:34 2016
GPGPU-Sim uArch: cycles simulated: 179500  inst.: 3426304 (ipc=19.1) sim_rate=23960 (inst/sec) elapsed = 0:0:02:23 / Tue Mar 22 12:48:35 2016
GPGPU-Sim uArch: cycles simulated: 181500  inst.: 3458976 (ipc=19.1) sim_rate=24020 (inst/sec) elapsed = 0:0:02:24 / Tue Mar 22 12:48:36 2016
GPGPU-Sim PTX: 3500000 instructions simulated : ctaid=(3,1,0) tid=(191,0,0)
GPGPU-Sim uArch: cycles simulated: 183000  inst.: 3490208 (ipc=19.1) sim_rate=24070 (inst/sec) elapsed = 0:0:02:25 / Tue Mar 22 12:48:37 2016
GPGPU-Sim uArch: cycles simulated: 184500  inst.: 3518368 (ipc=19.1) sim_rate=24098 (inst/sec) elapsed = 0:0:02:26 / Tue Mar 22 12:48:38 2016
GPGPU-Sim uArch: cycles simulated: 186000  inst.: 3546176 (ipc=19.1) sim_rate=24123 (inst/sec) elapsed = 0:0:02:27 / Tue Mar 22 12:48:39 2016
GPGPU-Sim uArch: cycles simulated: 187500  inst.: 3574528 (ipc=19.1) sim_rate=24152 (inst/sec) elapsed = 0:0:02:28 / Tue Mar 22 12:48:40 2016
GPGPU-Sim PTX: 3600000 instructions simulated : ctaid=(3,0,0) tid=(159,0,0)
GPGPU-Sim uArch: cycles simulated: 189500  inst.: 3613152 (ipc=19.1) sim_rate=24249 (inst/sec) elapsed = 0:0:02:29 / Tue Mar 22 12:48:41 2016
GPGPU-Sim uArch: cycles simulated: 191000  inst.: 3639392 (ipc=19.1) sim_rate=24262 (inst/sec) elapsed = 0:0:02:30 / Tue Mar 22 12:48:42 2016
GPGPU-Sim uArch: cycles simulated: 192500  inst.: 3666848 (ipc=19.0) sim_rate=24283 (inst/sec) elapsed = 0:0:02:31 / Tue Mar 22 12:48:43 2016
GPGPU-Sim PTX: 3700000 instructions simulated : ctaid=(9,0,0) tid=(95,0,0)
GPGPU-Sim uArch: cycles simulated: 194500  inst.: 3705632 (ipc=19.1) sim_rate=24379 (inst/sec) elapsed = 0:0:02:32 / Tue Mar 22 12:48:44 2016
GPGPU-Sim uArch: cycles simulated: 196000  inst.: 3730592 (ipc=19.0) sim_rate=24382 (inst/sec) elapsed = 0:0:02:33 / Tue Mar 22 12:48:45 2016
GPGPU-Sim uArch: cycles simulated: 197500  inst.: 3758240 (ipc=19.0) sim_rate=24404 (inst/sec) elapsed = 0:0:02:34 / Tue Mar 22 12:48:46 2016
GPGPU-Sim PTX: 3800000 instructions simulated : ctaid=(1,1,0) tid=(31,0,0)
GPGPU-Sim uArch: cycles simulated: 199500  inst.: 3794400 (ipc=19.0) sim_rate=24480 (inst/sec) elapsed = 0:0:02:35 / Tue Mar 22 12:48:47 2016
GPGPU-Sim uArch: cycles simulated: 201000  inst.: 3821632 (ipc=19.0) sim_rate=24497 (inst/sec) elapsed = 0:0:02:36 / Tue Mar 22 12:48:48 2016
GPGPU-Sim uArch: cycles simulated: 202500  inst.: 3846400 (ipc=19.0) sim_rate=24499 (inst/sec) elapsed = 0:0:02:37 / Tue Mar 22 12:48:49 2016
GPGPU-Sim uArch: cycles simulated: 204500  inst.: 3880896 (ipc=19.0) sim_rate=24562 (inst/sec) elapsed = 0:0:02:38 / Tue Mar 22 12:48:50 2016
GPGPU-Sim PTX: 3900000 instructions simulated : ctaid=(1,0,0) tid=(63,0,0)
GPGPU-Sim uArch: cycles simulated: 206000  inst.: 3908768 (ipc=19.0) sim_rate=24583 (inst/sec) elapsed = 0:0:02:39 / Tue Mar 22 12:48:51 2016
GPGPU-Sim uArch: cycles simulated: 207500  inst.: 3938144 (ipc=19.0) sim_rate=24613 (inst/sec) elapsed = 0:0:02:40 / Tue Mar 22 12:48:52 2016
GPGPU-Sim uArch: cycles simulated: 209500  inst.: 3974624 (ipc=19.0) sim_rate=24687 (inst/sec) elapsed = 0:0:02:41 / Tue Mar 22 12:48:53 2016
GPGPU-Sim PTX: 4000000 instructions simulated : ctaid=(3,0,0) tid=(95,0,0)
GPGPU-Sim uArch: cycles simulated: 211000  inst.: 4001024 (ipc=19.0) sim_rate=24697 (inst/sec) elapsed = 0:0:02:42 / Tue Mar 22 12:48:54 2016
GPGPU-Sim uArch: cycles simulated: 212500  inst.: 4025120 (ipc=18.9) sim_rate=24693 (inst/sec) elapsed = 0:0:02:43 / Tue Mar 22 12:48:55 2016
GPGPU-Sim uArch: cycles simulated: 214000  inst.: 4054112 (ipc=18.9) sim_rate=24720 (inst/sec) elapsed = 0:0:02:44 / Tue Mar 22 12:48:56 2016
GPGPU-Sim uArch: cycles simulated: 215500  inst.: 4080288 (ipc=18.9) sim_rate=24729 (inst/sec) elapsed = 0:0:02:45 / Tue Mar 22 12:48:57 2016
GPGPU-Sim PTX: 4100000 instructions simulated : ctaid=(0,0,0) tid=(191,0,0)
GPGPU-Sim uArch: cycles simulated: 217000  inst.: 4107616 (ipc=18.9) sim_rate=24744 (inst/sec) elapsed = 0:0:02:46 / Tue Mar 22 12:48:58 2016
GPGPU-Sim uArch: cycles simulated: 218000  inst.: 4122784 (ipc=18.9) sim_rate=24687 (inst/sec) elapsed = 0:0:02:47 / Tue Mar 22 12:48:59 2016
GPGPU-Sim uArch: cycles simulated: 220000  inst.: 4159968 (ipc=18.9) sim_rate=24761 (inst/sec) elapsed = 0:0:02:48 / Tue Mar 22 12:49:00 2016
GPGPU-Sim PTX: 4200000 instructions simulated : ctaid=(5,0,0) tid=(223,0,0)
GPGPU-Sim uArch: cycles simulated: 221500  inst.: 4186304 (ipc=18.9) sim_rate=24771 (inst/sec) elapsed = 0:0:02:49 / Tue Mar 22 12:49:01 2016
GPGPU-Sim uArch: cycles simulated: 222500  inst.: 4202784 (ipc=18.9) sim_rate=24722 (inst/sec) elapsed = 0:0:02:50 / Tue Mar 22 12:49:02 2016
GPGPU-Sim uArch: cycles simulated: 224500  inst.: 4239072 (ipc=18.9) sim_rate=24789 (inst/sec) elapsed = 0:0:02:51 / Tue Mar 22 12:49:03 2016
GPGPU-Sim uArch: cycles simulated: 226000  inst.: 4263520 (ipc=18.9) sim_rate=24787 (inst/sec) elapsed = 0:0:02:52 / Tue Mar 22 12:49:04 2016
GPGPU-Sim PTX: 4300000 instructions simulated : ctaid=(2,1,0) tid=(95,0,0)
GPGPU-Sim uArch: cycles simulated: 227500  inst.: 4286592 (ipc=18.8) sim_rate=24777 (inst/sec) elapsed = 0:0:02:53 / Tue Mar 22 12:49:05 2016
GPGPU-Sim uArch: cycles simulated: 229000  inst.: 4318176 (ipc=18.9) sim_rate=24817 (inst/sec) elapsed = 0:0:02:54 / Tue Mar 22 12:49:06 2016
GPGPU-Sim uArch: cycles simulated: 230500  inst.: 4343168 (ipc=18.8) sim_rate=24818 (inst/sec) elapsed = 0:0:02:55 / Tue Mar 22 12:49:07 2016
GPGPU-Sim uArch: cycles simulated: 232000  inst.: 4369568 (ipc=18.8) sim_rate=24827 (inst/sec) elapsed = 0:0:02:56 / Tue Mar 22 12:49:08 2016
GPGPU-Sim PTX: 4400000 instructions simulated : ctaid=(10,0,0) tid=(95,0,0)
GPGPU-Sim uArch: cycles simulated: 234000  inst.: 4405600 (ipc=18.8) sim_rate=24890 (inst/sec) elapsed = 0:0:02:57 / Tue Mar 22 12:49:09 2016
GPGPU-Sim uArch: cycles simulated: 235500  inst.: 4433216 (ipc=18.8) sim_rate=24905 (inst/sec) elapsed = 0:0:02:58 / Tue Mar 22 12:49:10 2016
GPGPU-Sim uArch: cycles simulated: 237000  inst.: 4457984 (ipc=18.8) sim_rate=24904 (inst/sec) elapsed = 0:0:02:59 / Tue Mar 22 12:49:11 2016
GPGPU-Sim PTX: 4500000 instructions simulated : ctaid=(0,0,0) tid=(127,0,0)
GPGPU-Sim uArch: cycles simulated: 239000  inst.: 4491456 (ipc=18.8) sim_rate=24952 (inst/sec) elapsed = 0:0:03:00 / Tue Mar 22 12:49:12 2016
GPGPU-Sim uArch: cycles simulated: 240500  inst.: 4520416 (ipc=18.8) sim_rate=24974 (inst/sec) elapsed = 0:0:03:01 / Tue Mar 22 12:49:13 2016
GPGPU-Sim uArch: cycles simulated: 242000  inst.: 4552512 (ipc=18.8) sim_rate=25013 (inst/sec) elapsed = 0:0:03:02 / Tue Mar 22 12:49:14 2016
GPGPU-Sim PTX: 4600000 instructions simulated : ctaid=(4,0,0) tid=(95,0,0)
GPGPU-Sim uArch: cycles simulated: 244000  inst.: 4588736 (ipc=18.8) sim_rate=25075 (inst/sec) elapsed = 0:0:03:03 / Tue Mar 22 12:49:15 2016
GPGPU-Sim uArch: cycles simulated: 245500  inst.: 4616832 (ipc=18.8) sim_rate=25091 (inst/sec) elapsed = 0:0:03:04 / Tue Mar 22 12:49:16 2016
GPGPU-Sim uArch: cycles simulated: 247000  inst.: 4643904 (ipc=18.8) sim_rate=25102 (inst/sec) elapsed = 0:0:03:05 / Tue Mar 22 12:49:17 2016
GPGPU-Sim uArch: cycles simulated: 249000  inst.: 4681344 (ipc=18.8) sim_rate=25168 (inst/sec) elapsed = 0:0:03:06 / Tue Mar 22 12:49:18 2016
GPGPU-Sim PTX: 4700000 instructions simulated : ctaid=(4,0,0) tid=(31,0,0)
GPGPU-Sim uArch: cycles simulated: 250500  inst.: 4710912 (ipc=18.8) sim_rate=25192 (inst/sec) elapsed = 0:0:03:07 / Tue Mar 22 12:49:19 2016
GPGPU-Sim uArch: cycles simulated: 252000  inst.: 4738144 (ipc=18.8) sim_rate=25202 (inst/sec) elapsed = 0:0:03:08 / Tue Mar 22 12:49:20 2016
GPGPU-Sim uArch: cycles simulated: 253500  inst.: 4766304 (ipc=18.8) sim_rate=25218 (inst/sec) elapsed = 0:0:03:09 / Tue Mar 22 12:49:21 2016
GPGPU-Sim PTX: 4800000 instructions simulated : ctaid=(10,0,0) tid=(31,0,0)
GPGPU-Sim uArch: cycles simulated: 255500  inst.: 4805088 (ipc=18.8) sim_rate=25289 (inst/sec) elapsed = 0:0:03:10 / Tue Mar 22 12:49:22 2016
GPGPU-Sim uArch: cycles simulated: 257000  inst.: 4832640 (ipc=18.8) sim_rate=25301 (inst/sec) elapsed = 0:0:03:11 / Tue Mar 22 12:49:23 2016
GPGPU-Sim uArch: cycles simulated: 258500  inst.: 4861056 (ipc=18.8) sim_rate=25318 (inst/sec) elapsed = 0:0:03:12 / Tue Mar 22 12:49:24 2016
GPGPU-Sim PTX: 4900000 instructions simulated : ctaid=(0,1,0) tid=(127,0,0)
GPGPU-Sim uArch: cycles simulated: 260000  inst.: 4887680 (ipc=18.8) sim_rate=25324 (inst/sec) elapsed = 0:0:03:13 / Tue Mar 22 12:49:25 2016
GPGPU-Sim uArch: cycles simulated: 261500  inst.: 4915776 (ipc=18.8) sim_rate=25339 (inst/sec) elapsed = 0:0:03:14 / Tue Mar 22 12:49:26 2016
GPGPU-Sim uArch: cycles simulated: 263000  inst.: 4940704 (ipc=18.8) sim_rate=25336 (inst/sec) elapsed = 0:0:03:15 / Tue Mar 22 12:49:27 2016
GPGPU-Sim uArch: cycles simulated: 264500  inst.: 4967552 (ipc=18.8) sim_rate=25344 (inst/sec) elapsed = 0:0:03:16 / Tue Mar 22 12:49:28 2016
GPGPU-Sim PTX: 5000000 instructions simulated : ctaid=(10,0,0) tid=(191,0,0)
GPGPU-Sim uArch: cycles simulated: 265500  inst.: 4987200 (ipc=18.8) sim_rate=25315 (inst/sec) elapsed = 0:0:03:17 / Tue Mar 22 12:49:29 2016
GPGPU-Sim uArch: cycles simulated: 267500  inst.: 5024992 (ipc=18.8) sim_rate=25378 (inst/sec) elapsed = 0:0:03:18 / Tue Mar 22 12:49:30 2016
GPGPU-Sim uArch: cycles simulated: 269000  inst.: 5047424 (ipc=18.8) sim_rate=25363 (inst/sec) elapsed = 0:0:03:19 / Tue Mar 22 12:49:31 2016
GPGPU-Sim PTX: 5100000 instructions simulated : ctaid=(1,0,0) tid=(31,0,0)
GPGPU-Sim uArch: cycles simulated: 271000  inst.: 5080832 (ipc=18.7) sim_rate=25404 (inst/sec) elapsed = 0:0:03:20 / Tue Mar 22 12:49:32 2016
GPGPU-Sim uArch: cycles simulated: 273000  inst.: 5112160 (ipc=18.7) sim_rate=25433 (inst/sec) elapsed = 0:0:03:21 / Tue Mar 22 12:49:33 2016
GPGPU-Sim uArch: cycles simulated: 274500  inst.: 5137568 (ipc=18.7) sim_rate=25433 (inst/sec) elapsed = 0:0:03:22 / Tue Mar 22 12:49:34 2016
GPGPU-Sim uArch: cycles simulated: 276500  inst.: 5174144 (ipc=18.7) sim_rate=25488 (inst/sec) elapsed = 0:0:03:23 / Tue Mar 22 12:49:35 2016
GPGPU-Sim PTX: 5200000 instructions simulated : ctaid=(4,0,0) tid=(159,0,0)
GPGPU-Sim uArch: cycles simulated: 278500  inst.: 5209408 (ipc=18.7) sim_rate=25536 (inst/sec) elapsed = 0:0:03:24 / Tue Mar 22 12:49:36 2016
GPGPU-Sim uArch: cycles simulated: 280000  inst.: 5237728 (ipc=18.7) sim_rate=25549 (inst/sec) elapsed = 0:0:03:25 / Tue Mar 22 12:49:37 2016
GPGPU-Sim uArch: cycles simulated: 282000  inst.: 5274944 (ipc=18.7) sim_rate=25606 (inst/sec) elapsed = 0:0:03:26 / Tue Mar 22 12:49:38 2016
GPGPU-Sim PTX: 5300000 instructions simulated : ctaid=(10,0,0) tid=(127,0,0)
GPGPU-Sim uArch: cycles simulated: 284000  inst.: 5302784 (ipc=18.7) sim_rate=25617 (inst/sec) elapsed = 0:0:03:27 / Tue Mar 22 12:49:39 2016
GPGPU-Sim uArch: cycles simulated: 285500  inst.: 5333888 (ipc=18.7) sim_rate=25643 (inst/sec) elapsed = 0:0:03:28 / Tue Mar 22 12:49:40 2016
GPGPU-Sim uArch: cycles simulated: 287000  inst.: 5352000 (ipc=18.6) sim_rate=25607 (inst/sec) elapsed = 0:0:03:29 / Tue Mar 22 12:49:41 2016
GPGPU-Sim uArch: cycles simulated: 288500  inst.: 5377216 (ipc=18.6) sim_rate=25605 (inst/sec) elapsed = 0:0:03:30 / Tue Mar 22 12:49:42 2016
GPGPU-Sim PTX: 5400000 instructions simulated : ctaid=(3,1,0) tid=(223,0,0)
GPGPU-Sim uArch: cycles simulated: 290500  inst.: 5414816 (ipc=18.6) sim_rate=25662 (inst/sec) elapsed = 0:0:03:31 / Tue Mar 22 12:49:43 2016
GPGPU-Sim uArch: cycles simulated: 292500  inst.: 5448800 (ipc=18.6) sim_rate=25701 (inst/sec) elapsed = 0:0:03:32 / Tue Mar 22 12:49:44 2016
GPGPU-Sim PTX: 5500000 instructions simulated : ctaid=(0,1,0) tid=(159,0,0)
GPGPU-Sim uArch: cycles simulated: 294500  inst.: 5482976 (ipc=18.6) sim_rate=25741 (inst/sec) elapsed = 0:0:03:33 / Tue Mar 22 12:49:45 2016
GPGPU-Sim uArch: cycles simulated: 296500  inst.: 5515360 (ipc=18.6) sim_rate=25772 (inst/sec) elapsed = 0:0:03:34 / Tue Mar 22 12:49:46 2016
GPGPU-Sim uArch: cycles simulated: 297500  inst.: 5533312 (ipc=18.6) sim_rate=25736 (inst/sec) elapsed = 0:0:03:35 / Tue Mar 22 12:49:47 2016
GPGPU-Sim uArch: cycles simulated: 299000  inst.: 5557632 (ipc=18.6) sim_rate=25729 (inst/sec) elapsed = 0:0:03:36 / Tue Mar 22 12:49:48 2016
GPGPU-Sim PTX: 5600000 instructions simulated : ctaid=(5,0,0) tid=(159,0,0)
GPGPU-Sim uArch: cycles simulated: 300500  inst.: 5580800 (ipc=18.6) sim_rate=25717 (inst/sec) elapsed = 0:0:03:37 / Tue Mar 22 12:49:49 2016
GPGPU-Sim uArch: cycles simulated: 302000  inst.: 5606560 (ipc=18.6) sim_rate=25718 (inst/sec) elapsed = 0:0:03:38 / Tue Mar 22 12:49:50 2016
GPGPU-Sim uArch: cycles simulated: 303500  inst.: 5634048 (ipc=18.6) sim_rate=25726 (inst/sec) elapsed = 0:0:03:39 / Tue Mar 22 12:49:51 2016
GPGPU-Sim uArch: cycles simulated: 305000  inst.: 5659936 (ipc=18.6) sim_rate=25726 (inst/sec) elapsed = 0:0:03:40 / Tue Mar 22 12:49:52 2016
GPGPU-Sim uArch: cycles simulated: 306000  inst.: 5676736 (ipc=18.6) sim_rate=25686 (inst/sec) elapsed = 0:0:03:41 / Tue Mar 22 12:49:53 2016
GPGPU-Sim PTX: 5700000 instructions simulated : ctaid=(3,1,0) tid=(223,0,0)
GPGPU-Sim uArch: cycles simulated: 307500  inst.: 5704768 (ipc=18.6) sim_rate=25697 (inst/sec) elapsed = 0:0:03:42 / Tue Mar 22 12:49:54 2016
GPGPU-Sim uArch: cycles simulated: 309000  inst.: 5730208 (ipc=18.5) sim_rate=25696 (inst/sec) elapsed = 0:0:03:43 / Tue Mar 22 12:49:55 2016
GPGPU-Sim uArch: cycles simulated: 310500  inst.: 5754720 (ipc=18.5) sim_rate=25690 (inst/sec) elapsed = 0:0:03:44 / Tue Mar 22 12:49:56 2016
GPGPU-Sim PTX: 5800000 instructions simulated : ctaid=(1,0,0) tid=(159,0,0)
GPGPU-Sim uArch: cycles simulated: 312000  inst.: 5779200 (ipc=18.5) sim_rate=25685 (inst/sec) elapsed = 0:0:03:45 / Tue Mar 22 12:49:57 2016
GPGPU-Sim uArch: cycles simulated: 313000  inst.: 5798944 (ipc=18.5) sim_rate=25659 (inst/sec) elapsed = 0:0:03:46 / Tue Mar 22 12:49:58 2016
GPGPU-Sim uArch: cycles simulated: 314500  inst.: 5825664 (ipc=18.5) sim_rate=25663 (inst/sec) elapsed = 0:0:03:47 / Tue Mar 22 12:49:59 2016
GPGPU-Sim uArch: cycles simulated: 316000  inst.: 5851424 (ipc=18.5) sim_rate=25664 (inst/sec) elapsed = 0:0:03:48 / Tue Mar 22 12:50:00 2016
GPGPU-Sim PTX: 5900000 instructions simulated : ctaid=(3,1,0) tid=(191,0,0)
GPGPU-Sim uArch: cycles simulated: 317500  inst.: 5882560 (ipc=18.5) sim_rate=25688 (inst/sec) elapsed = 0:0:03:49 / Tue Mar 22 12:50:01 2016
GPGPU-Sim uArch: cycles simulated: 318500  inst.: 5898272 (ipc=18.5) sim_rate=25644 (inst/sec) elapsed = 0:0:03:50 / Tue Mar 22 12:50:02 2016
GPGPU-Sim uArch: cycles simulated: 320000  inst.: 5924384 (ipc=18.5) sim_rate=25646 (inst/sec) elapsed = 0:0:03:51 / Tue Mar 22 12:50:03 2016
GPGPU-Sim uArch: cycles simulated: 321500  inst.: 5956480 (ipc=18.5) sim_rate=25674 (inst/sec) elapsed = 0:0:03:52 / Tue Mar 22 12:50:04 2016
GPGPU-Sim PTX: 6000000 instructions simulated : ctaid=(10,0,0) tid=(63,0,0)
GPGPU-Sim uArch: cycles simulated: 323000  inst.: 5981664 (ipc=18.5) sim_rate=25672 (inst/sec) elapsed = 0:0:03:53 / Tue Mar 22 12:50:05 2016
GPGPU-Sim uArch: cycles simulated: 324000  inst.: 6000000 (ipc=18.5) sim_rate=25641 (inst/sec) elapsed = 0:0:03:54 / Tue Mar 22 12:50:06 2016
GPGPU-Sim uArch: cycles simulated: 325500  inst.: 6025536 (ipc=18.5) sim_rate=25640 (inst/sec) elapsed = 0:0:03:55 / Tue Mar 22 12:50:07 2016
GPGPU-Sim uArch: cycles simulated: 327000  inst.: 6051712 (ipc=18.5) sim_rate=25642 (inst/sec) elapsed = 0:0:03:56 / Tue Mar 22 12:50:08 2016
GPGPU-Sim uArch: cycles simulated: 328500  inst.: 6077472 (ipc=18.5) sim_rate=25643 (inst/sec) elapsed = 0:0:03:57 / Tue Mar 22 12:50:09 2016
GPGPU-Sim PTX: 6100000 instructions simulated : ctaid=(8,0,0) tid=(159,0,0)
GPGPU-Sim uArch: cycles simulated: 330000  inst.: 6105184 (ipc=18.5) sim_rate=25652 (inst/sec) elapsed = 0:0:03:58 / Tue Mar 22 12:50:10 2016
GPGPU-Sim uArch: cycles simulated: 332000  inst.: 6139744 (ipc=18.5) sim_rate=25689 (inst/sec) elapsed = 0:0:03:59 / Tue Mar 22 12:50:11 2016
GPGPU-Sim uArch: cycles simulated: 333500  inst.: 6165472 (ipc=18.5) sim_rate=25689 (inst/sec) elapsed = 0:0:04:00 / Tue Mar 22 12:50:12 2016
GPGPU-Sim PTX: 6200000 instructions simulated : ctaid=(1,0,0) tid=(127,0,0)
GPGPU-Sim uArch: cycles simulated: 335500  inst.: 6199104 (ipc=18.5) sim_rate=25722 (inst/sec) elapsed = 0:0:04:01 / Tue Mar 22 12:50:13 2016
GPGPU-Sim uArch: cycles simulated: 337500  inst.: 6238048 (ipc=18.5) sim_rate=25777 (inst/sec) elapsed = 0:0:04:02 / Tue Mar 22 12:50:14 2016
GPGPU-Sim uArch: cycles simulated: 339000  inst.: 6261824 (ipc=18.5) sim_rate=25768 (inst/sec) elapsed = 0:0:04:03 / Tue Mar 22 12:50:15 2016
GPGPU-Sim PTX: 6300000 instructions simulated : ctaid=(7,0,0) tid=(63,0,0)
GPGPU-Sim uArch: cycles simulated: 341000  inst.: 6304512 (ipc=18.5) sim_rate=25838 (inst/sec) elapsed = 0:0:04:04 / Tue Mar 22 12:50:16 2016
GPGPU-Sim uArch: cycles simulated: 342500  inst.: 6331936 (ipc=18.5) sim_rate=25844 (inst/sec) elapsed = 0:0:04:05 / Tue Mar 22 12:50:17 2016
GPGPU-Sim uArch: cycles simulated: 344500  inst.: 6363712 (ipc=18.5) sim_rate=25868 (inst/sec) elapsed = 0:0:04:06 / Tue Mar 22 12:50:18 2016
GPGPU-Sim PTX: 6400000 instructions simulated : ctaid=(2,1,0) tid=(223,0,0)
GPGPU-Sim uArch: cycles simulated: 346500  inst.: 6401024 (ipc=18.5) sim_rate=25915 (inst/sec) elapsed = 0:0:04:07 / Tue Mar 22 12:50:19 2016
GPGPU-Sim uArch: cycles simulated: 348000  inst.: 6423040 (ipc=18.5) sim_rate=25899 (inst/sec) elapsed = 0:0:04:08 / Tue Mar 22 12:50:20 2016
GPGPU-Sim uArch: cycles simulated: 350000  inst.: 6462304 (ipc=18.5) sim_rate=25953 (inst/sec) elapsed = 0:0:04:09 / Tue Mar 22 12:50:21 2016
GPGPU-Sim PTX: 6500000 instructions simulated : ctaid=(4,0,0) tid=(95,0,0)
GPGPU-Sim uArch: cycles simulated: 352000  inst.: 6498240 (ipc=18.5) sim_rate=25992 (inst/sec) elapsed = 0:0:04:10 / Tue Mar 22 12:50:22 2016
GPGPU-Sim uArch: cycles simulated: 354000  inst.: 6534496 (ipc=18.5) sim_rate=26033 (inst/sec) elapsed = 0:0:04:11 / Tue Mar 22 12:50:23 2016
GPGPU-Sim uArch: cycles simulated: 356000  inst.: 6567872 (ipc=18.4) sim_rate=26062 (inst/sec) elapsed = 0:0:04:12 / Tue Mar 22 12:50:24 2016
GPGPU-Sim PTX: 6600000 instructions simulated : ctaid=(9,0,0) tid=(31,0,0)
GPGPU-Sim uArch: cycles simulated: 357500  inst.: 6598944 (ipc=18.5) sim_rate=26082 (inst/sec) elapsed = 0:0:04:13 / Tue Mar 22 12:50:25 2016
GPGPU-Sim uArch: cycles simulated: 359500  inst.: 6629728 (ipc=18.4) sim_rate=26101 (inst/sec) elapsed = 0:0:04:14 / Tue Mar 22 12:50:26 2016
GPGPU-Sim uArch: cycles simulated: 361000  inst.: 6658016 (ipc=18.4) sim_rate=26109 (inst/sec) elapsed = 0:0:04:15 / Tue Mar 22 12:50:27 2016
GPGPU-Sim PTX: 6700000 instructions simulated : ctaid=(4,0,0) tid=(95,0,0)
GPGPU-Sim uArch: cycles simulated: 362500  inst.: 6685120 (ipc=18.4) sim_rate=26113 (inst/sec) elapsed = 0:0:04:16 / Tue Mar 22 12:50:28 2016
GPGPU-Sim uArch: cycles simulated: 364500  inst.: 6718816 (ipc=18.4) sim_rate=26143 (inst/sec) elapsed = 0:0:04:17 / Tue Mar 22 12:50:29 2016
GPGPU-Sim uArch: cycles simulated: 366000  inst.: 6743872 (ipc=18.4) sim_rate=26139 (inst/sec) elapsed = 0:0:04:18 / Tue Mar 22 12:50:30 2016
GPGPU-Sim uArch: cycles simulated: 368000  inst.: 6775488 (ipc=18.4) sim_rate=26160 (inst/sec) elapsed = 0:0:04:19 / Tue Mar 22 12:50:31 2016
GPGPU-Sim PTX: 6800000 instructions simulated : ctaid=(2,0,0) tid=(223,0,0)
GPGPU-Sim uArch: cycles simulated: 370000  inst.: 6816416 (ipc=18.4) sim_rate=26216 (inst/sec) elapsed = 0:0:04:20 / Tue Mar 22 12:50:32 2016
GPGPU-Sim uArch: cycles simulated: 372000  inst.: 6848896 (ipc=18.4) sim_rate=26240 (inst/sec) elapsed = 0:0:04:21 / Tue Mar 22 12:50:33 2016
GPGPU-Sim uArch: cycles simulated: 373500  inst.: 6875520 (ipc=18.4) sim_rate=26242 (inst/sec) elapsed = 0:0:04:22 / Tue Mar 22 12:50:34 2016
GPGPU-Sim PTX: 6900000 instructions simulated : ctaid=(5,0,0) tid=(95,0,0)
GPGPU-Sim uArch: cycles simulated: 375500  inst.: 6909152 (ipc=18.4) sim_rate=26270 (inst/sec) elapsed = 0:0:04:23 / Tue Mar 22 12:50:35 2016
GPGPU-Sim uArch: cycles simulated: 377000  inst.: 6935904 (ipc=18.4) sim_rate=26272 (inst/sec) elapsed = 0:0:04:24 / Tue Mar 22 12:50:36 2016
GPGPU-Sim uArch: cycles simulated: 379000  inst.: 6964384 (ipc=18.4) sim_rate=26280 (inst/sec) elapsed = 0:0:04:25 / Tue Mar 22 12:50:37 2016
GPGPU-Sim PTX: 7000000 instructions simulated : ctaid=(7,0,0) tid=(159,0,0)
GPGPU-Sim uArch: cycles simulated: 381000  inst.: 7005376 (ipc=18.4) sim_rate=26336 (inst/sec) elapsed = 0:0:04:26 / Tue Mar 22 12:50:38 2016
GPGPU-Sim uArch: cycles simulated: 383000  inst.: 7034560 (ipc=18.4) sim_rate=26346 (inst/sec) elapsed = 0:0:04:27 / Tue Mar 22 12:50:39 2016
GPGPU-Sim uArch: cycles simulated: 384500  inst.: 7058304 (ipc=18.4) sim_rate=26336 (inst/sec) elapsed = 0:0:04:28 / Tue Mar 22 12:50:40 2016
GPGPU-Sim PTX: 7100000 instructions simulated : ctaid=(3,1,0) tid=(159,0,0)
GPGPU-Sim uArch: cycles simulated: 386500  inst.: 7097472 (ipc=18.4) sim_rate=26384 (inst/sec) elapsed = 0:0:04:29 / Tue Mar 22 12:50:41 2016
GPGPU-Sim uArch: cycles simulated: 388500  inst.: 7130592 (ipc=18.4) sim_rate=26409 (inst/sec) elapsed = 0:0:04:30 / Tue Mar 22 12:50:42 2016
GPGPU-Sim uArch: cycles simulated: 390500  inst.: 7166208 (ipc=18.4) sim_rate=26443 (inst/sec) elapsed = 0:0:04:31 / Tue Mar 22 12:50:43 2016
GPGPU-Sim PTX: 7200000 instructions simulated : ctaid=(4,0,0) tid=(63,0,0)
GPGPU-Sim uArch: cycles simulated: 392500  inst.: 7201760 (ipc=18.3) sim_rate=26477 (inst/sec) elapsed = 0:0:04:32 / Tue Mar 22 12:50:44 2016
GPGPU-Sim uArch: cycles simulated: 394000  inst.: 7226720 (ipc=18.3) sim_rate=26471 (inst/sec) elapsed = 0:0:04:33 / Tue Mar 22 12:50:45 2016
GPGPU-Sim uArch: cycles simulated: 396000  inst.: 7262720 (ipc=18.3) sim_rate=26506 (inst/sec) elapsed = 0:0:04:34 / Tue Mar 22 12:50:46 2016
GPGPU-Sim PTX: 7300000 instructions simulated : ctaid=(10,0,0) tid=(95,0,0)
GPGPU-Sim uArch: cycles simulated: 398000  inst.: 7297344 (ipc=18.3) sim_rate=26535 (inst/sec) elapsed = 0:0:04:35 / Tue Mar 22 12:50:47 2016
GPGPU-Sim uArch: cycles simulated: 400000  inst.: 7331072 (ipc=18.3) sim_rate=26561 (inst/sec) elapsed = 0:0:04:36 / Tue Mar 22 12:50:48 2016
GPGPU-Sim uArch: cycles simulated: 402000  inst.: 7360544 (ipc=18.3) sim_rate=26572 (inst/sec) elapsed = 0:0:04:37 / Tue Mar 22 12:50:49 2016
GPGPU-Sim PTX: 7400000 instructions simulated : ctaid=(8,0,0) tid=(159,0,0)
GPGPU-Sim uArch: cycles simulated: 403500  inst.: 7389728 (ipc=18.3) sim_rate=26581 (inst/sec) elapsed = 0:0:04:38 / Tue Mar 22 12:50:50 2016
GPGPU-Sim uArch: cycles simulated: 405500  inst.: 7423680 (ipc=18.3) sim_rate=26608 (inst/sec) elapsed = 0:0:04:39 / Tue Mar 22 12:50:51 2016
GPGPU-Sim uArch: cycles simulated: 407500  inst.: 7457024 (ipc=18.3) sim_rate=26632 (inst/sec) elapsed = 0:0:04:40 / Tue Mar 22 12:50:52 2016
GPGPU-Sim PTX: 7500000 instructions simulated : ctaid=(0,1,0) tid=(63,0,0)
GPGPU-Sim uArch: cycles simulated: 409500  inst.: 7491680 (ipc=18.3) sim_rate=26660 (inst/sec) elapsed = 0:0:04:41 / Tue Mar 22 12:50:53 2016
GPGPU-Sim uArch: cycles simulated: 411500  inst.: 7523136 (ipc=18.3) sim_rate=26677 (inst/sec) elapsed = 0:0:04:42 / Tue Mar 22 12:50:54 2016
GPGPU-Sim uArch: cycles simulated: 413000  inst.: 7550080 (ipc=18.3) sim_rate=26678 (inst/sec) elapsed = 0:0:04:43 / Tue Mar 22 12:50:55 2016
GPGPU-Sim uArch: cycles simulated: 414500  inst.: 7573792 (ipc=18.3) sim_rate=26668 (inst/sec) elapsed = 0:0:04:44 / Tue Mar 22 12:50:56 2016
GPGPU-Sim PTX: 7600000 instructions simulated : ctaid=(2,1,0) tid=(127,0,0)
GPGPU-Sim uArch: cycles simulated: 416500  inst.: 7605920 (ipc=18.3) sim_rate=26687 (inst/sec) elapsed = 0:0:04:45 / Tue Mar 22 12:50:57 2016
GPGPU-Sim uArch: cycles simulated: 418000  inst.: 7630624 (ipc=18.3) sim_rate=26680 (inst/sec) elapsed = 0:0:04:46 / Tue Mar 22 12:50:58 2016
GPGPU-Sim uArch: cycles simulated: 420000  inst.: 7664128 (ipc=18.2) sim_rate=26704 (inst/sec) elapsed = 0:0:04:47 / Tue Mar 22 12:50:59 2016
GPGPU-Sim PTX: 7700000 instructions simulated : ctaid=(7,0,0) tid=(191,0,0)
GPGPU-Sim uArch: cycles simulated: 422000  inst.: 7696640 (ipc=18.2) sim_rate=26724 (inst/sec) elapsed = 0:0:04:48 / Tue Mar 22 12:51:00 2016
GPGPU-Sim uArch: cycles simulated: 424000  inst.: 7727424 (ipc=18.2) sim_rate=26738 (inst/sec) elapsed = 0:0:04:49 / Tue Mar 22 12:51:01 2016
GPGPU-Sim uArch: cycles simulated: 425500  inst.: 7755552 (ipc=18.2) sim_rate=26743 (inst/sec) elapsed = 0:0:04:50 / Tue Mar 22 12:51:02 2016
GPGPU-Sim PTX: 7800000 instructions simulated : ctaid=(0,1,0) tid=(63,0,0)
GPGPU-Sim uArch: cycles simulated: 427000  inst.: 7778816 (ipc=18.2) sim_rate=26731 (inst/sec) elapsed = 0:0:04:51 / Tue Mar 22 12:51:03 2016
GPGPU-Sim uArch: cycles simulated: 428500  inst.: 7803776 (ipc=18.2) sim_rate=26725 (inst/sec) elapsed = 0:0:04:52 / Tue Mar 22 12:51:04 2016
GPGPU-Sim uArch: cycles simulated: 430500  inst.: 7840480 (ipc=18.2) sim_rate=26759 (inst/sec) elapsed = 0:0:04:53 / Tue Mar 22 12:51:05 2016
GPGPU-Sim uArch: cycles simulated: 432500  inst.: 7870496 (ipc=18.2) sim_rate=26770 (inst/sec) elapsed = 0:0:04:54 / Tue Mar 22 12:51:06 2016
GPGPU-Sim PTX: 7900000 instructions simulated : ctaid=(9,0,0) tid=(127,0,0)
GPGPU-Sim uArch: cycles simulated: 434000  inst.: 7897088 (ipc=18.2) sim_rate=26769 (inst/sec) elapsed = 0:0:04:55 / Tue Mar 22 12:51:07 2016
GPGPU-Sim uArch: cycles simulated: 436000  inst.: 7931424 (ipc=18.2) sim_rate=26795 (inst/sec) elapsed = 0:0:04:56 / Tue Mar 22 12:51:08 2016
GPGPU-Sim uArch: cycles simulated: 438000  inst.: 7973056 (ipc=18.2) sim_rate=26845 (inst/sec) elapsed = 0:0:04:57 / Tue Mar 22 12:51:09 2016
GPGPU-Sim PTX: 8000000 instructions simulated : ctaid=(8,0,0) tid=(255,0,0)
GPGPU-Sim uArch: cycles simulated: 440000  inst.: 8004352 (ipc=18.2) sim_rate=26860 (inst/sec) elapsed = 0:0:04:58 / Tue Mar 22 12:51:10 2016
GPGPU-Sim uArch: cycles simulated: 442000  inst.: 8045920 (ipc=18.2) sim_rate=26909 (inst/sec) elapsed = 0:0:04:59 / Tue Mar 22 12:51:11 2016
GPGPU-Sim uArch: cycles simulated: 443500  inst.: 8073824 (ipc=18.2) sim_rate=26912 (inst/sec) elapsed = 0:0:05:00 / Tue Mar 22 12:51:12 2016
GPGPU-Sim PTX: 8100000 instructions simulated : ctaid=(2,0,0) tid=(31,0,0)
GPGPU-Sim uArch: cycles simulated: 445500  inst.: 8106080 (ipc=18.2) sim_rate=26930 (inst/sec) elapsed = 0:0:05:01 / Tue Mar 22 12:51:13 2016
GPGPU-Sim uArch: cycles simulated: 447500  inst.: 8142944 (ipc=18.2) sim_rate=26963 (inst/sec) elapsed = 0:0:05:02 / Tue Mar 22 12:51:14 2016
GPGPU-Sim PTX: 8200000 instructions simulated : ctaid=(5,0,0) tid=(159,0,0)
GPGPU-Sim uArch: cycles simulated: 449500  inst.: 8185280 (ipc=18.2) sim_rate=27014 (inst/sec) elapsed = 0:0:05:03 / Tue Mar 22 12:51:15 2016
GPGPU-Sim uArch: cycles simulated: 451500  inst.: 8219520 (ipc=18.2) sim_rate=27037 (inst/sec) elapsed = 0:0:05:04 / Tue Mar 22 12:51:16 2016
GPGPU-Sim uArch: cycles simulated: 453500  inst.: 8254656 (ipc=18.2) sim_rate=27064 (inst/sec) elapsed = 0:0:05:05 / Tue Mar 22 12:51:17 2016
GPGPU-Sim PTX: 8300000 instructions simulated : ctaid=(3,0,0) tid=(127,0,0)
GPGPU-Sim uArch: cycles simulated: 455000  inst.: 8278880 (ipc=18.2) sim_rate=27055 (inst/sec) elapsed = 0:0:05:06 / Tue Mar 22 12:51:18 2016
GPGPU-Sim uArch: cycles simulated: 457000  inst.: 8318624 (ipc=18.2) sim_rate=27096 (inst/sec) elapsed = 0:0:05:07 / Tue Mar 22 12:51:19 2016
GPGPU-Sim uArch: cycles simulated: 459000  inst.: 8355040 (ipc=18.2) sim_rate=27126 (inst/sec) elapsed = 0:0:05:08 / Tue Mar 22 12:51:20 2016
GPGPU-Sim PTX: 8400000 instructions simulated : ctaid=(3,1,0) tid=(159,0,0)
GPGPU-Sim uArch: cycles simulated: 461000  inst.: 8390048 (ipc=18.2) sim_rate=27152 (inst/sec) elapsed = 0:0:05:09 / Tue Mar 22 12:51:21 2016
GPGPU-Sim uArch: cycles simulated: 463000  inst.: 8428800 (ipc=18.2) sim_rate=27189 (inst/sec) elapsed = 0:0:05:10 / Tue Mar 22 12:51:22 2016
GPGPU-Sim uArch: cycles simulated: 465000  inst.: 8467104 (ipc=18.2) sim_rate=27225 (inst/sec) elapsed = 0:0:05:11 / Tue Mar 22 12:51:23 2016
GPGPU-Sim PTX: 8500000 instructions simulated : ctaid=(5,0,0) tid=(159,0,0)
GPGPU-Sim uArch: cycles simulated: 467000  inst.: 8503872 (ipc=18.2) sim_rate=27256 (inst/sec) elapsed = 0:0:05:12 / Tue Mar 22 12:51:24 2016
GPGPU-Sim uArch: cycles simulated: 469000  inst.: 8539904 (ipc=18.2) sim_rate=27284 (inst/sec) elapsed = 0:0:05:13 / Tue Mar 22 12:51:25 2016
GPGPU-Sim uArch: cycles simulated: 471000  inst.: 8575456 (ipc=18.2) sim_rate=27310 (inst/sec) elapsed = 0:0:05:14 / Tue Mar 22 12:51:26 2016
GPGPU-Sim PTX: 8600000 instructions simulated : ctaid=(0,0,0) tid=(31,0,0)
GPGPU-Sim uArch: cycles simulated: 473000  inst.: 8614176 (ipc=18.2) sim_rate=27346 (inst/sec) elapsed = 0:0:05:15 / Tue Mar 22 12:51:27 2016
GPGPU-Sim uArch: cycles simulated: 475000  inst.: 8653952 (ipc=18.2) sim_rate=27385 (inst/sec) elapsed = 0:0:05:16 / Tue Mar 22 12:51:28 2016
GPGPU-Sim PTX: 8700000 instructions simulated : ctaid=(3,1,0) tid=(223,0,0)
GPGPU-Sim uArch: cycles simulated: 477000  inst.: 8692224 (ipc=18.2) sim_rate=27420 (inst/sec) elapsed = 0:0:05:17 / Tue Mar 22 12:51:29 2016
GPGPU-Sim uArch: cycles simulated: 479000  inst.: 8724544 (ipc=18.2) sim_rate=27435 (inst/sec) elapsed = 0:0:05:18 / Tue Mar 22 12:51:30 2016
GPGPU-Sim uArch: cycles simulated: 481000  inst.: 8761408 (ipc=18.2) sim_rate=27465 (inst/sec) elapsed = 0:0:05:19 / Tue Mar 22 12:51:31 2016
GPGPU-Sim PTX: 8800000 instructions simulated : ctaid=(9,0,0) tid=(63,0,0)
GPGPU-Sim uArch: cycles simulated: 483000  inst.: 8797120 (ipc=18.2) sim_rate=27491 (inst/sec) elapsed = 0:0:05:20 / Tue Mar 22 12:51:32 2016
GPGPU-Sim uArch: cycles simulated: 485000  inst.: 8833728 (ipc=18.2) sim_rate=27519 (inst/sec) elapsed = 0:0:05:21 / Tue Mar 22 12:51:33 2016
GPGPU-Sim uArch: cycles simulated: 487000  inst.: 8867360 (ipc=18.2) sim_rate=27538 (inst/sec) elapsed = 0:0:05:22 / Tue Mar 22 12:51:34 2016
GPGPU-Sim PTX: 8900000 instructions simulated : ctaid=(8,0,0) tid=(223,0,0)
GPGPU-Sim uArch: cycles simulated: 489000  inst.: 8905184 (ipc=18.2) sim_rate=27570 (inst/sec) elapsed = 0:0:05:23 / Tue Mar 22 12:51:35 2016
GPGPU-Sim uArch: cycles simulated: 491000  inst.: 8937664 (ipc=18.2) sim_rate=27585 (inst/sec) elapsed = 0:0:05:24 / Tue Mar 22 12:51:36 2016
GPGPU-Sim PTX: 9000000 instructions simulated : ctaid=(9,0,0) tid=(127,0,0)
GPGPU-Sim uArch: cycles simulated: 493000  inst.: 8976224 (ipc=18.2) sim_rate=27619 (inst/sec) elapsed = 0:0:05:25 / Tue Mar 22 12:51:37 2016
GPGPU-Sim uArch: cycles simulated: 495000  inst.: 9009600 (ipc=18.2) sim_rate=27636 (inst/sec) elapsed = 0:0:05:26 / Tue Mar 22 12:51:38 2016
GPGPU-Sim uArch: cycles simulated: 497000  inst.: 9047340 (ipc=18.2) sim_rate=27667 (inst/sec) elapsed = 0:0:05:27 / Tue Mar 22 12:51:39 2016
GPGPU-Sim PTX: 9100000 instructions simulated : ctaid=(8,0,0) tid=(71,0,0)
GPGPU-Sim uArch: cycles simulated: 499000  inst.: 9081548 (ipc=18.2) sim_rate=27687 (inst/sec) elapsed = 0:0:05:28 / Tue Mar 22 12:51:40 2016
GPGPU-Sim uArch: cycles simulated: 501000  inst.: 9117331 (ipc=18.2) sim_rate=27712 (inst/sec) elapsed = 0:0:05:29 / Tue Mar 22 12:51:41 2016
GPGPU-Sim uArch: cycles simulated: 503000  inst.: 9156558 (ipc=18.2) sim_rate=27747 (inst/sec) elapsed = 0:0:05:30 / Tue Mar 22 12:51:42 2016
GPGPU-Sim PTX: 9200000 instructions simulated : ctaid=(6,0,0) tid=(67,0,0)
GPGPU-Sim uArch: cycles simulated: 505000  inst.: 9189981 (ipc=18.2) sim_rate=27764 (inst/sec) elapsed = 0:0:05:31 / Tue Mar 22 12:51:43 2016
GPGPU-Sim uArch: cycles simulated: 507000  inst.: 9228205 (ipc=18.2) sim_rate=27795 (inst/sec) elapsed = 0:0:05:32 / Tue Mar 22 12:51:44 2016
GPGPU-Sim uArch: cycles simulated: 509000  inst.: 9265342 (ipc=18.2) sim_rate=27823 (inst/sec) elapsed = 0:0:05:33 / Tue Mar 22 12:51:45 2016
GPGPU-Sim PTX: 9300000 instructions simulated : ctaid=(8,0,0) tid=(215,0,0)
GPGPU-Sim uArch: cycles simulated: 510500  inst.: 9295855 (ipc=18.2) sim_rate=27831 (inst/sec) elapsed = 0:0:05:34 / Tue Mar 22 12:51:46 2016
GPGPU-Sim uArch: cycles simulated: 512500  inst.: 9328571 (ipc=18.2) sim_rate=27846 (inst/sec) elapsed = 0:0:05:35 / Tue Mar 22 12:51:47 2016
GPGPU-Sim uArch: cycles simulated: 514500  inst.: 9370770 (ipc=18.2) sim_rate=27889 (inst/sec) elapsed = 0:0:05:36 / Tue Mar 22 12:51:48 2016
[...]
GPGPU-Sim uArch: cycles simulated: 3862000  inst.: 69413095 (ipc=18.0) sim_rate=28136 (inst/sec) elapsed = 0:0:41:07 / Tue Mar 22 13:27:19 2016
GPGPU-Sim uArch: cycles simulated: 3863500  inst.: 69438247 (ipc=18.0) sim_rate=28135 (inst/sec) elapsed = 0:0:41:08 / Tue Mar 22 13:27:20 2016
GPGPU-Sim PTX: 69600000 instructions simulated : ctaid=(2,5,0) tid=(17,0,0)
GPGPU-Sim uArch: cycles simulated: 3865000  inst.: 69461671 (ipc=18.0) sim_rate=28133 (inst/sec) elapsed = 0:0:41:09 / Tue Mar 22 13:27:21 2016
GPGPU-Sim uArch: cycles simulated: 3866500  inst.: 69489607 (ipc=18.0) sim_rate=28133 (inst/sec) elapsed = 0:0:41:10 / Tue Mar 22 13:27:22 2016
GPGPU-Sim uArch: cycles simulated: 3868000  inst.: 69516775 (ipc=18.0) sim_rate=28133 (inst/sec) elapsed = 0:0:41:11 / Tue Mar 22 13:27:23 2016
GPGPU-Sim uArch: cycles simulated: 3869500  inst.: 69545223 (ipc=18.0) sim_rate=28133 (inst/sec) elapsed = 0:0:41:12 / Tue Mar 22 13:27:24 2016
GPGPU-Sim PTX: 69700000 instructions simulated : ctaid=(0,3,0) tid=(145,0,0)
GPGPU-Sim uArch: cycles simulated: 3871000  inst.: 69568679 (ipc=18.0) sim_rate=28131 (inst/sec) elapsed = 0:0:41:13 / Tue Mar 22 13:27:25 2016
GPGPU-Sim uArch: cycles simulated: 3872500  inst.: 69597223 (ipc=18.0) sim_rate=28131 (inst/sec) elapsed = 0:0:41:14 / Tue Mar 22 13:27:26 2016
GPGPU-Sim uArch: cycles simulated: 3874000  inst.: 69620999 (ipc=18.0) sim_rate=28129 (inst/sec) elapsed = 0:0:41:15 / Tue Mar 22 13:27:27 2016
GPGPU-Sim uArch: cycles simulated: 3876000  inst.: 69652071 (ipc=18.0) sim_rate=28130 (inst/sec) elapsed = 0:0:41:16 / Tue Mar 22 13:27:28 2016
GPGPU-Sim PTX: 69800000 instructions simulated : ctaid=(0,2,0) tid=(49,0,0)
GPGPU-Sim uArch: cycles simulated: 3877500  inst.: 69680071 (ipc=18.0) sim_rate=28130 (inst/sec) elapsed = 0:0:41:17 / Tue Mar 22 13:27:29 2016
GPGPU-Sim uArch: cycles simulated: 3879000  inst.: 69702087 (ipc=18.0) sim_rate=28128 (inst/sec) elapsed = 0:0:41:18 / Tue Mar 22 13:27:30 2016
GPGPU-Sim uArch: cycles simulated: 3881000  inst.: 69736167 (ipc=18.0) sim_rate=28130 (inst/sec) elapsed = 0:0:41:19 / Tue Mar 22 13:27:31 2016
GPGPU-Sim PTX: 69900000 instructions simulated : ctaid=(2,3,0) tid=(209,0,0)
GPGPU-Sim uArch: cycles simulated: 3882500  inst.: 69765479 (ipc=18.0) sim_rate=28131 (inst/sec) elapsed = 0:0:41:20 / Tue Mar 22 13:27:32 2016
GPGPU-Sim uArch: cycles simulated: 3884000  inst.: 69793063 (ipc=18.0) sim_rate=28131 (inst/sec) elapsed = 0:0:41:21 / Tue Mar 22 13:27:33 2016
GPGPU-Sim uArch: cycles simulated: 3885500  inst.: 69819367 (ipc=18.0) sim_rate=28130 (inst/sec) elapsed = 0:0:41:22 / Tue Mar 22 13:27:34 2016
GPGPU-Sim uArch: cycles simulated: 3887500  inst.: 69858663 (ipc=18.0) sim_rate=28134 (inst/sec) elapsed = 0:0:41:23 / Tue Mar 22 13:27:35 2016
GPGPU-Sim PTX: 70000000 instructions simulated : ctaid=(5,3,0) tid=(81,0,0)
GPGPU-Sim uArch: cycles simulated: 3889000  inst.: 69887047 (ipc=18.0) sim_rate=28134 (inst/sec) elapsed = 0:0:41:24 / Tue Mar 22 13:27:36 2016
GPGPU-Sim uArch: cycles simulated: 3890500  inst.: 69914023 (ipc=18.0) sim_rate=28134 (inst/sec) elapsed = 0:0:41:25 / Tue Mar 22 13:27:37 2016
GPGPU-Sim uArch: cycles simulated: 3891500  inst.: 69932199 (ipc=18.0) sim_rate=28130 (inst/sec) elapsed = 0:0:41:26 / Tue Mar 22 13:27:38 2016
GPGPU-Sim uArch: cycles simulated: 3893000  inst.: 69959143 (ipc=18.0) sim_rate=28129 (inst/sec) elapsed = 0:0:41:27 / Tue Mar 22 13:27:39 2016
GPGPU-Sim PTX: 70100000 instructions simulated : ctaid=(5,1,0) tid=(113,0,0)
GPGPU-Sim uArch: cycles simulated: 3894500  inst.: 69984135 (ipc=18.0) sim_rate=28128 (inst/sec) elapsed = 0:0:41:28 / Tue Mar 22 13:27:40 2016
GPGPU-Sim uArch: cycles simulated: 3896000  inst.: 70014791 (ipc=18.0) sim_rate=28129 (inst/sec) elapsed = 0:0:41:29 / Tue Mar 22 13:27:41 2016
GPGPU-Sim uArch: cycles simulated: 3897500  inst.: 70038375 (ipc=18.0) sim_rate=28127 (inst/sec) elapsed = 0:0:41:30 / Tue Mar 22 13:27:42 2016
GPGPU-Sim PTX: 70200000 instructions simulated : ctaid=(8,3,0) tid=(145,0,0)
GPGPU-Sim uArch: cycles simulated: 3899000  inst.: 70065095 (ipc=18.0) sim_rate=28127 (inst/sec) elapsed = 0:0:41:31 / Tue Mar 22 13:27:43 2016
GPGPU-Sim uArch: cycles simulated: 3900000  inst.: 70081799 (ipc=18.0) sim_rate=28122 (inst/sec) elapsed = 0:0:41:32 / Tue Mar 22 13:27:44 2016
GPGPU-Sim uArch: cycles simulated: 3901500  inst.: 70105767 (ipc=18.0) sim_rate=28121 (inst/sec) elapsed = 0:0:41:33 / Tue Mar 22 13:27:45 2016
GPGPU-Sim uArch: cycles simulated: 3903000  inst.: 70140135 (ipc=18.0) sim_rate=28123 (inst/sec) elapsed = 0:0:41:34 / Tue Mar 22 13:27:46 2016
GPGPU-Sim PTX: 70300000 instructions simulated : ctaid=(10,3,0) tid=(209,0,0)
GPGPU-Sim uArch: cycles simulated: 3904500  inst.: 70161671 (ipc=18.0) sim_rate=28120 (inst/sec) elapsed = 0:0:41:35 / Tue Mar 22 13:27:47 2016
GPGPU-Sim uArch: cycles simulated: 3906000  inst.: 70188359 (ipc=18.0) sim_rate=28120 (inst/sec) elapsed = 0:0:41:36 / Tue Mar 22 13:27:48 2016
GPGPU-Sim uArch: cycles simulated: 3907500  inst.: 70218823 (ipc=18.0) sim_rate=28121 (inst/sec) elapsed = 0:0:41:37 / Tue Mar 22 13:27:49 2016
GPGPU-Sim uArch: cycles simulated: 3909000  inst.: 70243719 (ipc=18.0) sim_rate=28119 (inst/sec) elapsed = 0:0:41:38 / Tue Mar 22 13:27:50 2016
GPGPU-Sim PTX: 70400000 instructions simulated : ctaid=(2,4,0) tid=(17,0,0)
GPGPU-Sim uArch: cycles simulated: 3910500  inst.: 70270695 (ipc=18.0) sim_rate=28119 (inst/sec) elapsed = 0:0:41:39 / Tue Mar 22 13:27:51 2016
GPGPU-Sim uArch: cycles simulated: 3912500  inst.: 70308967 (ipc=18.0) sim_rate=28123 (inst/sec) elapsed = 0:0:41:40 / Tue Mar 22 13:27:52 2016
GPGPU-Sim uArch: cycles simulated: 3914000  inst.: 70332679 (ipc=18.0) sim_rate=28121 (inst/sec) elapsed = 0:0:41:41 / Tue Mar 22 13:27:53 2016
GPGPU-Sim PTX: 70500000 instructions simulated : ctaid=(8,3,0) tid=(209,0,0)
GPGPU-Sim uArch: cycles simulated: 3915500  inst.: 70361671 (ipc=18.0) sim_rate=28122 (inst/sec) elapsed = 0:0:41:42 / Tue Mar 22 13:27:54 2016
GPGPU-Sim uArch: cycles simulated: 3917000  inst.: 70390311 (ipc=18.0) sim_rate=28122 (inst/sec) elapsed = 0:0:41:43 / Tue Mar 22 13:27:55 2016
GPGPU-Sim uArch: cycles simulated: 3918500  inst.: 70420391 (ipc=18.0) sim_rate=28123 (inst/sec) elapsed = 0:0:41:44 / Tue Mar 22 13:27:56 2016
GPGPU-Sim uArch: cycles simulated: 3920000  inst.: 70447975 (ipc=18.0) sim_rate=28122 (inst/sec) elapsed = 0:0:41:45 / Tue Mar 22 13:27:57 2016
GPGPU-Sim PTX: 70600000 instructions simulated : ctaid=(2,2,0) tid=(49,0,0)
GPGPU-Sim uArch: cycles simulated: 3922000  inst.: 70486439 (ipc=18.0) sim_rate=28127 (inst/sec) elapsed = 0:0:41:46 / Tue Mar 22 13:27:58 2016
GPGPU-Sim uArch: cycles simulated: 3923500  inst.: 70509447 (ipc=18.0) sim_rate=28125 (inst/sec) elapsed = 0:0:41:47 / Tue Mar 22 13:27:59 2016
GPGPU-Sim uArch: cycles simulated: 3925000  inst.: 70533095 (ipc=18.0) sim_rate=28123 (inst/sec) elapsed = 0:0:41:48 / Tue Mar 22 13:28:00 2016
GPGPU-Sim uArch: cycles simulated: 3926500  inst.: 70558599 (ipc=18.0) sim_rate=28122 (inst/sec) elapsed = 0:0:41:49 / Tue Mar 22 13:28:01 2016
GPGPU-Sim PTX: 70700000 instructions simulated : ctaid=(1,3,0) tid=(209,0,0)
GPGPU-Sim uArch: cycles simulated: 3928000  inst.: 70585447 (ipc=18.0) sim_rate=28121 (inst/sec) elapsed = 0:0:41:50 / Tue Mar 22 13:28:02 2016
GPGPU-Sim uArch: cycles simulated: 3929500  inst.: 70612775 (ipc=18.0) sim_rate=28121 (inst/sec) elapsed = 0:0:41:51 / Tue Mar 22 13:28:03 2016
GPGPU-Sim uArch: cycles simulated: 3931500  inst.: 70644647 (ipc=18.0) sim_rate=28122 (inst/sec) elapsed = 0:0:41:52 / Tue Mar 22 13:28:04 2016
GPGPU-Sim PTX: 70800000 instructions simulated : ctaid=(8,1,0) tid=(113,0,0)
GPGPU-Sim uArch: cycles simulated: 3933000  inst.: 70672455 (ipc=18.0) sim_rate=28122 (inst/sec) elapsed = 0:0:41:53 / Tue Mar 22 13:28:05 2016
GPGPU-Sim uArch: cycles simulated: 3934500  inst.: 70700423 (ipc=18.0) sim_rate=28122 (inst/sec) elapsed = 0:0:41:54 / Tue Mar 22 13:28:06 2016
GPGPU-Sim uArch: cycles simulated: 3935500  inst.: 70717671 (ipc=18.0) sim_rate=28118 (inst/sec) elapsed = 0:0:41:55 / Tue Mar 22 13:28:07 2016
GPGPU-Sim uArch: cycles simulated: 3937000  inst.: 70747815 (ipc=18.0) sim_rate=28119 (inst/sec) elapsed = 0:0:41:56 / Tue Mar 22 13:28:08 2016
GPGPU-Sim PTX: 70900000 instructions simulated : ctaid=(5,2,0) tid=(49,0,0)
GPGPU-Sim uArch: cycles simulated: 3938500  inst.: 70774119 (ipc=18.0) sim_rate=28118 (inst/sec) elapsed = 0:0:41:57 / Tue Mar 22 13:28:09 2016
GPGPU-Sim uArch: cycles simulated: 3940000  inst.: 70804423 (ipc=18.0) sim_rate=28119 (inst/sec) elapsed = 0:0:41:58 / Tue Mar 22 13:28:10 2016
GPGPU-Sim uArch: cycles simulated: 3941500  inst.: 70828551 (ipc=18.0) sim_rate=28117 (inst/sec) elapsed = 0:0:41:59 / Tue Mar 22 13:28:11 2016
GPGPU-Sim uArch: cycles simulated: 3943000  inst.: 70857767 (ipc=18.0) sim_rate=28118 (inst/sec) elapsed = 0:0:42:00 / Tue Mar 22 13:28:12 2016
GPGPU-Sim PTX: 71000000 instructions simulated : ctaid=(10,3,0) tid=(145,0,0)
GPGPU-Sim uArch: cycles simulated: 3944500  inst.: 70885959 (ipc=18.0) sim_rate=28118 (inst/sec) elapsed = 0:0:42:01 / Tue Mar 22 13:28:13 2016
GPGPU-Sim uArch: cycles simulated: 3946000  inst.: 70915604 (ipc=18.0) sim_rate=28118 (inst/sec) elapsed = 0:0:42:02 / Tue Mar 22 13:28:14 2016
GPGPU-Sim uArch: cycles simulated: 3947500  inst.: 70942324 (ipc=18.0) sim_rate=28118 (inst/sec) elapsed = 0:0:42:03 / Tue Mar 22 13:28:15 2016
GPGPU-Sim PTX: 71100000 instructions simulated : ctaid=(1,5,0) tid=(23,0,0)
GPGPU-Sim uArch: cycles simulated: 3949500  inst.: 70977044 (ipc=18.0) sim_rate=28120 (inst/sec) elapsed = 0:0:42:04 / Tue Mar 22 13:28:16 2016
GPGPU-Sim uArch: cycles simulated: 3951000  inst.: 71002260 (ipc=18.0) sim_rate=28119 (inst/sec) elapsed = 0:0:42:05 / Tue Mar 22 13:28:17 2016
GPGPU-Sim uArch: cycles simulated: 3952500  inst.: 71031028 (ipc=18.0) sim_rate=28119 (inst/sec) elapsed = 0:0:42:06 / Tue Mar 22 13:28:18 2016
GPGPU-Sim uArch: cycles simulated: 3954000  inst.: 71051316 (ipc=18.0) sim_rate=28116 (inst/sec) elapsed = 0:0:42:07 / Tue Mar 22 13:28:19 2016
GPGPU-Sim PTX: 71200000 instructions simulated : ctaid=(9,3,0) tid=(151,0,0)
GPGPU-Sim uArch: cycles simulated: 3955500  inst.: 71077268 (ipc=18.0) sim_rate=28116 (inst/sec) elapsed = 0:0:42:08 / Tue Mar 22 13:28:20 2016
GPGPU-Sim uArch: cycles simulated: 3957000  inst.: 71107252 (ipc=18.0) sim_rate=28116 (inst/sec) elapsed = 0:0:42:09 / Tue Mar 22 13:28:21 2016
GPGPU-Sim uArch: cycles simulated: 3959000  inst.: 71142388 (ipc=18.0) sim_rate=28119 (inst/sec) elapsed = 0:0:42:10 / Tue Mar 22 13:28:22 2016
GPGPU-Sim PTX: 71300000 instructions simulated : ctaid=(10,2,0) tid=(87,0,0)
GPGPU-Sim uArch: cycles simulated: 3960500  inst.: 71168628 (ipc=18.0) sim_rate=28118 (inst/sec) elapsed = 0:0:42:11 / Tue Mar 22 13:28:23 2016
GPGPU-Sim uArch: cycles simulated: 3962000  inst.: 71197044 (ipc=18.0) sim_rate=28118 (inst/sec) elapsed = 0:0:42:12 / Tue Mar 22 13:28:24 2016
GPGPU-Sim uArch: cycles simulated: 3964000  inst.: 71230356 (ipc=18.0) sim_rate=28120 (inst/sec) elapsed = 0:0:42:13 / Tue Mar 22 13:28:25 2016
GPGPU-Sim uArch: cycles simulated: 3965500  inst.: 71257460 (ipc=18.0) sim_rate=28120 (inst/sec) elapsed = 0:0:42:14 / Tue Mar 22 13:28:26 2016
GPGPU-Sim PTX: 71400000 instructions simulated : ctaid=(1,3,0) tid=(151,0,0)
GPGPU-Sim uArch: cycles simulated: 3967500  inst.: 71291668 (ipc=18.0) sim_rate=28122 (inst/sec) elapsed = 0:0:42:15 / Tue Mar 22 13:28:27 2016
GPGPU-Sim uArch: cycles simulated: 3969000  inst.: 71317332 (ipc=18.0) sim_rate=28121 (inst/sec) elapsed = 0:0:42:16 / Tue Mar 22 13:28:28 2016
GPGPU-Sim uArch: cycles simulated: 3970500  inst.: 71346292 (ipc=18.0) sim_rate=28122 (inst/sec) elapsed = 0:0:42:17 / Tue Mar 22 13:28:29 2016
GPGPU-Sim PTX: 71500000 instructions simulated : ctaid=(5,1,0) tid=(183,0,0)
GPGPU-Sim uArch: cycles simulated: 3972000  inst.: 71376091 (ipc=18.0) sim_rate=28122 (inst/sec) elapsed = 0:0:42:18 / Tue Mar 22 13:28:30 2016
GPGPU-Sim uArch: cycles simulated: 3974000  inst.: 71411643 (ipc=18.0) sim_rate=28125 (inst/sec) elapsed = 0:0:42:19 / Tue Mar 22 13:28:31 2016
GPGPU-Sim uArch: cycles simulated: 3975500  inst.: 71438171 (ipc=18.0) sim_rate=28125 (inst/sec) elapsed = 0:0:42:20 / Tue Mar 22 13:28:32 2016
GPGPU-Sim PTX: 71600000 instructions simulated : ctaid=(0,5,0) tid=(73,0,0)
GPGPU-Sim uArch: cycles simulated: 3977000  inst.: 71464507 (ipc=18.0) sim_rate=28124 (inst/sec) elapsed = 0:0:42:21 / Tue Mar 22 13:28:33 2016
GPGPU-Sim uArch: cycles simulated: 3978500  inst.: 71487451 (ipc=18.0) sim_rate=28122 (inst/sec) elapsed = 0:0:42:22 / Tue Mar 22 13:28:34 2016
GPGPU-Sim uArch: cycles simulated: 3980000  inst.: 71517627 (ipc=18.0) sim_rate=28123 (inst/sec) elapsed = 0:0:42:23 / Tue Mar 22 13:28:35 2016
GPGPU-Sim uArch: cycles simulated: 3981500  inst.: 71543195 (ipc=18.0) sim_rate=28122 (inst/sec) elapsed = 0:0:42:24 / Tue Mar 22 13:28:36 2016
GPGPU-Sim PTX: 71700000 instructions simulated : ctaid=(7,3,0) tid=(137,0,0)
GPGPU-Sim uArch: cycles simulated: 3983000  inst.: 71573819 (ipc=18.0) sim_rate=28123 (inst/sec) elapsed = 0:0:42:25 / Tue Mar 22 13:28:37 2016
GPGPU-Sim uArch: cycles simulated: 3984500  inst.: 71595675 (ipc=18.0) sim_rate=28120 (inst/sec) elapsed = 0:0:42:26 / Tue Mar 22 13:28:38 2016
GPGPU-Sim uArch: cycles simulated: 3986000  inst.: 71628187 (ipc=18.0) sim_rate=28122 (inst/sec) elapsed = 0:0:42:27 / Tue Mar 22 13:28:39 2016
GPGPU-Sim PTX: 71800000 instructions simulated : ctaid=(4,5,0) tid=(137,0,0)
GPGPU-Sim uArch: cycles simulated: 3988000  inst.: 71662043 (ipc=18.0) sim_rate=28124 (inst/sec) elapsed = 0:0:42:28 / Tue Mar 22 13:28:40 2016
GPGPU-Sim uArch: cycles simulated: 3989500  inst.: 71696091 (ipc=18.0) sim_rate=28127 (inst/sec) elapsed = 0:0:42:29 / Tue Mar 22 13:28:41 2016
GPGPU-Sim uArch: cycles simulated: 3991000  inst.: 71724358 (ipc=18.0) sim_rate=28127 (inst/sec) elapsed = 0:0:42:30 / Tue Mar 22 13:28:42 2016
GPGPU-Sim uArch: cycles simulated: 3992500  inst.: 71750150 (ipc=18.0) sim_rate=28126 (inst/sec) elapsed = 0:0:42:31 / Tue Mar 22 13:28:43 2016
GPGPU-Sim PTX: 71900000 instructions simulated : ctaid=(10,2,0) tid=(211,0,0)
GPGPU-Sim uArch: cycles simulated: 3994000  inst.: 71778694 (ipc=18.0) sim_rate=28126 (inst/sec) elapsed = 0:0:42:32 / Tue Mar 22 13:28:44 2016
GPGPU-Sim uArch: cycles simulated: 3995500  inst.: 71807078 (ipc=18.0) sim_rate=28126 (inst/sec) elapsed = 0:0:42:33 / Tue Mar 22 13:28:45 2016
GPGPU-Sim uArch: cycles simulated: 3997000  inst.: 71831814 (ipc=18.0) sim_rate=28125 (inst/sec) elapsed = 0:0:42:34 / Tue Mar 22 13:28:46 2016
GPGPU-Sim PTX: 72000000 instructions simulated : ctaid=(3,2,0) tid=(51,0,0)
GPGPU-Sim uArch: cycles simulated: 3998500  inst.: 71860358 (ipc=18.0) sim_rate=28125 (inst/sec) elapsed = 0:0:42:35 / Tue Mar 22 13:28:47 2016
GPGPU-Sim uArch: cycles simulated: 4000500  inst.: 71894822 (ipc=18.0) sim_rate=28127 (inst/sec) elapsed = 0:0:42:36 / Tue Mar 22 13:28:48 2016
GPGPU-Sim uArch: cycles simulated: 4002000  inst.: 71925734 (ipc=18.0) sim_rate=28128 (inst/sec) elapsed = 0:0:42:37 / Tue Mar 22 13:28:49 2016
GPGPU-Sim uArch: cycles simulated: 4003500  inst.: 71950086 (ipc=18.0) sim_rate=28127 (inst/sec) elapsed = 0:0:42:38 / Tue Mar 22 13:28:50 2016
GPGPU-Sim PTX: 72100000 instructions simulated : ctaid=(8,4,0) tid=(19,0,0)
GPGPU-Sim uArch: cycles simulated: 4004500  inst.: 71967206 (ipc=18.0) sim_rate=28123 (inst/sec) elapsed = 0:0:42:39 / Tue Mar 22 13:28:51 2016
GPGPU-Sim uArch: cycles simulated: 4006000  inst.: 71996262 (ipc=18.0) sim_rate=28123 (inst/sec) elapsed = 0:0:42:40 / Tue Mar 22 13:28:52 2016
GPGPU-Sim uArch: cycles simulated: 4008000  inst.: 72035206 (ipc=18.0) sim_rate=28127 (inst/sec) elapsed = 0:0:42:41 / Tue Mar 22 13:28:53 2016
GPGPU-Sim PTX: 72200000 instructions simulated : ctaid=(0,3,0) tid=(211,0,0)
GPGPU-Sim uArch: cycles simulated: 4009500  inst.: 72061702 (ipc=18.0) sim_rate=28127 (inst/sec) elapsed = 0:0:42:42 / Tue Mar 22 13:28:54 2016
GPGPU-Sim uArch: cycles simulated: 4011000  inst.: 72089576 (ipc=18.0) sim_rate=28127 (inst/sec) elapsed = 0:0:42:43 / Tue Mar 22 13:28:55 2016
GPGPU-Sim uArch: cycles simulated: 4013000  inst.: 72123976 (ipc=18.0) sim_rate=28129 (inst/sec) elapsed = 0:0:42:44 / Tue Mar 22 13:28:56 2016
GPGPU-Sim uArch: cycles simulated: 4014500  inst.: 72152136 (ipc=18.0) sim_rate=28129 (inst/sec) elapsed = 0:0:42:45 / Tue Mar 22 13:28:57 2016
GPGPU-Sim PTX: 72300000 instructions simulated : ctaid=(4,4,0) tid=(15,0,0)
GPGPU-Sim uArch: cycles simulated: 4016000  inst.: 72177064 (ipc=18.0) sim_rate=28128 (inst/sec) elapsed = 0:0:42:46 / Tue Mar 22 13:28:58 2016
GPGPU-Sim uArch: cycles simulated: 4017500  inst.: 72204435 (ipc=18.0) sim_rate=28127 (inst/sec) elapsed = 0:0:42:47 / Tue Mar 22 13:28:59 2016
GPGPU-Sim uArch: cycles simulated: 4019500  inst.: 72238547 (ipc=18.0) sim_rate=28130 (inst/sec) elapsed = 0:0:42:48 / Tue Mar 22 13:29:00 2016
GPGPU-Sim PTX: 72400000 instructions simulated : ctaid=(5,2,0) tid=(121,0,0)
GPGPU-Sim uArch: cycles simulated: 4021000  inst.: 72264179 (ipc=18.0) sim_rate=28129 (inst/sec) elapsed = 0:0:42:49 / Tue Mar 22 13:29:01 2016
GPGPU-Sim uArch: cycles simulated: 4023000  inst.: 72295827 (ipc=18.0) sim_rate=28130 (inst/sec) elapsed = 0:0:42:50 / Tue Mar 22 13:29:02 2016
GPGPU-Sim uArch: cycles simulated: 4024500  inst.: 72327635 (ipc=18.0) sim_rate=28132 (inst/sec) elapsed = 0:0:42:51 / Tue Mar 22 13:29:03 2016
GPGPU-Sim PTX: 72500000 instructions simulated : ctaid=(1,5,0) tid=(89,0,0)
GPGPU-Sim uArch: cycles simulated: 4026500  inst.: 72361747 (ipc=18.0) sim_rate=28134 (inst/sec) elapsed = 0:0:42:52 / Tue Mar 22 13:29:04 2016
GPGPU-Sim uArch: cycles simulated: 4028000  inst.: 72388803 (ipc=18.0) sim_rate=28134 (inst/sec) elapsed = 0:0:42:53 / Tue Mar 22 13:29:05 2016
GPGPU-Sim uArch: cycles simulated: 4030000  inst.: 72422275 (ipc=18.0) sim_rate=28136 (inst/sec) elapsed = 0:0:42:54 / Tue Mar 22 13:29:06 2016
GPGPU-Sim uArch: cycles simulated: 4031500  inst.: 72452931 (ipc=18.0) sim_rate=28137 (inst/sec) elapsed = 0:0:42:55 / Tue Mar 22 13:29:07 2016
GPGPU-Sim PTX: 72600000 instructions simulated : ctaid=(1,5,0) tid=(89,0,0)
GPGPU-Sim uArch: cycles simulated: 4033500  inst.: 72484163 (ipc=18.0) sim_rate=28138 (inst/sec) elapsed = 0:0:42:56 / Tue Mar 22 13:29:08 2016
GPGPU-Sim uArch: cycles simulated: 4035000  inst.: 72515015 (ipc=18.0) sim_rate=28139 (inst/sec) elapsed = 0:0:42:57 / Tue Mar 22 13:29:09 2016
GPGPU-Sim uArch: cycles simulated: 4036500  inst.: 72545991 (ipc=18.0) sim_rate=28140 (inst/sec) elapsed = 0:0:42:58 / Tue Mar 22 13:29:10 2016
GPGPU-Sim PTX: 72700000 instructions simulated : ctaid=(6,4,0) tid=(81,0,0)
GPGPU-Sim uArch: cycles simulated: 4038500  inst.: 72578911 (ipc=18.0) sim_rate=28142 (inst/sec) elapsed = 0:0:42:59 / Tue Mar 22 13:29:11 2016
GPGPU-Sim uArch: cycles simulated: 4040000  inst.: 72613727 (ipc=18.0) sim_rate=28144 (inst/sec) elapsed = 0:0:43:00 / Tue Mar 22 13:29:12 2016
GPGPU-Sim uArch: cycles simulated: 4041500  inst.: 72641727 (ipc=18.0) sim_rate=28144 (inst/sec) elapsed = 0:0:43:01 / Tue Mar 22 13:29:13 2016
GPGPU-Sim PTX: 72800000 instructions simulated : ctaid=(0,2,0) tid=(97,0,0)
GPGPU-Sim uArch: cycles simulated: 4043000  inst.: 72663743 (ipc=18.0) sim_rate=28142 (inst/sec) elapsed = 0:0:43:02 / Tue Mar 22 13:29:14 2016
GPGPU-Sim uArch: cycles simulated: 4045000  inst.: 72706879 (ipc=18.0) sim_rate=28148 (inst/sec) elapsed = 0:0:43:03 / Tue Mar 22 13:29:15 2016
GPGPU-Sim uArch: cycles simulated: 4047000  inst.: 72744416 (ipc=18.0) sim_rate=28151 (inst/sec) elapsed = 0:0:43:04 / Tue Mar 22 13:29:16 2016
GPGPU-Sim PTX: 72900000 instructions simulated : ctaid=(5,2,0) tid=(63,0,0)
GPGPU-Sim uArch: cycles simulated: 4048500  inst.: 72773120 (ipc=18.0) sim_rate=28152 (inst/sec) elapsed = 0:0:43:05 / Tue Mar 22 13:29:17 2016
GPGPU-Sim uArch: cycles simulated: 4050500  inst.: 72808736 (ipc=18.0) sim_rate=28154 (inst/sec) elapsed = 0:0:43:06 / Tue Mar 22 13:29:18 2016
