

        *** GPGPU-Sim Simulator Version 3.2.2  [build 0] ***


GPGPU-Sim PTX: simulation mode 0 (can change with PTX_SIM_MODE_FUNC environment variable:
               1=functional simulation only, 0=detailed performance simulator)
GPGPU-Sim: Configuration options:

-network_mode                           1 # Interconnection network mode
-inter_config_file   config_fermi_islip.icnt # Interconnection network config file
-gpgpu_ptx_use_cuobjdump                    1 # Use cuobjdump to extract ptx and sass from binaries
-gpgpu_experimental_lib_support                    0 # Try to extract code from cuda libraries [Broken because of unknown cudaGetExportTable]
-gpgpu_ptx_convert_to_ptxplus                    0 # Convert SASS (native ISA) to ptxplus and run ptxplus
-gpgpu_ptx_force_max_capability                   20 # Force maximum compute capability
-gpgpu_ptx_inst_debug_to_file                    0 # Dump executed instructions' debug information to file
-gpgpu_ptx_inst_debug_file       inst_debug.txt # Executed instructions' debug output file
-gpgpu_ptx_inst_debug_thread_uid                    1 # Thread UID for executed instructions' debug output
-gpgpu_simd_model                       1 # 1 = post-dominator
-gpgpu_shader_core_pipeline              1536:32 # shader core pipeline config, i.e., {<nthread>:<warpsize>}
-gpgpu_tex_cache:l1  4:128:24,L:R:m:N:L,F:128:4,128:2 # per-shader L1 texture cache  (READ-ONLY) config  {<nsets>:<bsize>:<assoc>,<rep>:<wr>:<alloc>:<wr_alloc>,<mshr>:<N>:<merge>,<mq>:<rf>}
-gpgpu_const_cache:l1 64:64:2,L:R:f:N:L,A:2:32,4 # per-shader L1 constant memory cache  (READ-ONLY) config  {<nsets>:<bsize>:<assoc>,<rep>:<wr>:<alloc>:<wr_alloc>,<mshr>:<N>:<merge>,<mq>} 
-gpgpu_cache:il1     4:128:4,L:R:f:N:L,A:2:32,4 # shader L1 instruction cache config  {<nsets>:<bsize>:<assoc>,<rep>:<wr>:<alloc>:<wr_alloc>,<mshr>:<N>:<merge>,<mq>} 
-gpgpu_cache:dl1     32:128:4,L:L:m:N:H,A:32:8,8:2,0,1:0:1:1:0:1,1:4:8:16:32:64,/sciclone/data10/hwang07/GPU_RESEARCH/swl/swl_outputs/RESULTS/swl2/ # per-shader L1 data cache config  {<nsets>:<bsize>:<assoc>,<rep>:<wr>:<alloc>:<wr_alloc>,<mshr>:<N>:<merge>,<mq> | none}
-gpgpu_cache:dl1PrefL1                 none # per-shader L1 data cache config  {<nsets>:<bsize>:<assoc>,<rep>:<wr>:<alloc>:<wr_alloc>,<mshr>:<N>:<merge>,<mq> | none}
-gpgpu_cache:dl1PreShared                 none # per-shader L1 data cache config  {<nsets>:<bsize>:<assoc>,<rep>:<wr>:<alloc>:<wr_alloc>,<mshr>:<N>:<merge>,<mq> | none}
-gmem_skip_L1D                          0 # global memory access skip L1D cache (implements -Xptxas -dlcm=cg, default=no skip)
-gpgpu_perfect_mem                      0 # enable perfect memory mode (no cache miss)
-n_regfile_gating_group                    4 # group of lanes that should be read/written together)
-gpgpu_clock_gated_reg_file                    0 # enable clock gated reg file for power calculations
-gpgpu_clock_gated_lanes                    0 # enable clock gated lanes for power calculations
-gpgpu_shader_registers                32768 # Number of registers per shader core. Limits number of concurrent CTAs. (default 8192)
-gpgpu_shader_cta                       8 # Maximum number of concurrent CTAs in shader (default 8)
-gpgpu_num_cta_barriers                   16 # Maximum number of named barriers per CTA (default 16)
-gpgpu_n_clusters                      15 # number of processing clusters
-gpgpu_n_cores_per_cluster                    1 # number of simd cores per cluster
-gpgpu_n_cluster_ejection_buffer_size                    8 # number of packets in ejection buffer
-gpgpu_n_ldst_response_buffer_size                    2 # number of response packets in ld/st unit ejection buffer
-gpgpu_shmem_size                   16384 # Size of shared memory per shader core (default 16kB)
-gpgpu_shmem_size                   49152 # Size of shared memory per shader core (default 16kB)
-gpgpu_shmem_size_PrefL1                16384 # Size of shared memory per shader core (default 16kB)
-gpgpu_shmem_size_PrefShared                16384 # Size of shared memory per shader core (default 16kB)
-gpgpu_shmem_num_banks                   32 # Number of banks in the shared memory in each shader core (default 16)
-gpgpu_shmem_limited_broadcast                    0 # Limit shared memory to do one broadcast per cycle (default on)
-gpgpu_shmem_warp_parts                    1 # Number of portions a warp is divided into for shared memory bank conflict check 
-gpgpu_warpdistro_shader                   -1 # Specify which shader core to collect the warp size distribution from
-gpgpu_warp_issue_shader                    0 # Specify which shader core to collect the warp issue distribution from
-gpgpu_local_mem_map                    1 # Mapping from local memory space address to simulated GPU physical address space (default = enabled)
-gpgpu_num_reg_banks                   16 # Number of register banks (default = 8)
-gpgpu_reg_bank_use_warp_id                    0 # Use warp ID in mapping registers to banks (default = off)
-gpgpu_operand_collector_num_units_sp                    6 # number of collector units (default = 4)
-gpgpu_operand_collector_num_units_sfu                    8 # number of collector units (default = 4)
-gpgpu_operand_collector_num_units_mem                    2 # number of collector units (default = 2)
-gpgpu_operand_collector_num_units_gen                    0 # number of collector units (default = 0)
-gpgpu_operand_collector_num_in_ports_sp                    2 # number of collector unit in ports (default = 1)
-gpgpu_operand_collector_num_in_ports_sfu                    1 # number of collector unit in ports (default = 1)
-gpgpu_operand_collector_num_in_ports_mem                    1 # number of collector unit in ports (default = 1)
-gpgpu_operand_collector_num_in_ports_gen                    0 # number of collector unit in ports (default = 0)
-gpgpu_operand_collector_num_out_ports_sp                    2 # number of collector unit in ports (default = 1)
-gpgpu_operand_collector_num_out_ports_sfu                    1 # number of collector unit in ports (default = 1)
-gpgpu_operand_collector_num_out_ports_mem                    1 # number of collector unit in ports (default = 1)
-gpgpu_operand_collector_num_out_ports_gen                    0 # number of collector unit in ports (default = 0)
-gpgpu_coalesce_arch                   13 # Coalescing arch (default = 13, anything else is off for now)
-gpgpu_num_sched_per_core                    2 # Number of warp schedulers per core
-gpgpu_max_insn_issue_per_warp                    1 # Max number of instructions that can be issued per warp in one cycle by scheduler
-gpgpu_simt_core_sim_order                    1 # Select the simulation order of cores in a cluster (0=Fix, 1=Round-Robin)
-gpgpu_pipeline_widths        2,1,1,2,1,1,2 # Pipeline widths ID_OC_SP,ID_OC_SFU,ID_OC_MEM,OC_EX_SP,OC_EX_SFU,OC_EX_MEM,EX_WB
-gpgpu_num_sp_units                     2 # Number of SP units (default=1)
-gpgpu_num_sfu_units                    1 # Number of SF units (default=1)
-gpgpu_num_mem_units                    1 # Number if ldst units (default=1) WARNING: not hooked up to anything
-gpgpu_scheduler        warp_limiting:2:2 # Scheduler configuration: < lrr | gto | two_level_active > If two_level_active:<num_active_warps>:<inner_prioritization>:<outer_prioritization>For complete list of prioritization values see shader.h enum scheduler_prioritization_typeDefault: gto
-gpgpu_dram_scheduler                    1 # 0 = fifo, 1 = FR-FCFS (defaul)
-gpgpu_dram_partition_queues              8:8:8:8 # i2$:$2d:d2$:$2i
-l2_ideal                               0 # Use a ideal L2 cache that always hit
-gpgpu_cache:dl2     64:128:8,L:B:m:W:L,A:32:4,4:0,32 # unified banked L2 data cache config  {<nsets>:<bsize>:<assoc>,<rep>:<wr>:<alloc>:<wr_alloc>,<mshr>:<N>:<merge>,<mq>}
-gpgpu_cache:dl2_texture_only                    0 # L2 cache used for texture only
-gpgpu_n_mem                            6 # number of memory modules (e.g. memory controllers) in gpu
-gpgpu_n_sub_partition_per_mchannel                    2 # number of memory subpartition in each memory module
-gpgpu_n_mem_per_ctrlr                    2 # number of memory chips per memory controller
-gpgpu_memlatency_stat                   14 # track and display latency statistics 0x2 enables MC, 0x4 enables queue logs
-gpgpu_frfcfs_dram_sched_queue_size                   16 # 0 = unlimited (default); # entries per chip
-gpgpu_dram_return_queue_size                  116 # 0 = unlimited (default); # entries per chip
-gpgpu_dram_buswidth                    4 # default = 4 bytes (8 bytes per cycle at DDR)
-gpgpu_dram_burst_length                    8 # Burst length of each DRAM request (default = 4 data bus cycle)
-dram_data_command_freq_ratio                    4 # Frequency ratio between DRAM data bus and command bus (default = 2 times, i.e. DDR)
-gpgpu_dram_timing_opt nbk=16:CCD=2:RRD=6:RCD=12:RAS=28:RP=12:RC=40: CL=12:WL=4:CDLR=5:WR=12:nbkgrp=4:CCDL=3:RTPL=2 # DRAM timing parameters = {nbk:tCCD:tRRD:tRCD:tRAS:tRP:tRC:CL:WL:tCDLR:tWR:nbkgrp:tCCDL:tRTPL}
-rop_latency                          120 # ROP queue latency (default 85)
-dram_latency                         100 # DRAM latency (default 30)
-gpgpu_mem_addr_mapping dramid@8;00000000.00000000.00000000.00000000.0000RRRR.RRRRRRRR.BBBCCCCB.CCSSSSSS # mapping memory address to dram model {dramid@<start bit>;<memory address map>}
-gpgpu_mem_addr_test                    0 # run sweep test to check address mapping for aliased address
-gpgpu_mem_address_mask                    1 # 0 = old addressing mask, 1 = new addressing mask, 2 = new add. mask + flipped bank sel and chip sel bits
-gpuwattch_xml_file  gpuwattch_gtx480.xml # GPUWattch XML file
-power_simulation_enabled                    0 # Turn on power simulator (1=On, 0=Off)
-power_per_cycle_dump                    0 # Dump detailed power output each cycle
-power_trace_enabled                    0 # produce a file for the power trace (1=On, 0=Off)
-power_trace_zlevel                     6 # Compression level of the power trace output log (0=no comp, 9=highest)
-steady_power_levels_enabled                    0 # produce a file for the steady power levels (1=On, 0=Off)
-steady_state_definition                  8:4 # allowed deviation:number of samples
-gpgpu_max_cycle                        0 # terminates gpu simulation early (0 = no limit)
-gpgpu_max_insn                         0 # terminates gpu simulation early (0 = no limit)
-gpgpu_max_cta                          0 # terminates gpu simulation early (0 = no limit)
-gpgpu_runtime_stat                   500 # display runtime statistics such as dram utilization {<freq>:<flag>}
-liveness_message_freq                    1 # Minimum number of seconds between simulation liveness messages (0 = always print)
-gpgpu_flush_l1_cache                    0 # Flush L1 cache at the end of each kernel call
-gpgpu_flush_l2_cache                    0 # Flush L2 cache at the end of each kernel call
-gpgpu_deadlock_detect                    1 # Stop the simulation at deadlock (1=on (default), 0=off)
-gpgpu_ptx_instruction_classification                    0 # if enabled will classify ptx instruction types per kernel (Max 255 kernels now)
-gpgpu_ptx_sim_mode                     0 # Select between Performance (default) or Functional simulation (1)
-gpgpu_clock_domains 700.0:700.0:700.0:924.0 # Clock Domain Frequencies in MhZ {<Core Clock>:<ICNT Clock>:<L2 Clock>:<DRAM Clock>}
-gpgpu_max_concurrent_kernel                    8 # maximum kernels that can run concurrently on GPU
-gpgpu_cflog_interval                    0 # Interval between each snapshot in control flow logger
-visualizer_enabled                     0 # Turn on visualizer output (1=On, 0=Off)
-visualizer_outputfile                 NULL # Specifies the output log file for visualizer
-visualizer_zlevel                      6 # Compression level of the visualizer output log (0=no comp, 9=highest)
-trace_enabled                          0 # Turn on traces
-trace_components                    none # comma seperated list of traces to enable. Complete list found in trace_streams.tup. Default none
-trace_sampling_core                    0 # The core which is printed using CORE_DPRINTF. Default 0
-trace_sampling_memory_partition                   -1 # The memory partition which is printed using MEMPART_DPRINTF. Default -1 (i.e. all)
-enable_ptx_file_line_stats                    1 # Turn on PTX source line statistic profiling. (1 = On)
-ptx_line_stats_filename gpgpu_inst_stats.txt # Output file for PTX source line statistics.
-save_embedded_ptx                      0 # saves ptx files embedded in binary as <n>.ptx
-keep                                   0 # keep intermediate files created by GPGPU-Sim when interfacing with external programs
-gpgpu_ptx_save_converted_ptxplus                    0 # Saved converted ptxplus to a file
-ptx_opcode_latency_int         4,13,4,5,145 # Opcode latencies for integers <ADD,MAX,MUL,MAD,DIV>Default 1,1,19,25,145
-ptx_opcode_latency_fp          4,13,4,5,39 # Opcode latencies for single precision floating points <ADD,MAX,MUL,MAD,DIV>Default 1,1,1,1,30
-ptx_opcode_latency_dp         8,19,8,8,330 # Opcode latencies for double precision floating points <ADD,MAX,MUL,MAD,DIV>Default 8,8,8,8,335
-ptx_opcode_initiation_int            1,2,2,1,8 # Opcode initiation intervals for integers <ADD,MAX,MUL,MAD,DIV>Default 1,1,4,4,32
-ptx_opcode_initiation_fp            1,2,1,1,4 # Opcode initiation intervals for single precision floating points <ADD,MAX,MUL,MAD,DIV>Default 1,1,1,1,5
-ptx_opcode_initiation_dp         8,16,8,8,130 # Opcode initiation intervals for double precision floating points <ADD,MAX,MUL,MAD,DIV>Default 8,8,8,8,130
DRAM Timing Options:
nbk                                    16 # number of banks
CCD                                     2 # column to column delay
RRD                                     6 # minimal delay between activation of rows in different banks
RCD                                    12 # row to column delay
RAS                                    28 # time needed to activate row
RP                                     12 # time needed to precharge (deactivate) row
RC                                     40 # row cycle time
CDLR                                    5 # switching from write to read (changes tWTR)
WR                                     12 # last data-in to row precharge
CL                                     12 # CAS latency
WL                                      4 # Write latency
nbkgrp                                  4 # number of bank groups
CCDL                                    3 # column to column delay between accesses to different bank groups
RTPL                                    2 # read to precharge delay between accesses to different bank groups
Total number of memory sub partition = 12
addr_dec_mask[CHIP]  = 0000000000000000 	high:64 low:0
addr_dec_mask[BK]    = 000000000000e100 	high:16 low:8
addr_dec_mask[ROW]   = 000000000fff0000 	high:28 low:16
addr_dec_mask[COL]   = 0000000000001eff 	high:13 low:0
addr_dec_mask[BURST] = 000000000000003f 	high:6 low:0
sub_partition_id_mask = 0000000000000100
GPGPU-Sim uArch: clock freqs: 700000000.000000:700000000.000000:700000000.000000:924000000.000000
GPGPU-Sim uArch: clock periods: 0.00000000142857142857:0.00000000142857142857:0.00000000142857142857:0.00000000108225108225
*** Initializing Memory Statistics ***
GPGPU-Sim uArch: interconnect node map (shaderID+MemID to icntID)
GPGPU-Sim uArch: Memory nodes ID start from index: 15
GPGPU-Sim uArch:    0   1   2   3   4
GPGPU-Sim uArch:    5   6   7   8   9
GPGPU-Sim uArch:   10  11  12  13  14
GPGPU-Sim uArch:   15  16  17  18  19
GPGPU-Sim uArch:   20  21  22  23  24
GPGPU-Sim uArch:   25  26
GPGPU-Sim uArch: interconnect node reverse map (icntID to shaderID+MemID)
GPGPU-Sim uArch: Memory nodes start from ID: 15
GPGPU-Sim uArch:    0   1   2   3   4
GPGPU-Sim uArch:    5   6   7   8   9
GPGPU-Sim uArch:   10  11  12  13  14
GPGPU-Sim uArch:   15  16  17  18  19
GPGPU-Sim uArch:   20  21  22  23  24
GPGPU-Sim uArch:   25  26
7c107ad7564464849abebcc6a8942f69  /sciclone/data10/hwang07/adwait/applications/benchmarks/rodinia/cuda/srad/srad_v1/gpgpu_ptx_sim__srad
GPGPU-Sim uArch: performance model initialization complete.
GPGPU-Sim PTX: __cudaRegisterFatBinary, fat_cubin_handle = 1, filename=main.cu
self exe links to: /sciclone/data10/hwang07/adwait/applications/benchmarks/rodinia/cuda/srad/srad_v1/gpgpu_ptx_sim__srad
Running md5sum using "md5sum /sciclone/data10/hwang07/adwait/applications/benchmarks/rodinia/cuda/srad/srad_v1/gpgpu_ptx_sim__srad "
Parsing file _cuobjdump_complete_output_EuHA0a
######### cuobjdump parser ########
## Adding new section PTX
Adding ptx filename: _cuobjdump_1.ptx
Adding arch: sm_13
Adding identifier: main.cu
## Adding new section ELF
Adding arch: sm_13
Adding identifier: main.cu
Done parsing!!!
GPGPU-Sim PTX: __cudaRegisterFunction _Z8compresslPf : hostFun 0x0x401b90, fat_cubin_handle = 1
GPGPU-Sim PTX: instruction assembly for function '_Z7extractlPf'...   done.
GPGPU-Sim PTX: finding reconvergence points for '_Z7extractlPf'...
GPGPU-Sim PTX: Finding dominators for '_Z7extractlPf'...
GPGPU-Sim PTX: Finding immediate dominators for '_Z7extractlPf'...
GPGPU-Sim PTX: Finding postdominators for '_Z7extractlPf'...
GPGPU-Sim PTX: Finding immediate postdominators for '_Z7extractlPf'...
GPGPU-Sim PTX: pre-decoding instructions for '_Z7extractlPf'...
GPGPU-Sim PTX: reconvergence points for _Z7extractlPf...
GPGPU-Sim PTX:  1 (potential) branch divergence @  PC=0x040 (_1.ptx:74) @%p1 bra $Lt_0_2562;
GPGPU-Sim PTX:    immediate post dominator      @  PC=0x120 (_1.ptx:105) exit;
GPGPU-Sim PTX: ... end of reconvergence points for _Z7extractlPf
GPGPU-Sim PTX: ... done pre-decoding instructions for '_Z7extractlPf'.
GPGPU-Sim PTX: instruction assembly for function '_Z7preparelPfS_S_'...   done.
GPGPU-Sim PTX: finding reconvergence points for '_Z7preparelPfS_S_'...
GPGPU-Sim PTX: Finding dominators for '_Z7preparelPfS_S_'...
GPGPU-Sim PTX: Finding immediate dominators for '_Z7preparelPfS_S_'...
GPGPU-Sim PTX: Finding postdominators for '_Z7preparelPfS_S_'...
GPGPU-Sim PTX: Finding immediate postdominators for '_Z7preparelPfS_S_'...
GPGPU-Sim PTX: pre-decoding instructions for '_Z7preparelPfS_S_'...
GPGPU-Sim PTX: reconvergence points for _Z7preparelPfS_S_...
GPGPU-Sim PTX:  1 (potential) branch divergence @  PC=0x168 (_1.ptx:130) @%p1 bra $Lt_1_1026;
GPGPU-Sim PTX:    immediate post dominator      @  PC=0x1d0 (_1.ptx:147) exit;
GPGPU-Sim PTX: ... end of reconvergence points for _Z7preparelPfS_S_
GPGPU-Sim PTX: ... done pre-decoding instructions for '_Z7preparelPfS_S_'.
GPGPU-Sim PTX: allocating shared region for "__cuda___cuda_local_var_37232_32_non_const_d_psum80" from 0x0 to 0x800 (shared memory space)
GPGPU-Sim PTX: allocating shared region for "__cuda___cuda_local_var_37233_32_non_const_d_psum22128" from 0x800 to 0x1000 (shared memory space)
GPGPU-Sim PTX: instruction assembly for function '_Z6reduceliiPfS_'...   done.
GPGPU-Sim PTX: finding reconvergence points for '_Z6reduceliiPfS_'...
GPGPU-Sim PTX: Finding dominators for '_Z6reduceliiPfS_'...
GPGPU-Sim PTX: Finding immediate dominators for '_Z6reduceliiPfS_'...
GPGPU-Sim PTX: Finding postdominators for '_Z6reduceliiPfS_'...
GPGPU-Sim PTX: Finding immediate postdominators for '_Z6reduceliiPfS_'...
GPGPU-Sim PTX: pre-decoding instructions for '_Z6reduceliiPfS_'...
GPGPU-Sim PTX: reconvergence points for _Z6reduceliiPfS_...
GPGPU-Sim PTX:  1 (potential) branch divergence @  PC=0x208 (_1.ptx:172) @%p1 bra $Lt_2_13826;
GPGPU-Sim PTX:    immediate post dominator      @  PC=0x2a0 (_1.ptx:194) mov.u64 %rd1, __cuda___cuda_local_var_37232_32_non_const_d_psum80;
GPGPU-Sim PTX:  2 (potential) branch divergence @  PC=0x2e0 (_1.ptx:204) @%p2 bra $Lt_2_14594;
GPGPU-Sim PTX:    immediate post dominator      @  PC=0x988 (_1.ptx:467) exit;
GPGPU-Sim PTX:  3 (potential) branch divergence @  PC=0x310 (_1.ptx:212) @%p3 bra $Lt_2_15618;
GPGPU-Sim PTX:    immediate post dominator      @  PC=0x3c8 (_1.ptx:239) bar.sync 0;
GPGPU-Sim PTX:  4 (potential) branch divergence @  PC=0x3e8 (_1.ptx:244) @%p4 bra $Lt_2_15362;
GPGPU-Sim PTX:    immediate post dominator      @  PC=0x3f0 (_1.ptx:245) mov.u32 %r23, 511;
GPGPU-Sim PTX:  5 (potential) branch divergence @  PC=0x400 (_1.ptx:247) @%p5 bra $Lt_2_21506;
GPGPU-Sim PTX:    immediate post dominator      @  PC=0x988 (_1.ptx:467) exit;
GPGPU-Sim PTX:  6 (potential) branch divergence @  PC=0x490 (_1.ptx:267) bra.uni $Lt_2_21506;
GPGPU-Sim PTX:    immediate post dominator      @  PC=0x988 (_1.ptx:467) exit;
GPGPU-Sim PTX:  7 (potential) branch divergence @  PC=0x4a8 (_1.ptx:271) @%p6 bra $Lt_2_19714;
GPGPU-Sim PTX:    immediate post dominator      @  PC=0x988 (_1.ptx:467) exit;
GPGPU-Sim PTX:  8 (potential) branch divergence @  PC=0x4d8 (_1.ptx:279) @%p7 bra $Lt_2_18178;
GPGPU-Sim PTX:    immediate post dominator      @  PC=0x590 (_1.ptx:306) bar.sync 0;
GPGPU-Sim PTX:  9 (potential) branch divergence @  PC=0x5b0 (_1.ptx:311) @%p8 bra $Lt_2_17922;
GPGPU-Sim PTX:    immediate post dominator      @  PC=0x5b8 (_1.ptx:312) mov.u32 %r38, 511;
GPGPU-Sim PTX: 10 (potential) branch divergence @  PC=0x5c8 (_1.ptx:314) @%p9 bra $Lt_2_21506;
GPGPU-Sim PTX:    immediate post dominator      @  PC=0x988 (_1.ptx:467) exit;
GPGPU-Sim PTX: 11 (potential) branch divergence @  PC=0x658 (_1.ptx:334) bra.uni $Lt_2_21506;
GPGPU-Sim PTX:    immediate post dominator      @  PC=0x988 (_1.ptx:467) exit;
GPGPU-Sim PTX: 12 (potential) branch divergence @  PC=0x6a0 (_1.ptx:348) @%p11 bra $Lt_2_19970;
GPGPU-Sim PTX:    immediate post dominator      @  PC=0x6a8 (_1.ptx:349) mov.u32 %r45, 2;
GPGPU-Sim PTX: 13 (potential) branch divergence @  PC=0x6b8 (_1.ptx:351) @%p12 bra $Lt_2_20482;
GPGPU-Sim PTX:    immediate post dominator      @  PC=0x7d0 (_1.ptx:396) sub.s32 %r55, %r43, 1;
GPGPU-Sim PTX: 14 (potential) branch divergence @  PC=0x6e8 (_1.ptx:360) @%p13 bra $Lt_2_23298;
GPGPU-Sim PTX:    immediate post dominator      @  PC=0x7b0 (_1.ptx:390) bar.sync 0;
GPGPU-Sim PTX: 15 (potential) branch divergence @  PC=0x6f8 (_1.ptx:362) @%p14 bra $Lt_2_23298;
GPGPU-Sim PTX:    immediate post dominator      @  PC=0x7b0 (_1.ptx:390) bar.sync 0;
GPGPU-Sim PTX: 16 (potential) branch divergence @  PC=0x7c8 (_1.ptx:394) @%p15 bra $Lt_2_20994;
GPGPU-Sim PTX:    immediate post dominator      @  PC=0x7d0 (_1.ptx:396) sub.s32 %r55, %r43, 1;
GPGPU-Sim PTX: 17 (potential) branch divergence @  PC=0x7e0 (_1.ptx:398) @%p16 bra $Lt_2_21506;
GPGPU-Sim PTX:    immediate post dominator      @  PC=0x988 (_1.ptx:467) exit;
GPGPU-Sim PTX: 18 (potential) branch divergence @  PC=0x820 (_1.ptx:407) @%p17 bra $Lt_2_23810;
GPGPU-Sim PTX:    immediate post dominator      @  PC=0x930 (_1.ptx:448) ld.param.s32 %r62, [__cudaparm__Z6reduceliiPfS__d_mul];
GPGPU-Sim PTX: 19 (potential) branch divergence @  PC=0x8f0 (_1.ptx:437) @%p18 bra $Lt_2_22530;
GPGPU-Sim PTX:    immediate post dominator      @  PC=0x8f8 (_1.ptx:438) bra.uni $Lt_2_22018;
GPGPU-Sim PTX: 20 (potential) branch divergence @  PC=0x8f8 (_1.ptx:438) bra.uni $Lt_2_22018;
GPGPU-Sim PTX:    immediate post dominator      @  PC=0x930 (_1.ptx:448) ld.param.s32 %r62, [__cudaparm__Z6reduceliiPfS__d_mul];
GPGPU-Sim PTX: ... end of reconvergence points for _Z6reduceliiPfS_
GPGPU-Sim PTX: ... done pre-decoding instructions for '_Z6reduceliiPfS_'.
GPGPU-Sim PTX: instruction assembly for function '_Z4sradfiilPiS_S_S_PfS0_S0_S0_fS0_S0_'...   done.
GPGPU-Sim PTX: finding reconvergence points for '_Z4sradfiilPiS_S_S_PfS0_S0_S0_fS0_S0_'...
GPGPU-Sim PTX: Finding dominators for '_Z4sradfiilPiS_S_S_PfS0_S0_S0_fS0_S0_'...
GPGPU-Sim PTX: Finding immediate dominators for '_Z4sradfiilPiS_S_S_PfS0_S0_S0_fS0_S0_'...
GPGPU-Sim PTX: Finding postdominators for '_Z4sradfiilPiS_S_S_PfS0_S0_S0_fS0_S0_'...
GPGPU-Sim PTX: Finding immediate postdominators for '_Z4sradfiilPiS_S_S_PfS0_S0_S0_fS0_S0_'...
GPGPU-Sim PTX: pre-decoding instructions for '_Z4sradfiilPiS_S_S_PfS0_S0_S0_fS0_S0_'...
GPGPU-Sim PTX: reconvergence points for _Z4sradfiilPiS_S_S_PfS0_S0_S0_fS0_S0_...
GPGPU-Sim PTX:  1 (potential) branch divergence @  PC=0x9f0 (_1.ptx:510) @%p1 bra $Lt_3_3330;
GPGPU-Sim PTX:    immediate post dominator      @  PC=0xa10 (_1.ptx:518) cvt.s64.s32 %rd1, %r4;
GPGPU-Sim PTX:  2 (potential) branch divergence @  PC=0xa28 (_1.ptx:521) @%p2 bra $Lt_3_3842;
GPGPU-Sim PTX:    immediate post dominator      @  PC=0xd98 (_1.ptx:649) exit;
GPGPU-Sim PTX:  3 (potential) branch divergence @  PC=0xce8 (_1.ptx:617) @!%p3 bra $Lt_3_4610;
GPGPU-Sim PTX:    immediate post dominator      @  PC=0xd20 (_1.ptx:628) ld.param.u64 %rd30, [__cudaparm__Z4sradfiilPiS_S_S_PfS0_S0_S0_fS0_S0__d_dN];
GPGPU-Sim PTX:  4 (potential) branch divergence @  PC=0xcf8 (_1.ptx:619) bra.uni $Lt_3_4354;
GPGPU-Sim PTX:    immediate post dominator      @  PC=0xd20 (_1.ptx:628) ld.param.u64 %rd30, [__cudaparm__Z4sradfiilPiS_S_S_PfS0_S0_S0_fS0_S0__d_dN];
GPGPU-Sim PTX: ... end of reconvergence points for _Z4sradfiilPiS_S_S_PfS0_S0_S0_fS0_S0_
GPGPU-Sim PTX: ... done pre-decoding instructions for '_Z4sradfiilPiS_S_S_PfS0_S0_S0_fS0_S0_'.
GPGPU-Sim PTX: instruction assembly for function '_Z5srad2fiilPiS_S_S_PfS0_S0_S0_S0_S0_'...   done.
GPGPU-Sim PTX: finding reconvergence points for '_Z5srad2fiilPiS_S_S_PfS0_S0_S0_S0_S0_'...
GPGPU-Sim PTX: Finding dominators for '_Z5srad2fiilPiS_S_S_PfS0_S0_S0_S0_S0_'...
GPGPU-Sim PTX: Finding immediate dominators for '_Z5srad2fiilPiS_S_S_PfS0_S0_S0_S0_S0_'...
GPGPU-Sim PTX: Finding postdominators for '_Z5srad2fiilPiS_S_S_PfS0_S0_S0_S0_S0_'...
GPGPU-Sim PTX: Finding immediate postdominators for '_Z5srad2fiilPiS_S_S_PfS0_S0_S0_S0_S0_'...
GPGPU-Sim PTX: pre-decoding instructions for '_Z5srad2fiilPiS_S_S_PfS0_S0_S0_S0_S0_'...
GPGPU-Sim PTX: reconvergence points for _Z5srad2fiilPiS_S_S_PfS0_S0_S0_S0_S0_...
GPGPU-Sim PTX:  1 (potential) branch divergence @  PC=0xe00 (_1.ptx:691) @%p1 bra $Lt_4_1794;
GPGPU-Sim PTX:    immediate post dominator      @  PC=0xe20 (_1.ptx:699) cvt.s64.s32 %rd1, %r4;
GPGPU-Sim PTX:  2 (potential) branch divergence @  PC=0xe38 (_1.ptx:702) @%p2 bra $Lt_4_2306;
GPGPU-Sim PTX:    immediate post dominator      @  PC=0xff8 (_1.ptx:764) exit;
GPGPU-Sim PTX: ... end of reconvergence points for _Z5srad2fiilPiS_S_S_PfS0_S0_S0_S0_S0_
GPGPU-Sim PTX: ... done pre-decoding instructions for '_Z5srad2fiilPiS_S_S_PfS0_S0_S0_S0_S0_'.
GPGPU-Sim PTX: instruction assembly for function '_Z8compresslPf'...   done.
GPGPU-Sim PTX: finding reconvergence points for '_Z8compresslPf'...
GPGPU-Sim PTX: Finding dominators for '_Z8compresslPf'...
GPGPU-Sim PTX: Finding immediate dominators for '_Z8compresslPf'...
GPGPU-Sim PTX: Finding postdominators for '_Z8compresslPf'...
GPGPU-Sim PTX: Finding immediate postdominators for '_Z8compresslPf'...
GPGPU-Sim PTX: pre-decoding instructions for '_Z8compresslPf'...
GPGPU-Sim PTX: reconvergence points for _Z8compresslPf...
GPGPU-Sim PTX:  1 (potential) branch divergence @  PC=0x1040 (_1.ptx:787) @%p1 bra $Lt_5_2818;
GPGPU-Sim PTX:    immediate post dominator      @  PC=0x1200 (_1.ptx:858) exit;
GPGPU-Sim PTX:  2 (potential) branch divergence @  PC=0x10b0 (_1.ptx:803) @%p2 bra $Lt_5_3586;
GPGPU-Sim PTX:    immediate post dominator      @  PC=0x11e8 (_1.ptx:853) mov.f32 %f31, 0f437f0000;    // 255
GPGPU-Sim PTX:  3 (potential) branch divergence @  PC=0x1100 (_1.ptx:815) @!%p3 bra $Lt_5_3842;
GPGPU-Sim PTX:    immediate post dominator      @  PC=0x1120 (_1.ptx:823) mov.f32 %f8, 0fbf800000;     // -1
GPGPU-Sim PTX:  4 (potential) branch divergence @  PC=0x11c8 (_1.ptx:845) bra.uni $Lt_5_3330;
GPGPU-Sim PTX:    immediate post dominator      @  PC=0x11e8 (_1.ptx:853) mov.f32 %f31, 0f437f0000;    // 255
GPGPU-Sim PTX: ... end of reconvergence points for _Z8compresslPf
GPGPU-Sim PTX: ... done pre-decoding instructions for '_Z8compresslPf'.
GPGPU-Sim PTX: finished parsing EMBEDDED .ptx file _1.ptx
Adding _cuobjdump_1.ptx with cubin handle 1
GPGPU-Sim PTX: extracting embedded .ptx to temporary file "_ptx_rLtVr2"
Running: cat _ptx_rLtVr2 | sed 's/.version 1.5/.version 1.4/' | sed 's/, texmode_independent//' | sed 's/\(\.extern \.const\[1\] .b8 \w\+\)\[\]/\1\[1\]/' | sed 's/const\[.\]/const\[0\]/g' > _ptx2_akbdFY
GPGPU-Sim PTX: generating ptxinfo using "$CUDA_INSTALL_PATH/bin/ptxas --gpu-name=sm_20 -v _ptx2_akbdFY --output-file  /dev/null 2> _ptx_rLtVr2info"
GPGPU-Sim PTX: Kernel '_Z8compresslPf' : regs=10, lmem=0, smem=0, cmem=64
GPGPU-Sim PTX: Kernel '_Z5srad2fiilPiS_S_S_PfS0_S0_S0_S0_S0_' : regs=19, lmem=0, smem=0, cmem=136
GPGPU-Sim PTX: Kernel '_Z4sradfiilPiS_S_S_PfS0_S0_S0_fS0_S0_' : regs=20, lmem=0, smem=0, cmem=160
GPGPU-Sim PTX: Kernel '_Z6reduceliiPfS_' : regs=14, lmem=0, smem=4096, cmem=64
GPGPU-Sim PTX: Kernel '_Z7preparelPfS_S_' : regs=12, lmem=0, smem=0, cmem=64
GPGPU-Sim PTX: Kernel '_Z7extractlPf' : regs=6, lmem=0, smem=0, cmem=56
GPGPU-Sim PTX: removing ptxinfo using "rm -f _ptx_rLtVr2 _ptx2_akbdFY _ptx_rLtVr2info"
GPGPU-Sim PTX: loading globals with explicit initializers... 
GPGPU-Sim PTX: finished loading globals (0 bytes total).
GPGPU-Sim PTX: loading constants with explicit initializers...  done.
GPGPU-Sim PTX: __cudaRegisterFunction _Z5srad2fiilPiS_S_S_PfS0_S0_S0_S0_S0_ : hostFun 0x0x4013d0, fat_cubin_handle = 1
GPGPU-Sim PTX: __cudaRegisterFunction _Z4sradfiilPiS_S_S_PfS0_S0_S0_fS0_S0_ : hostFun 0x0x4015d0, fat_cubin_handle = 1
GPGPU-Sim PTX: __cudaRegisterFunction _Z6reduceliiPfS_ : hostFun 0x0x401690, fat_cubin_handle = 1
GPGPU-Sim PTX: __cudaRegisterFunction _Z7preparelPfS_S_ : hostFun 0x0x401c50, fat_cubin_handle = 1
GPGPU-Sim PTX: __cudaRegisterFunction _Z7extractlPf : hostFun 0x0x401bf0, fat_cubin_handle = 1
The file was not opened for reading

GPGPU-Sim PTX: cudaLaunch for 0x0x401bf0 (mode=performance simulation) on stream 0
GPGPU-Sim PTX: pushing kernel '_Z7extractlPf' to stream 0, gridDim= (450,1,1) blockDim = (512,1,1) 
kernel '_Z7extractlPf' transfer to GPU hardware scheduler
GPGPU-Sim uArch: Shader 1 bind to kernel 1 '_Z7extractlPf'
GPGPU-Sim uArch: CTA/core = 3, limited by: threads
GPGPU-Sim uArch: core:  1, cta: 0 initialized @(1,0)
GPGPU-Sim uArch: Shader 2 bind to kernel 1 '_Z7extractlPf'
GPGPU-Sim uArch: core:  2, cta: 0 initialized @(1,0)
GPGPU-Sim uArch: Shader 3 bind to kernel 1 '_Z7extractlPf'
GPGPU-Sim uArch: core:  3, cta: 0 initialized @(1,0)
GPGPU-Sim uArch: Shader 4 bind to kernel 1 '_Z7extractlPf'
GPGPU-Sim uArch: core:  4, cta: 0 initialized @(1,0)
GPGPU-Sim uArch: Shader 5 bind to kernel 1 '_Z7extractlPf'
GPGPU-Sim uArch: core:  5, cta: 0 initialized @(1,0)
GPGPU-Sim uArch: Shader 6 bind to kernel 1 '_Z7extractlPf'
GPGPU-Sim uArch: core:  6, cta: 0 initialized @(1,0)
GPGPU-Sim uArch: Shader 7 bind to kernel 1 '_Z7extractlPf'
GPGPU-Sim uArch: core:  7, cta: 0 initialized @(1,0)
GPGPU-Sim uArch: Shader 8 bind to kernel 1 '_Z7extractlPf'
GPGPU-Sim uArch: core:  8, cta: 0 initialized @(1,0)
GPGPU-Sim uArch: Shader 9 bind to kernel 1 '_Z7extractlPf'
GPGPU-Sim uArch: core:  9, cta: 0 initialized @(1,0)
GPGPU-Sim uArch: Shader 10 bind to kernel 1 '_Z7extractlPf'
GPGPU-Sim uArch: core: 10, cta: 0 initialized @(1,0)
GPGPU-Sim uArch: Shader 11 bind to kernel 1 '_Z7extractlPf'
GPGPU-Sim uArch: core: 11, cta: 0 initialized @(1,0)
GPGPU-Sim uArch: Shader 12 bind to kernel 1 '_Z7extractlPf'
GPGPU-Sim uArch: core: 12, cta: 0 initialized @(1,0)
GPGPU-Sim uArch: Shader 13 bind to kernel 1 '_Z7extractlPf'
GPGPU-Sim uArch: core: 13, cta: 0 initialized @(1,0)
GPGPU-Sim uArch: Shader 14 bind to kernel 1 '_Z7extractlPf'
GPGPU-Sim uArch: core: 14, cta: 0 initialized @(1,0)
GPGPU-Sim uArch: Shader 0 bind to kernel 1 '_Z7extractlPf'
GPGPU-Sim uArch: core:  0, cta: 0 initialized @(1,0)
GPGPU-Sim uArch: core:  1, cta: 1 initialized @(2,0)
GPGPU-Sim uArch: core:  2, cta: 1 initialized @(2,0)
GPGPU-Sim uArch: core:  3, cta: 1 initialized @(2,0)
GPGPU-Sim uArch: core:  4, cta: 1 initialized @(2,0)
GPGPU-Sim uArch: core:  5, cta: 1 initialized @(2,0)
GPGPU-Sim uArch: core:  6, cta: 1 initialized @(2,0)
GPGPU-Sim uArch: core:  7, cta: 1 initialized @(2,0)
GPGPU-Sim uArch: core:  8, cta: 1 initialized @(2,0)
GPGPU-Sim uArch: core:  9, cta: 1 initialized @(2,0)
GPGPU-Sim uArch: core: 10, cta: 1 initialized @(2,0)
GPGPU-Sim uArch: core: 11, cta: 1 initialized @(2,0)
GPGPU-Sim uArch: core: 12, cta: 1 initialized @(2,0)
GPGPU-Sim uArch: core: 13, cta: 1 initialized @(2,0)
GPGPU-Sim uArch: core: 14, cta: 1 initialized @(2,0)
GPGPU-Sim uArch: core:  0, cta: 1 initialized @(2,0)
GPGPU-Sim uArch: core:  1, cta: 2 initialized @(3,0)
GPGPU-Sim uArch: core:  2, cta: 2 initialized @(3,0)
GPGPU-Sim uArch: core:  3, cta: 2 initialized @(3,0)
GPGPU-Sim uArch: core:  4, cta: 2 initialized @(3,0)
GPGPU-Sim uArch: core:  5, cta: 2 initialized @(3,0)
GPGPU-Sim uArch: core:  6, cta: 2 initialized @(3,0)
GPGPU-Sim uArch: core:  7, cta: 2 initialized @(3,0)
GPGPU-Sim uArch: core:  8, cta: 2 initialized @(3,0)
GPGPU-Sim uArch: core:  9, cta: 2 initialized @(3,0)
GPGPU-Sim uArch: core: 10, cta: 2 initialized @(3,0)
GPGPU-Sim uArch: core: 11, cta: 2 initialized @(3,0)
GPGPU-Sim uArch: core: 12, cta: 2 initialized @(3,0)
GPGPU-Sim uArch: core: 13, cta: 2 initialized @(3,0)
GPGPU-Sim uArch: core: 14, cta: 2 initialized @(3,0)
GPGPU-Sim uArch: core:  0, cta: 2 initialized @(3,0)
GPGPU-Sim uArch: cycles simulated: 500  inst.: 11520 (ipc=23.0) sim_rate=1152 (inst/sec) elapsed = 0:0:00:10 / Tue Mar 22 12:44:20 2016
GPGPU-Sim uArch: cycles simulated: 1000  inst.: 26528 (ipc=26.5) sim_rate=1768 (inst/sec) elapsed = 0:0:00:15 / Tue Mar 22 12:44:25 2016
GPGPU-Sim PTX: 100000 instructions simulated : ctaid=(8,0,0) tid=(159,0,0)
GPGPU-Sim PTX: 200000 instructions simulated : ctaid=(6,0,0) tid=(319,0,0)
GPGPU-Sim PTX: 300000 instructions simulated : ctaid=(27,0,0) tid=(95,0,0)
GPGPU-Sim uArch: Shader 0 finished CTA #0 (3306,0), 2 CTAs running
GPGPU-Sim uArch: core:  0, cta: 0 initialized @(3307,0)
GPGPU-Sim uArch: Shader 1 finished CTA #0 (3318,0), 2 CTAs running
GPGPU-Sim uArch: core:  1, cta: 0 initialized @(3319,0)
GPGPU-Sim uArch: Shader 4 finished CTA #0 (3326,0), 2 CTAs running
GPGPU-Sim uArch: core:  4, cta: 0 initialized @(3327,0)
GPGPU-Sim uArch: Shader 3 finished CTA #0 (3331,0), 2 CTAs running
GPGPU-Sim uArch: core:  3, cta: 0 initialized @(3332,0)
GPGPU-Sim uArch: Shader 5 finished CTA #0 (3335,0), 2 CTAs running
GPGPU-Sim uArch: core:  5, cta: 0 initialized @(3336,0)
GPGPU-Sim uArch: Shader 2 finished CTA #0 (3344,0), 2 CTAs running
GPGPU-Sim uArch: core:  2, cta: 0 initialized @(3345,0)
GPGPU-Sim uArch: Shader 7 finished CTA #0 (3348,0), 2 CTAs running
GPGPU-Sim uArch: core:  7, cta: 0 initialized @(3349,0)
GPGPU-Sim uArch: Shader 6 finished CTA #0 (3352,0), 2 CTAs running
GPGPU-Sim uArch: core:  6, cta: 0 initialized @(3353,0)
GPGPU-Sim uArch: Shader 9 finished CTA #0 (3364,0), 2 CTAs running
GPGPU-Sim uArch: core:  9, cta: 0 initialized @(3365,0)
GPGPU-Sim uArch: Shader 8 finished CTA #0 (3365,0), 2 CTAs running
GPGPU-Sim uArch: core:  8, cta: 0 initialized @(3366,0)
GPGPU-Sim uArch: Shader 10 finished CTA #0 (3370,0), 2 CTAs running
GPGPU-Sim uArch: core: 10, cta: 0 initialized @(3371,0)
GPGPU-Sim uArch: Shader 12 finished CTA #0 (3374,0), 2 CTAs running
GPGPU-Sim uArch: core: 12, cta: 0 initialized @(3375,0)
GPGPU-Sim uArch: Shader 13 finished CTA #0 (3379,0), 2 CTAs running
GPGPU-Sim uArch: core: 13, cta: 0 initialized @(3380,0)
GPGPU-Sim uArch: Shader 11 finished CTA #0 (3388,0), 2 CTAs running
GPGPU-Sim uArch: core: 11, cta: 0 initialized @(3389,0)
GPGPU-Sim uArch: Shader 14 finished CTA #0 (3394,0), 2 CTAs running
GPGPU-Sim uArch: core: 14, cta: 0 initialized @(3395,0)
GPGPU-Sim uArch: cycles simulated: 3500  inst.: 299968 (ipc=85.7) sim_rate=18748 (inst/sec) elapsed = 0:0:00:16 / Tue Mar 22 12:44:26 2016
GPGPU-Sim PTX: 400000 instructions simulated : ctaid=(24,0,0) tid=(223,0,0)
GPGPU-Sim PTX: 500000 instructions simulated : ctaid=(29,0,0) tid=(415,0,0)
GPGPU-Sim uArch: Shader 1 finished CTA #1 (5357,0), 2 CTAs running
GPGPU-Sim uArch: core:  1, cta: 1 initialized @(5358,0)
GPGPU-Sim uArch: Shader 0 finished CTA #1 (5359,0), 2 CTAs running
GPGPU-Sim uArch: core:  0, cta: 1 initialized @(5360,0)
GPGPU-Sim uArch: Shader 4 finished CTA #1 (5373,0), 2 CTAs running
GPGPU-Sim uArch: core:  4, cta: 1 initialized @(5374,0)
GPGPU-Sim uArch: Shader 3 finished CTA #1 (5381,0), 2 CTAs running
GPGPU-Sim uArch: core:  3, cta: 1 initialized @(5382,0)
GPGPU-Sim uArch: Shader 5 finished CTA #1 (5385,0), 2 CTAs running
GPGPU-Sim uArch: core:  5, cta: 1 initialized @(5386,0)
GPGPU-Sim uArch: Shader 2 finished CTA #1 (5395,0), 2 CTAs running
GPGPU-Sim uArch: core:  2, cta: 1 initialized @(5396,0)
GPGPU-Sim uArch: Shader 6 finished CTA #1 (5397,0), 2 CTAs running
GPGPU-Sim uArch: core:  6, cta: 1 initialized @(5398,0)
GPGPU-Sim uArch: Shader 7 finished CTA #1 (5401,0), 2 CTAs running
GPGPU-Sim uArch: core:  7, cta: 1 initialized @(5402,0)
GPGPU-Sim uArch: Shader 8 finished CTA #1 (5419,0), 2 CTAs running
GPGPU-Sim uArch: core:  8, cta: 1 initialized @(5420,0)
GPGPU-Sim uArch: Shader 9 finished CTA #1 (5424,0), 2 CTAs running
GPGPU-Sim uArch: Shader 10 finished CTA #1 (5424,0), 2 CTAs running
GPGPU-Sim uArch: core:  9, cta: 1 initialized @(5425,0)
GPGPU-Sim uArch: core: 10, cta: 1 initialized @(5425,0)
GPGPU-Sim uArch: Shader 12 finished CTA #1 (5430,0), 2 CTAs running
GPGPU-Sim uArch: Shader 13 finished CTA #1 (5430,0), 2 CTAs running
GPGPU-Sim uArch: core: 12, cta: 1 initialized @(5431,0)
GPGPU-Sim uArch: core: 13, cta: 1 initialized @(5431,0)
GPGPU-Sim uArch: Shader 11 finished CTA #1 (5440,0), 2 CTAs running
GPGPU-Sim uArch: core: 11, cta: 1 initialized @(5441,0)
GPGPU-Sim uArch: Shader 14 finished CTA #1 (5446,0), 2 CTAs running
GPGPU-Sim uArch: core: 14, cta: 1 initialized @(5447,0)
GPGPU-Sim uArch: cycles simulated: 5500  inst.: 576000 (ipc=104.7) sim_rate=33882 (inst/sec) elapsed = 0:0:00:17 / Tue Mar 22 12:44:27 2016
GPGPU-Sim PTX: 600000 instructions simulated : ctaid=(30,0,0) tid=(31,0,0)
GPGPU-Sim PTX: 700000 instructions simulated : ctaid=(32,0,0) tid=(351,0,0)
GPGPU-Sim PTX: 800000 instructions simulated : ctaid=(37,0,0) tid=(447,0,0)
GPGPU-Sim uArch: Shader 1 finished CTA #2 (7403,0), 2 CTAs running
GPGPU-Sim uArch: core:  1, cta: 2 initialized @(7404,0)
GPGPU-Sim uArch: Shader 0 finished CTA #2 (7411,0), 2 CTAs running
GPGPU-Sim uArch: core:  0, cta: 2 initialized @(7412,0)
GPGPU-Sim uArch: Shader 3 finished CTA #2 (7431,0), 2 CTAs running
GPGPU-Sim uArch: core:  3, cta: 2 initialized @(7432,0)
GPGPU-Sim uArch: Shader 4 finished CTA #2 (7440,0), 2 CTAs running
GPGPU-Sim uArch: core:  4, cta: 2 initialized @(7441,0)
GPGPU-Sim uArch: Shader 5 finished CTA #2 (7443,0), 2 CTAs running
GPGPU-Sim uArch: core:  5, cta: 2 initialized @(7444,0)
GPGPU-Sim uArch: Shader 6 finished CTA #2 (7455,0), 2 CTAs running
GPGPU-Sim uArch: core:  6, cta: 2 initialized @(7456,0)
GPGPU-Sim uArch: Shader 2 finished CTA #2 (7459,0), 2 CTAs running
GPGPU-Sim uArch: Shader 7 finished CTA #2 (7459,0), 2 CTAs running
GPGPU-Sim uArch: core:  7, cta: 2 initialized @(7460,0)
GPGPU-Sim uArch: core:  2, cta: 2 initialized @(7460,0)
GPGPU-Sim uArch: Shader 8 finished CTA #2 (7470,0), 2 CTAs running
GPGPU-Sim uArch: core:  8, cta: 2 initialized @(7471,0)
GPGPU-Sim uArch: Shader 10 finished CTA #2 (7471,0), 2 CTAs running
GPGPU-Sim uArch: core: 10, cta: 2 initialized @(7472,0)
GPGPU-Sim uArch: Shader 12 finished CTA #2 (7477,0), 2 CTAs running
GPGPU-Sim uArch: core: 12, cta: 2 initialized @(7478,0)
GPGPU-Sim uArch: Shader 9 finished CTA #2 (7483,0), 2 CTAs running
GPGPU-Sim uArch: Shader 13 finished CTA #2 (7483,0), 2 CTAs running
GPGPU-Sim uArch: core: 13, cta: 2 initialized @(7484,0)
GPGPU-Sim uArch: core:  9, cta: 2 initialized @(7484,0)
GPGPU-Sim uArch: Shader 11 finished CTA #2 (7492,0), 2 CTAs running
GPGPU-Sim uArch: core: 11, cta: 2 initialized @(7493,0)
GPGPU-Sim uArch: cycles simulated: 7500  inst.: 852480 (ipc=113.7) sim_rate=47360 (inst/sec) elapsed = 0:0:00:18 / Tue Mar 22 12:44:28 2016
GPGPU-Sim uArch: Shader 14 finished CTA #2 (7500,0), 2 CTAs running
GPGPU-Sim uArch: core: 14, cta: 2 initialized @(7501,0)
GPGPU-Sim PTX: 900000 instructions simulated : ctaid=(45,0,0) tid=(31,0,0)
GPGPU-Sim PTX: 1000000 instructions simulated : ctaid=(54,0,0) tid=(351,0,0)
GPGPU-Sim PTX: 1100000 instructions simulated : ctaid=(59,0,0) tid=(415,0,0)
GPGPU-Sim uArch: Shader 1 finished CTA #0 (9451,0), 2 CTAs running
GPGPU-Sim uArch: core:  1, cta: 0 initialized @(9452,0)
GPGPU-Sim uArch: Shader 0 finished CTA #0 (9460,0), 2 CTAs running
GPGPU-Sim uArch: core:  0, cta: 0 initialized @(9461,0)
GPGPU-Sim uArch: Shader 3 finished CTA #0 (9467,0), 2 CTAs running
GPGPU-Sim uArch: core:  3, cta: 0 initialized @(9468,0)
GPGPU-Sim uArch: cycles simulated: 9500  inst.: 1128928 (ipc=118.8) sim_rate=59417 (inst/sec) elapsed = 0:0:00:19 / Tue Mar 22 12:44:29 2016
GPGPU-Sim uArch: Shader 6 finished CTA #0 (9503,0), 2 CTAs running
GPGPU-Sim uArch: core:  6, cta: 0 initialized @(9504,0)
GPGPU-Sim uArch: Shader 4 finished CTA #0 (9507,0), 2 CTAs running
GPGPU-Sim uArch: core:  4, cta: 0 initialized @(9508,0)
GPGPU-Sim uArch: Shader 2 finished CTA #0 (9517,0), 2 CTAs running
GPGPU-Sim uArch: Shader 7 finished CTA #0 (9517,0), 2 CTAs running
GPGPU-Sim uArch: core:  7, cta: 0 initialized @(9518,0)
GPGPU-Sim uArch: core:  2, cta: 0 initialized @(9518,0)
GPGPU-Sim uArch: Shader 5 finished CTA #0 (9518,0), 2 CTAs running
GPGPU-Sim uArch: core:  5, cta: 0 initialized @(9519,0)
GPGPU-Sim uArch: Shader 8 finished CTA #0 (9523,0), 2 CTAs running
GPGPU-Sim uArch: Shader 9 finished CTA #0 (9523,0), 2 CTAs running
GPGPU-Sim uArch: core:  8, cta: 0 initialized @(9524,0)
GPGPU-Sim uArch: core:  9, cta: 0 initialized @(9524,0)
GPGPU-Sim uArch: Shader 10 finished CTA #0 (9528,0), 2 CTAs running
GPGPU-Sim uArch: core: 10, cta: 0 initialized @(9529,0)
GPGPU-Sim uArch: Shader 13 finished CTA #0 (9542,0), 2 CTAs running
GPGPU-Sim uArch: core: 13, cta: 0 initialized @(9543,0)
GPGPU-Sim uArch: Shader 12 finished CTA #0 (9544,0), 2 CTAs running
GPGPU-Sim uArch: core: 12, cta: 0 initialized @(9545,0)
GPGPU-Sim uArch: Shader 11 finished CTA #0 (9549,0), 2 CTAs running
GPGPU-Sim uArch: core: 11, cta: 0 initialized @(9550,0)
GPGPU-Sim uArch: Shader 14 finished CTA #0 (9564,0), 2 CTAs running
GPGPU-Sim uArch: core: 14, cta: 0 initialized @(9565,0)
GPGPU-Sim PTX: 1200000 instructions simulated : ctaid=(68,0,0) tid=(63,0,0)
GPGPU-Sim PTX: 1300000 instructions simulated : ctaid=(73,0,0) tid=(351,0,0)
GPGPU-Sim PTX: 1400000 instructions simulated : ctaid=(61,0,0) tid=(415,0,0)
GPGPU-Sim uArch: cycles simulated: 11500  inst.: 1403168 (ipc=122.0) sim_rate=70158 (inst/sec) elapsed = 0:0:00:20 / Tue Mar 22 12:44:30 2016
GPGPU-Sim uArch: Shader 0 finished CTA #1 (11502,0), 2 CTAs running
GPGPU-Sim uArch: core:  0, cta: 1 initialized @(11503,0)
GPGPU-Sim uArch: Shader 1 finished CTA #1 (11506,0), 2 CTAs running
GPGPU-Sim uArch: core:  1, cta: 1 initialized @(11507,0)
GPGPU-Sim uArch: Shader 3 finished CTA #1 (11517,0), 2 CTAs running
GPGPU-Sim uArch: core:  3, cta: 1 initialized @(11518,0)
GPGPU-Sim uArch: Shader 6 finished CTA #1 (11552,0), 2 CTAs running
GPGPU-Sim uArch: core:  6, cta: 1 initialized @(11553,0)
GPGPU-Sim uArch: Shader 4 finished CTA #1 (11555,0), 2 CTAs running
GPGPU-Sim uArch: core:  4, cta: 1 initialized @(11556,0)
GPGPU-Sim uArch: Shader 9 finished CTA #1 (11558,0), 2 CTAs running
GPGPU-Sim uArch: core:  9, cta: 1 initialized @(11559,0)
GPGPU-Sim uArch: Shader 2 finished CTA #1 (11561,0), 2 CTAs running
GPGPU-Sim uArch: core:  2, cta: 1 initialized @(11562,0)
GPGPU-Sim uArch: Shader 7 finished CTA #1 (11564,0), 2 CTAs running
GPGPU-Sim uArch: core:  7, cta: 1 initialized @(11565,0)
GPGPU-Sim uArch: Shader 10 finished CTA #1 (11575,0), 2 CTAs running
GPGPU-Sim uArch: core: 10, cta: 1 initialized @(11576,0)
GPGPU-Sim uArch: Shader 8 finished CTA #1 (11576,0), 2 CTAs running
GPGPU-Sim uArch: core:  8, cta: 1 initialized @(11577,0)
GPGPU-Sim uArch: Shader 5 finished CTA #1 (11581,0), 2 CTAs running
GPGPU-Sim uArch: Shader 13 finished CTA #1 (11581,0), 2 CTAs running
GPGPU-Sim uArch: core: 13, cta: 1 initialized @(11582,0)
GPGPU-Sim uArch: core:  5, cta: 1 initialized @(11582,0)
GPGPU-Sim uArch: Shader 11 finished CTA #1 (11606,0), 2 CTAs running
GPGPU-Sim uArch: core: 11, cta: 1 initialized @(11607,0)
GPGPU-Sim uArch: Shader 12 finished CTA #1 (11610,0), 2 CTAs running
GPGPU-Sim uArch: core: 12, cta: 1 initialized @(11611,0)
GPGPU-Sim uArch: Shader 14 finished CTA #1 (11616,0), 2 CTAs running
GPGPU-Sim uArch: core: 14, cta: 1 initialized @(11617,0)
GPGPU-Sim PTX: 1500000 instructions simulated : ctaid=(86,0,0) tid=(95,0,0)
GPGPU-Sim PTX: 1600000 instructions simulated : ctaid=(80,0,0) tid=(287,0,0)
GPGPU-Sim PTX: 1700000 instructions simulated : ctaid=(86,0,0) tid=(415,0,0)
GPGPU-Sim uArch: cycles simulated: 13500  inst.: 1669248 (ipc=123.6) sim_rate=79488 (inst/sec) elapsed = 0:0:00:21 / Tue Mar 22 12:44:31 2016
GPGPU-Sim uArch: Shader 1 finished CTA #2 (13539,0), 2 CTAs running
GPGPU-Sim uArch: core:  1, cta: 2 initialized @(13540,0)
GPGPU-Sim uArch: Shader 0 finished CTA #2 (13546,0), 2 CTAs running
GPGPU-Sim uArch: core:  0, cta: 2 initialized @(13547,0)
GPGPU-Sim uArch: Shader 3 finished CTA #2 (13571,0), 2 CTAs running
GPGPU-Sim uArch: core:  3, cta: 2 initialized @(13572,0)
GPGPU-Sim uArch: Shader 6 finished CTA #2 (13602,0), 2 CTAs running
GPGPU-Sim uArch: core:  6, cta: 2 initialized @(13603,0)
GPGPU-Sim uArch: Shader 4 finished CTA #2 (13618,0), 2 CTAs running
GPGPU-Sim uArch: core:  4, cta: 2 initialized @(13619,0)
GPGPU-Sim uArch: Shader 2 finished CTA #2 (13622,0), 2 CTAs running
GPGPU-Sim uArch: core:  2, cta: 2 initialized @(13623,0)
GPGPU-Sim uArch: Shader 8 finished CTA #2 (13629,0), 2 CTAs running
GPGPU-Sim uArch: core:  8, cta: 2 initialized @(13630,0)
GPGPU-Sim uArch: Shader 5 finished CTA #2 (13634,0), 2 CTAs running
GPGPU-Sim uArch: core:  5, cta: 2 initialized @(13635,0)
GPGPU-Sim uArch: Shader 13 finished CTA #2 (13635,0), 2 CTAs running
GPGPU-Sim uArch: core: 13, cta: 2 initialized @(13636,0)
GPGPU-Sim uArch: Shader 7 finished CTA #2 (13637,0), 2 CTAs running
GPGPU-Sim uArch: core:  7, cta: 2 initialized @(13638,0)
GPGPU-Sim uArch: Shader 9 finished CTA #2 (13643,0), 2 CTAs running
GPGPU-Sim uArch: core:  9, cta: 2 initialized @(13644,0)
GPGPU-Sim uArch: Shader 10 finished CTA #2 (13649,0), 2 CTAs running
GPGPU-Sim uArch: core: 10, cta: 2 initialized @(13650,0)
GPGPU-Sim uArch: Shader 11 finished CTA #2 (13654,0), 2 CTAs running
GPGPU-Sim uArch: core: 11, cta: 2 initialized @(13655,0)
GPGPU-Sim uArch: Shader 14 finished CTA #2 (13656,0), 2 CTAs running
GPGPU-Sim uArch: core: 14, cta: 2 initialized @(13657,0)
GPGPU-Sim uArch: Shader 12 finished CTA #2 (13660,0), 2 CTAs running
GPGPU-Sim uArch: core: 12, cta: 2 initialized @(13661,0)
GPGPU-Sim PTX: 1800000 instructions simulated : ctaid=(102,0,0) tid=(255,0,0)
GPGPU-Sim PTX: 1900000 instructions simulated : ctaid=(95,0,0) tid=(319,0,0)
GPGPU-Sim uArch: cycles simulated: 15500  inst.: 1930624 (ipc=124.6) sim_rate=87755 (inst/sec) elapsed = 0:0:00:22 / Tue Mar 22 12:44:32 2016
GPGPU-Sim PTX: 2000000 instructions simulated : ctaid=(111,0,0) tid=(31,0,0)
GPGPU-Sim uArch: Shader 1 finished CTA #0 (15570,0), 2 CTAs running
GPGPU-Sim uArch: core:  1, cta: 0 initialized @(15571,0)
GPGPU-Sim uArch: Shader 0 finished CTA #0 (15594,0), 2 CTAs running
GPGPU-Sim uArch: core:  0, cta: 0 initialized @(15595,0)
GPGPU-Sim uArch: Shader 3 finished CTA #0 (15618,0), 2 CTAs running
GPGPU-Sim uArch: core:  3, cta: 0 initialized @(15619,0)
GPGPU-Sim uArch: Shader 4 finished CTA #0 (15648,0), 2 CTAs running
GPGPU-Sim uArch: Shader 6 finished CTA #0 (15648,0), 2 CTAs running
GPGPU-Sim uArch: core:  4, cta: 0 initialized @(15649,0)
GPGPU-Sim uArch: core:  6, cta: 0 initialized @(15649,0)
GPGPU-Sim uArch: Shader 8 finished CTA #0 (15685,0), 2 CTAs running
GPGPU-Sim uArch: core:  8, cta: 0 initialized @(15686,0)
GPGPU-Sim uArch: Shader 2 finished CTA #0 (15689,0), 2 CTAs running
GPGPU-Sim uArch: core:  2, cta: 0 initialized @(15690,0)
GPGPU-Sim uArch: Shader 13 finished CTA #0 (15691,0), 2 CTAs running
GPGPU-Sim uArch: core: 13, cta: 0 initialized @(15692,0)
GPGPU-Sim uArch: Shader 10 finished CTA #0 (15692,0), 2 CTAs running
GPGPU-Sim uArch: core: 10, cta: 0 initialized @(15693,0)
GPGPU-Sim uArch: Shader 9 finished CTA #0 (15695,0), 2 CTAs running
GPGPU-Sim uArch: core:  9, cta: 0 initialized @(15696,0)
GPGPU-Sim uArch: Shader 7 finished CTA #0 (15697,0), 2 CTAs running
GPGPU-Sim uArch: core:  7, cta: 0 initialized @(15698,0)
GPGPU-Sim uArch: Shader 5 finished CTA #0 (15698,0), 2 CTAs running
GPGPU-Sim uArch: core:  5, cta: 0 initialized @(15699,0)
GPGPU-Sim uArch: Shader 12 finished CTA #0 (15701,0), 2 CTAs running
GPGPU-Sim uArch: core: 12, cta: 0 initialized @(15702,0)
GPGPU-Sim uArch: Shader 11 finished CTA #0 (15704,0), 2 CTAs running
GPGPU-Sim uArch: core: 11, cta: 0 initialized @(15705,0)
GPGPU-Sim uArch: Shader 14 finished CTA #0 (15731,0), 2 CTAs running
GPGPU-Sim uArch: core: 14, cta: 0 initialized @(15732,0)
GPGPU-Sim PTX: 2100000 instructions simulated : ctaid=(106,0,0) tid=(191,0,0)
GPGPU-Sim uArch: cycles simulated: 17000  inst.: 2127424 (ipc=125.1) sim_rate=92496 (inst/sec) elapsed = 0:0:00:23 / Tue Mar 22 12:44:33 2016
GPGPU-Sim PTX: 2200000 instructions simulated : ctaid=(112,0,0) tid=(287,0,0)
GPGPU-Sim uArch: Shader 1 finished CTA #1 (17601,0), 2 CTAs running
GPGPU-Sim uArch: core:  1, cta: 1 initialized @(17602,0)
GPGPU-Sim uArch: Shader 0 finished CTA #1 (17649,0), 2 CTAs running
GPGPU-Sim uArch: core:  0, cta: 1 initialized @(17650,0)
GPGPU-Sim uArch: Shader 3 finished CTA #1 (17667,0), 2 CTAs running
GPGPU-Sim uArch: core:  3, cta: 1 initialized @(17668,0)
GPGPU-Sim uArch: Shader 4 finished CTA #1 (17678,0), 2 CTAs running
GPGPU-Sim uArch: core:  4, cta: 1 initialized @(17679,0)
GPGPU-Sim uArch: Shader 6 finished CTA #1 (17679,0), 2 CTAs running
GPGPU-Sim uArch: core:  6, cta: 1 initialized @(17680,0)
GPGPU-Sim PTX: 2300000 instructions simulated : ctaid=(132,0,0) tid=(127,0,0)
GPGPU-Sim uArch: Shader 2 finished CTA #1 (17739,0), 2 CTAs running
GPGPU-Sim uArch: core:  2, cta: 1 initialized @(17740,0)
GPGPU-Sim uArch: Shader 13 finished CTA #1 (17743,0), 2 CTAs running
GPGPU-Sim uArch: core: 13, cta: 1 initialized @(17744,0)
GPGPU-Sim uArch: Shader 8 finished CTA #1 (17745,0), 2 CTAs running
GPGPU-Sim uArch: core:  8, cta: 1 initialized @(17746,0)
GPGPU-Sim uArch: Shader 5 finished CTA #1 (17749,0), 2 CTAs running
GPGPU-Sim uArch: Shader 7 finished CTA #1 (17749,0), 2 CTAs running
GPGPU-Sim uArch: core:  5, cta: 1 initialized @(17750,0)
GPGPU-Sim uArch: core:  7, cta: 1 initialized @(17750,0)
GPGPU-Sim uArch: Shader 9 finished CTA #1 (17755,0), 2 CTAs running
GPGPU-Sim uArch: Shader 12 finished CTA #1 (17755,0), 2 CTAs running
GPGPU-Sim uArch: core:  9, cta: 1 initialized @(17756,0)
GPGPU-Sim uArch: core: 12, cta: 1 initialized @(17756,0)
GPGPU-Sim uArch: Shader 10 finished CTA #1 (17761,0), 2 CTAs running
GPGPU-Sim uArch: core: 10, cta: 1 initialized @(17762,0)
GPGPU-Sim uArch: Shader 11 finished CTA #1 (17766,0), 2 CTAs running
GPGPU-Sim uArch: core: 11, cta: 1 initialized @(17767,0)
GPGPU-Sim uArch: Shader 14 finished CTA #1 (17780,0), 2 CTAs running
GPGPU-Sim uArch: core: 14, cta: 1 initialized @(17781,0)
GPGPU-Sim uArch: cycles simulated: 18500  inst.: 2321856 (ipc=125.5) sim_rate=96744 (inst/sec) elapsed = 0:0:00:24 / Tue Mar 22 12:44:34 2016
GPGPU-Sim PTX: 2400000 instructions simulated : ctaid=(131,0,0) tid=(191,0,0)
GPGPU-Sim PTX: 2500000 instructions simulated : ctaid=(131,0,0) tid=(479,0,0)
GPGPU-Sim uArch: Shader 1 finished CTA #2 (19632,0), 2 CTAs running
GPGPU-Sim uArch: core:  1, cta: 2 initialized @(19633,0)
GPGPU-Sim uArch: Shader 0 finished CTA #2 (19700,0), 2 CTAs running
GPGPU-Sim uArch: core:  0, cta: 2 initialized @(19701,0)
GPGPU-Sim uArch: Shader 6 finished CTA #2 (19713,0), 2 CTAs running
GPGPU-Sim uArch: core:  6, cta: 2 initialized @(19714,0)
GPGPU-Sim uArch: Shader 3 finished CTA #2 (19714,0), 2 CTAs running
GPGPU-Sim uArch: core:  3, cta: 2 initialized @(19715,0)
GPGPU-Sim uArch: Shader 4 finished CTA #2 (19723,0), 2 CTAs running
GPGPU-Sim uArch: core:  4, cta: 2 initialized @(19724,0)
GPGPU-Sim uArch: Shader 8 finished CTA #2 (19790,0), 2 CTAs running
GPGPU-Sim uArch: core:  8, cta: 2 initialized @(19791,0)
GPGPU-Sim uArch: Shader 2 finished CTA #2 (19794,0), 2 CTAs running
GPGPU-Sim uArch: core:  2, cta: 2 initialized @(19795,0)
GPGPU-Sim uArch: Shader 5 finished CTA #2 (19806,0), 2 CTAs running
GPGPU-Sim uArch: core:  5, cta: 2 initialized @(19807,0)
GPGPU-Sim uArch: Shader 9 finished CTA #2 (19812,0), 2 CTAs running
GPGPU-Sim uArch: core:  9, cta: 2 initialized @(19813,0)
GPGPU-Sim uArch: Shader 7 finished CTA #2 (19819,0), 2 CTAs running
GPGPU-Sim uArch: core:  7, cta: 2 initialized @(19820,0)
GPGPU-Sim uArch: Shader 14 finished CTA #2 (19824,0), 2 CTAs running
GPGPU-Sim uArch: core: 14, cta: 2 initialized @(19825,0)
GPGPU-Sim uArch: Shader 11 finished CTA #2 (19825,0), 2 CTAs running
GPGPU-Sim uArch: core: 11, cta: 2 initialized @(19826,0)
GPGPU-Sim uArch: Shader 13 finished CTA #2 (19828,0), 2 CTAs running
GPGPU-Sim uArch: core: 13, cta: 2 initialized @(19829,0)
GPGPU-Sim uArch: Shader 12 finished CTA #2 (19834,0), 2 CTAs running
GPGPU-Sim uArch: core: 12, cta: 2 initialized @(19835,0)
GPGPU-Sim uArch: Shader 10 finished CTA #2 (19840,0), 2 CTAs running
GPGPU-Sim uArch: core: 10, cta: 2 initialized @(19841,0)
GPGPU-Sim PTX: 2600000 instructions simulated : ctaid=(146,0,0) tid=(31,0,0)
GPGPU-Sim uArch: cycles simulated: 20500  inst.: 2590656 (ipc=126.4) sim_rate=103626 (inst/sec) elapsed = 0:0:00:25 / Tue Mar 22 12:44:35 2016
GPGPU-Sim PTX: 2700000 instructions simulated : ctaid=(142,0,0) tid=(159,0,0)
GPGPU-Sim PTX: 2800000 instructions simulated : ctaid=(135,0,0) tid=(511,0,0)
GPGPU-Sim uArch: Shader 1 finished CTA #0 (21664,0), 2 CTAs running
GPGPU-Sim uArch: core:  1, cta: 0 initialized @(21665,0)
GPGPU-Sim uArch: Shader 0 finished CTA #0 (21744,0), 2 CTAs running
GPGPU-Sim uArch: core:  0, cta: 0 initialized @(21745,0)
GPGPU-Sim uArch: Shader 3 finished CTA #0 (21762,0), 2 CTAs running
GPGPU-Sim uArch: core:  3, cta: 0 initialized @(21763,0)
GPGPU-Sim uArch: Shader 6 finished CTA #0 (21764,0), 2 CTAs running
GPGPU-Sim uArch: core:  6, cta: 0 initialized @(21765,0)
GPGPU-Sim uArch: Shader 4 finished CTA #0 (21771,0), 2 CTAs running
GPGPU-Sim uArch: core:  4, cta: 0 initialized @(21772,0)
GPGPU-Sim uArch: Shader 8 finished CTA #0 (21830,0), 2 CTAs running
GPGPU-Sim uArch: core:  8, cta: 0 initialized @(21831,0)
GPGPU-Sim uArch: Shader 2 finished CTA #0 (21843,0), 2 CTAs running
GPGPU-Sim uArch: core:  2, cta: 0 initialized @(21844,0)
GPGPU-Sim uArch: Shader 5 finished CTA #0 (21848,0), 2 CTAs running
GPGPU-Sim uArch: core:  5, cta: 0 initialized @(21849,0)
GPGPU-Sim uArch: Shader 9 finished CTA #0 (21861,0), 2 CTAs running
GPGPU-Sim uArch: core:  9, cta: 0 initialized @(21862,0)
GPGPU-Sim uArch: Shader 14 finished CTA #0 (21876,0), 2 CTAs running
GPGPU-Sim uArch: core: 14, cta: 0 initialized @(21877,0)
GPGPU-Sim uArch: Shader 12 finished CTA #0 (21882,0), 2 CTAs running
GPGPU-Sim uArch: core: 12, cta: 0 initialized @(21883,0)
GPGPU-Sim uArch: Shader 7 finished CTA #0 (21886,0), 2 CTAs running
GPGPU-Sim uArch: Shader 10 finished CTA #0 (21886,0), 2 CTAs running
GPGPU-Sim uArch: core:  7, cta: 0 initialized @(21887,0)
GPGPU-Sim uArch: core: 10, cta: 0 initialized @(21887,0)
GPGPU-Sim uArch: Shader 11 finished CTA #0 (21892,0), 2 CTAs running
GPGPU-Sim uArch: core: 11, cta: 0 initialized @(21893,0)
GPGPU-Sim uArch: Shader 13 finished CTA #0 (21898,0), 2 CTAs running
GPGPU-Sim uArch: core: 13, cta: 0 initialized @(21899,0)
GPGPU-Sim PTX: 2900000 instructions simulated : ctaid=(156,0,0) tid=(95,0,0)
GPGPU-Sim uArch: cycles simulated: 22500  inst.: 2861280 (ipc=127.2) sim_rate=110049 (inst/sec) elapsed = 0:0:00:26 / Tue Mar 22 12:44:36 2016
GPGPU-Sim PTX: 3000000 instructions simulated : ctaid=(161,0,0) tid=(383,0,0)
GPGPU-Sim PTX: 3100000 instructions simulated : ctaid=(157,0,0) tid=(415,0,0)
GPGPU-Sim uArch: Shader 1 finished CTA #1 (23695,0), 2 CTAs running
GPGPU-Sim uArch: core:  1, cta: 1 initialized @(23696,0)
GPGPU-Sim uArch: Shader 0 finished CTA #1 (23785,0), 2 CTAs running
GPGPU-Sim uArch: core:  0, cta: 1 initialized @(23786,0)
GPGPU-Sim uArch: Shader 3 finished CTA #1 (23817,0), 2 CTAs running
GPGPU-Sim uArch: core:  3, cta: 1 initialized @(23818,0)
GPGPU-Sim uArch: Shader 4 finished CTA #1 (23821,0), 2 CTAs running
GPGPU-Sim uArch: core:  4, cta: 1 initialized @(23822,0)
GPGPU-Sim uArch: Shader 6 finished CTA #1 (23827,0), 2 CTAs running
GPGPU-Sim uArch: core:  6, cta: 1 initialized @(23828,0)
GPGPU-Sim uArch: Shader 8 finished CTA #1 (23869,0), 2 CTAs running
GPGPU-Sim uArch: core:  8, cta: 1 initialized @(23870,0)
GPGPU-Sim uArch: Shader 2 finished CTA #1 (23881,0), 2 CTAs running
GPGPU-Sim uArch: core:  2, cta: 1 initialized @(23882,0)
GPGPU-Sim uArch: Shader 5 finished CTA #1 (23892,0), 2 CTAs running
GPGPU-Sim uArch: core:  5, cta: 1 initialized @(23893,0)
GPGPU-Sim uArch: Shader 9 finished CTA #1 (23896,0), 2 CTAs running
GPGPU-Sim uArch: core:  9, cta: 1 initialized @(23897,0)
GPGPU-Sim uArch: Shader 14 finished CTA #1 (23918,0), 2 CTAs running
GPGPU-Sim uArch: core: 14, cta: 1 initialized @(23919,0)
GPGPU-Sim uArch: Shader 11 finished CTA #1 (23929,0), 2 CTAs running
GPGPU-Sim uArch: core: 11, cta: 1 initialized @(23930,0)
GPGPU-Sim uArch: Shader 12 finished CTA #1 (23930,0), 2 CTAs running
GPGPU-Sim uArch: core: 12, cta: 1 initialized @(23931,0)
GPGPU-Sim uArch: Shader 7 finished CTA #1 (23941,0), 2 CTAs running
GPGPU-Sim uArch: core:  7, cta: 1 initialized @(23942,0)
GPGPU-Sim uArch: Shader 13 finished CTA #1 (23947,0), 2 CTAs running
GPGPU-Sim uArch: core: 13, cta: 1 initialized @(23948,0)
GPGPU-Sim uArch: Shader 10 finished CTA #1 (23953,0), 2 CTAs running
GPGPU-Sim uArch: core: 10, cta: 1 initialized @(23954,0)
GPGPU-Sim uArch: cycles simulated: 24000  inst.: 3066880 (ipc=127.8) sim_rate=113588 (inst/sec) elapsed = 0:0:00:27 / Tue Mar 22 12:44:37 2016
GPGPU-Sim PTX: 3200000 instructions simulated : ctaid=(177,0,0) tid=(95,0,0)
GPGPU-Sim PTX: 3300000 instructions simulated : ctaid=(165,0,0) tid=(447,0,0)
GPGPU-Sim uArch: Shader 1 finished CTA #2 (25727,0), 2 CTAs running
GPGPU-Sim uArch: core:  1, cta: 2 initialized @(25728,0)
GPGPU-Sim PTX: 3400000 instructions simulated : ctaid=(183,0,0) tid=(127,0,0)
GPGPU-Sim uArch: Shader 0 finished CTA #2 (25820,0), 2 CTAs running
GPGPU-Sim uArch: core:  0, cta: 2 initialized @(25821,0)
GPGPU-Sim uArch: Shader 4 finished CTA #2 (25868,0), 2 CTAs running
GPGPU-Sim uArch: core:  4, cta: 2 initialized @(25869,0)
GPGPU-Sim uArch: Shader 3 finished CTA #2 (25869,0), 2 CTAs running
GPGPU-Sim uArch: core:  3, cta: 2 initialized @(25870,0)
GPGPU-Sim uArch: Shader 6 finished CTA #2 (25875,0), 2 CTAs running
GPGPU-Sim uArch: core:  6, cta: 2 initialized @(25876,0)
GPGPU-Sim uArch: Shader 8 finished CTA #2 (25916,0), 2 CTAs running
GPGPU-Sim uArch: core:  8, cta: 2 initialized @(25917,0)
GPGPU-Sim uArch: Shader 5 finished CTA #2 (25919,0), 2 CTAs running
GPGPU-Sim uArch: core:  5, cta: 2 initialized @(25920,0)
GPGPU-Sim uArch: Shader 2 finished CTA #2 (25929,0), 2 CTAs running
GPGPU-Sim uArch: core:  2, cta: 2 initialized @(25930,0)
GPGPU-Sim uArch: Shader 9 finished CTA #2 (25949,0), 2 CTAs running
GPGPU-Sim uArch: core:  9, cta: 2 initialized @(25950,0)
GPGPU-Sim uArch: Shader 14 finished CTA #2 (25956,0), 2 CTAs running
GPGPU-Sim uArch: core: 14, cta: 2 initialized @(25957,0)
GPGPU-Sim uArch: Shader 7 finished CTA #2 (25995,0), 2 CTAs running
GPGPU-Sim uArch: core:  7, cta: 2 initialized @(25996,0)
GPGPU-Sim uArch: cycles simulated: 26000  inst.: 3342432 (ipc=128.6) sim_rate=119372 (inst/sec) elapsed = 0:0:00:28 / Tue Mar 22 12:44:38 2016
GPGPU-Sim uArch: Shader 12 finished CTA #2 (26003,0), 2 CTAs running
GPGPU-Sim uArch: core: 12, cta: 2 initialized @(26004,0)
GPGPU-Sim uArch: Shader 11 finished CTA #2 (26014,0), 2 CTAs running
GPGPU-Sim uArch: core: 11, cta: 2 initialized @(26015,0)
GPGPU-Sim uArch: Shader 13 finished CTA #2 (26016,0), 2 CTAs running
GPGPU-Sim uArch: core: 13, cta: 2 initialized @(26017,0)
GPGPU-Sim uArch: Shader 10 finished CTA #2 (26020,0), 2 CTAs running
GPGPU-Sim uArch: core: 10, cta: 2 initialized @(26021,0)
GPGPU-Sim PTX: 3500000 instructions simulated : ctaid=(190,0,0) tid=(255,0,0)
GPGPU-Sim PTX: 3600000 instructions simulated : ctaid=(188,0,0) tid=(319,0,0)
GPGPU-Sim uArch: Shader 1 finished CTA #0 (27759,0), 2 CTAs running
GPGPU-Sim uArch: core:  1, cta: 0 initialized @(27760,0)
GPGPU-Sim PTX: 3700000 instructions simulated : ctaid=(193,0,0) tid=(415,0,0)
GPGPU-Sim uArch: Shader 0 finished CTA #0 (27875,0), 2 CTAs running
GPGPU-Sim uArch: core:  0, cta: 0 initialized @(27876,0)
GPGPU-Sim uArch: Shader 3 finished CTA #0 (27910,0), 2 CTAs running
GPGPU-Sim uArch: core:  3, cta: 0 initialized @(27911,0)
GPGPU-Sim uArch: Shader 4 finished CTA #0 (27919,0), 2 CTAs running
GPGPU-Sim uArch: core:  4, cta: 0 initialized @(27920,0)
GPGPU-Sim uArch: Shader 6 finished CTA #0 (27922,0), 2 CTAs running
GPGPU-Sim uArch: core:  6, cta: 0 initialized @(27923,0)
GPGPU-Sim uArch: Shader 8 finished CTA #0 (27958,0), 2 CTAs running
GPGPU-Sim uArch: core:  8, cta: 0 initialized @(27959,0)
GPGPU-Sim uArch: Shader 5 finished CTA #0 (27960,0), 2 CTAs running
GPGPU-Sim uArch: core:  5, cta: 0 initialized @(27961,0)
GPGPU-Sim uArch: Shader 2 finished CTA #0 (27982,0), 2 CTAs running
GPGPU-Sim uArch: core:  2, cta: 0 initialized @(27983,0)
GPGPU-Sim uArch: Shader 9 finished CTA #0 (27998,0), 2 CTAs running
GPGPU-Sim uArch: core:  9, cta: 0 initialized @(27999,0)
GPGPU-Sim uArch: cycles simulated: 28000  inst.: 3618016 (ipc=129.2) sim_rate=124759 (inst/sec) elapsed = 0:0:00:29 / Tue Mar 22 12:44:39 2016
GPGPU-Sim uArch: Shader 14 finished CTA #0 (28003,0), 2 CTAs running
GPGPU-Sim uArch: core: 14, cta: 0 initialized @(28004,0)
GPGPU-Sim uArch: Shader 7 finished CTA #0 (28039,0), 2 CTAs running
GPGPU-Sim uArch: core:  7, cta: 0 initialized @(28040,0)
GPGPU-Sim uArch: Shader 10 finished CTA #0 (28054,0), 2 CTAs running
GPGPU-Sim uArch: core: 10, cta: 0 initialized @(28055,0)
GPGPU-Sim uArch: Shader 13 finished CTA #0 (28066,0), 2 CTAs running
GPGPU-Sim uArch: core: 13, cta: 0 initialized @(28067,0)
GPGPU-Sim uArch: Shader 12 finished CTA #0 (28067,0), 2 CTAs running
GPGPU-Sim uArch: core: 12, cta: 0 initialized @(28068,0)
GPGPU-Sim uArch: Shader 11 finished CTA #0 (28073,0), 2 CTAs running
GPGPU-Sim uArch: core: 11, cta: 0 initialized @(28074,0)
GPGPU-Sim PTX: 3800000 instructions simulated : ctaid=(195,0,0) tid=(383,0,0)
GPGPU-Sim PTX: 3900000 instructions simulated : ctaid=(208,0,0) tid=(319,0,0)
GPGPU-Sim uArch: Shader 1 finished CTA #1 (29791,0), 2 CTAs running
GPGPU-Sim uArch: core:  1, cta: 1 initialized @(29792,0)
GPGPU-Sim uArch: Shader 0 finished CTA #1 (29922,0), 2 CTAs running
GPGPU-Sim uArch: core:  0, cta: 1 initialized @(29923,0)
GPGPU-Sim uArch: Shader 3 finished CTA #1 (29957,0), 2 CTAs running
GPGPU-Sim uArch: core:  3, cta: 1 initialized @(29958,0)
GPGPU-Sim uArch: Shader 4 finished CTA #1 (29964,0), 2 CTAs running
GPGPU-Sim uArch: core:  4, cta: 1 initialized @(29965,0)
GPGPU-Sim uArch: Shader 6 finished CTA #1 (29971,0), 2 CTAs running
GPGPU-Sim uArch: core:  6, cta: 1 initialized @(29972,0)
GPGPU-Sim PTX: 4000000 instructions simulated : ctaid=(222,0,0) tid=(31,0,0)
GPGPU-Sim uArch: cycles simulated: 30000  inst.: 3890912 (ipc=129.7) sim_rate=129697 (inst/sec) elapsed = 0:0:00:30 / Tue Mar 22 12:44:40 2016
GPGPU-Sim uArch: Shader 5 finished CTA #1 (30007,0), 2 CTAs running
GPGPU-Sim uArch: core:  5, cta: 1 initialized @(30008,0)
GPGPU-Sim uArch: Shader 8 finished CTA #1 (30035,0), 2 CTAs running
GPGPU-Sim uArch: core:  8, cta: 1 initialized @(30036,0)
GPGPU-Sim uArch: Shader 2 finished CTA #1 (30050,0), 2 CTAs running
GPGPU-Sim uArch: core:  2, cta: 1 initialized @(30051,0)
GPGPU-Sim uArch: Shader 9 finished CTA #1 (30055,0), 2 CTAs running
GPGPU-Sim uArch: core:  9, cta: 1 initialized @(30056,0)
GPGPU-Sim uArch: Shader 14 finished CTA #1 (30067,0), 2 CTAs running
GPGPU-Sim uArch: core: 14, cta: 1 initialized @(30068,0)
GPGPU-Sim uArch: Shader 7 finished CTA #1 (30098,0), 2 CTAs running
GPGPU-Sim uArch: core:  7, cta: 1 initialized @(30099,0)
GPGPU-Sim uArch: Shader 10 finished CTA #1 (30114,0), 2 CTAs running
GPGPU-Sim uArch: core: 10, cta: 1 initialized @(30115,0)
GPGPU-Sim uArch: Shader 12 finished CTA #1 (30120,0), 2 CTAs running
GPGPU-Sim uArch: core: 12, cta: 1 initialized @(30121,0)
GPGPU-Sim uArch: Shader 11 finished CTA #1 (30122,0), 2 CTAs running
GPGPU-Sim uArch: core: 11, cta: 1 initialized @(30123,0)
GPGPU-Sim uArch: Shader 13 finished CTA #1 (30133,0), 2 CTAs running
GPGPU-Sim uArch: core: 13, cta: 1 initialized @(30134,0)
GPGPU-Sim PTX: 4100000 instructions simulated : ctaid=(223,0,0) tid=(223,0,0)
GPGPU-Sim PTX: 4200000 instructions simulated : ctaid=(215,0,0) tid=(447,0,0)
GPGPU-Sim uArch: Shader 1 finished CTA #2 (31829,0), 2 CTAs running
GPGPU-Sim uArch: core:  1, cta: 2 initialized @(31830,0)
GPGPU-Sim uArch: Shader 0 finished CTA #2 (31970,0), 2 CTAs running
GPGPU-Sim uArch: core:  0, cta: 2 initialized @(31971,0)
GPGPU-Sim uArch: Shader 3 finished CTA #2 (31990,0), 2 CTAs running
GPGPU-Sim uArch: core:  3, cta: 2 initialized @(31991,0)
GPGPU-Sim uArch: cycles simulated: 32000  inst.: 4159104 (ipc=130.0) sim_rate=134164 (inst/sec) elapsed = 0:0:00:31 / Tue Mar 22 12:44:41 2016
GPGPU-Sim uArch: Shader 4 finished CTA #2 (32008,0), 2 CTAs running
GPGPU-Sim uArch: core:  4, cta: 2 initialized @(32009,0)
GPGPU-Sim uArch: Shader 6 finished CTA #2 (32019,0), 2 CTAs running
GPGPU-Sim uArch: core:  6, cta: 2 initialized @(32020,0)
GPGPU-Sim uArch: Shader 5 finished CTA #2 (32050,0), 2 CTAs running
GPGPU-Sim uArch: core:  5, cta: 2 initialized @(32051,0)
GPGPU-Sim uArch: Shader 8 finished CTA #2 (32077,0), 2 CTAs running
GPGPU-Sim uArch: core:  8, cta: 2 initialized @(32078,0)
GPGPU-Sim uArch: Shader 2 finished CTA #2 (32096,0), 2 CTAs running
GPGPU-Sim uArch: core:  2, cta: 2 initialized @(32097,0)
GPGPU-Sim uArch: Shader 9 finished CTA #2 (32110,0), 2 CTAs running
GPGPU-Sim uArch: core:  9, cta: 2 initialized @(32111,0)
GPGPU-Sim uArch: Shader 14 finished CTA #2 (32114,0), 2 CTAs running
GPGPU-Sim uArch: core: 14, cta: 2 initialized @(32115,0)
GPGPU-Sim uArch: Shader 7 finished CTA #2 (32147,0), 2 CTAs running
GPGPU-Sim uArch: core:  7, cta: 2 initialized @(32148,0)
GPGPU-Sim uArch: Shader 11 finished CTA #2 (32162,0), 2 CTAs running
GPGPU-Sim uArch: core: 11, cta: 2 initialized @(32163,0)
GPGPU-Sim uArch: Shader 12 finished CTA #2 (32165,0), 2 CTAs running
GPGPU-Sim uArch: core: 12, cta: 2 initialized @(32166,0)
GPGPU-Sim uArch: Shader 13 finished CTA #2 (32180,0), 2 CTAs running
GPGPU-Sim uArch: core: 13, cta: 2 initialized @(32181,0)
GPGPU-Sim uArch: Shader 10 finished CTA #2 (32222,0), 2 CTAs running
GPGPU-Sim uArch: core: 10, cta: 2 initialized @(32223,0)
GPGPU-Sim PTX: 4300000 instructions simulated : ctaid=(228,0,0) tid=(31,0,0)
GPGPU-Sim PTX: 4400000 instructions simulated : ctaid=(228,0,0) tid=(351,0,0)
GPGPU-Sim PTX: 4500000 instructions simulated : ctaid=(237,0,0) tid=(479,0,0)
GPGPU-Sim uArch: Shader 1 finished CTA #0 (33880,0), 2 CTAs running
GPGPU-Sim uArch: core:  1, cta: 0 initialized @(33881,0)
GPGPU-Sim uArch: cycles simulated: 34000  inst.: 4426176 (ipc=130.2) sim_rate=138318 (inst/sec) elapsed = 0:0:00:32 / Tue Mar 22 12:44:42 2016
GPGPU-Sim uArch: Shader 0 finished CTA #0 (34020,0), 2 CTAs running
GPGPU-Sim uArch: core:  0, cta: 0 initialized @(34021,0)
GPGPU-Sim uArch: Shader 3 finished CTA #0 (34022,0), 2 CTAs running
GPGPU-Sim uArch: core:  3, cta: 0 initialized @(34023,0)
GPGPU-Sim uArch: Shader 4 finished CTA #0 (34055,0), 2 CTAs running
GPGPU-Sim uArch: core:  4, cta: 0 initialized @(34056,0)
GPGPU-Sim uArch: Shader 6 finished CTA #0 (34068,0), 2 CTAs running
GPGPU-Sim uArch: core:  6, cta: 0 initialized @(34069,0)
GPGPU-Sim uArch: Shader 5 finished CTA #0 (34102,0), 2 CTAs running
GPGPU-Sim uArch: core:  5, cta: 0 initialized @(34103,0)
GPGPU-Sim uArch: Shader 8 finished CTA #0 (34122,0), 2 CTAs running
GPGPU-Sim uArch: core:  8, cta: 0 initialized @(34123,0)
GPGPU-Sim uArch: Shader 2 finished CTA #0 (34137,0), 2 CTAs running
GPGPU-Sim uArch: core:  2, cta: 0 initialized @(34138,0)
GPGPU-Sim uArch: Shader 14 finished CTA #0 (34159,0), 2 CTAs running
GPGPU-Sim uArch: core: 14, cta: 0 initialized @(34160,0)
GPGPU-Sim uArch: Shader 9 finished CTA #0 (34162,0), 2 CTAs running
GPGPU-Sim uArch: core:  9, cta: 0 initialized @(34163,0)
GPGPU-Sim uArch: Shader 7 finished CTA #0 (34197,0), 2 CTAs running
GPGPU-Sim uArch: core:  7, cta: 0 initialized @(34198,0)
GPGPU-Sim uArch: Shader 11 finished CTA #0 (34204,0), 2 CTAs running
GPGPU-Sim uArch: core: 11, cta: 0 initialized @(34205,0)
GPGPU-Sim uArch: Shader 12 finished CTA #0 (34211,0), 2 CTAs running
GPGPU-Sim uArch: core: 12, cta: 0 initialized @(34212,0)
GPGPU-Sim uArch: Shader 13 finished CTA #0 (34226,0), 2 CTAs running
GPGPU-Sim uArch: core: 13, cta: 0 initialized @(34227,0)
GPGPU-Sim uArch: Shader 10 finished CTA #0 (34268,0), 2 CTAs running
GPGPU-Sim uArch: core: 10, cta: 0 initialized @(34269,0)
GPGPU-Sim PTX: 4600000 instructions simulated : ctaid=(248,0,0) tid=(63,0,0)
GPGPU-Sim PTX: 4700000 instructions simulated : ctaid=(253,0,0) tid=(191,0,0)
GPGPU-Sim PTX: 4800000 instructions simulated : ctaid=(242,0,0) tid=(511,0,0)
GPGPU-Sim uArch: Shader 1 finished CTA #1 (35939,0), 2 CTAs running
GPGPU-Sim uArch: core:  1, cta: 1 initialized @(35940,0)
GPGPU-Sim uArch: cycles simulated: 36000  inst.: 4689504 (ipc=130.3) sim_rate=142106 (inst/sec) elapsed = 0:0:00:33 / Tue Mar 22 12:44:43 2016
GPGPU-Sim uArch: Shader 3 finished CTA #1 (36054,0), 2 CTAs running
GPGPU-Sim uArch: core:  3, cta: 1 initialized @(36055,0)
GPGPU-Sim uArch: Shader 0 finished CTA #1 (36056,0), 2 CTAs running
GPGPU-Sim uArch: core:  0, cta: 1 initialized @(36057,0)
GPGPU-Sim uArch: Shader 4 finished CTA #1 (36108,0), 2 CTAs running
GPGPU-Sim uArch: core:  4, cta: 1 initialized @(36109,0)
GPGPU-Sim uArch: Shader 6 finished CTA #1 (36115,0), 2 CTAs running
GPGPU-Sim uArch: core:  6, cta: 1 initialized @(36116,0)
GPGPU-Sim uArch: Shader 5 finished CTA #1 (36145,0), 2 CTAs running
GPGPU-Sim uArch: core:  5, cta: 1 initialized @(36146,0)
GPGPU-Sim uArch: Shader 8 finished CTA #1 (36166,0), 2 CTAs running
GPGPU-Sim uArch: core:  8, cta: 1 initialized @(36167,0)
GPGPU-Sim uArch: Shader 2 finished CTA #1 (36182,0), 2 CTAs running
GPGPU-Sim uArch: core:  2, cta: 1 initialized @(36183,0)
GPGPU-Sim uArch: Shader 14 finished CTA #1 (36239,0), 2 CTAs running
GPGPU-Sim uArch: core: 14, cta: 1 initialized @(36240,0)
GPGPU-Sim uArch: Shader 9 finished CTA #1 (36252,0), 2 CTAs running
GPGPU-Sim uArch: core:  9, cta: 1 initialized @(36253,0)
GPGPU-Sim uArch: Shader 12 finished CTA #1 (36253,0), 2 CTAs running
GPGPU-Sim uArch: core: 12, cta: 1 initialized @(36254,0)
GPGPU-Sim uArch: Shader 13 finished CTA #1 (36272,0), 2 CTAs running
GPGPU-Sim uArch: core: 13, cta: 1 initialized @(36273,0)
GPGPU-Sim uArch: Shader 7 finished CTA #1 (36283,0), 2 CTAs running
GPGPU-Sim uArch: core:  7, cta: 1 initialized @(36284,0)
GPGPU-Sim uArch: Shader 11 finished CTA #1 (36289,0), 2 CTAs running
GPGPU-Sim uArch: core: 11, cta: 1 initialized @(36290,0)
GPGPU-Sim uArch: Shader 10 finished CTA #1 (36319,0), 2 CTAs running
GPGPU-Sim uArch: core: 10, cta: 1 initialized @(36320,0)
GPGPU-Sim PTX: 4900000 instructions simulated : ctaid=(267,0,0) tid=(63,0,0)
GPGPU-Sim PTX: 5000000 instructions simulated : ctaid=(268,0,0) tid=(383,0,0)
GPGPU-Sim uArch: cycles simulated: 37500  inst.: 4890048 (ipc=130.4) sim_rate=143824 (inst/sec) elapsed = 0:0:00:34 / Tue Mar 22 12:44:44 2016
GPGPU-Sim uArch: Shader 1 finished CTA #2 (37982,0), 2 CTAs running
GPGPU-Sim uArch: core:  1, cta: 2 initialized @(37983,0)
GPGPU-Sim PTX: 5100000 instructions simulated : ctaid=(262,0,0) tid=(479,0,0)
GPGPU-Sim uArch: Shader 3 finished CTA #2 (38086,0), 2 CTAs running
GPGPU-Sim uArch: core:  3, cta: 2 initialized @(38087,0)
GPGPU-Sim uArch: Shader 0 finished CTA #2 (38108,0), 2 CTAs running
GPGPU-Sim uArch: core:  0, cta: 2 initialized @(38109,0)
GPGPU-Sim uArch: Shader 4 finished CTA #2 (38152,0), 2 CTAs running
GPGPU-Sim uArch: core:  4, cta: 2 initialized @(38153,0)
GPGPU-Sim uArch: Shader 6 finished CTA #2 (38153,0), 2 CTAs running
GPGPU-Sim uArch: core:  6, cta: 2 initialized @(38154,0)
GPGPU-Sim uArch: Shader 5 finished CTA #2 (38184,0), 2 CTAs running
GPGPU-Sim uArch: core:  5, cta: 2 initialized @(38185,0)
GPGPU-Sim uArch: Shader 8 finished CTA #2 (38198,0), 2 CTAs running
GPGPU-Sim uArch: core:  8, cta: 2 initialized @(38199,0)
GPGPU-Sim uArch: Shader 2 finished CTA #2 (38224,0), 2 CTAs running
GPGPU-Sim uArch: core:  2, cta: 2 initialized @(38225,0)
GPGPU-Sim uArch: Shader 14 finished CTA #2 (38277,0), 2 CTAs running
GPGPU-Sim uArch: core: 14, cta: 2 initialized @(38278,0)
GPGPU-Sim uArch: Shader 12 finished CTA #2 (38295,0), 2 CTAs running
GPGPU-Sim uArch: core: 12, cta: 2 initialized @(38296,0)
GPGPU-Sim uArch: Shader 9 finished CTA #2 (38300,0), 2 CTAs running
GPGPU-Sim uArch: core:  9, cta: 2 initialized @(38301,0)
GPGPU-Sim uArch: Shader 13 finished CTA #2 (38319,0), 2 CTAs running
GPGPU-Sim uArch: core: 13, cta: 2 initialized @(38320,0)
GPGPU-Sim uArch: Shader 11 finished CTA #2 (38322,0), 2 CTAs running
GPGPU-Sim uArch: core: 11, cta: 2 initialized @(38323,0)
GPGPU-Sim uArch: Shader 7 finished CTA #2 (38325,0), 2 CTAs running
GPGPU-Sim uArch: core:  7, cta: 2 initialized @(38326,0)
GPGPU-Sim uArch: Shader 10 finished CTA #2 (38364,0), 2 CTAs running
GPGPU-Sim uArch: core: 10, cta: 2 initialized @(38365,0)
GPGPU-Sim PTX: 5200000 instructions simulated : ctaid=(281,0,0) tid=(127,0,0)
GPGPU-Sim PTX: 5300000 instructions simulated : ctaid=(278,0,0) tid=(351,0,0)
GPGPU-Sim uArch: cycles simulated: 39500  inst.: 5156704 (ipc=130.5) sim_rate=147334 (inst/sec) elapsed = 0:0:00:35 / Tue Mar 22 12:44:45 2016
GPGPU-Sim uArch: Shader 1 finished CTA #0 (40028,0), 2 CTAs running
GPGPU-Sim uArch: core:  1, cta: 0 initialized @(40029,0)
GPGPU-Sim PTX: 5400000 instructions simulated : ctaid=(292,0,0) tid=(31,0,0)
GPGPU-Sim uArch: Shader 0 finished CTA #0 (40155,0), 2 CTAs running
GPGPU-Sim uArch: core:  0, cta: 0 initialized @(40156,0)
GPGPU-Sim uArch: Shader 3 finished CTA #0 (40162,0), 2 CTAs running
GPGPU-Sim uArch: core:  3, cta: 0 initialized @(40163,0)
GPGPU-Sim uArch: Shader 5 finished CTA #0 (40227,0), 2 CTAs running
GPGPU-Sim uArch: core:  5, cta: 0 initialized @(40228,0)
GPGPU-Sim uArch: Shader 6 finished CTA #0 (40238,0), 2 CTAs running
GPGPU-Sim uArch: core:  6, cta: 0 initialized @(40239,0)
GPGPU-Sim uArch: Shader 4 finished CTA #0 (40239,0), 2 CTAs running
GPGPU-Sim uArch: core:  4, cta: 0 initialized @(40240,0)
GPGPU-Sim uArch: Shader 8 finished CTA #0 (40256,0), 2 CTAs running
GPGPU-Sim uArch: core:  8, cta: 0 initialized @(40257,0)
GPGPU-Sim uArch: Shader 2 finished CTA #0 (40274,0), 2 CTAs running
GPGPU-Sim uArch: core:  2, cta: 0 initialized @(40275,0)
GPGPU-Sim uArch: Shader 14 finished CTA #0 (40308,0), 2 CTAs running
GPGPU-Sim uArch: core: 14, cta: 0 initialized @(40309,0)
GPGPU-Sim uArch: Shader 12 finished CTA #0 (40345,0), 2 CTAs running
GPGPU-Sim uArch: core: 12, cta: 0 initialized @(40346,0)
GPGPU-Sim uArch: Shader 9 finished CTA #0 (40355,0), 2 CTAs running
GPGPU-Sim uArch: core:  9, cta: 0 initialized @(40356,0)
GPGPU-Sim uArch: Shader 13 finished CTA #0 (40364,0), 2 CTAs running
GPGPU-Sim uArch: core: 13, cta: 0 initialized @(40365,0)
GPGPU-Sim uArch: Shader 7 finished CTA #0 (40370,0), 2 CTAs running
GPGPU-Sim uArch: core:  7, cta: 0 initialized @(40371,0)
GPGPU-Sim uArch: Shader 11 finished CTA #0 (40371,0), 2 CTAs running
GPGPU-Sim uArch: core: 11, cta: 0 initialized @(40372,0)
GPGPU-Sim uArch: Shader 10 finished CTA #0 (40408,0), 2 CTAs running
GPGPU-Sim uArch: core: 10, cta: 0 initialized @(40409,0)
GPGPU-Sim PTX: 5500000 instructions simulated : ctaid=(285,0,0) tid=(255,0,0)
GPGPU-Sim uArch: cycles simulated: 41500  inst.: 5425728 (ipc=130.7) sim_rate=150714 (inst/sec) elapsed = 0:0:00:36 / Tue Mar 22 12:44:46 2016
GPGPU-Sim PTX: 5600000 instructions simulated : ctaid=(288,0,0) tid=(415,0,0)
GPGPU-Sim uArch: Shader 1 finished CTA #1 (42078,0), 2 CTAs running
GPGPU-Sim uArch: core:  1, cta: 1 initialized @(42079,0)
GPGPU-Sim uArch: Shader 0 finished CTA #1 (42202,0), 2 CTAs running
GPGPU-Sim uArch: core:  0, cta: 1 initialized @(42203,0)
GPGPU-Sim uArch: Shader 3 finished CTA #1 (42210,0), 2 CTAs running
GPGPU-Sim uArch: core:  3, cta: 1 initialized @(42211,0)
GPGPU-Sim uArch: Shader 5 finished CTA #1 (42272,0), 2 CTAs running
GPGPU-Sim uArch: core:  5, cta: 1 initialized @(42273,0)
GPGPU-Sim PTX: 5700000 instructions simulated : ctaid=(296,0,0) tid=(447,0,0)
GPGPU-Sim uArch: Shader 4 finished CTA #1 (42277,0), 2 CTAs running
GPGPU-Sim uArch: core:  4, cta: 1 initialized @(42278,0)
GPGPU-Sim uArch: Shader 6 finished CTA #1 (42290,0), 2 CTAs running
GPGPU-Sim uArch: core:  6, cta: 1 initialized @(42291,0)
GPGPU-Sim uArch: Shader 8 finished CTA #1 (42294,0), 2 CTAs running
GPGPU-Sim uArch: core:  8, cta: 1 initialized @(42295,0)
GPGPU-Sim uArch: Shader 2 finished CTA #1 (42325,0), 2 CTAs running
GPGPU-Sim uArch: core:  2, cta: 1 initialized @(42326,0)
GPGPU-Sim uArch: Shader 14 finished CTA #1 (42359,0), 2 CTAs running
GPGPU-Sim uArch: core: 14, cta: 1 initialized @(42360,0)
GPGPU-Sim uArch: Shader 12 finished CTA #1 (42386,0), 2 CTAs running
GPGPU-Sim uArch: core: 12, cta: 1 initialized @(42387,0)
GPGPU-Sim uArch: Shader 9 finished CTA #1 (42392,0), 2 CTAs running
GPGPU-Sim uArch: core:  9, cta: 1 initialized @(42393,0)
GPGPU-Sim uArch: Shader 7 finished CTA #1 (42439,0), 2 CTAs running
GPGPU-Sim uArch: core:  7, cta: 1 initialized @(42440,0)
GPGPU-Sim uArch: Shader 13 finished CTA #1 (42446,0), 2 CTAs running
GPGPU-Sim uArch: core: 13, cta: 1 initialized @(42447,0)
GPGPU-Sim uArch: Shader 11 finished CTA #1 (42453,0), 2 CTAs running
GPGPU-Sim uArch: core: 11, cta: 1 initialized @(42454,0)
GPGPU-Sim uArch: Shader 10 finished CTA #1 (42458,0), 2 CTAs running
GPGPU-Sim uArch: core: 10, cta: 1 initialized @(42459,0)
GPGPU-Sim PTX: 5800000 instructions simulated : ctaid=(306,0,0) tid=(223,0,0)
GPGPU-Sim uArch: cycles simulated: 43500  inst.: 5698144 (ipc=131.0) sim_rate=154003 (inst/sec) elapsed = 0:0:00:37 / Tue Mar 22 12:44:47 2016
GPGPU-Sim PTX: 5900000 instructions simulated : ctaid=(307,0,0) tid=(511,0,0)
GPGPU-Sim uArch: Shader 1 finished CTA #2 (44126,0), 2 CTAs running
GPGPU-Sim uArch: core:  1, cta: 2 initialized @(44127,0)
GPGPU-Sim uArch: Shader 0 finished CTA #2 (44251,0), 2 CTAs running
GPGPU-Sim uArch: core:  0, cta: 2 initialized @(44252,0)
GPGPU-Sim uArch: Shader 3 finished CTA #2 (44258,0), 2 CTAs running
GPGPU-Sim uArch: core:  3, cta: 2 initialized @(44259,0)
GPGPU-Sim uArch: Shader 4 finished CTA #2 (44308,0), 2 CTAs running
GPGPU-Sim uArch: core:  4, cta: 2 initialized @(44309,0)
GPGPU-Sim uArch: Shader 5 finished CTA #2 (44318,0), 2 CTAs running
GPGPU-Sim uArch: core:  5, cta: 2 initialized @(44319,0)
GPGPU-Sim uArch: Shader 6 finished CTA #2 (44338,0), 2 CTAs running
GPGPU-Sim uArch: core:  6, cta: 2 initialized @(44339,0)
GPGPU-Sim uArch: Shader 8 finished CTA #2 (44344,0), 2 CTAs running
GPGPU-Sim uArch: core:  8, cta: 2 initialized @(44345,0)
GPGPU-Sim uArch: Shader 2 finished CTA #2 (44373,0), 2 CTAs running
GPGPU-Sim uArch: core:  2, cta: 2 initialized @(44374,0)
GPGPU-Sim uArch: Shader 14 finished CTA #2 (44399,0), 2 CTAs running
GPGPU-Sim uArch: core: 14, cta: 2 initialized @(44400,0)
[...]
gpgpu_stall_shd_mem[l_mem_ld][mshr_rc] = 0
gpgpu_stall_shd_mem[l_mem_ld][icnt_rc] = 0
gpgpu_stall_shd_mem[l_mem_ld][wb_icnt_rc] = 0
gpgpu_stall_shd_mem[l_mem_ld][wb_rsrv_fail] = 0
gpgpu_stall_shd_mem[l_mem_st][mshr_rc] = 0
gpgpu_stall_shd_mem[l_mem_st][icnt_rc] = 0
gpgpu_stall_shd_mem[l_mem_ld][wb_icnt_rc] = 0
gpgpu_stall_shd_mem[l_mem_ld][wb_rsrv_fail] = 0
gpu_reg_bank_conflict_stalls = 0
Warp Occupancy Distribution:
Stall:2012	W0_Idle:53935	W0_Scoreboard:2812166	W1:0	W2:0	W3:0	W4:0	W5:0	W6:0	W7:0	W8:0	W9:0	W10:0	W11:0	W12:0	W13:0	W14:0	W15:0	W16:0	W17:0	W18:0	W19:0	W20:0	W21:0	W22:0	W23:0	W24:0	W25:0	W26:0	W27:0	W28:39	W29:0	W30:0	W31:0	W32:424176
traffic_breakdown_coretomem[CONST_ACC_R] = 120 {8:15,}
traffic_breakdown_coretomem[GLOBAL_ACC_R] = 114960 {8:14370,}
traffic_breakdown_coretomem[GLOBAL_ACC_W] = 2931480 {136:21555,}
traffic_breakdown_coretomem[INST_ACC_R] = 480 {8:60,}
traffic_breakdown_memtocore[CONST_ACC_R] = 1080 {72:15,}
traffic_breakdown_memtocore[GLOBAL_ACC_R] = 1954320 {136:14370,}
traffic_breakdown_memtocore[GLOBAL_ACC_W] = 172440 {8:21555,}
traffic_breakdown_memtocore[INST_ACC_R] = 8160 {136:60,}
maxmrqlatency = 616 
maxdqlatency = 0 
maxmflatency = 595 
averagemflatency = 256 
max_icnt2mem_latency = 60 
max_icnt2sh_latency = 110413 
mrq_lat_table:21033 	3332 	2102 	3179 	6114 	6430 	5387 	2248 	452 	23 	0 	0 	0 	0 	0 	0 	0 	0 	0 	0 	0 	0 	0 	0 	0 	0 	0 	0 	0 	0 	0 	0 	
dq_lat_table:0 	0 	0 	0 	0 	0 	0 	0 	0 	0 	0 	0 	0 	0 	0 	0 	0 	0 	0 	0 	0 	0 	0 	0 	0 	0 	0 	0 	0 	0 	0 	0 	
mf_lat_table:0 	0 	0 	0 	0 	0 	0 	9965 	25934 	41 	0 	0 	0 	0 	0 	0 	0 	0 	0 	0 	0 	0 	0 	0 	0 	0 	0 	0 	0 	0 	0 	0 	
icnt2mem_lat_table:0 	0 	0 	31607 	4230 	163 	0 	0 	0 	0 	0 	0 	0 	0 	0 	0 	0 	0 	0 	0 	0 	0 	0 	0 	
icnt2sh_lat_table:0 	0 	0 	13380 	972 	33 	0 	0 	0 	0 	60 	240 	480 	960 	1920 	3874 	14021 	0 	0 	0 	0 	0 	0 	0 	
mf_lat_pw_table:0 	0 	0 	0 	0 	0 	0 	124 	95 	0 	0 	0 	0 	0 	0 	0 	0 	0 	0 	0 	0 	0 	0 	0 	0 	0 	0 	0 	0 	0 	0 	0 	
maximum concurrent accesses to same row:
dram[0]:        64        64        64        64        64        64        64        64        64        64        64        64        64        64        64        64 
dram[1]:        64        64        64        64        64        64        64        64        64        64        64        64        64        64        64        64 
dram[2]:        64        64        64        64        64        64        64        64        64        64        64        64        64        64        64        64 
dram[3]:        64        64        64        64        64        64        64        64        64        64        64        64        64        64        64        64 
dram[4]:        64        64        64        64        64        64        64        64        64        64        64        64        64        64        64        64 
dram[5]:        64        64        64        64        64        64        64        64        64        64        64        64        64        64        64        64 
maximum service time to same row:
dram[0]:     26569     26626     24811     25868     26599     26661     27194     26638     26788     25799     26778     26835     26536     26616     26715     25692 
dram[1]:     26580     26627     24819     25867     26602     26651     27200     26653     26861     25810     26778     26825     26540     26622     26717     25690 
dram[2]:     26562     26600     24816     26459     26597     26614     26721     27184     26781     26431     26775     26841     26548     26603     26719     24772 
dram[3]:     26569     26608     24830     26466     26599     26610     26721     27196     26852     26441     26774     26827     26548     26616     26721     24789 
dram[4]:     26616     26612     25855     26475     26662     26614     27143     26681     25789     26437     26838     26840     26603     26605     25679     24782 
dram[5]:     26621     26610     25853     26470     26657     26619     27166     26687     25794     26445     26828     26828     26617     26626     25682     24799 
average row accesses per activate:
dram[0]: 17.758621 21.333334 11.906977 12.487804 12.044444 12.000000 10.074074  9.379311  8.000000  7.771429  6.518987  6.481013 13.837838 18.962963 26.947369 39.384617 
dram[1]: 15.515152 18.285715 13.837838 10.893617 12.044444 12.511628  9.066667  9.714286  7.555555  9.379311  7.876923  6.320988 17.655172 18.962963 26.947369 30.117647 
dram[2]: 18.285715 18.285715 14.628572 11.906977 12.604651 13.268292  8.500000 10.074074  7.351351  8.242424  6.649351  6.023530 17.655172 18.962963 30.117647 30.117647 
dram[3]: 16.000000 16.000000 13.837838 10.893617 11.061225 13.268292  9.066667 10.074074  7.351351  9.066667  6.481013  6.701299 18.962963 22.260870 26.947369 34.133335 
dram[4]: 18.285715 18.285715 13.128205 11.906977 12.604651 11.102041 10.074074  8.500000  7.771429  8.000000  7.013699  6.370370 17.655172 16.516129 30.117647 34.133335 
dram[5]: 18.285715 17.066668 11.377778 10.448979 12.044444 12.088889  9.379311  9.379311  9.066667  7.771429  7.013699  6.531646 20.480000 18.962963 30.117647 39.384617 
average row locality = 50300/4356 = 11.547291
number of total memory accesses made:
dram[0]:         0         0         0         0         0         0         0         0         0         0         0         0         0         0         0         0 
dram[1]:         0         0         0         0         0         0         0         0         0         0         0         0         0         0         0         0 
dram[2]:         0         0         0         0         0         0         0         0         0         0         0         0         0         0         0         0 
dram[3]:         0         0         0         0         0         0         0         0         0         0         0         0         0         0         0         0 
dram[4]:         0         0         0         0         0         0         0         0         0         0         0         0         0         0         0         0 
dram[5]:         0         0         0         0         0         0         0         0         0         0         0         0         0         0         0         0 
total accesses: 0
min_bank_accesses = 0!
min_chip_accesses = 0!
number of total read accesses:
dram[0]:       291       288       288       288       308       307       320       320       320       320       296       294       288       288       288       288 
dram[1]:       289       288       288       288       308       306       320       320       320       320       294       294       288       288       288       288 
dram[2]:       288       288       288       288       308       310       320       320       320       320       294       294       288       288       288       288 
dram[3]:       288       288       288       288       308       310       320       320       320       320       294       296       288       288       288       288 
dram[4]:       288       288       288       288       308       310       320       320       320       320       294       296       288       288       288       288 
dram[5]:       288       288       288       288       308       310       320       320       320       320       294       296       288       288       288       288 
total reads: 28745
bank skew: 320/288 = 1.11
chip skew: 4792/4787 = 1.00
number of total write accesses:
dram[0]:       224       224       224       224       234       233       224       224       224       224       219       218       224       224       224       224 
dram[1]:       223       224       224       224       234       232       224       224       224       224       218       218       224       224       224       224 
dram[2]:       224       224       224       224       234       234       224       224       224       224       218       218       224       224       224       224 
dram[3]:       224       224       224       224       234       234       224       224       224       224       218       220       224       224       224       224 
dram[4]:       224       224       224       224       234       234       224       224       224       224       218       220       224       224       224       224 
dram[5]:       224       224       224       224       234       234       224       224       224       224       218       220       224       224       224       224 
total reads: 21555
bank skew: 234/218 = 1.07
chip skew: 3594/3589 = 1.00
average mf latency per bank:
dram[0]:        185       177       182       183       181       185       194       194       192       191       185       182       176       179       178       177
dram[1]:        178       179       180       181       180       184       193       191       190       191       184       184       178       179       176       177
dram[2]:        179       177       180       182       180       184       192       194       189       190       181       183       177       179       176       179
dram[3]:        180       177       181       180       182       185       193       193       189       193       183       184       179       179       174       176
dram[4]:        177       179       179       181       180       184       192       193       189       190       182       184       176       178       177       177
dram[5]:        177       178       182       179       180       183       190       190       192       194       185       185       180       179       177       175
maximum mf latency per bank:
dram[0]:        510       595       444       556       465       494       495       485       525       482       438       489       432       508       450       435
dram[1]:        583       574       476       479       466       444       529       451       464       450       405       510       437       449       441       472
dram[2]:        578       527       500       517       501       486       470       537       446       468       413       481       490       544       437       482
dram[3]:        583       501       519       465       572       490       525       494       480       462       430       449       482       431       433       431
dram[4]:        472       568       507       496       443       514       542       467       431       510       466       419       455       467       422       430
dram[5]:        493       549       504       458       472       471       433       459       467       466       460       432       514       406       474       426

Number of Memory Banks Accessed per Memory Operation per Warp (from 0):
0	0	0	0	0	0	0	0	0	0	0	0	0	0	0	0	0	0	0	0	0	0	0	0	0	0	0	0	0	0	0	0	0	0	0	0	0	0	0	0	0	0	0	0	0	0	0	0	0	0	0	0	0	0	0	0	0	0	0	0	0	0	0	0	0	0	0	0	0	0	0	0	0	0	0	0	0	0	0	0	0	0	0	0	0	0	0	0	0	0	0	0	0	0	0	0	
Average # of Memory Banks Accessed per Memory Operation per Warp=-nan

position of mrq chosen
0	0	0	0	0	0	0	0	0	0	0	0	0	0	0	0	

average position of mrq chosen = -nan
Memory Partition 0: 
Cache L2_bank_000:
MSHR contents

Cache L2_bank_001:
MSHR contents

In Dram Latency Queue (total = 0): 
DRAM[0]: 16 bks, busW=4 BL=8 CL=12, tRRD=2 tCCD=6, tRCD=12 tRAS=28 tRP=12 tRC=40
n_cmd=145745 n_nop=127531 n_act=731 n_pre=715 n_req=8384 n_rd=9584 n_write=7184 bw_util=0.2301
n_activity=77292 dram_eff=0.4339
bk0: 582a 135083i bk1: 576a 135090i bk2: 576a 134192i bk3: 576a 133982i bk4: 616a 134131i bk5: 614a 133312i bk6: 640a 134109i bk7: 640a 134026i bk8: 640a 134944i bk9: 640a 134596i bk10: 592a 134683i bk11: 588a 135057i bk12: 576a 135118i bk13: 576a 134830i bk14: 576a 134527i bk15: 576a 134216i 
dram_util_bins: 0 0 0 0 0 0 0 0 0 0
dram_eff_bins: 0 0 0 0 0 0 0 0 0 0
mrqq: max=16 avg=2.2847
Memory Partition 1: 
Cache L2_bank_002:
MSHR contents

Cache L2_bank_003:
MSHR contents

In Dram Latency Queue (total = 0): 
DRAM[1]: 16 bks, busW=4 BL=8 CL=12, tRRD=2 tCCD=6, tRCD=12 tRAS=28 tRP=12 tRC=40
n_cmd=145745 n_nop=127575 n_act=717 n_pre=701 n_req=8376 n_rd=9574 n_write=7178 bw_util=0.2299
n_activity=77309 dram_eff=0.4334
bk0: 578a 135150i bk1: 576a 134855i bk2: 576a 134521i bk3: 576a 133908i bk4: 616a 133495i bk5: 612a 132987i bk6: 640a 133850i bk7: 640a 134328i bk8: 640a 134600i bk9: 640a 134725i bk10: 588a 135047i bk11: 588a 134589i bk12: 576a 135001i bk13: 576a 135088i bk14: 576a 134579i bk15: 576a 134365i 
dram_util_bins: 0 0 0 0 0 0 0 0 0 0
dram_eff_bins: 0 0 0 0 0 0 0 0 0 0
mrqq: max=16 avg=2.31403
Memory Partition 2: 
Cache L2_bank_004:
MSHR contents

Cache L2_bank_005:
MSHR contents

In Dram Latency Queue (total = 0): 
DRAM[2]: 16 bks, busW=4 BL=8 CL=12, tRRD=2 tCCD=6, tRCD=12 tRAS=28 tRP=12 tRC=40
n_cmd=145745 n_nop=127541 n_act=728 n_pre=712 n_req=8382 n_rd=9580 n_write=7184 bw_util=0.23
n_activity=76936 dram_eff=0.4358
bk0: 576a 134839i bk1: 576a 135073i bk2: 576a 134123i bk3: 576a 133928i bk4: 616a 133952i bk5: 620a 133376i bk6: 640a 134435i bk7: 640a 134064i bk8: 640a 135055i bk9: 640a 134725i bk10: 588a 135148i bk11: 588a 134659i bk12: 576a 134638i bk13: 576a 134378i bk14: 576a 134516i bk15: 576a 134249i 
dram_util_bins: 0 0 0 0 0 0 0 0 0 0
dram_eff_bins: 0 0 0 0 0 0 0 0 0 0
mrqq: max=16 avg=2.19258
Memory Partition 3: 
Cache L2_bank_006:
MSHR contents

Cache L2_bank_007:
MSHR contents

In Dram Latency Queue (total = 0): 
DRAM[3]: 16 bks, busW=4 BL=8 CL=12, tRRD=2 tCCD=6, tRCD=12 tRAS=28 tRP=12 tRC=40
n_cmd=145745 n_nop=127537 n_act=726 n_pre=710 n_req=8386 n_rd=9584 n_write=7188 bw_util=0.2302
n_activity=77006 dram_eff=0.4356
bk0: 576a 134611i bk1: 576a 134393i bk2: 576a 134357i bk3: 576a 133700i bk4: 616a 133552i bk5: 620a 133099i bk6: 640a 134245i bk7: 640a 133747i bk8: 640a 134536i bk9: 640a 134037i bk10: 588a 134796i bk11: 592a 134460i bk12: 576a 134457i bk13: 576a 134709i bk14: 576a 135168i bk15: 576a 134744i 
dram_util_bins: 0 0 0 0 0 0 0 0 0 0
dram_eff_bins: 0 0 0 0 0 0 0 0 0 0
mrqq: max=16 avg=2.32249
Memory Partition 4: 
Cache L2_bank_008:
MSHR contents

Cache L2_bank_009:
MSHR contents

In Dram Latency Queue (total = 0): 
DRAM[4]: 16 bks, busW=4 BL=8 CL=12, tRRD=2 tCCD=6, tRCD=12 tRAS=28 tRP=12 tRC=40
n_cmd=145745 n_nop=127525 n_act=732 n_pre=716 n_req=8386 n_rd=9584 n_write=7188 bw_util=0.2302
n_activity=76892 dram_eff=0.4362
bk0: 576a 135015i bk1: 576a 134867i bk2: 576a 134497i bk3: 576a 134029i bk4: 616a 133973i bk5: 620a 133393i bk6: 640a 134231i bk7: 640a 133989i bk8: 640a 134849i bk9: 640a 134673i bk10: 588a 134879i bk11: 592a 134094i bk12: 576a 134732i bk13: 576a 134359i bk14: 576a 134610i bk15: 576a 134515i 
dram_util_bins: 0 0 0 0 0 0 0 0 0 0
dram_eff_bins: 0 0 0 0 0 0 0 0 0 0
mrqq: max=16 avg=2.20799
Memory Partition 5: 
Cache L2_bank_010:
MSHR contents
MSHR: tag=0x802a3980, atomic=0 1 entries : 0x7f8030a0c400 :  mf: uid=327675, sid10:w47, part=5, addr=0x802a3980, load , size=128, unknown  status = IN_PARTITION_DRAM (110411), 

Cache L2_bank_011:
MSHR contents

In Dram Latency Queue (total = 0): 
DRAM[5]: 16 bks, busW=4 BL=8 CL=12, tRRD=2 tCCD=6, tRCD=12 tRAS=28 tRP=12 tRC=40
n_cmd=145745 n_nop=127545 n_act=722 n_pre=706 n_req=8386 n_rd=9584 n_write=7188 bw_util=0.2302
n_activity=77189 dram_eff=0.4346
bk0: 576a 135411i bk1: 576a 135141i bk2: 576a 134292i bk3: 576a 133935i bk4: 616a 133820i bk5: 620a 133812i bk6: 640a 134362i bk7: 640a 134438i bk8: 640a 134625i bk9: 640a 133684i bk10: 588a 135116i bk11: 592a 134275i bk12: 576a 134826i bk13: 576a 134390i bk14: 576a 134884i bk15: 576a 134666i 
dram_util_bins: 0 0 0 0 0 0 0 0 0 0
dram_eff_bins: 0 0 0 0 0 0 0 0 0 0
mrqq: max=16 avg=2.25679

========= L2 cache stats =========
L2_cache_bank[0]: Access = 3040, Miss = 2399, Miss_rate = 0.789, Pending_hits = 9, Reservation_fails = 332
L2_cache_bank[1]: Access = 2991, Miss = 2393, Miss_rate = 0.800, Pending_hits = 0, Reservation_fails = 1
L2_cache_bank[2]: Access = 3021, Miss = 2395, Miss_rate = 0.793, Pending_hits = 6, Reservation_fails = 225
L2_cache_bank[3]: Access = 2990, Miss = 2392, Miss_rate = 0.800, Pending_hits = 0, Reservation_fails = 0
L2_cache_bank[4]: Access = 2992, Miss = 2394, Miss_rate = 0.800, Pending_hits = 0, Reservation_fails = 0
L2_cache_bank[5]: Access = 2996, Miss = 2396, Miss_rate = 0.800, Pending_hits = 0, Reservation_fails = 0
L2_cache_bank[6]: Access = 2992, Miss = 2394, Miss_rate = 0.800, Pending_hits = 0, Reservation_fails = 0
L2_cache_bank[7]: Access = 2998, Miss = 2398, Miss_rate = 0.800, Pending_hits = 0, Reservation_fails = 0
L2_cache_bank[8]: Access = 2992, Miss = 2394, Miss_rate = 0.800, Pending_hits = 0, Reservation_fails = 0
L2_cache_bank[9]: Access = 2998, Miss = 2398, Miss_rate = 0.800, Pending_hits = 0, Reservation_fails = 0
L2_cache_bank[10]: Access = 2992, Miss = 2394, Miss_rate = 0.800, Pending_hits = 0, Reservation_fails = 0
L2_cache_bank[11]: Access = 2998, Miss = 2398, Miss_rate = 0.800, Pending_hits = 0, Reservation_fails = 0
L2_total_cache_accesses = 36000
L2_total_cache_misses = 28745
L2_total_cache_miss_rate = 0.7985
L2_total_cache_pending_hits = 15
L2_total_cache_reservation_fails = 558
L2_total_cache_breakdown:
	L2_cache_stats_breakdown[GLOBAL_ACC_R][MISS] = 14370
	L2_cache_stats_breakdown[CONST_ACC_R][HIT] = 11
	L2_cache_stats_breakdown[CONST_ACC_R][HIT_RESERVED] = 3
	L2_cache_stats_breakdown[CONST_ACC_R][MISS] = 1
	L2_cache_stats_breakdown[CONST_ACC_R][RESERVATION_FAIL] = 101
	L2_cache_stats_breakdown[GLOBAL_ACC_W][HIT] = 7185
	L2_cache_stats_breakdown[GLOBAL_ACC_W][MISS] = 14370
	L2_cache_stats_breakdown[GLOBAL_ACC_W][RESERVATION_FAIL] = 4
	L2_cache_stats_breakdown[INST_ACC_R][HIT] = 44
	L2_cache_stats_breakdown[INST_ACC_R][HIT_RESERVED] = 12
	L2_cache_stats_breakdown[INST_ACC_R][MISS] = 4
	L2_cache_stats_breakdown[INST_ACC_R][RESERVATION_FAIL] = 453
L2_cache_data_port_util = 0.031
L2_cache_fill_port_util = 0.087

icnt_total_pkts_mem_to_simt=93750
icnt_total_pkts_simt_to_mem=122220
LD_mem_lat_dist  0 0 0 0 0 0 0 0 0 0 0 0 0 0 0 0 0 0 0 0 0 0 0 0 0 0 0
ST_mem_lat_dist  0 0 0 0 0 0 0 0 0 0 0 0 0 0 0 0 0 0 0 0 0 0 0 0 0 0 0
----------------------------Interconnect-DETAILS--------------------------------
Class 0:
Packet latency average = 9.14539
	minimum = 6
	maximum = 53
Network latency average = 8.94849
	minimum = 6
	maximum = 46
Slowest packet = 28871
Flit latency average = 7.0872
	minimum = 6
	maximum = 42
Slowest flit = 89730
Fragmentation average = 0
	minimum = 0
	maximum = 0
Injected packet rate average = 0.0339628
	minimum = 0.0296737 (at node 4)
	maximum = 0.0384738 (at node 17)
Accepted packet rate average = 0.0339628
	minimum = 0.0296737 (at node 4)
	maximum = 0.0384738 (at node 17)
Injected flit rate average = 0.101888
	minimum = 0.0889786 (at node 18)
	maximum = 0.112254 (at node 0)
Accepted flit rate average= 0.101888
	minimum = 0.0692954 (at node 4)
	maximum = 0.140249 (at node 17)
Injected packet length average = 3
Accepted packet length average = 3
Total in-flight flits = 0 (0 measured)
====== Overall Traffic Statistics ======
====== Traffic class 0 ======
Packet latency average = 8.7803 (2 samples)
	minimum = 6 (2 samples)
	maximum = 43.5 (2 samples)
Network latency average = 8.63726 (2 samples)
	minimum = 6 (2 samples)
	maximum = 40 (2 samples)
Flit latency average = 6.79141 (2 samples)
	minimum = 6 (2 samples)
	maximum = 38 (2 samples)
Fragmentation average = 0 (2 samples)
	minimum = 0 (2 samples)
	maximum = 0 (2 samples)
Injected packet rate average = 0.0254152 (2 samples)
	minimum = 0.0222064 (2 samples)
	maximum = 0.0290445 (2 samples)
Accepted packet rate average = 0.0254152 (2 samples)
	minimum = 0.0222064 (2 samples)
	maximum = 0.0290445 (2 samples)
Injected flit rate average = 0.0762369 (2 samples)
	minimum = 0.0665348 (2 samples)
	maximum = 0.0860234 (2 samples)
Accepted flit rate average = 0.0762369 (2 samples)
	minimum = 0.0568036 (2 samples)
	maximum = 0.0988371 (2 samples)
Injected packet size average = 2.99966 (2 samples)
Accepted packet size average = 2.99966 (2 samples)
Hops average = 1 (2 samples)
