

        *** GPGPU-Sim Simulator Version 3.2.2  [build 0] ***


GPGPU-Sim PTX: simulation mode 0 (can change with PTX_SIM_MODE_FUNC environment variable:
               1=functional simulation only, 0=detailed performance simulator)
GPGPU-Sim: Configuration options:

-network_mode                           1 # Interconnection network mode
-inter_config_file   config_fermi_islip.icnt # Interconnection network config file
-gpgpu_ptx_use_cuobjdump                    1 # Use cuobjdump to extract ptx and sass from binaries
-gpgpu_experimental_lib_support                    0 # Try to extract code from cuda libraries [Broken because of unknown cudaGetExportTable]
-gpgpu_ptx_convert_to_ptxplus                    0 # Convert SASS (native ISA) to ptxplus and run ptxplus
-gpgpu_ptx_force_max_capability                   20 # Force maximum compute capability
-gpgpu_ptx_inst_debug_to_file                    0 # Dump executed instructions' debug information to file
-gpgpu_ptx_inst_debug_file       inst_debug.txt # Executed instructions' debug output file
-gpgpu_ptx_inst_debug_thread_uid                    1 # Thread UID for executed instructions' debug output
-gpgpu_simd_model                       1 # 1 = post-dominator
-gpgpu_shader_core_pipeline              1536:32 # shader core pipeline config, i.e., {<nthread>:<warpsize>}
-gpgpu_tex_cache:l1  4:128:24,L:R:m:N:L,F:128:4,128:2 # per-shader L1 texture cache  (READ-ONLY) config  {<nsets>:<bsize>:<assoc>,<rep>:<wr>:<alloc>:<wr_alloc>,<mshr>:<N>:<merge>,<mq>:<rf>}
-gpgpu_const_cache:l1 64:64:2,L:R:f:N:L,A:2:32,4 # per-shader L1 constant memory cache  (READ-ONLY) config  {<nsets>:<bsize>:<assoc>,<rep>:<wr>:<alloc>:<wr_alloc>,<mshr>:<N>:<merge>,<mq>} 
-gpgpu_cache:il1     4:128:4,L:R:f:N:L,A:2:32,4 # shader L1 instruction cache config  {<nsets>:<bsize>:<assoc>,<rep>:<wr>:<alloc>:<wr_alloc>,<mshr>:<N>:<merge>,<mq>} 
-gpgpu_cache:dl1     32:128:4,L:L:m:N:H,A:32:8,8:2,0,1:0:1:1:0:1,1:4:8:16:32:64,/sciclone/data10/hwang07/GPU_RESEARCH/swl/swl_outputs/RESULTS/swl4/ # per-shader L1 data cache config  {<nsets>:<bsize>:<assoc>,<rep>:<wr>:<alloc>:<wr_alloc>,<mshr>:<N>:<merge>,<mq> | none}
-gpgpu_cache:dl1PrefL1                 none # per-shader L1 data cache config  {<nsets>:<bsize>:<assoc>,<rep>:<wr>:<alloc>:<wr_alloc>,<mshr>:<N>:<merge>,<mq> | none}
-gpgpu_cache:dl1PreShared                 none # per-shader L1 data cache config  {<nsets>:<bsize>:<assoc>,<rep>:<wr>:<alloc>:<wr_alloc>,<mshr>:<N>:<merge>,<mq> | none}
-gmem_skip_L1D                          0 # global memory access skip L1D cache (implements -Xptxas -dlcm=cg, default=no skip)
-gpgpu_perfect_mem                      0 # enable perfect memory mode (no cache miss)
-n_regfile_gating_group                    4 # group of lanes that should be read/written together)
-gpgpu_clock_gated_reg_file                    0 # enable clock gated reg file for power calculations
-gpgpu_clock_gated_lanes                    0 # enable clock gated lanes for power calculations
-gpgpu_shader_registers                32768 # Number of registers per shader core. Limits number of concurrent CTAs. (default 8192)
-gpgpu_shader_cta                       8 # Maximum number of concurrent CTAs in shader (default 8)
-gpgpu_num_cta_barriers                   16 # Maximum number of named barriers per CTA (default 16)
-gpgpu_n_clusters                      15 # number of processing clusters
-gpgpu_n_cores_per_cluster                    1 # number of simd cores per cluster
-gpgpu_n_cluster_ejection_buffer_size                    8 # number of packets in ejection buffer
-gpgpu_n_ldst_response_buffer_size                    2 # number of response packets in ld/st unit ejection buffer
-gpgpu_shmem_size                   16384 # Size of shared memory per shader core (default 16kB)
-gpgpu_shmem_size                   49152 # Size of shared memory per shader core (default 16kB)
-gpgpu_shmem_size_PrefL1                16384 # Size of shared memory per shader core (default 16kB)
-gpgpu_shmem_size_PrefShared                16384 # Size of shared memory per shader core (default 16kB)
-gpgpu_shmem_num_banks                   32 # Number of banks in the shared memory in each shader core (default 16)
-gpgpu_shmem_limited_broadcast                    0 # Limit shared memory to do one broadcast per cycle (default on)
-gpgpu_shmem_warp_parts                    1 # Number of portions a warp is divided into for shared memory bank conflict check 
-gpgpu_warpdistro_shader                   -1 # Specify which shader core to collect the warp size distribution from
-gpgpu_warp_issue_shader                    0 # Specify which shader core to collect the warp issue distribution from
-gpgpu_local_mem_map                    1 # Mapping from local memory space address to simulated GPU physical address space (default = enabled)
-gpgpu_num_reg_banks                   16 # Number of register banks (default = 8)
-gpgpu_reg_bank_use_warp_id                    0 # Use warp ID in mapping registers to banks (default = off)
-gpgpu_operand_collector_num_units_sp                    6 # number of collector units (default = 4)
-gpgpu_operand_collector_num_units_sfu                    8 # number of collector units (default = 4)
-gpgpu_operand_collector_num_units_mem                    2 # number of collector units (default = 2)
-gpgpu_operand_collector_num_units_gen                    0 # number of collector units (default = 0)
-gpgpu_operand_collector_num_in_ports_sp                    2 # number of collector unit in ports (default = 1)
-gpgpu_operand_collector_num_in_ports_sfu                    1 # number of collector unit in ports (default = 1)
-gpgpu_operand_collector_num_in_ports_mem                    1 # number of collector unit in ports (default = 1)
-gpgpu_operand_collector_num_in_ports_gen                    0 # number of collector unit in ports (default = 0)
-gpgpu_operand_collector_num_out_ports_sp                    2 # number of collector unit in ports (default = 1)
-gpgpu_operand_collector_num_out_ports_sfu                    1 # number of collector unit in ports (default = 1)
-gpgpu_operand_collector_num_out_ports_mem                    1 # number of collector unit in ports (default = 1)
-gpgpu_operand_collector_num_out_ports_gen                    0 # number of collector unit in ports (default = 0)
-gpgpu_coalesce_arch                   13 # Coalescing arch (default = 13, anything else is off for now)
-gpgpu_num_sched_per_core                    2 # Number of warp schedulers per core
-gpgpu_max_insn_issue_per_warp                    1 # Max number of instructions that can be issued per warp in one cycle by scheduler
-gpgpu_simt_core_sim_order                    1 # Select the simulation order of cores in a cluster (0=Fix, 1=Round-Robin)
-gpgpu_pipeline_widths        2,1,1,2,1,1,2 # Pipeline widths ID_OC_SP,ID_OC_SFU,ID_OC_MEM,OC_EX_SP,OC_EX_SFU,OC_EX_MEM,EX_WB
-gpgpu_num_sp_units                     2 # Number of SP units (default=1)
-gpgpu_num_sfu_units                    1 # Number of SF units (default=1)
-gpgpu_num_mem_units                    1 # Number if ldst units (default=1) WARNING: not hooked up to anything
-gpgpu_scheduler        warp_limiting:2:4 # Scheduler configuration: < lrr | gto | two_level_active > If two_level_active:<num_active_warps>:<inner_prioritization>:<outer_prioritization>For complete list of prioritization values see shader.h enum scheduler_prioritization_typeDefault: gto
-gpgpu_dram_scheduler                    1 # 0 = fifo, 1 = FR-FCFS (defaul)
-gpgpu_dram_partition_queues              8:8:8:8 # i2$:$2d:d2$:$2i
-l2_ideal                               0 # Use a ideal L2 cache that always hit
-gpgpu_cache:dl2     64:128:8,L:B:m:W:L,A:32:4,4:0,32 # unified banked L2 data cache config  {<nsets>:<bsize>:<assoc>,<rep>:<wr>:<alloc>:<wr_alloc>,<mshr>:<N>:<merge>,<mq>}
-gpgpu_cache:dl2_texture_only                    0 # L2 cache used for texture only
-gpgpu_n_mem                            6 # number of memory modules (e.g. memory controllers) in gpu
-gpgpu_n_sub_partition_per_mchannel                    2 # number of memory subpartition in each memory module
-gpgpu_n_mem_per_ctrlr                    2 # number of memory chips per memory controller
-gpgpu_memlatency_stat                   14 # track and display latency statistics 0x2 enables MC, 0x4 enables queue logs
-gpgpu_frfcfs_dram_sched_queue_size                   16 # 0 = unlimited (default); # entries per chip
-gpgpu_dram_return_queue_size                  116 # 0 = unlimited (default); # entries per chip
-gpgpu_dram_buswidth                    4 # default = 4 bytes (8 bytes per cycle at DDR)
-gpgpu_dram_burst_length                    8 # Burst length of each DRAM request (default = 4 data bus cycle)
-dram_data_command_freq_ratio                    4 # Frequency ratio between DRAM data bus and command bus (default = 2 times, i.e. DDR)
-gpgpu_dram_timing_opt nbk=16:CCD=2:RRD=6:RCD=12:RAS=28:RP=12:RC=40: CL=12:WL=4:CDLR=5:WR=12:nbkgrp=4:CCDL=3:RTPL=2 # DRAM timing parameters = {nbk:tCCD:tRRD:tRCD:tRAS:tRP:tRC:CL:WL:tCDLR:tWR:nbkgrp:tCCDL:tRTPL}
-rop_latency                          120 # ROP queue latency (default 85)
-dram_latency                         100 # DRAM latency (default 30)
-gpgpu_mem_addr_mapping dramid@8;00000000.00000000.00000000.00000000.0000RRRR.RRRRRRRR.BBBCCCCB.CCSSSSSS # mapping memory address to dram model {dramid@<start bit>;<memory address map>}
-gpgpu_mem_addr_test                    0 # run sweep test to check address mapping for aliased address
-gpgpu_mem_address_mask                    1 # 0 = old addressing mask, 1 = new addressing mask, 2 = new add. mask + flipped bank sel and chip sel bits
-gpuwattch_xml_file  gpuwattch_gtx480.xml # GPUWattch XML file
-power_simulation_enabled                    0 # Turn on power simulator (1=On, 0=Off)
-power_per_cycle_dump                    0 # Dump detailed power output each cycle
-power_trace_enabled                    0 # produce a file for the power trace (1=On, 0=Off)
-power_trace_zlevel                     6 # Compression level of the power trace output log (0=no comp, 9=highest)
-steady_power_levels_enabled                    0 # produce a file for the steady power levels (1=On, 0=Off)
-steady_state_definition                  8:4 # allowed deviation:number of samples
-gpgpu_max_cycle                        0 # terminates gpu simulation early (0 = no limit)
-gpgpu_max_insn                         0 # terminates gpu simulation early (0 = no limit)
-gpgpu_max_cta                          0 # terminates gpu simulation early (0 = no limit)
-gpgpu_runtime_stat                   500 # display runtime statistics such as dram utilization {<freq>:<flag>}
-liveness_message_freq                    1 # Minimum number of seconds between simulation liveness messages (0 = always print)
-gpgpu_flush_l1_cache                    0 # Flush L1 cache at the end of each kernel call
-gpgpu_flush_l2_cache                    0 # Flush L2 cache at the end of each kernel call
-gpgpu_deadlock_detect                    1 # Stop the simulation at deadlock (1=on (default), 0=off)
-gpgpu_ptx_instruction_classification                    0 # if enabled will classify ptx instruction types per kernel (Max 255 kernels now)
-gpgpu_ptx_sim_mode                     0 # Select between Performance (default) or Functional simulation (1)
-gpgpu_clock_domains 700.0:700.0:700.0:924.0 # Clock Domain Frequencies in MhZ {<Core Clock>:<ICNT Clock>:<L2 Clock>:<DRAM Clock>}
-gpgpu_max_concurrent_kernel                    8 # maximum kernels that can run concurrently on GPU
-gpgpu_cflog_interval                    0 # Interval between each snapshot in control flow logger
-visualizer_enabled                     0 # Turn on visualizer output (1=On, 0=Off)
-visualizer_outputfile                 NULL # Specifies the output log file for visualizer
-visualizer_zlevel                      6 # Compression level of the visualizer output log (0=no comp, 9=highest)
-trace_enabled                          0 # Turn on traces
-trace_components                    none # comma seperated list of traces to enable. Complete list found in trace_streams.tup. Default none
-trace_sampling_core                    0 # The core which is printed using CORE_DPRINTF. Default 0
-trace_sampling_memory_partition                   -1 # The memory partition which is printed using MEMPART_DPRINTF. Default -1 (i.e. all)
-enable_ptx_file_line_stats                    1 # Turn on PTX source line statistic profiling. (1 = On)
-ptx_line_stats_filename gpgpu_inst_stats.txt # Output file for PTX source line statistics.
-save_embedded_ptx                      0 # saves ptx files embedded in binary as <n>.ptx
-keep                                   0 # keep intermediate files created by GPGPU-Sim when interfacing with external programs
-gpgpu_ptx_save_converted_ptxplus                    0 # Saved converted ptxplus to a file
-ptx_opcode_latency_int         4,13,4,5,145 # Opcode latencies for integers <ADD,MAX,MUL,MAD,DIV>Default 1,1,19,25,145
-ptx_opcode_latency_fp          4,13,4,5,39 # Opcode latencies for single precision floating points <ADD,MAX,MUL,MAD,DIV>Default 1,1,1,1,30
-ptx_opcode_latency_dp         8,19,8,8,330 # Opcode latencies for double precision floating points <ADD,MAX,MUL,MAD,DIV>Default 8,8,8,8,335
-ptx_opcode_initiation_int            1,2,2,1,8 # Opcode initiation intervals for integers <ADD,MAX,MUL,MAD,DIV>Default 1,1,4,4,32
-ptx_opcode_initiation_fp            1,2,1,1,4 # Opcode initiation intervals for single precision floating points <ADD,MAX,MUL,MAD,DIV>Default 1,1,1,1,5
-ptx_opcode_initiation_dp         8,16,8,8,130 # Opcode initiation intervals for double precision floating points <ADD,MAX,MUL,MAD,DIV>Default 8,8,8,8,130
DRAM Timing Options:
nbk                                    16 # number of banks
CCD                                     2 # column to column delay
RRD                                     6 # minimal delay between activation of rows in different banks
RCD                                    12 # row to column delay
RAS                                    28 # time needed to activate row
RP                                     12 # time needed to precharge (deactivate) row
RC                                     40 # row cycle time
CDLR                                    5 # switching from write to read (changes tWTR)
WR                                     12 # last data-in to row precharge
CL                                     12 # CAS latency
WL                                      4 # Write latency
nbkgrp                                  4 # number of bank groups
CCDL                                    3 # column to column delay between accesses to different bank groups
RTPL                                    2 # read to precharge delay between accesses to different bank groups
Total number of memory sub partition = 12
addr_dec_mask[CHIP]  = 0000000000000000 	high:64 low:0
addr_dec_mask[BK]    = 000000000000e100 	high:16 low:8
addr_dec_mask[ROW]   = 000000000fff0000 	high:28 low:16
addr_dec_mask[COL]   = 0000000000001eff 	high:13 low:0
addr_dec_mask[BURST] = 000000000000003f 	high:6 low:0
sub_partition_id_mask = 0000000000000100
GPGPU-Sim uArch: clock freqs: 700000000.000000:700000000.000000:700000000.000000:924000000.000000
GPGPU-Sim uArch: clock periods: 0.00000000142857142857:0.00000000142857142857:0.00000000142857142857:0.00000000108225108225
*** Initializing Memory Statistics ***
GPGPU-Sim uArch: interconnect node map (shaderID+MemID to icntID)
GPGPU-Sim uArch: Memory nodes ID start from index: 15
GPGPU-Sim uArch:    0   1   2   3   4
GPGPU-Sim uArch:    5   6   7   8   9
GPGPU-Sim uArch:   10  11  12  13  14
GPGPU-Sim uArch:   15  16  17  18  19
GPGPU-Sim uArch:   20  21  22  23  24
GPGPU-Sim uArch:   25  26
GPGPU-Sim uArch: interconnect node reverse map (icntID to shaderID+MemID)
GPGPU-Sim uArch: Memory nodes start from ID: 15
GPGPU-Sim uArch:    0   1   2   3   4
GPGPU-Sim uArch:    5   6   7   8   9
GPGPU-Sim uArch:   10  11  12  13  14
GPGPU-Sim uArch:   15  16  17  18  19
GPGPU-Sim uArch:   20  21  22  23  24
GPGPU-Sim uArch:   25  26
2bc880a935f4074ba9e1a2d386c7af85  /sciclone/data10/hwang07/adwait/applications/benchmarks/CUDA/LPS/gpgpu_ptx_sim__LPS
GPGPU-Sim uArch: performance model initialization complete.
GPGPU-Sim PTX: __cudaRegisterFatBinary, fat_cubin_handle = 1, filename=laplace3d.cu
self exe links to: /sciclone/data10/hwang07/adwait/applications/benchmarks/CUDA/LPS/gpgpu_ptx_sim__LPS
Running md5sum using "md5sum /sciclone/data10/hwang07/adwait/applications/benchmarks/CUDA/LPS/gpgpu_ptx_sim__LPS "
Parsing file _cuobjdump_complete_output_WrxVmB
######### cuobjdump parser ########
## Adding new section ELF
Adding arch: sm_20
Adding identifier: laplace3d.cu
## Adding new section PTX
Adding ptx filename: _cuobjdump_1.ptx
Adding arch: sm_20
Adding identifier: laplace3d.cu
Done parsing!!!
GPGPU-Sim PTX: __cudaRegisterFunction _Z13GPU_laplace3diiiiPfS_ : hostFun 0x0x405cf4, fat_cubin_handle = 1
GPGPU-Sim PTX: allocating shared region for "__cuda___cuda_local_var_32996_33_non_const_u132" from 0x0 to 0x990 (shared memory space)
GPGPU-Sim PTX: instruction assembly for function '_Z13GPU_laplace3diiiiPfS_'...   done.
GPGPU-Sim PTX: finding reconvergence points for '_Z13GPU_laplace3diiiiPfS_'...
GPGPU-Sim PTX: Finding dominators for '_Z13GPU_laplace3diiiiPfS_'...
GPGPU-Sim PTX: Finding immediate dominators for '_Z13GPU_laplace3diiiiPfS_'...
GPGPU-Sim PTX: Finding postdominators for '_Z13GPU_laplace3diiiiPfS_'...
GPGPU-Sim PTX: Finding immediate postdominators for '_Z13GPU_laplace3diiiiPfS_'...
GPGPU-Sim PTX: pre-decoding instructions for '_Z13GPU_laplace3diiiiPfS_'...
GPGPU-Sim PTX: reconvergence points for _Z13GPU_laplace3diiiiPfS_...
GPGPU-Sim PTX:  1 (potential) branch divergence @  PC=0x060 (_1.ptx:82) @!%p1 bra $Lt_0_14338;
GPGPU-Sim PTX:    immediate post dominator      @  PC=0x230 (_1.ptx:154) add.s32 %r57, %r37, %r12;
GPGPU-Sim PTX:  2 (potential) branch divergence @  PC=0x080 (_1.ptx:86) @%p2 bra $Lt_0_14850;
GPGPU-Sim PTX:    immediate post dominator      @  PC=0x120 (_1.ptx:113) add.s32 %r30, %r16, 1;
GPGPU-Sim PTX:  3 (potential) branch divergence @  PC=0x0a0 (_1.ptx:92) bra.uni $Lt_0_14594;
GPGPU-Sim PTX:    immediate post dominator      @  PC=0x120 (_1.ptx:113) add.s32 %r30, %r16, 1;
GPGPU-Sim PTX:  4 (potential) branch divergence @  PC=0x200 (_1.ptx:145) bra.uni $Lt_0_14082;
GPGPU-Sim PTX:    immediate post dominator      @  PC=0x230 (_1.ptx:154) add.s32 %r57, %r37, %r12;
GPGPU-Sim PTX:  5 (potential) branch divergence @  PC=0x290 (_1.ptx:166) @%p5 bra $Lt_0_15106;
GPGPU-Sim PTX:    immediate post dominator      @  PC=0x308 (_1.ptx:183) mov.u64 %rd1, __cuda___cuda_local_var_32996_33_non_const_u132;
GPGPU-Sim PTX:  6 (potential) branch divergence @  PC=0x320 (_1.ptx:186) @!%p6 bra $Lt_0_15618;
GPGPU-Sim PTX:    immediate post dominator      @  PC=0x380 (_1.ptx:200) ld.param.s32 %r73, [__cudaparm__Z13GPU_laplace3diiiiPfS__NZ];
GPGPU-Sim PTX:  7 (potential) branch divergence @  PC=0x398 (_1.ptx:203) @%p7 bra $Lt_0_16130;
GPGPU-Sim PTX:    immediate post dominator      @  PC=0x6d8 (_1.ptx:335) exit;
GPGPU-Sim PTX:  8 (potential) branch divergence @  PC=0x408 (_1.ptx:219) @%p8 bra $Lt_0_17410;
GPGPU-Sim PTX:    immediate post dominator      @  PC=0x4a0 (_1.ptx:245) @!%p6 bra $Lt_0_18434;
GPGPU-Sim PTX:  9 (potential) branch divergence @  PC=0x468 (_1.ptx:235) @%p9 bra $Lt_0_17410;
GPGPU-Sim PTX:    immediate post dominator      @  PC=0x4a0 (_1.ptx:245) @!%p6 bra $Lt_0_18434;
GPGPU-Sim PTX: 10 (potential) branch divergence @  PC=0x4a0 (_1.ptx:245) @!%p6 bra $Lt_0_18434;
GPGPU-Sim PTX:    immediate post dominator      @  PC=0x548 (_1.ptx:273) bar.sync 0;
GPGPU-Sim PTX: 11 (potential) branch divergence @  PC=0x510 (_1.ptx:262) @%p10 bra $Lt_0_18434;
GPGPU-Sim PTX:    immediate post dominator      @  PC=0x548 (_1.ptx:273) bar.sync 0;
GPGPU-Sim PTX: 12 (potential) branch divergence @  PC=0x560 (_1.ptx:276) @%p11 bra $Lt_0_18946;
GPGPU-Sim PTX:    immediate post dominator      @  PC=0x6b8 (_1.ptx:329) bar.sync 0;
GPGPU-Sim PTX: 13 (potential) branch divergence @  PC=0x578 (_1.ptx:280) @%p12 bra $Lt_0_20738;
GPGPU-Sim PTX:    immediate post dominator      @  PC=0x688 (_1.ptx:321) ld.param.u64 %rd35, [__cudaparm__Z13GPU_laplace3diiiiPfS__d_u2];
GPGPU-Sim PTX: 14 (potential) branch divergence @  PC=0x588 (_1.ptx:282) @%p13 bra $Lt_0_20738;
GPGPU-Sim PTX:    immediate post dominator      @  PC=0x688 (_1.ptx:321) ld.param.u64 %rd35, [__cudaparm__Z13GPU_laplace3diiiiPfS__d_u2];
GPGPU-Sim PTX: 15 (potential) branch divergence @  PC=0x5a0 (_1.ptx:285) @%p14 bra $Lt_0_20738;
GPGPU-Sim PTX:    immediate post dominator      @  PC=0x688 (_1.ptx:321) ld.param.u64 %rd35, [__cudaparm__Z13GPU_laplace3diiiiPfS__d_u2];
GPGPU-Sim PTX: 16 (potential) branch divergence @  PC=0x5b0 (_1.ptx:287) @%p15 bra $Lt_0_20738;
GPGPU-Sim PTX:    immediate post dominator      @  PC=0x688 (_1.ptx:321) ld.param.u64 %rd35, [__cudaparm__Z13GPU_laplace3diiiiPfS__d_u2];
GPGPU-Sim PTX: 17 (potential) branch divergence @  PC=0x5c8 (_1.ptx:290) @%p16 bra $Lt_0_20738;
GPGPU-Sim PTX:    immediate post dominator      @  PC=0x688 (_1.ptx:321) ld.param.u64 %rd35, [__cudaparm__Z13GPU_laplace3diiiiPfS__d_u2];
GPGPU-Sim PTX: 18 (potential) branch divergence @  PC=0x5d8 (_1.ptx:292) @%p17 bra $L_0_12546;
GPGPU-Sim PTX:    immediate post dominator      @  PC=0x688 (_1.ptx:321) ld.param.u64 %rd35, [__cudaparm__Z13GPU_laplace3diiiiPfS__d_u2];
GPGPU-Sim PTX: 19 (potential) branch divergence @  PC=0x600 (_1.ptx:300) bra.uni $L_0_12290;
GPGPU-Sim PTX:    immediate post dominator      @  PC=0x688 (_1.ptx:321) ld.param.u64 %rd35, [__cudaparm__Z13GPU_laplace3diiiiPfS__d_u2];
GPGPU-Sim PTX: 20 (potential) branch divergence @  PC=0x6d0 (_1.ptx:332) @%p18 bra $Lt_0_16642;
GPGPU-Sim PTX:    immediate post dominator      @  PC=0x6d8 (_1.ptx:335) exit;
GPGPU-Sim PTX: ... end of reconvergence points for _Z13GPU_laplace3diiiiPfS_
GPGPU-Sim PTX: ... done pre-decoding instructions for '_Z13GPU_laplace3diiiiPfS_'.
GPGPU-Sim PTX: finished parsing EMBEDDED .ptx file _1.ptx
Adding _cuobjdump_1.ptx with cubin handle 1
GPGPU-Sim PTX: extracting embedded .ptx to temporary file "_ptx_7vbV7q"
Running: cat _ptx_7vbV7q | sed 's/.version 1.5/.version 1.4/' | sed 's/, texmode_independent//' | sed 's/\(\.extern \.const\[1\] .b8 \w\+\)\[\]/\1\[1\]/' | sed 's/const\[.\]/const\[0\]/g' > _ptx2_yWtpyi
GPGPU-Sim PTX: generating ptxinfo using "$CUDA_INSTALL_PATH/bin/ptxas --gpu-name=sm_20 -v _ptx2_yWtpyi --output-file  /dev/null 2> _ptx_7vbV7qinfo"
GPGPU-Sim PTX: Kernel '_Z13GPU_laplace3diiiiPfS_' : regs=17, lmem=0, smem=2448, cmem=64
GPGPU-Sim PTX: removing ptxinfo using "rm -f _ptx_7vbV7q _ptx2_yWtpyi _ptx_7vbV7qinfo"
GPGPU-Sim PTX: loading globals with explicit initializers... 
GPGPU-Sim PTX: finished loading globals (0 bytes total).
GPGPU-Sim PTX: loading constants with explicit initializers...  done.

Grid dimensions: 100 x 100 x 100
GPGPU-Sim PTX: cudaMallocPitch (width = 400)
GPGPU-Sim PTX: cudaMallocPitch (width = 400)
GPGPU-Sim: synchronize waiting for inactive GPU simulation
GPGPU-Sim API: Stream Manager State
GPGPU-Sim: detected inactive GPU simulation thread

Copy u1 to device: 103.160004 (ms) 

 dimGrid  = 4 25 1 
 dimBlock = 32 4 1 
GPGPU-Sim: synchronize waiting for inactive GPU simulation
GPGPU-Sim API: Stream Manager State
GPGPU-Sim: detected inactive GPU simulation thread

GPGPU-Sim PTX: cudaLaunch for 0x0x405cf4 (mode=performance simulation) on stream 0
GPGPU-Sim PTX: pushing kernel '_Z13GPU_laplace3diiiiPfS_' to stream 0, gridDim= (4,25,1) blockDim = (32,4,1) 
kernel '_Z13GPU_laplace3diiiiPfS_' transfer to GPU hardware scheduler
GPGPU-Sim uArch: Shader 1 bind to kernel 1 '_Z13GPU_laplace3diiiiPfS_'
GPGPU-Sim uArch: CTA/core = 8, limited by: cta_limit
GPGPU-Sim uArch: core:  1, cta: 0 initialized @(1,0)
GPGPU-Sim uArch: Shader 2 bind to kernel 1 '_Z13GPU_laplace3diiiiPfS_'
GPGPU-Sim uArch: core:  2, cta: 0 initialized @(1,0)
GPGPU-Sim uArch: Shader 3 bind to kernel 1 '_Z13GPU_laplace3diiiiPfS_'
GPGPU-Sim uArch: core:  3, cta: 0 initialized @(1,0)
GPGPU-Sim uArch: Shader 4 bind to kernel 1 '_Z13GPU_laplace3diiiiPfS_'
GPGPU-Sim uArch: core:  4, cta: 0 initialized @(1,0)
GPGPU-Sim uArch: Shader 5 bind to kernel 1 '_Z13GPU_laplace3diiiiPfS_'
GPGPU-Sim uArch: core:  5, cta: 0 initialized @(1,0)
GPGPU-Sim uArch: Shader 6 bind to kernel 1 '_Z13GPU_laplace3diiiiPfS_'
GPGPU-Sim uArch: core:  6, cta: 0 initialized @(1,0)
GPGPU-Sim uArch: Shader 7 bind to kernel 1 '_Z13GPU_laplace3diiiiPfS_'
GPGPU-Sim uArch: core:  7, cta: 0 initialized @(1,0)
GPGPU-Sim uArch: Shader 8 bind to kernel 1 '_Z13GPU_laplace3diiiiPfS_'
GPGPU-Sim uArch: core:  8, cta: 0 initialized @(1,0)
GPGPU-Sim uArch: Shader 9 bind to kernel 1 '_Z13GPU_laplace3diiiiPfS_'
GPGPU-Sim uArch: core:  9, cta: 0 initialized @(1,0)
GPGPU-Sim uArch: Shader 10 bind to kernel 1 '_Z13GPU_laplace3diiiiPfS_'
GPGPU-Sim uArch: core: 10, cta: 0 initialized @(1,0)
GPGPU-Sim uArch: Shader 11 bind to kernel 1 '_Z13GPU_laplace3diiiiPfS_'
GPGPU-Sim uArch: core: 11, cta: 0 initialized @(1,0)
GPGPU-Sim uArch: Shader 12 bind to kernel 1 '_Z13GPU_laplace3diiiiPfS_'
GPGPU-Sim uArch: core: 12, cta: 0 initialized @(1,0)
GPGPU-Sim uArch: Shader 13 bind to kernel 1 '_Z13GPU_laplace3diiiiPfS_'
GPGPU-Sim uArch: core: 13, cta: 0 initialized @(1,0)
GPGPU-Sim uArch: Shader 14 bind to kernel 1 '_Z13GPU_laplace3diiiiPfS_'
GPGPU-Sim uArch: core: 14, cta: 0 initialized @(1,0)
GPGPU-Sim uArch: Shader 0 bind to kernel 1 '_Z13GPU_laplace3diiiiPfS_'
GPGPU-Sim uArch: core:  0, cta: 0 initialized @(1,0)
GPGPU-Sim uArch: core:  1, cta: 1 initialized @(2,0)
GPGPU-Sim uArch: core:  2, cta: 1 initialized @(2,0)
GPGPU-Sim uArch: core:  3, cta: 1 initialized @(2,0)
GPGPU-Sim uArch: core:  4, cta: 1 initialized @(2,0)
GPGPU-Sim uArch: core:  5, cta: 1 initialized @(2,0)
GPGPU-Sim uArch: core:  6, cta: 1 initialized @(2,0)
GPGPU-Sim uArch: core:  7, cta: 1 initialized @(2,0)
GPGPU-Sim uArch: core:  8, cta: 1 initialized @(2,0)
GPGPU-Sim uArch: core:  9, cta: 1 initialized @(2,0)
GPGPU-Sim uArch: core: 10, cta: 1 initialized @(2,0)
GPGPU-Sim uArch: core: 11, cta: 1 initialized @(2,0)
GPGPU-Sim uArch: core: 12, cta: 1 initialized @(2,0)
GPGPU-Sim uArch: core: 13, cta: 1 initialized @(2,0)
GPGPU-Sim uArch: core: 14, cta: 1 initialized @(2,0)
GPGPU-Sim uArch: core:  0, cta: 1 initialized @(2,0)
GPGPU-Sim uArch: core:  1, cta: 2 initialized @(3,0)
GPGPU-Sim uArch: core:  2, cta: 2 initialized @(3,0)
GPGPU-Sim uArch: core:  3, cta: 2 initialized @(3,0)
GPGPU-Sim uArch: core:  4, cta: 2 initialized @(3,0)
GPGPU-Sim uArch: core:  5, cta: 2 initialized @(3,0)
GPGPU-Sim uArch: core:  6, cta: 2 initialized @(3,0)
GPGPU-Sim uArch: core:  7, cta: 2 initialized @(3,0)
GPGPU-Sim uArch: core:  8, cta: 2 initialized @(3,0)
GPGPU-Sim uArch: core:  9, cta: 2 initialized @(3,0)
GPGPU-Sim uArch: core: 10, cta: 2 initialized @(3,0)
GPGPU-Sim uArch: core: 11, cta: 2 initialized @(3,0)
GPGPU-Sim uArch: core: 12, cta: 2 initialized @(3,0)
GPGPU-Sim uArch: core: 13, cta: 2 initialized @(3,0)
GPGPU-Sim uArch: core: 14, cta: 2 initialized @(3,0)
GPGPU-Sim uArch: core:  0, cta: 2 initialized @(3,0)
GPGPU-Sim uArch: core:  1, cta: 3 initialized @(4,0)
GPGPU-Sim uArch: core:  2, cta: 3 initialized @(4,0)
GPGPU-Sim uArch: core:  3, cta: 3 initialized @(4,0)
GPGPU-Sim uArch: core:  4, cta: 3 initialized @(4,0)
GPGPU-Sim uArch: core:  5, cta: 3 initialized @(4,0)
GPGPU-Sim uArch: core:  6, cta: 3 initialized @(4,0)
GPGPU-Sim uArch: core:  7, cta: 3 initialized @(4,0)
GPGPU-Sim uArch: core:  8, cta: 3 initialized @(4,0)
GPGPU-Sim uArch: core:  9, cta: 3 initialized @(4,0)
GPGPU-Sim uArch: core: 10, cta: 3 initialized @(4,0)
GPGPU-Sim uArch: core: 11, cta: 3 initialized @(4,0)
GPGPU-Sim uArch: core: 12, cta: 3 initialized @(4,0)
GPGPU-Sim uArch: core: 13, cta: 3 initialized @(4,0)
GPGPU-Sim uArch: core: 14, cta: 3 initialized @(4,0)
GPGPU-Sim uArch: core:  0, cta: 3 initialized @(4,0)
GPGPU-Sim uArch: core:  1, cta: 4 initialized @(5,0)
GPGPU-Sim uArch: core:  2, cta: 4 initialized @(5,0)
GPGPU-Sim uArch: core:  3, cta: 4 initialized @(5,0)
GPGPU-Sim uArch: core:  4, cta: 4 initialized @(5,0)
GPGPU-Sim uArch: core:  5, cta: 4 initialized @(5,0)
GPGPU-Sim uArch: core:  6, cta: 4 initialized @(5,0)
GPGPU-Sim uArch: core:  7, cta: 4 initialized @(5,0)
GPGPU-Sim uArch: core:  8, cta: 4 initialized @(5,0)
GPGPU-Sim uArch: core:  9, cta: 4 initialized @(5,0)
GPGPU-Sim uArch: core: 10, cta: 4 initialized @(5,0)
GPGPU-Sim uArch: core: 11, cta: 4 initialized @(5,0)
GPGPU-Sim uArch: core: 12, cta: 4 initialized @(5,0)
GPGPU-Sim uArch: core: 13, cta: 4 initialized @(5,0)
GPGPU-Sim uArch: core: 14, cta: 4 initialized @(5,0)
GPGPU-Sim uArch: core:  0, cta: 4 initialized @(5,0)
GPGPU-Sim uArch: core:  1, cta: 5 initialized @(6,0)
GPGPU-Sim uArch: core:  2, cta: 5 initialized @(6,0)
GPGPU-Sim uArch: core:  3, cta: 5 initialized @(6,0)
GPGPU-Sim uArch: core:  4, cta: 5 initialized @(6,0)
GPGPU-Sim uArch: core:  5, cta: 5 initialized @(6,0)
GPGPU-Sim uArch: core:  6, cta: 5 initialized @(6,0)
GPGPU-Sim uArch: core:  7, cta: 5 initialized @(6,0)
GPGPU-Sim uArch: core:  8, cta: 5 initialized @(6,0)
GPGPU-Sim uArch: core:  9, cta: 5 initialized @(6,0)
GPGPU-Sim uArch: core: 10, cta: 5 initialized @(6,0)
GPGPU-Sim uArch: core: 11, cta: 5 initialized @(6,0)
GPGPU-Sim uArch: core: 12, cta: 5 initialized @(6,0)
GPGPU-Sim uArch: core: 13, cta: 5 initialized @(6,0)
GPGPU-Sim uArch: core: 14, cta: 5 initialized @(6,0)
GPGPU-Sim uArch: core:  0, cta: 5 initialized @(6,0)
GPGPU-Sim uArch: core:  1, cta: 6 initialized @(7,0)
GPGPU-Sim uArch: core:  2, cta: 6 initialized @(7,0)
GPGPU-Sim uArch: core:  3, cta: 6 initialized @(7,0)
GPGPU-Sim uArch: core:  4, cta: 6 initialized @(7,0)
GPGPU-Sim uArch: core:  5, cta: 6 initialized @(7,0)
GPGPU-Sim uArch: core:  6, cta: 6 initialized @(7,0)
GPGPU-Sim uArch: core:  7, cta: 6 initialized @(7,0)
GPGPU-Sim uArch: core:  8, cta: 6 initialized @(7,0)
GPGPU-Sim uArch: core:  9, cta: 6 initialized @(7,0)
GPGPU-Sim uArch: core: 10, cta: 6 initialized @(7,0)
GPGPU-Sim uArch: cycles simulated: 500  inst.: 41880 (ipc=83.8) sim_rate=4188 (inst/sec) elapsed = 0:0:00:10 / Tue Mar 22 12:46:21 2016
GPGPU-Sim uArch: cycles simulated: 1000  inst.: 88132 (ipc=88.1) sim_rate=6779 (inst/sec) elapsed = 0:0:00:13 / Tue Mar 22 12:46:24 2016
GPGPU-Sim PTX: 100000 instructions simulated : ctaid=(2,2,0) tid=(27,3,0)
GPGPU-Sim PTX: 200000 instructions simulated : ctaid=(1,5,0) tid=(7,2,0)
GPGPU-Sim uArch: cycles simulated: 2000  inst.: 266702 (ipc=133.4) sim_rate=19050 (inst/sec) elapsed = 0:0:00:14 / Tue Mar 22 12:46:25 2016
GPGPU-Sim PTX: 300000 instructions simulated : ctaid=(2,1,0) tid=(17,2,0)
GPGPU-Sim PTX: 400000 instructions simulated : ctaid=(0,2,0) tid=(30,1,0)
GPGPU-Sim PTX: 500000 instructions simulated : ctaid=(0,10,0) tid=(11,3,0)
GPGPU-Sim PTX: 600000 instructions simulated : ctaid=(0,1,0) tid=(1,2,0)
GPGPU-Sim uArch: cycles simulated: 4500  inst.: 620038 (ipc=137.8) sim_rate=41335 (inst/sec) elapsed = 0:0:00:15 / Tue Mar 22 12:46:26 2016
GPGPU-Sim PTX: 700000 instructions simulated : ctaid=(3,8,0) tid=(13,1,0)
GPGPU-Sim PTX: 800000 instructions simulated : ctaid=(0,10,0) tid=(8,0,0)
GPGPU-Sim PTX: 900000 instructions simulated : ctaid=(0,5,0) tid=(22,3,0)
GPGPU-Sim PTX: 1000000 instructions simulated : ctaid=(0,1,0) tid=(7,2,0)
GPGPU-Sim PTX: 1100000 instructions simulated : ctaid=(2,5,0) tid=(0,3,0)
GPGPU-Sim uArch: cycles simulated: 6500  inst.: 1071979 (ipc=164.9) sim_rate=66998 (inst/sec) elapsed = 0:0:00:16 / Tue Mar 22 12:46:27 2016
GPGPU-Sim PTX: 1200000 instructions simulated : ctaid=(2,6,0) tid=(14,0,0)
GPGPU-Sim PTX: 1300000 instructions simulated : ctaid=(1,1,0) tid=(29,3,0)
GPGPU-Sim PTX: 1400000 instructions simulated : ctaid=(0,0,0) tid=(30,2,0)
GPGPU-Sim PTX: 1500000 instructions simulated : ctaid=(0,1,0) tid=(29,3,0)
GPGPU-Sim uArch: cycles simulated: 8000  inst.: 1429580 (ipc=178.7) sim_rate=84092 (inst/sec) elapsed = 0:0:00:17 / Tue Mar 22 12:46:28 2016
GPGPU-Sim PTX: 1600000 instructions simulated : ctaid=(2,13,0) tid=(28,3,0)
GPGPU-Sim PTX: 1700000 instructions simulated : ctaid=(2,5,0) tid=(27,0,0)
GPGPU-Sim PTX: 1800000 instructions simulated : ctaid=(2,5,0) tid=(2,1,0)
GPGPU-Sim PTX: 1900000 instructions simulated : ctaid=(0,6,0) tid=(28,2,0)
GPGPU-Sim PTX: 2000000 instructions simulated : ctaid=(2,0,0) tid=(0,2,0)
GPGPU-Sim PTX: 2100000 instructions simulated : ctaid=(1,5,0) tid=(0,0,0)
GPGPU-Sim uArch: cycles simulated: 10000  inst.: 1956991 (ipc=195.7) sim_rate=108721 (inst/sec) elapsed = 0:0:00:18 / Tue Mar 22 12:46:29 2016
GPGPU-Sim PTX: 2200000 instructions simulated : ctaid=(1,0,0) tid=(6,1,0)
GPGPU-Sim PTX: 2300000 instructions simulated : ctaid=(1,1,0) tid=(23,3,0)
GPGPU-Sim PTX: 2400000 instructions simulated : ctaid=(1,7,0) tid=(8,3,0)
GPGPU-Sim PTX: 2500000 instructions simulated : ctaid=(2,16,0) tid=(27,3,0)
GPGPU-Sim uArch: cycles simulated: 11500  inst.: 2274886 (ipc=197.8) sim_rate=119730 (inst/sec) elapsed = 0:0:00:19 / Tue Mar 22 12:46:30 2016
GPGPU-Sim PTX: 2600000 instructions simulated : ctaid=(1,0,0) tid=(15,3,0)
GPGPU-Sim PTX: 2700000 instructions simulated : ctaid=(1,0,0) tid=(22,0,0)
GPGPU-Sim PTX: 2800000 instructions simulated : ctaid=(0,8,0) tid=(8,3,0)
GPGPU-Sim PTX: 2900000 instructions simulated : ctaid=(2,1,0) tid=(9,0,0)
GPGPU-Sim uArch: cycles simulated: 13000  inst.: 2691019 (ipc=207.0) sim_rate=134550 (inst/sec) elapsed = 0:0:00:20 / Tue Mar 22 12:46:31 2016
GPGPU-Sim PTX: 3000000 instructions simulated : ctaid=(0,4,0) tid=(28,1,0)
GPGPU-Sim PTX: 3100000 instructions simulated : ctaid=(2,6,0) tid=(26,1,0)
GPGPU-Sim PTX: 3200000 instructions simulated : ctaid=(1,2,0) tid=(15,1,0)
GPGPU-Sim PTX: 3300000 instructions simulated : ctaid=(0,4,0) tid=(10,2,0)
GPGPU-Sim PTX: 3400000 instructions simulated : ctaid=(1,10,0) tid=(9,3,0)
GPGPU-Sim PTX: 3500000 instructions simulated : ctaid=(0,1,0) tid=(20,2,0)
GPGPU-Sim uArch: cycles simulated: 15000  inst.: 3157638 (ipc=210.5) sim_rate=150363 (inst/sec) elapsed = 0:0:00:21 / Tue Mar 22 12:46:32 2016
GPGPU-Sim PTX: 3600000 instructions simulated : ctaid=(1,6,0) tid=(18,1,0)
GPGPU-Sim PTX: 3700000 instructions simulated : ctaid=(1,1,0) tid=(2,2,0)
GPGPU-Sim PTX: 3800000 instructions simulated : ctaid=(0,5,0) tid=(8,0,0)
GPGPU-Sim PTX: 3900000 instructions simulated : ctaid=(1,6,0) tid=(22,0,0)
GPGPU-Sim uArch: cycles simulated: 16500  inst.: 3531464 (ipc=214.0) sim_rate=160521 (inst/sec) elapsed = 0:0:00:22 / Tue Mar 22 12:46:33 2016
GPGPU-Sim PTX: 4000000 instructions simulated : ctaid=(2,6,0) tid=(11,1,0)
GPGPU-Sim PTX: 4100000 instructions simulated : ctaid=(0,4,0) tid=(5,2,0)
GPGPU-Sim PTX: 4200000 instructions simulated : ctaid=(2,1,0) tid=(16,1,0)
GPGPU-Sim PTX: 4300000 instructions simulated : ctaid=(0,6,0) tid=(29,0,0)
GPGPU-Sim uArch: cycles simulated: 18000  inst.: 3879791 (ipc=215.5) sim_rate=168686 (inst/sec) elapsed = 0:0:00:23 / Tue Mar 22 12:46:34 2016
GPGPU-Sim PTX: 4400000 instructions simulated : ctaid=(1,0,0) tid=(19,1,0)
GPGPU-Sim PTX: 4500000 instructions simulated : ctaid=(0,2,0) tid=(2,1,0)
GPGPU-Sim PTX: 4600000 instructions simulated : ctaid=(0,4,0) tid=(15,1,0)
GPGPU-Sim PTX: 4700000 instructions simulated : ctaid=(0,1,0) tid=(20,1,0)
GPGPU-Sim PTX: 4800000 instructions simulated : ctaid=(2,4,0) tid=(7,2,0)
GPGPU-Sim uArch: cycles simulated: 20000  inst.: 4352628 (ipc=217.6) sim_rate=181359 (inst/sec) elapsed = 0:0:00:24 / Tue Mar 22 12:46:35 2016
GPGPU-Sim PTX: 4900000 instructions simulated : ctaid=(0,3,0) tid=(27,1,0)
GPGPU-Sim PTX: 5000000 instructions simulated : ctaid=(0,2,0) tid=(20,1,0)
GPGPU-Sim PTX: 5100000 instructions simulated : ctaid=(0,6,0) tid=(15,3,0)
GPGPU-Sim PTX: 5200000 instructions simulated : ctaid=(0,3,0) tid=(23,0,0)
GPGPU-Sim uArch: cycles simulated: 21500  inst.: 4732519 (ipc=220.1) sim_rate=189300 (inst/sec) elapsed = 0:0:00:25 / Tue Mar 22 12:46:36 2016
GPGPU-Sim PTX: 5300000 instructions simulated : ctaid=(2,5,0) tid=(31,3,0)
GPGPU-Sim PTX: 5400000 instructions simulated : ctaid=(0,11,0) tid=(20,0,0)
GPGPU-Sim PTX: 5500000 instructions simulated : ctaid=(1,0,0) tid=(16,0,0)
GPGPU-Sim PTX: 5600000 instructions simulated : ctaid=(2,10,0) tid=(2,3,0)
GPGPU-Sim PTX: 5700000 instructions simulated : ctaid=(2,5,0) tid=(9,1,0)
GPGPU-Sim uArch: cycles simulated: 23500  inst.: 5192094 (ipc=220.9) sim_rate=199695 (inst/sec) elapsed = 0:0:00:26 / Tue Mar 22 12:46:37 2016
GPGPU-Sim PTX: 5800000 instructions simulated : ctaid=(2,8,0) tid=(10,2,0)
GPGPU-Sim PTX: 5900000 instructions simulated : ctaid=(2,4,0) tid=(2,0,0)
GPGPU-Sim PTX: 6000000 instructions simulated : ctaid=(0,3,0) tid=(17,1,0)
GPGPU-Sim PTX: 6100000 instructions simulated : ctaid=(1,7,0) tid=(0,1,0)
GPGPU-Sim uArch: cycles simulated: 25000  inst.: 5520876 (ipc=220.8) sim_rate=204476 (inst/sec) elapsed = 0:0:00:27 / Tue Mar 22 12:46:38 2016
GPGPU-Sim PTX: 6200000 instructions simulated : ctaid=(1,1,0) tid=(28,1,0)
GPGPU-Sim PTX: 6300000 instructions simulated : ctaid=(2,5,0) tid=(16,0,0)
GPGPU-Sim PTX: 6400000 instructions simulated : ctaid=(3,4,0) tid=(3,0,0)
GPGPU-Sim PTX: 6500000 instructions simulated : ctaid=(1,1,0) tid=(17,2,0)
GPGPU-Sim PTX: 6600000 instructions simulated : ctaid=(1,6,0) tid=(22,3,0)
GPGPU-Sim uArch: cycles simulated: 27000  inst.: 5998236 (ipc=222.2) sim_rate=214222 (inst/sec) elapsed = 0:0:00:28 / Tue Mar 22 12:46:39 2016
GPGPU-Sim PTX: 6700000 instructions simulated : ctaid=(2,5,0) tid=(28,3,0)
GPGPU-Sim PTX: 6800000 instructions simulated : ctaid=(0,2,0) tid=(1,1,0)
GPGPU-Sim PTX: 6900000 instructions simulated : ctaid=(1,4,0) tid=(8,2,0)
GPGPU-Sim PTX: 7000000 instructions simulated : ctaid=(0,8,0) tid=(21,0,0)
GPGPU-Sim PTX: 7100000 instructions simulated : ctaid=(1,2,0) tid=(3,2,0)
GPGPU-Sim uArch: cycles simulated: 28500  inst.: 6370084 (ipc=223.5) sim_rate=219658 (inst/sec) elapsed = 0:0:00:29 / Tue Mar 22 12:46:40 2016
GPGPU-Sim PTX: 7200000 instructions simulated : ctaid=(0,4,0) tid=(2,0,0)
GPGPU-Sim PTX: 7300000 instructions simulated : ctaid=(2,0,0) tid=(16,1,0)
GPGPU-Sim PTX: 7400000 instructions simulated : ctaid=(0,1,0) tid=(21,1,0)
GPGPU-Sim PTX: 7500000 instructions simulated : ctaid=(0,8,0) tid=(21,0,0)
GPGPU-Sim PTX: 7600000 instructions simulated : ctaid=(2,10,0) tid=(17,0,0)
GPGPU-Sim uArch: cycles simulated: 30500  inst.: 6834640 (ipc=224.1) sim_rate=227821 (inst/sec) elapsed = 0:0:00:30 / Tue Mar 22 12:46:41 2016
GPGPU-Sim PTX: 7700000 instructions simulated : ctaid=(1,3,0) tid=(13,3,0)
GPGPU-Sim PTX: 7800000 instructions simulated : ctaid=(2,4,0) tid=(19,2,0)
GPGPU-Sim PTX: 7900000 instructions simulated : ctaid=(0,5,0) tid=(21,1,0)
GPGPU-Sim PTX: 8000000 instructions simulated : ctaid=(2,3,0) tid=(0,3,0)
GPGPU-Sim PTX: 8100000 instructions simulated : ctaid=(2,0,0) tid=(23,2,0)
GPGPU-Sim uArch: cycles simulated: 32500  inst.: 7310204 (ipc=224.9) sim_rate=235813 (inst/sec) elapsed = 0:0:00:31 / Tue Mar 22 12:46:42 2016
GPGPU-Sim PTX: 8200000 instructions simulated : ctaid=(2,2,0) tid=(25,2,0)
GPGPU-Sim PTX: 8300000 instructions simulated : ctaid=(2,0,0) tid=(10,2,0)
GPGPU-Sim PTX: 8400000 instructions simulated : ctaid=(2,1,0) tid=(25,0,0)
GPGPU-Sim PTX: 8500000 instructions simulated : ctaid=(3,2,0) tid=(0,0,0)
GPGPU-Sim uArch: cycles simulated: 34000  inst.: 7658126 (ipc=225.2) sim_rate=239316 (inst/sec) elapsed = 0:0:00:32 / Tue Mar 22 12:46:43 2016
GPGPU-Sim PTX: 8600000 instructions simulated : ctaid=(3,9,0) tid=(1,3,0)
GPGPU-Sim PTX: 8700000 instructions simulated : ctaid=(0,0,0) tid=(19,3,0)
GPGPU-Sim PTX: 8800000 instructions simulated : ctaid=(0,4,0) tid=(14,1,0)
GPGPU-Sim PTX: 8900000 instructions simulated : ctaid=(1,0,0) tid=(20,1,0)
GPGPU-Sim PTX: 9000000 instructions simulated : ctaid=(0,11,0) tid=(25,3,0)
GPGPU-Sim uArch: cycles simulated: 36000  inst.: 8115192 (ipc=225.4) sim_rate=245914 (inst/sec) elapsed = 0:0:00:33 / Tue Mar 22 12:46:44 2016
GPGPU-Sim PTX: 9100000 instructions simulated : ctaid=(2,5,0) tid=(25,1,0)
GPGPU-Sim PTX: 9200000 instructions simulated : ctaid=(2,4,0) tid=(22,3,0)
GPGPU-Sim PTX: 9300000 instructions simulated : ctaid=(0,9,0) tid=(6,0,0)
GPGPU-Sim PTX: 9400000 instructions simulated : ctaid=(1,3,0) tid=(12,3,0)
GPGPU-Sim uArch: cycles simulated: 37500  inst.: 8474529 (ipc=226.0) sim_rate=249250 (inst/sec) elapsed = 0:0:00:34 / Tue Mar 22 12:46:45 2016
GPGPU-Sim PTX: 9500000 instructions simulated : ctaid=(0,6,0) tid=(31,0,0)
GPGPU-Sim PTX: 9600000 instructions simulated : ctaid=(3,2,0) tid=(2,0,0)
GPGPU-Sim PTX: 9700000 instructions simulated : ctaid=(2,1,0) tid=(15,0,0)
GPGPU-Sim PTX: 9800000 instructions simulated : ctaid=(3,1,0) tid=(2,2,0)
GPGPU-Sim uArch: cycles simulated: 39000  inst.: 8824142 (ipc=226.3) sim_rate=252118 (inst/sec) elapsed = 0:0:00:35 / Tue Mar 22 12:46:46 2016
GPGPU-Sim PTX: 9900000 instructions simulated : ctaid=(2,2,0) tid=(0,1,0)
GPGPU-Sim PTX: 10000000 instructions simulated : ctaid=(2,0,0) tid=(13,3,0)
GPGPU-Sim PTX: 10100000 instructions simulated : ctaid=(0,1,0) tid=(6,3,0)
GPGPU-Sim PTX: 10200000 instructions simulated : ctaid=(0,0,0) tid=(22,0,0)
GPGPU-Sim uArch: cycles simulated: 40500  inst.: 9168424 (ipc=226.4) sim_rate=254678 (inst/sec) elapsed = 0:0:00:36 / Tue Mar 22 12:46:47 2016
GPGPU-Sim PTX: 10300000 instructions simulated : ctaid=(1,3,0) tid=(19,3,0)
GPGPU-Sim PTX: 10400000 instructions simulated : ctaid=(2,1,0) tid=(22,3,0)
GPGPU-Sim PTX: 10500000 instructions simulated : ctaid=(0,6,0) tid=(11,2,0)
GPGPU-Sim PTX: 10600000 instructions simulated : ctaid=(2,3,0) tid=(24,1,0)
GPGPU-Sim uArch: cycles simulated: 42000  inst.: 9521894 (ipc=226.7) sim_rate=257348 (inst/sec) elapsed = 0:0:00:37 / Tue Mar 22 12:46:48 2016
GPGPU-Sim PTX: 10700000 instructions simulated : ctaid=(0,4,0) tid=(25,3,0)
GPGPU-Sim PTX: 10800000 instructions simulated : ctaid=(1,0,0) tid=(10,3,0)
GPGPU-Sim PTX: 10900000 instructions simulated : ctaid=(2,6,0) tid=(19,0,0)
GPGPU-Sim PTX: 11000000 instructions simulated : ctaid=(0,4,0) tid=(18,1,0)
GPGPU-Sim uArch: cycles simulated: 43500  inst.: 9862976 (ipc=226.7) sim_rate=259552 (inst/sec) elapsed = 0:0:00:38 / Tue Mar 22 12:46:49 2016
GPGPU-Sim PTX: 11100000 instructions simulated : ctaid=(0,9,0) tid=(2,0,0)
GPGPU-Sim PTX: 11200000 instructions simulated : ctaid=(2,1,0) tid=(28,2,0)
GPGPU-Sim PTX: 11300000 instructions simulated : ctaid=(0,4,0) tid=(25,1,0)
GPGPU-Sim PTX: 11400000 instructions simulated : ctaid=(0,5,0) tid=(29,3,0)
GPGPU-Sim PTX: 11500000 instructions simulated : ctaid=(1,6,0) tid=(14,0,0)
GPGPU-Sim uArch: cycles simulated: 45500  inst.: 10327701 (ipc=227.0) sim_rate=264812 (inst/sec) elapsed = 0:0:00:39 / Tue Mar 22 12:46:50 2016
GPGPU-Sim PTX: 11600000 instructions simulated : ctaid=(1,4,0) tid=(0,3,0)
GPGPU-Sim PTX: 11700000 instructions simulated : ctaid=(2,5,0) tid=(22,1,0)
GPGPU-Sim PTX: 11800000 instructions simulated : ctaid=(0,6,0) tid=(23,3,0)
GPGPU-Sim PTX: 11900000 instructions simulated : ctaid=(2,6,0) tid=(24,0,0)
GPGPU-Sim uArch: cycles simulated: 47000  inst.: 10676508 (ipc=227.2) sim_rate=266912 (inst/sec) elapsed = 0:0:00:40 / Tue Mar 22 12:46:51 2016
GPGPU-Sim PTX: 12000000 instructions simulated : ctaid=(0,3,0) tid=(21,0,0)
GPGPU-Sim PTX: 12100000 instructions simulated : ctaid=(2,9,0) tid=(18,3,0)
GPGPU-Sim PTX: 12200000 instructions simulated : ctaid=(3,5,0) tid=(20,1,0)
GPGPU-Sim PTX: 12300000 instructions simulated : ctaid=(0,3,0) tid=(26,3,0)
GPGPU-Sim uArch: cycles simulated: 48500  inst.: 11024218 (ipc=227.3) sim_rate=268883 (inst/sec) elapsed = 0:0:00:41 / Tue Mar 22 12:46:52 2016
GPGPU-Sim PTX: 12400000 instructions simulated : ctaid=(0,4,0) tid=(3,0,0)
GPGPU-Sim PTX: 12500000 instructions simulated : ctaid=(0,1,0) tid=(8,1,0)
GPGPU-Sim PTX: 12600000 instructions simulated : ctaid=(1,5,0) tid=(15,1,0)
GPGPU-Sim PTX: 12700000 instructions simulated : ctaid=(2,0,0) tid=(6,2,0)
GPGPU-Sim uArch: cycles simulated: 50000  inst.: 11379687 (ipc=227.6) sim_rate=270944 (inst/sec) elapsed = 0:0:00:42 / Tue Mar 22 12:46:53 2016
GPGPU-Sim PTX: 12800000 instructions simulated : ctaid=(1,11,0) tid=(5,1,0)
GPGPU-Sim PTX: 12900000 instructions simulated : ctaid=(3,9,0) tid=(22,2,0)
GPGPU-Sim PTX: 13000000 instructions simulated : ctaid=(1,6,0) tid=(22,2,0)
GPGPU-Sim PTX: 13100000 instructions simulated : ctaid=(1,0,0) tid=(9,3,0)
GPGPU-Sim uArch: cycles simulated: 51500  inst.: 11725141 (ipc=227.7) sim_rate=272677 (inst/sec) elapsed = 0:0:00:43 / Tue Mar 22 12:46:54 2016
GPGPU-Sim PTX: 13200000 instructions simulated : ctaid=(2,6,0) tid=(4,2,0)
GPGPU-Sim PTX: 13300000 instructions simulated : ctaid=(0,1,0) tid=(6,1,0)
GPGPU-Sim PTX: 13400000 instructions simulated : ctaid=(2,0,0) tid=(24,1,0)
GPGPU-Sim PTX: 13500000 instructions simulated : ctaid=(2,6,0) tid=(0,2,0)
GPGPU-Sim uArch: cycles simulated: 53000  inst.: 12069010 (ipc=227.7) sim_rate=274295 (inst/sec) elapsed = 0:0:00:44 / Tue Mar 22 12:46:55 2016
GPGPU-Sim PTX: 13600000 instructions simulated : ctaid=(1,3,0) tid=(17,1,0)
GPGPU-Sim PTX: 13700000 instructions simulated : ctaid=(1,6,0) tid=(24,1,0)
GPGPU-Sim PTX: 13800000 instructions simulated : ctaid=(3,11,0) tid=(19,1,0)
GPGPU-Sim PTX: 13900000 instructions simulated : ctaid=(1,4,0) tid=(10,0,0)
GPGPU-Sim PTX: 14000000 instructions simulated : ctaid=(0,0,0) tid=(28,3,0)
GPGPU-Sim uArch: cycles simulated: 55000  inst.: 12535491 (ipc=227.9) sim_rate=278566 (inst/sec) elapsed = 0:0:00:45 / Tue Mar 22 12:46:56 2016
GPGPU-Sim PTX: 14100000 instructions simulated : ctaid=(2,6,0) tid=(26,0,0)
GPGPU-Sim PTX: 14200000 instructions simulated : ctaid=(1,2,0) tid=(10,1,0)
GPGPU-Sim PTX: 14300000 instructions simulated : ctaid=(0,4,0) tid=(26,1,0)
GPGPU-Sim PTX: 14400000 instructions simulated : ctaid=(0,8,0) tid=(11,0,0)
GPGPU-Sim uArch: cycles simulated: 56500  inst.: 12881831 (ipc=228.0) sim_rate=280039 (inst/sec) elapsed = 0:0:00:46 / Tue Mar 22 12:46:57 2016
GPGPU-Sim PTX: 14500000 instructions simulated : ctaid=(1,2,0) tid=(24,3,0)
GPGPU-Sim PTX: 14600000 instructions simulated : ctaid=(1,5,0) tid=(11,3,0)
GPGPU-Sim PTX: 14700000 instructions simulated : ctaid=(2,1,0) tid=(27,1,0)
GPGPU-Sim PTX: 14800000 instructions simulated : ctaid=(0,2,0) tid=(3,1,0)
GPGPU-Sim uArch: cycles simulated: 58000  inst.: 13220129 (ipc=227.9) sim_rate=281279 (inst/sec) elapsed = 0:0:00:47 / Tue Mar 22 12:46:58 2016
GPGPU-Sim PTX: 14900000 instructions simulated : ctaid=(3,1,0) tid=(31,1,0)
GPGPU-Sim PTX: 15000000 instructions simulated : ctaid=(2,6,0) tid=(3,0,0)
GPGPU-Sim PTX: 15100000 instructions simulated : ctaid=(1,9,0) tid=(4,1,0)
GPGPU-Sim PTX: 15200000 instructions simulated : ctaid=(2,1,0) tid=(26,1,0)
GPGPU-Sim uArch: cycles simulated: 59500  inst.: 13577342 (ipc=228.2) sim_rate=282861 (inst/sec) elapsed = 0:0:00:48 / Tue Mar 22 12:46:59 2016
GPGPU-Sim PTX: 15300000 instructions simulated : ctaid=(1,4,0) tid=(8,1,0)
GPGPU-Sim PTX: 15400000 instructions simulated : ctaid=(3,4,0) tid=(6,2,0)
GPGPU-Sim PTX: 15500000 instructions simulated : ctaid=(1,6,0) tid=(3,0,0)
GPGPU-Sim uArch: cycles simulated: 61000  inst.: 13924717 (ipc=228.3) sim_rate=284177 (inst/sec) elapsed = 0:0:00:49 / Tue Mar 22 12:47:00 2016
GPGPU-Sim PTX: 15600000 instructions simulated : ctaid=(1,2,0) tid=(18,1,0)
GPGPU-Sim PTX: 15700000 instructions simulated : ctaid=(1,0,0) tid=(1,2,0)
GPGPU-Sim PTX: 15800000 instructions simulated : ctaid=(2,3,0) tid=(2,0,0)
GPGPU-Sim PTX: 15900000 instructions simulated : ctaid=(1,8,0) tid=(20,2,0)
GPGPU-Sim uArch: cycles simulated: 62500  inst.: 14267990 (ipc=228.3) sim_rate=285359 (inst/sec) elapsed = 0:0:00:50 / Tue Mar 22 12:47:01 2016
GPGPU-Sim PTX: 16000000 instructions simulated : ctaid=(0,3,0) tid=(15,3,0)
GPGPU-Sim PTX: 16100000 instructions simulated : ctaid=(0,6,0) tid=(26,2,0)
GPGPU-Sim PTX: 16200000 instructions simulated : ctaid=(1,2,0) tid=(8,2,0)
GPGPU-Sim PTX: 16300000 instructions simulated : ctaid=(2,0,0) tid=(20,2,0)
GPGPU-Sim PTX: 16400000 instructions simulated : ctaid=(1,1,0) tid=(20,2,0)
GPGPU-Sim PTX: 16500000 instructions simulated : ctaid=(0,2,0) tid=(5,3,0)
GPGPU-Sim uArch: cycles simulated: 64500  inst.: 14735723 (ipc=228.5) sim_rate=288935 (inst/sec) elapsed = 0:0:00:51 / Tue Mar 22 12:47:02 2016
GPGPU-Sim PTX: 16600000 instructions simulated : ctaid=(1,5,0) tid=(31,1,0)
GPGPU-Sim PTX: 16700000 instructions simulated : ctaid=(1,4,0) tid=(18,0,0)
GPGPU-Sim PTX: 16800000 instructions simulated : ctaid=(1,10,0) tid=(18,2,0)
GPGPU-Sim PTX: 16900000 instructions simulated : ctaid=(3,0,0) tid=(22,0,0)
GPGPU-Sim uArch: cycles simulated: 66000  inst.: 15085022 (ipc=228.6) sim_rate=290096 (inst/sec) elapsed = 0:0:00:52 / Tue Mar 22 12:47:03 2016
GPGPU-Sim PTX: 17000000 instructions simulated : ctaid=(1,0,0) tid=(8,3,0)
GPGPU-Sim PTX: 17100000 instructions simulated : ctaid=(1,7,0) tid=(15,2,0)
GPGPU-Sim PTX: 17200000 instructions simulated : ctaid=(1,8,0) tid=(11,3,0)
GPGPU-Sim uArch: cycles simulated: 67500  inst.: 15432541 (ipc=228.6) sim_rate=291180 (inst/sec) elapsed = 0:0:00:53 / Tue Mar 22 12:47:04 2016
GPGPU-Sim PTX: 17300000 instructions simulated : ctaid=(2,6,0) tid=(2,1,0)
GPGPU-Sim PTX: 17400000 instructions simulated : ctaid=(2,14,0) tid=(3,2,0)
GPGPU-Sim PTX: 17500000 instructions simulated : ctaid=(2,3,0) tid=(14,0,0)
GPGPU-Sim PTX: 17600000 instructions simulated : ctaid=(2,5,0) tid=(25,2,0)
GPGPU-Sim uArch: cycles simulated: 69000  inst.: 15768582 (ipc=228.5) sim_rate=292010 (inst/sec) elapsed = 0:0:00:54 / Tue Mar 22 12:47:05 2016
GPGPU-Sim PTX: 17700000 instructions simulated : ctaid=(2,5,0) tid=(27,3,0)
GPGPU-Sim PTX: 17800000 instructions simulated : ctaid=(0,2,0) tid=(1,1,0)
GPGPU-Sim PTX: 17900000 instructions simulated : ctaid=(0,6,0) tid=(18,1,0)
GPGPU-Sim PTX: 18000000 instructions simulated : ctaid=(0,1,0) tid=(28,0,0)
GPGPU-Sim uArch: cycles simulated: 70500  inst.: 16119877 (ipc=228.7) sim_rate=293088 (inst/sec) elapsed = 0:0:00:55 / Tue Mar 22 12:47:06 2016
GPGPU-Sim PTX: 18100000 instructions simulated : ctaid=(2,3,0) tid=(18,2,0)
GPGPU-Sim PTX: 18200000 instructions simulated : ctaid=(0,4,0) tid=(21,0,0)
GPGPU-Sim PTX: 18300000 instructions simulated : ctaid=(1,0,0) tid=(30,2,0)
GPGPU-Sim PTX: 18400000 instructions simulated : ctaid=(0,6,0) tid=(13,1,0)
GPGPU-Sim PTX: 18500000 instructions simulated : ctaid=(0,3,0) tid=(31,0,0)
GPGPU-Sim uArch: cycles simulated: 72500  inst.: 16581727 (ipc=228.7) sim_rate=296102 (inst/sec) elapsed = 0:0:00:56 / Tue Mar 22 12:47:07 2016
GPGPU-Sim PTX: 18600000 instructions simulated : ctaid=(0,3,0) tid=(29,0,0)
GPGPU-Sim PTX: 18700000 instructions simulated : ctaid=(1,1,0) tid=(9,0,0)
GPGPU-Sim PTX: 18800000 instructions simulated : ctaid=(1,3,0) tid=(5,2,0)
GPGPU-Sim PTX: 18900000 instructions simulated : ctaid=(3,0,0) tid=(24,2,0)
GPGPU-Sim uArch: cycles simulated: 74000  inst.: 16928603 (ipc=228.8) sim_rate=296993 (inst/sec) elapsed = 0:0:00:57 / Tue Mar 22 12:47:08 2016
GPGPU-Sim PTX: 19000000 instructions simulated : ctaid=(0,1,0) tid=(0,1,0)
GPGPU-Sim PTX: 19100000 instructions simulated : ctaid=(2,0,0) tid=(4,3,0)
GPGPU-Sim PTX: 19200000 instructions simulated : ctaid=(0,3,0) tid=(24,1,0)
GPGPU-Sim PTX: 19300000 instructions simulated : ctaid=(1,4,0) tid=(8,0,0)
GPGPU-Sim uArch: cycles simulated: 75500  inst.: 17274879 (ipc=228.8) sim_rate=297842 (inst/sec) elapsed = 0:0:00:58 / Tue Mar 22 12:47:09 2016
GPGPU-Sim PTX: 19400000 instructions simulated : ctaid=(2,0,0) tid=(29,3,0)
GPGPU-Sim PTX: 19500000 instructions simulated : ctaid=(1,3,0) tid=(28,2,0)
GPGPU-Sim PTX: 19600000 instructions simulated : ctaid=(3,1,0) tid=(0,1,0)
GPGPU-Sim PTX: 19700000 instructions simulated : ctaid=(0,1,0) tid=(1,1,0)
GPGPU-Sim uArch: cycles simulated: 77000  inst.: 17627458 (ipc=228.9) sim_rate=298770 (inst/sec) elapsed = 0:0:00:59 / Tue Mar 22 12:47:10 2016
GPGPU-Sim PTX: 19800000 instructions simulated : ctaid=(0,2,0) tid=(9,2,0)
GPGPU-Sim PTX: 19900000 instructions simulated : ctaid=(1,2,0) tid=(21,1,0)
GPGPU-Sim PTX: 20000000 instructions simulated : ctaid=(2,6,0) tid=(1,2,0)
GPGPU-Sim PTX: 20100000 instructions simulated : ctaid=(1,3,0) tid=(28,3,0)
GPGPU-Sim uArch: cycles simulated: 78500  inst.: 17971708 (ipc=228.9) sim_rate=299528 (inst/sec) elapsed = 0:0:01:00 / Tue Mar 22 12:47:11 2016
GPGPU-Sim PTX: 20200000 instructions simulated : ctaid=(0,4,0) tid=(28,0,0)
GPGPU-Sim PTX: 20300000 instructions simulated : ctaid=(1,5,0) tid=(24,2,0)
GPGPU-Sim PTX: 20400000 instructions simulated : ctaid=(1,2,0) tid=(2,2,0)
GPGPU-Sim PTX: 20500000 instructions simulated : ctaid=(0,6,0) tid=(6,3,0)
GPGPU-Sim uArch: cycles simulated: 80000  inst.: 18312008 (ipc=228.9) sim_rate=300196 (inst/sec) elapsed = 0:0:01:01 / Tue Mar 22 12:47:12 2016
GPGPU-Sim PTX: 20600000 instructions simulated : ctaid=(0,3,0) tid=(20,0,0)
GPGPU-Sim PTX: 20700000 instructions simulated : ctaid=(1,4,0) tid=(22,1,0)
GPGPU-Sim PTX: 20800000 instructions simulated : ctaid=(1,8,0) tid=(3,2,0)
GPGPU-Sim PTX: 20900000 instructions simulated : ctaid=(1,8,0) tid=(24,0,0)
GPGPU-Sim PTX: 21000000 instructions simulated : ctaid=(2,1,0) tid=(29,1,0)
GPGPU-Sim uArch: cycles simulated: 82000  inst.: 18797329 (ipc=229.2) sim_rate=303182 (inst/sec) elapsed = 0:0:01:02 / Tue Mar 22 12:47:13 2016
GPGPU-Sim PTX: 21100000 instructions simulated : ctaid=(1,7,0) tid=(4,2,0)
GPGPU-Sim PTX: 21200000 instructions simulated : ctaid=(1,3,0) tid=(19,1,0)
GPGPU-Sim PTX: 21300000 instructions simulated : ctaid=(2,1,0) tid=(9,1,0)
GPGPU-Sim PTX: 21400000 instructions simulated : ctaid=(0,11,0) tid=(25,2,0)
GPGPU-Sim uArch: cycles simulated: 83500  inst.: 19130535 (ipc=229.1) sim_rate=303659 (inst/sec) elapsed = 0:0:01:03 / Tue Mar 22 12:47:14 2016
GPGPU-Sim PTX: 21500000 instructions simulated : ctaid=(0,0,0) tid=(22,3,0)
GPGPU-Sim PTX: 21600000 instructions simulated : ctaid=(1,1,0) tid=(28,2,0)
GPGPU-Sim PTX: 21700000 instructions simulated : ctaid=(2,7,0) tid=(23,1,0)
GPGPU-Sim PTX: 21800000 instructions simulated : ctaid=(2,5,0) tid=(19,1,0)
GPGPU-Sim uArch: cycles simulated: 85000  inst.: 19480237 (ipc=229.2) sim_rate=304378 (inst/sec) elapsed = 0:0:01:04 / Tue Mar 22 12:47:15 2016
GPGPU-Sim PTX: 21900000 instructions simulated : ctaid=(0,10,0) tid=(26,0,0)
GPGPU-Sim PTX: 22000000 instructions simulated : ctaid=(1,5,0) tid=(25,1,0)
GPGPU-Sim PTX: 22100000 instructions simulated : ctaid=(2,3,0) tid=(25,0,0)
GPGPU-Sim PTX: 22200000 instructions simulated : ctaid=(1,4,0) tid=(25,0,0)
GPGPU-Sim uArch: cycles simulated: 86500  inst.: 19826728 (ipc=229.2) sim_rate=305026 (inst/sec) elapsed = 0:0:01:05 / Tue Mar 22 12:47:16 2016
GPGPU-Sim PTX: 22300000 instructions simulated : ctaid=(0,5,0) tid=(15,2,0)
GPGPU-Sim PTX: 22400000 instructions simulated : ctaid=(0,6,0) tid=(27,2,0)
GPGPU-Sim PTX: 22500000 instructions simulated : ctaid=(2,7,0) tid=(24,3,0)
GPGPU-Sim PTX: 22600000 instructions simulated : ctaid=(0,6,0) tid=(25,0,0)
GPGPU-Sim uArch: cycles simulated: 88000  inst.: 20171547 (ipc=229.2) sim_rate=305629 (inst/sec) elapsed = 0:0:01:06 / Tue Mar 22 12:47:17 2016
GPGPU-Sim PTX: 22700000 instructions simulated : ctaid=(2,6,0) tid=(24,3,0)
GPGPU-Sim PTX: 22800000 instructions simulated : ctaid=(0,3,0) tid=(1,2,0)
GPGPU-Sim PTX: 22900000 instructions simulated : ctaid=(1,0,0) tid=(12,1,0)
GPGPU-Sim PTX: 23000000 instructions simulated : ctaid=(1,4,0) tid=(10,0,0)
GPGPU-Sim PTX: 23100000 instructions simulated : ctaid=(0,2,0) tid=(5,0,0)
GPGPU-Sim uArch: cycles simulated: 90000  inst.: 20620268 (ipc=229.1) sim_rate=307765 (inst/sec) elapsed = 0:0:01:07 / Tue Mar 22 12:47:18 2016
GPGPU-Sim PTX: 23200000 instructions simulated : ctaid=(0,5,0) tid=(13,1,0)
GPGPU-Sim PTX: 23300000 instructions simulated : ctaid=(1,4,0) tid=(27,0,0)
GPGPU-Sim PTX: 23400000 instructions simulated : ctaid=(0,14,0) tid=(26,2,0)
GPGPU-Sim PTX: 23500000 instructions simulated : ctaid=(0,0,0) tid=(5,3,0)
GPGPU-Sim uArch: cycles simulated: 91500  inst.: 20980870 (ipc=229.3) sim_rate=308542 (inst/sec) elapsed = 0:0:01:08 / Tue Mar 22 12:47:19 2016
GPGPU-Sim PTX: 23600000 instructions simulated : ctaid=(1,6,0) tid=(2,3,0)
GPGPU-Sim PTX: 23700000 instructions simulated : ctaid=(2,10,0) tid=(23,2,0)
GPGPU-Sim PTX: 23800000 instructions simulated : ctaid=(3,3,0) tid=(1,2,0)
GPGPU-Sim PTX: 23900000 instructions simulated : ctaid=(1,4,0) tid=(4,0,0)
GPGPU-Sim uArch: cycles simulated: 93000  inst.: 21330631 (ipc=229.4) sim_rate=309139 (inst/sec) elapsed = 0:0:01:09 / Tue Mar 22 12:47:20 2016
GPGPU-Sim PTX: 24000000 instructions simulated : ctaid=(1,9,0) tid=(18,0,0)
GPGPU-Sim PTX: 24100000 instructions simulated : ctaid=(2,5,0) tid=(6,3,0)
GPGPU-Sim PTX: 24200000 instructions simulated : ctaid=(0,6,0) tid=(20,3,0)
GPGPU-Sim PTX: 24300000 instructions simulated : ctaid=(2,0,0) tid=(0,3,0)
GPGPU-Sim uArch: cycles simulated: 94500  inst.: 21672018 (ipc=229.3) sim_rate=309600 (inst/sec) elapsed = 0:0:01:10 / Tue Mar 22 12:47:21 2016
GPGPU-Sim PTX: 24400000 instructions simulated : ctaid=(1,5,0) tid=(12,1,0)
GPGPU-Sim PTX: 24500000 instructions simulated : ctaid=(1,4,0) tid=(27,2,0)
GPGPU-Sim PTX: 24600000 instructions simulated : ctaid=(0,6,0) tid=(21,3,0)
GPGPU-Sim PTX: 24700000 instructions simulated : ctaid=(1,13,0) tid=(12,1,0)
GPGPU-Sim uArch: cycles simulated: 96000  inst.: 22028593 (ipc=229.5) sim_rate=310261 (inst/sec) elapsed = 0:0:01:11 / Tue Mar 22 12:47:22 2016
GPGPU-Sim PTX: 24800000 instructions simulated : ctaid=(1,4,0) tid=(10,2,0)
GPGPU-Sim PTX: 24900000 instructions simulated : ctaid=(2,4,0) tid=(30,0,0)
GPGPU-Sim PTX: 25000000 instructions simulated : ctaid=(2,6,0) tid=(26,3,0)
GPGPU-Sim PTX: 25100000 instructions simulated : ctaid=(1,2,0) tid=(15,3,0)
GPGPU-Sim uArch: cycles simulated: 97500  inst.: 22386130 (ipc=229.6) sim_rate=310918 (inst/sec) elapsed = 0:0:01:12 / Tue Mar 22 12:47:23 2016
GPGPU-Sim PTX: 25200000 instructions simulated : ctaid=(2,4,0) tid=(2,2,0)
GPGPU-Sim PTX: 25300000 instructions simulated : ctaid=(1,1,0) tid=(12,2,0)
GPGPU-Sim PTX: 25400000 instructions simulated : ctaid=(0,4,0) tid=(18,2,0)
GPGPU-Sim PTX: 25500000 instructions simulated : ctaid=(1,5,0) tid=(10,0,0)
GPGPU-Sim PTX: 25600000 instructions simulated : ctaid=(0,7,0) tid=(15,1,0)
GPGPU-Sim uArch: cycles simulated: 99500  inst.: 22840773 (ipc=229.6) sim_rate=312887 (inst/sec) elapsed = 0:0:01:13 / Tue Mar 22 12:47:24 2016
GPGPU-Sim PTX: 25700000 instructions simulated : ctaid=(1,8,0) tid=(10,2,0)
GPGPU-Sim PTX: 25800000 instructions simulated : ctaid=(2,3,0) tid=(18,3,0)
GPGPU-Sim PTX: 25900000 instructions simulated : ctaid=(2,0,0) tid=(7,1,0)
GPGPU-Sim PTX: 26000000 instructions simulated : ctaid=(1,10,0) tid=(1,1,0)
GPGPU-Sim uArch: cycles simulated: 101000  inst.: 23184774 (ipc=229.6) sim_rate=313307 (inst/sec) elapsed = 0:0:01:14 / Tue Mar 22 12:47:25 2016
GPGPU-Sim PTX: 26100000 instructions simulated : ctaid=(1,0,0) tid=(22,0,0)
GPGPU-Sim PTX: 26200000 instructions simulated : ctaid=(1,6,0) tid=(8,3,0)
GPGPU-Sim PTX: 26300000 instructions simulated : ctaid=(3,2,0) tid=(26,0,0)
GPGPU-Sim PTX: 26400000 instructions simulated : ctaid=(1,3,0) tid=(23,1,0)
GPGPU-Sim uArch: cycles simulated: 102500  inst.: 23535793 (ipc=229.6) sim_rate=313810 (inst/sec) elapsed = 0:0:01:15 / Tue Mar 22 12:47:26 2016
GPGPU-Sim PTX: 26500000 instructions simulated : ctaid=(2,6,0) tid=(7,1,0)
GPGPU-Sim PTX: 26600000 instructions simulated : ctaid=(1,7,0) tid=(14,3,0)
GPGPU-Sim PTX: 26700000 instructions simulated : ctaid=(0,4,0) tid=(25,0,0)
GPGPU-Sim PTX: 26800000 instructions simulated : ctaid=(0,4,0) tid=(24,3,0)
GPGPU-Sim uArch: cycles simulated: 104000  inst.: 23888474 (ipc=229.7) sim_rate=314322 (inst/sec) elapsed = 0:0:01:16 / Tue Mar 22 12:47:27 2016
GPGPU-Sim PTX: 26900000 instructions simulated : ctaid=(0,1,0) tid=(20,1,0)
GPGPU-Sim PTX: 27000000 instructions simulated : ctaid=(1,10,0) tid=(3,1,0)
GPGPU-Sim PTX: 27100000 instructions simulated : ctaid=(1,6,0) tid=(5,2,0)
GPGPU-Sim uArch: cycles simulated: 105500  inst.: 24225879 (ipc=229.6) sim_rate=314621 (inst/sec) elapsed = 0:0:01:17 / Tue Mar 22 12:47:28 2016
GPGPU-Sim PTX: 27200000 instructions simulated : ctaid=(1,2,0) tid=(21,3,0)
GPGPU-Sim PTX: 27300000 instructions simulated : ctaid=(0,6,0) tid=(7,0,0)
GPGPU-Sim PTX: 27400000 instructions simulated : ctaid=(1,2,0) tid=(5,2,0)
GPGPU-Sim PTX: 27500000 instructions simulated : ctaid=(0,5,0) tid=(2,3,0)
GPGPU-Sim PTX: 27600000 instructions simulated : ctaid=(0,4,0) tid=(24,1,0)
GPGPU-Sim PTX: 27700000 instructions simulated : ctaid=(0,11,0) tid=(5,3,0)
GPGPU-Sim uArch: cycles simulated: 107500  inst.: 24690082 (ipc=229.7) sim_rate=316539 (inst/sec) elapsed = 0:0:01:18 / Tue Mar 22 12:47:29 2016
GPGPU-Sim PTX: 27800000 instructions simulated : ctaid=(0,5,0) tid=(20,0,0)
GPGPU-Sim PTX: 27900000 instructions simulated : ctaid=(2,6,0) tid=(31,3,0)
GPGPU-Sim PTX: 28000000 instructions simulated : ctaid=(3,3,0) tid=(0,1,0)
GPGPU-Sim PTX: 28100000 instructions simulated : ctaid=(2,3,0) tid=(16,3,0)
GPGPU-Sim uArch: cycles simulated: 109000  inst.: 25038727 (ipc=229.7) sim_rate=316945 (inst/sec) elapsed = 0:0:01:19 / Tue Mar 22 12:47:30 2016
GPGPU-Sim PTX: 28200000 instructions simulated : ctaid=(2,1,0) tid=(12,0,0)
GPGPU-Sim PTX: 28300000 instructions simulated : ctaid=(1,7,0) tid=(14,0,0)
GPGPU-Sim PTX: 28400000 instructions simulated : ctaid=(3,7,0) tid=(1,1,0)
GPGPU-Sim PTX: 28500000 instructions simulated : ctaid=(0,0,0) tid=(16,3,0)
GPGPU-Sim uArch: cycles simulated: 110500  inst.: 25398797 (ipc=229.9) sim_rate=317484 (inst/sec) elapsed = 0:0:01:20 / Tue Mar 22 12:47:31 2016
GPGPU-Sim PTX: 28600000 instructions simulated : ctaid=(0,7,0) tid=(21,0,0)
GPGPU-Sim uArch: Shader 3 finished CTA #0 (110765,0), 6 CTAs running
GPGPU-Sim uArch: Shader 2 finished CTA #0 (110799,0), 6 CTAs running
GPGPU-Sim uArch: Shader 4 finished CTA #0 (110800,0), 6 CTAs running
GPGPU-Sim uArch: Shader 1 finished CTA #0 (110831,0), 6 CTAs running
GPGPU-Sim PTX: 28700000 instructions simulated : ctaid=(0,4,0) tid=(17,0,0)
GPGPU-Sim uArch: Shader 6 finished CTA #0 (111156,0), 6 CTAs running
GPGPU-Sim uArch: Shader 7 finished CTA #0 (111180,0), 6 CTAs running
GPGPU-Sim uArch: Shader 8 finished CTA #0 (111208,0), 6 CTAs running
GPGPU-Sim uArch: Shader 5 finished CTA #0 (111212,0), 6 CTAs running
GPGPU-Sim PTX: 28800000 instructions simulated : ctaid=(1,12,0) tid=(8,1,0)
GPGPU-Sim uArch: Shader 10 finished CTA #0 (111583,0), 6 CTAs running
GPGPU-Sim uArch: Shader 11 finished CTA #0 (111634,0), 5 CTAs running
GPGPU-Sim uArch: Shader 12 finished CTA #0 (111638,0), 5 CTAs running
GPGPU-Sim uArch: Shader 9 finished CTA #0 (111649,0), 6 CTAs running
GPGPU-Sim PTX: 28900000 instructions simulated : ctaid=(2,14,0) tid=(27,2,0)
GPGPU-Sim uArch: Shader 14 finished CTA #0 (111999,0), 5 CTAs running
GPGPU-Sim uArch: cycles simulated: 112000  inst.: 25784646 (ipc=230.2) sim_rate=318328 (inst/sec) elapsed = 0:0:01:21 / Tue Mar 22 12:47:32 2016
GPGPU-Sim uArch: Shader 0 finished CTA #0 (112011,0), 5 CTAs running
GPGPU-Sim uArch: Shader 1 finished CTA #1 (112013,0), 5 CTAs running
GPGPU-Sim uArch: Shader 13 finished CTA #0 (112060,0), 5 CTAs running
GPGPU-Sim PTX: 29000000 instructions simulated : ctaid=(1,9,0) tid=(21,1,0)
GPGPU-Sim uArch: Shader 4 finished CTA #1 (112422,0), 5 CTAs running
GPGPU-Sim uArch: Shader 3 finished CTA #1 (112434,0), 5 CTAs running
GPGPU-Sim uArch: Shader 5 finished CTA #1 (112450,0), 5 CTAs running
GPGPU-Sim uArch: Shader 2 finished CTA #1 (112485,0), 5 CTAs running
GPGPU-Sim PTX: 29100000 instructions simulated : ctaid=(2,7,0) tid=(18,0,0)
GPGPU-Sim PTX: 29200000 instructions simulated : ctaid=(3,10,0) tid=(25,2,0)
GPGPU-Sim uArch: Shader 8 finished CTA #1 (113014,0), 5 CTAs running
GPGPU-Sim uArch: Shader 9 finished CTA #1 (113035,0), 5 CTAs running
GPGPU-Sim uArch: Shader 7 finished CTA #1 (113047,0), 5 CTAs running
GPGPU-Sim uArch: Shader 6 finished CTA #1 (113137,0), 5 CTAs running
GPGPU-Sim PTX: 29300000 instructions simulated : ctaid=(0,10,0) tid=(17,1,0)
GPGPU-Sim uArch: cycles simulated: 113500  inst.: 26149648 (ipc=230.4) sim_rate=318898 (inst/sec) elapsed = 0:0:01:22 / Tue Mar 22 12:47:33 2016
GPGPU-Sim uArch: Shader 11 finished CTA #1 (113514,0), 4 CTAs running
GPGPU-Sim uArch: Shader 12 finished CTA #1 (113520,0), 4 CTAs running
GPGPU-Sim uArch: Shader 13 finished CTA #1 (113522,0), 4 CTAs running
GPGPU-Sim uArch: Shader 10 finished CTA #1 (113526,0), 5 CTAs running
GPGPU-Sim PTX: 29400000 instructions simulated : ctaid=(0,11,0) tid=(7,0,0)
GPGPU-Sim uArch: Shader 0 finished CTA #1 (113823,0), 4 CTAs running
GPGPU-Sim uArch: Shader 14 finished CTA #1 (113880,0), 4 CTAs running
GPGPU-Sim PTX: 29500000 instructions simulated : ctaid=(1,8,0) tid=(16,0,0)
GPGPU-Sim PTX: 29600000 instructions simulated : ctaid=(2,14,0) tid=(1,1,0)
GPGPU-Sim PTX: 29700000 instructions simulated : ctaid=(2,7,0) tid=(8,2,0)
GPGPU-Sim uArch: cycles simulated: 115000  inst.: 26482408 (ipc=230.3) sim_rate=319065 (inst/sec) elapsed = 0:0:01:23 / Tue Mar 22 12:47:34 2016
GPGPU-Sim PTX: 29800000 instructions simulated : ctaid=(1,11,0) tid=(3,3,0)
GPGPU-Sim PTX: 29900000 instructions simulated : ctaid=(0,10,0) tid=(1,0,0)
GPGPU-Sim PTX: 30000000 instructions simulated : ctaid=(2,13,0) tid=(2,0,0)
GPGPU-Sim PTX: 30100000 instructions simulated : ctaid=(1,14,0) tid=(25,2,0)
GPGPU-Sim uArch: cycles simulated: 116500  inst.: 26825510 (ipc=230.3) sim_rate=319351 (inst/sec) elapsed = 0:0:01:24 / Tue Mar 22 12:47:35 2016
GPGPU-Sim PTX: 30200000 instructions simulated : ctaid=(2,13,0) tid=(31,1,0)
GPGPU-Sim PTX: 30300000 instructions simulated : ctaid=(2,16,0) tid=(12,2,0)
GPGPU-Sim PTX: 30400000 instructions simulated : ctaid=(1,13,0) tid=(4,1,0)
GPGPU-Sim PTX: 30500000 instructions simulated : ctaid=(3,24,0) tid=(27,0,0)
GPGPU-Sim uArch: cycles simulated: 118500  inst.: 27236938 (ipc=229.8) sim_rate=320434 (inst/sec) elapsed = 0:0:01:25 / Tue Mar 22 12:47:36 2016
GPGPU-Sim PTX: 30600000 instructions simulated : ctaid=(3,12,0) tid=(0,2,0)
GPGPU-Sim PTX: 30700000 instructions simulated : ctaid=(0,13,0) tid=(25,0,0)
GPGPU-Sim PTX: 30800000 instructions simulated : ctaid=(0,11,0) tid=(23,0,0)
GPGPU-Sim PTX: 30900000 instructions simulated : ctaid=(0,13,0) tid=(27,0,0)
GPGPU-Sim uArch: cycles simulated: 120000  inst.: 27575182 (ipc=229.8) sim_rate=320641 (inst/sec) elapsed = 0:0:01:26 / Tue Mar 22 12:47:37 2016
GPGPU-Sim PTX: 31000000 instructions simulated : ctaid=(3,13,0) tid=(21,0,0)
GPGPU-Sim PTX: 31100000 instructions simulated : ctaid=(1,9,0) tid=(14,2,0)
GPGPU-Sim PTX: 31200000 instructions simulated : ctaid=(0,8,0) tid=(16,0,0)
GPGPU-Sim PTX: 31300000 instructions simulated : ctaid=(2,11,0) tid=(23,3,0)
GPGPU-Sim uArch: cycles simulated: 121500  inst.: 27894378 (ipc=229.6) sim_rate=320625 (inst/sec) elapsed = 0:0:01:27 / Tue Mar 22 12:47:38 2016
GPGPU-Sim PTX: 31400000 instructions simulated : ctaid=(2,9,0) tid=(10,1,0)
GPGPU-Sim PTX: 31500000 instructions simulated : ctaid=(1,9,0) tid=(16,3,0)
GPGPU-Sim PTX: 31600000 instructions simulated : ctaid=(2,7,0) tid=(29,3,0)
GPGPU-Sim uArch: cycles simulated: 123000  inst.: 28229978 (ipc=229.5) sim_rate=320795 (inst/sec) elapsed = 0:0:01:28 / Tue Mar 22 12:47:39 2016
GPGPU-Sim PTX: 31700000 instructions simulated : ctaid=(1,11,0) tid=(13,3,0)
GPGPU-Sim PTX: 31800000 instructions simulated : ctaid=(1,12,0) tid=(15,1,0)
GPGPU-Sim PTX: 31900000 instructions simulated : ctaid=(1,12,0) tid=(17,2,0)
GPGPU-Sim PTX: 32000000 instructions simulated : ctaid=(0,17,0) tid=(11,1,0)
GPGPU-Sim uArch: cycles simulated: 124500  inst.: 28575180 (ipc=229.5) sim_rate=321069 (inst/sec) elapsed = 0:0:01:29 / Tue Mar 22 12:47:40 2016
GPGPU-Sim PTX: 32100000 instructions simulated : ctaid=(1,11,0) tid=(16,1,0)
GPGPU-Sim PTX: 32200000 instructions simulated : ctaid=(0,8,0) tid=(14,0,0)
GPGPU-Sim PTX: 32300000 instructions simulated : ctaid=(2,10,0) tid=(22,0,0)
GPGPU-Sim PTX: 32400000 instructions simulated : ctaid=(2,7,0) tid=(22,1,0)
GPGPU-Sim uArch: cycles simulated: 126000  inst.: 28908721 (ipc=229.4) sim_rate=321208 (inst/sec) elapsed = 0:0:01:30 / Tue Mar 22 12:47:41 2016
GPGPU-Sim PTX: 32500000 instructions simulated : ctaid=(2,9,0) tid=(10,0,0)
GPGPU-Sim PTX: 32600000 instructions simulated : ctaid=(2,13,0) tid=(23,1,0)
GPGPU-Sim PTX: 32700000 instructions simulated : ctaid=(0,14,0) tid=(8,1,0)
GPGPU-Sim PTX: 32800000 instructions simulated : ctaid=(0,8,0) tid=(25,1,0)
GPGPU-Sim PTX: 32900000 instructions simulated : ctaid=(0,14,0) tid=(27,1,0)
GPGPU-Sim uArch: cycles simulated: 128000  inst.: 29379499 (ipc=229.5) sim_rate=322851 (inst/sec) elapsed = 0:0:01:31 / Tue Mar 22 12:47:42 2016
GPGPU-Sim PTX: 33000000 instructions simulated : ctaid=(2,7,0) tid=(0,0,0)
GPGPU-Sim PTX: 33100000 instructions simulated : ctaid=(1,9,0) tid=(19,2,0)
GPGPU-Sim PTX: 33200000 instructions simulated : ctaid=(0,13,0) tid=(3,2,0)
GPGPU-Sim PTX: 33300000 instructions simulated : ctaid=(3,11,0) tid=(21,3,0)
GPGPU-Sim uArch: cycles simulated: 129500  inst.: 29695091 (ipc=229.3) sim_rate=322772 (inst/sec) elapsed = 0:0:01:32 / Tue Mar 22 12:47:43 2016
GPGPU-Sim PTX: 33400000 instructions simulated : ctaid=(1,10,0) tid=(27,2,0)
GPGPU-Sim PTX: 33500000 instructions simulated : ctaid=(1,10,0) tid=(25,1,0)
GPGPU-Sim PTX: 33600000 instructions simulated : ctaid=(1,8,0) tid=(9,0,0)
GPGPU-Sim PTX: 33700000 instructions simulated : ctaid=(2,9,0) tid=(25,2,0)
GPGPU-Sim uArch: cycles simulated: 131000  inst.: 30067943 (ipc=229.5) sim_rate=323311 (inst/sec) elapsed = 0:0:01:33 / Tue Mar 22 12:47:44 2016
GPGPU-Sim PTX: 33800000 instructions simulated : ctaid=(2,13,0) tid=(9,3,0)
GPGPU-Sim PTX: 33900000 instructions simulated : ctaid=(1,17,0) tid=(7,0,0)
GPGPU-Sim PTX: 34000000 instructions simulated : ctaid=(0,9,0) tid=(0,1,0)
GPGPU-Sim PTX: 34100000 instructions simulated : ctaid=(2,11,0) tid=(26,1,0)
GPGPU-Sim uArch: cycles simulated: 132500  inst.: 30407557 (ipc=229.5) sim_rate=323484 (inst/sec) elapsed = 0:0:01:34 / Tue Mar 22 12:47:45 2016
GPGPU-Sim PTX: 34200000 instructions simulated : ctaid=(2,9,0) tid=(29,2,0)
GPGPU-Sim PTX: 34300000 instructions simulated : ctaid=(1,13,0) tid=(0,1,0)
GPGPU-Sim PTX: 34400000 instructions simulated : ctaid=(1,11,0) tid=(18,1,0)
GPGPU-Sim PTX: 34500000 instructions simulated : ctaid=(1,11,0) tid=(2,1,0)
GPGPU-Sim uArch: cycles simulated: 134000  inst.: 30724794 (ipc=229.3) sim_rate=323418 (inst/sec) elapsed = 0:0:01:35 / Tue Mar 22 12:47:46 2016
GPGPU-Sim PTX: 34600000 instructions simulated : ctaid=(2,9,0) tid=(13,0,0)
GPGPU-Sim PTX: 34700000 instructions simulated : ctaid=(1,10,0) tid=(12,0,0)
GPGPU-Sim PTX: 34800000 instructions simulated : ctaid=(1,10,0) tid=(4,2,0)
GPGPU-Sim PTX: 34900000 instructions simulated : ctaid=(1,9,0) tid=(26,2,0)
GPGPU-Sim uArch: cycles simulated: 135500  inst.: 31105488 (ipc=229.6) sim_rate=324015 (inst/sec) elapsed = 0:0:01:36 / Tue Mar 22 12:47:47 2016
GPGPU-Sim PTX: 35000000 instructions simulated : ctaid=(2,13,0) tid=(8,0,0)
GPGPU-Sim PTX: 35100000 instructions simulated : ctaid=(0,11,0) tid=(12,0,0)
GPGPU-Sim PTX: 35200000 instructions simulated : ctaid=(0,12,0) tid=(12,0,0)
GPGPU-Sim uArch: cycles simulated: 137000  inst.: 31434777 (ipc=229.5) sim_rate=324069 (inst/sec) elapsed = 0:0:01:37 / Tue Mar 22 12:47:48 2016
GPGPU-Sim PTX: 35300000 instructions simulated : ctaid=(0,10,0) tid=(29,1,0)
GPGPU-Sim PTX: 35400000 instructions simulated : ctaid=(0,9,0) tid=(18,2,0)
GPGPU-Sim PTX: 35500000 instructions simulated : ctaid=(2,11,0) tid=(18,2,0)
GPGPU-Sim PTX: 35600000 instructions simulated : ctaid=(1,12,0) tid=(24,0,0)
GPGPU-Sim uArch: cycles simulated: 138500  inst.: 31783080 (ipc=229.5) sim_rate=324317 (inst/sec) elapsed = 0:0:01:38 / Tue Mar 22 12:47:49 2016
GPGPU-Sim PTX: 35700000 instructions simulated : ctaid=(2,16,0) tid=(11,2,0)
GPGPU-Sim PTX: 35800000 instructions simulated : ctaid=(2,10,0) tid=(29,1,0)
GPGPU-Sim PTX: 35900000 instructions simulated : ctaid=(0,8,0) tid=(18,2,0)
GPGPU-Sim PTX: 36000000 instructions simulated : ctaid=(2,16,0) tid=(15,1,0)
GPGPU-Sim PTX: 36100000 instructions simulated : ctaid=(0,12,0) tid=(3,3,0)
GPGPU-Sim uArch: cycles simulated: 140000  inst.: 32147193 (ipc=229.6) sim_rate=324719 (inst/sec) elapsed = 0:0:01:39 / Tue Mar 22 12:47:50 2016
GPGPU-Sim PTX: 36200000 instructions simulated : ctaid=(0,13,0) tid=(30,1,0)
GPGPU-Sim PTX: 36300000 instructions simulated : ctaid=(1,10,0) tid=(0,3,0)
GPGPU-Sim PTX: 36400000 instructions simulated : ctaid=(1,8,0) tid=(10,0,0)
GPGPU-Sim PTX: 36500000 instructions simulated : ctaid=(1,12,0) tid=(18,0,0)
GPGPU-Sim PTX: 36600000 instructions simulated : ctaid=(1,9,0) tid=(17,0,0)
GPGPU-Sim uArch: cycles simulated: 142000  inst.: 32595907 (ipc=229.5) sim_rate=325959 (inst/sec) elapsed = 0:0:01:40 / Tue Mar 22 12:47:51 2016
GPGPU-Sim PTX: 36700000 instructions simulated : ctaid=(0,11,0) tid=(6,1,0)
GPGPU-Sim PTX: 36800000 instructions simulated : ctaid=(1,9,0) tid=(17,3,0)
GPGPU-Sim PTX: 36900000 instructions simulated : ctaid=(1,10,0) tid=(28,1,0)
GPGPU-Sim PTX: 37000000 instructions simulated : ctaid=(3,9,0) tid=(0,2,0)
GPGPU-Sim uArch: cycles simulated: 143500  inst.: 32963993 (ipc=229.7) sim_rate=326376 (inst/sec) elapsed = 0:0:01:41 / Tue Mar 22 12:47:52 2016
GPGPU-Sim PTX: 37100000 instructions simulated : ctaid=(1,9,0) tid=(19,0,0)
GPGPU-Sim PTX: 37200000 instructions simulated : ctaid=(1,13,0) tid=(14,2,0)
GPGPU-Sim PTX: 37300000 instructions simulated : ctaid=(3,15,0) tid=(9,0,0)
GPGPU-Sim uArch: cycles simulated: 145000  inst.: 33278275 (ipc=229.5) sim_rate=326257 (inst/sec) elapsed = 0:0:01:42 / Tue Mar 22 12:47:53 2016
GPGPU-Sim PTX: 37400000 instructions simulated : ctaid=(2,8,0) tid=(30,0,0)
GPGPU-Sim PTX: 37500000 instructions simulated : ctaid=(1,14,0) tid=(13,3,0)
GPGPU-Sim PTX: 37600000 instructions simulated : ctaid=(2,8,0) tid=(6,0,0)
GPGPU-Sim PTX: 37700000 instructions simulated : ctaid=(0,9,0) tid=(14,3,0)
GPGPU-Sim uArch: cycles simulated: 146500  inst.: 33636250 (ipc=229.6) sim_rate=326565 (inst/sec) elapsed = 0:0:01:43 / Tue Mar 22 12:47:54 2016
GPGPU-Sim PTX: 37800000 instructions simulated : ctaid=(0,13,0) tid=(5,2,0)
GPGPU-Sim PTX: 37900000 instructions simulated : ctaid=(0,12,0) tid=(12,0,0)
GPGPU-Sim PTX: 38000000 instructions simulated : ctaid=(1,16,0) tid=(2,3,0)
GPGPU-Sim PTX: 38100000 instructions simulated : ctaid=(2,8,0) tid=(8,3,0)
GPGPU-Sim uArch: cycles simulated: 148000  inst.: 34000098 (ipc=229.7) sim_rate=326924 (inst/sec) elapsed = 0:0:01:44 / Tue Mar 22 12:47:55 2016
GPGPU-Sim PTX: 38200000 instructions simulated : ctaid=(2,15,0) tid=(14,0,0)
GPGPU-Sim PTX: 38300000 instructions simulated : ctaid=(3,11,0) tid=(2,2,0)
GPGPU-Sim PTX: 38400000 instructions simulated : ctaid=(1,12,0) tid=(19,0,0)
GPGPU-Sim PTX: 38500000 instructions simulated : ctaid=(0,10,0) tid=(23,1,0)
GPGPU-Sim uArch: cycles simulated: 149500  inst.: 34323094 (ipc=229.6) sim_rate=326886 (inst/sec) elapsed = 0:0:01:45 / Tue Mar 22 12:47:56 2016
GPGPU-Sim PTX: 38600000 instructions simulated : ctaid=(0,8,0) tid=(0,1,0)
GPGPU-Sim PTX: 38700000 instructions simulated : ctaid=(2,14,0) tid=(24,1,0)
GPGPU-Sim PTX: 38800000 instructions simulated : ctaid=(1,17,0) tid=(24,2,0)
GPGPU-Sim PTX: 38900000 instructions simulated : ctaid=(1,9,0) tid=(15,1,0)
GPGPU-Sim uArch: cycles simulated: 151000  inst.: 34676658 (ipc=229.6) sim_rate=327138 (inst/sec) elapsed = 0:0:01:46 / Tue Mar 22 12:47:57 2016
GPGPU-Sim PTX: 39000000 instructions simulated : ctaid=(1,12,0) tid=(5,2,0)
GPGPU-Sim PTX: 39100000 instructions simulated : ctaid=(1,21,0) tid=(22,3,0)
GPGPU-Sim PTX: 39200000 instructions simulated : ctaid=(0,10,0) tid=(30,2,0)
GPGPU-Sim PTX: 39300000 instructions simulated : ctaid=(2,12,0) tid=(11,0,0)
GPGPU-Sim uArch: cycles simulated: 152500  inst.: 35045551 (ipc=229.8) sim_rate=327528 (inst/sec) elapsed = 0:0:01:47 / Tue Mar 22 12:47:58 2016
GPGPU-Sim PTX: 39400000 instructions simulated : ctaid=(1,9,0) tid=(17,1,0)
GPGPU-Sim PTX: 39500000 instructions simulated : ctaid=(2,8,0) tid=(30,1,0)
GPGPU-Sim PTX: 39600000 instructions simulated : ctaid=(2,15,0) tid=(0,3,0)
GPGPU-Sim PTX: 39700000 instructions simulated : ctaid=(2,9,0) tid=(1,0,0)
GPGPU-Sim uArch: cycles simulated: 154000  inst.: 35374142 (ipc=229.7) sim_rate=327538 (inst/sec) elapsed = 0:0:01:48 / Tue Mar 22 12:47:59 2016
GPGPU-Sim PTX: 39800000 instructions simulated : ctaid=(2,10,0) tid=(0,2,0)
GPGPU-Sim PTX: 39900000 instructions simulated : ctaid=(2,14,0) tid=(7,1,0)
GPGPU-Sim PTX: 40000000 instructions simulated : ctaid=(1,14,0) tid=(6,2,0)
GPGPU-Sim PTX: 40100000 instructions simulated : ctaid=(1,10,0) tid=(0,1,0)
GPGPU-Sim uArch: cycles simulated: 155500  inst.: 35717350 (ipc=229.7) sim_rate=327682 (inst/sec) elapsed = 0:0:01:49 / Tue Mar 22 12:48:00 2016
GPGPU-Sim PTX: 40200000 instructions simulated : ctaid=(0,12,0) tid=(31,3,0)
GPGPU-Sim PTX: 40300000 instructions simulated : ctaid=(1,9,0) tid=(17,3,0)
GPGPU-Sim uArch: cycles simulated: 156500  inst.: 35952491 (ipc=229.7) sim_rate=326840 (inst/sec) elapsed = 0:0:01:50 / Tue Mar 22 12:48:01 2016
GPGPU-Sim PTX: 40400000 instructions simulated : ctaid=(0,13,0) tid=(26,1,0)
GPGPU-Sim PTX: 40500000 instructions simulated : ctaid=(2,14,0) tid=(7,2,0)
GPGPU-Sim PTX: 40600000 instructions simulated : ctaid=(0,17,0) tid=(12,2,0)
GPGPU-Sim PTX: 40700000 instructions simulated : ctaid=(0,10,0) tid=(25,2,0)
GPGPU-Sim uArch: cycles simulated: 158000  inst.: 36317127 (ipc=229.9) sim_rate=327181 (inst/sec) elapsed = 0:0:01:51 / Tue Mar 22 12:48:02 2016
GPGPU-Sim PTX: 40800000 instructions simulated : ctaid=(3,12,0) tid=(29,0,0)
GPGPU-Sim PTX: 40900000 instructions simulated : ctaid=(2,17,0) tid=(27,0,0)
GPGPU-Sim PTX: 41000000 instructions simulated : ctaid=(1,11,0) tid=(10,0,0)
GPGPU-Sim PTX: 41100000 instructions simulated : ctaid=(2,7,0) tid=(18,1,0)
GPGPU-Sim uArch: cycles simulated: 159500  inst.: 36644781 (ipc=229.7) sim_rate=327185 (inst/sec) elapsed = 0:0:01:52 / Tue Mar 22 12:48:03 2016
GPGPU-Sim PTX: 41200000 instructions simulated : ctaid=(1,11,0) tid=(1,3,0)
GPGPU-Sim PTX: 41300000 instructions simulated : ctaid=(1,13,0) tid=(17,3,0)
GPGPU-Sim PTX: 41400000 instructions simulated : ctaid=(1,17,0) tid=(13,1,0)
GPGPU-Sim PTX: 41500000 instructions simulated : ctaid=(0,17,0) tid=(6,3,0)
GPGPU-Sim uArch: cycles simulated: 161000  inst.: 36995079 (ipc=229.8) sim_rate=327390 (inst/sec) elapsed = 0:0:01:53 / Tue Mar 22 12:48:04 2016
GPGPU-Sim PTX: 41600000 instructions simulated : ctaid=(2,12,0) tid=(29,1,0)
GPGPU-Sim PTX: 41700000 instructions simulated : ctaid=(2,14,0) tid=(28,0,0)
GPGPU-Sim PTX: 41800000 instructions simulated : ctaid=(0,8,0) tid=(24,0,0)
GPGPU-Sim uArch: cycles simulated: 162000  inst.: 37233250 (ipc=229.8) sim_rate=326607 (inst/sec) elapsed = 0:0:01:54 / Tue Mar 22 12:48:05 2016
GPGPU-Sim PTX: 41900000 instructions simulated : ctaid=(2,12,0) tid=(1,3,0)
GPGPU-Sim PTX: 42000000 instructions simulated : ctaid=(0,11,0) tid=(10,2,0)
GPGPU-Sim PTX: 42100000 instructions simulated : ctaid=(0,13,0) tid=(10,0,0)
GPGPU-Sim PTX: 42200000 instructions simulated : ctaid=(2,8,0) tid=(22,0,0)
GPGPU-Sim uArch: cycles simulated: 163500  inst.: 37582929 (ipc=229.9) sim_rate=326808 (inst/sec) elapsed = 0:0:01:55 / Tue Mar 22 12:48:06 2016
GPGPU-Sim PTX: 42300000 instructions simulated : ctaid=(2,11,0) tid=(10,0,0)
GPGPU-Sim PTX: 42400000 instructions simulated : ctaid=(2,18,0) tid=(18,3,0)
GPGPU-Sim PTX: 42500000 instructions simulated : ctaid=(1,12,0) tid=(4,0,0)
GPGPU-Sim uArch: cycles simulated: 165000  inst.: 37923942 (ipc=229.8) sim_rate=326930 (inst/sec) elapsed = 0:0:01:56 / Tue Mar 22 12:48:07 2016
GPGPU-Sim PTX: 42600000 instructions simulated : ctaid=(0,8,0) tid=(1,3,0)
GPGPU-Sim PTX: 42700000 instructions simulated : ctaid=(3,10,0) tid=(5,0,0)
GPGPU-Sim PTX: 42800000 instructions simulated : ctaid=(0,11,0) tid=(23,2,0)
GPGPU-Sim PTX: 42900000 instructions simulated : ctaid=(0,8,0) tid=(22,1,0)
[...]
traffic_breakdown_memtocore[GLOBAL_ACC_R] = 15231048 {136:111993,}
traffic_breakdown_memtocore[GLOBAL_ACC_W] = 530000 {8:66250,}
traffic_breakdown_memtocore[INST_ACC_R] = 28560 {136:210,}
maxmrqlatency = 233 
maxdqlatency = 0 
maxmflatency = 553 
averagemflatency = 240 
max_icnt2mem_latency = 101 
max_icnt2sh_latency = 369990 
mrq_lat_table:59030 	3446 	3646 	14241 	32330 	16654 	2502 	115 	0 	0 	0 	0 	0 	0 	0 	0 	0 	0 	0 	0 	0 	0 	0 	0 	0 	0 	0 	0 	0 	0 	0 	0 	
dq_lat_table:0 	0 	0 	0 	0 	0 	0 	0 	0 	0 	0 	0 	0 	0 	0 	0 	0 	0 	0 	0 	0 	0 	0 	0 	0 	0 	0 	0 	0 	0 	0 	0 	
mf_lat_table:0 	0 	0 	0 	0 	0 	0 	68533 	109689 	36 	0 	0 	0 	0 	0 	0 	0 	0 	0 	0 	0 	0 	0 	0 	0 	0 	0 	0 	0 	0 	0 	0 	
icnt2mem_lat_table:0 	0 	0 	135317 	39271 	3812 	68 	0 	0 	0 	0 	0 	0 	0 	0 	0 	0 	0 	0 	0 	0 	0 	0 	0 	
icnt2sh_lat_table:0 	0 	0 	42174 	58804 	10976 	54 	0 	0 	0 	0 	0 	799 	1594 	3480 	6955 	13866 	27302 	12254 	0 	0 	0 	0 	0 	
mf_lat_pw_table:0 	0 	0 	0 	0 	0 	0 	643 	95 	0 	0 	0 	0 	0 	0 	0 	0 	0 	0 	0 	0 	0 	0 	0 	0 	0 	0 	0 	0 	0 	0 	0 	
maximum concurrent accesses to same row:
dram[0]:        26        19        26        19        16        20        25        26        25        25        23        20        17        19        20        20 
dram[1]:        27        18        27        18        19        20        26        29        27        24        24        20        25        21        25        20 
dram[2]:        27        21        26        23        26        18        26        20        26        25        27        22        19        18        15        15 
dram[3]:        25        19        27        22        20        18        26        19        27        26        26        18        16        21        24        15 
dram[4]:        24        18        26        21        20        20        25        24        27        24        26        19        21        25        26        18 
dram[5]:        18        22        21        24        19        21        26        22        25        23        22        19        19        26        20        19 
maximum service time to same row:
dram[0]:      9916      9653     11084     10979     11056     10880     10715     10768     10164      7797      7122      7253      9353      9151      9265      9391 
dram[1]:     10155      9824     11069     10910     11052     10895     10710     10896      9787      7367      8215      9233      9400      9170      9525     10338 
dram[2]:      9366      9840     11087     10907     11084     10947     10719     10894      9397      7687      9607      9159      9561      9231      9502      9359 
dram[3]:      9422      9812     11072     10985     11068     10887     10716     10905      8692      7580      9848      9132      9520      9175      9564      9355 
dram[4]:      9388      9832     11091     10913     10519     10331     10717     10913      9706      9290      7230      9204      9502      9667      9522      9341 
dram[5]:      9459      9881     11022     10925     10392     10395     10723     10886      9643      9099      9846      8059      9385      8778      9393      9428 
average row accesses per activate:
dram[0]:  2.764344  2.924078  2.788066  2.947253  2.781893  2.925054  2.807157  2.885246  2.867589  2.770398  3.043668  2.791919  2.924242  2.867238  2.836864  2.785276 
dram[1]:  2.958515  2.653543  2.922078  2.827004  2.937093  2.969499  2.869919  2.857434  2.791506  2.868885  2.796000  2.798387  2.888651  2.921909  2.828753  2.788934 
dram[2]:  2.820459  2.764706  2.876068  2.815735  2.925926  2.954048  2.943396  2.751468  2.865346  2.791271  3.070022  2.815416  2.934640  2.840764  2.803347  2.837161 
dram[3]:  2.962882  2.778688  2.975610  2.797101  2.828452  2.978022  2.733855  2.866255  2.847826  2.811787  2.899177  2.803246  2.827368  2.816284  2.908696  2.820084 
dram[4]:  2.964758  2.848421  3.008969  2.748491  3.038031  2.934783  2.961864  2.814516  2.913131  2.823643  2.922594  2.820408  2.847780  3.002227  2.857447  2.854701 
dram[5]:  2.765914  2.841438  2.916849  2.909871  3.000000  2.997783  2.908333  2.836694  2.805825  2.776718  2.880658  2.699612  2.971239  2.805845  2.885835  2.852564 
average row locality = 131964/46098 = 2.862684
number of total memory accesses made:
dram[0]:         0         0         0         0         0         0         0         0         0         0         0         0         0         0         0         0 
dram[1]:         0         0         0         0         0         0         0         0         0         0         0         0         0         0         0         0 
dram[2]:         0         0         0         0         0         0         0         0         0         0         0         0         0         0         0         0 
dram[3]:         0         0         0         0         0         0         0         0         0         0         0         0         0         0         0         0 
dram[4]:         0         0         0         0         0         0         0         0         0         0         0         0         0         0         0         0 
dram[5]:         0         0         0         0         0         0         0         0         0         0         0         0         0         0         0         0 
total accesses: 0
min_bank_accesses = 0!
min_chip_accesses = 0!
number of total read accesses:
dram[0]:       704       711       714       705       713       716       757       774       753       757       722       721       708       706       704       712 
dram[1]:       699       714       710       704       716       718       760       767       754       757       720       726       705       710       700       714 
dram[2]:       701       725       707       713       708       716       755       769       753       760       721       726       711       698       705       709 
dram[3]:       708       719       705       704       712       714       751       750       750       764       725       724       705       706       702       707 
dram[4]:       701       714       702       715       711       714       759       759       749       750       721       720       712       703       704       697 
dram[5]:       712       708       702       706       714       717       760       759       749       747       723       728       708       698       717       699 
total reads: 69352
bank skew: 774/697 = 1.11
chip skew: 11577/11531 = 1.00
number of total write accesses:
dram[0]:       645       637       641       636       639       650       655       634       698       703       672       661       643       633       635       650 
dram[1]:       656       634       640       636       638       645       652       636       692       709       678       662       644       637       638       647 
dram[2]:       650       638       639       647       635       634       649       637       694       711       682       662       636       640       635       650 
dram[3]:       649       637       637       647       640       641       646       643       691       715       684       658       638       643       636       641 
dram[4]:       645       639       640       651       647       636       639       637       693       707       676       662       635       645       639       639 
dram[5]:       635       636       631       650       639       635       636       648       696       708       677       665       635       646       648       636 
total reads: 62612
bank skew: 715/631 = 1.13
chip skew: 10446/10421 = 1.00
average mf latency per bank:
dram[0]:        328       321       323       321       325       329       336       340       317       320       318       323       324       324       324       325
dram[1]:        327       324       325       322       326       330       338       339       321       321       320       319       320       323       322       325
dram[2]:        329       320       325       321       328       332       334       338       323       317       322       318       328       321       324       321
dram[3]:        328       321       329       321       336       328       337       334       319       318       319       323       321       324       322       322
dram[4]:        323       322       326       320       332       330       342       336       320       313       323       316       327       325       325       321
dram[5]:        324       320       326       323       331       332       339       338       315       318       319       320       326       324       321       323
maximum mf latency per bank:
dram[0]:        420       387       445       386       395       373       444       399       481       544       424       477       412       460       408       466
dram[1]:        430       391       412       397       390       517       387       401       510       539       461       436       408       405       498       419
dram[2]:        444       411       429       351       472       469       415       398       546       489       454       471       444       385       403       434
dram[3]:        459       372       474       401       443       388       416       399       515       553       493       423       427       428       496       448
dram[4]:        428       381       461       406       396       361       417       400       519       425       525       402       447       502       412       378
dram[5]:        483       393       382       406       382       387       418       415       498       478       468       468       394       458       425       411

Number of Memory Banks Accessed per Memory Operation per Warp (from 0):
0	0	0	0	0	0	0	0	0	0	0	0	0	0	0	0	0	0	0	0	0	0	0	0	0	0	0	0	0	0	0	0	0	0	0	0	0	0	0	0	0	0	0	0	0	0	0	0	0	0	0	0	0	0	0	0	0	0	0	0	0	0	0	0	0	0	0	0	0	0	0	0	0	0	0	0	0	0	0	0	0	0	0	0	0	0	0	0	0	0	0	0	0	0	0	0	
Average # of Memory Banks Accessed per Memory Operation per Warp=-nan

position of mrq chosen
0	0	0	0	0	0	0	0	0	0	0	0	0	0	0	0	

average position of mrq chosen = -nan
Memory Partition 0: 
Cache L2_bank_000:
MSHR contents

Cache L2_bank_001:
MSHR contents

In Dram Latency Queue (total = 0): 
DRAM[0]: 16 bks, busW=4 BL=8 CL=12, tRRD=2 tCCD=6, tRCD=12 tRAS=28 tRP=12 tRC=40
n_cmd=488387 n_nop=434461 n_act=7710 n_pre=7694 n_req=22009 n_rd=23154 n_write=15368 bw_util=0.1578
n_activity=318220 dram_eff=0.2421
bk0: 1408a 462507i bk1: 1422a 463679i bk2: 1428a 462393i bk3: 1410a 463111i bk4: 1426a 462909i bk5: 1432a 462390i bk6: 1514a 461974i bk7: 1548a 461588i bk8: 1506a 461045i bk9: 1514a 460253i bk10: 1444a 462635i bk11: 1442a 461481i bk12: 1416a 463032i bk13: 1412a 462968i bk14: 1408a 462955i bk15: 1424a 462061i 
dram_util_bins: 0 0 0 0 0 0 0 0 0 0
dram_eff_bins: 0 0 0 0 0 0 0 0 0 0
mrqq: max=16 avg=0.816463
Memory Partition 1: 
Cache L2_bank_002:
MSHR contents

Cache L2_bank_003:
MSHR contents

In Dram Latency Queue (total = 0): 
DRAM[1]: 16 bks, busW=4 BL=8 CL=12, tRRD=2 tCCD=6, tRCD=12 tRAS=28 tRP=12 tRC=40
n_cmd=488387 n_nop=434429 n_act=7719 n_pre=7703 n_req=22018 n_rd=23148 n_write=15388 bw_util=0.1578
n_activity=319572 dram_eff=0.2412
bk0: 1398a 463207i bk1: 1428a 462473i bk2: 1420a 463219i bk3: 1408a 463346i bk4: 1432a 463772i bk5: 1436a 462647i bk6: 1520a 462465i bk7: 1534a 462139i bk8: 1508a 460920i bk9: 1514a 460454i bk10: 1440a 461446i bk11: 1452a 461744i bk12: 1410a 462919i bk13: 1420a 462940i bk14: 1400a 462738i bk15: 1428a 462198i 
dram_util_bins: 0 0 0 0 0 0 0 0 0 0
dram_eff_bins: 0 0 0 0 0 0 0 0 0 0
mrqq: max=16 avg=0.806922
Memory Partition 2: 
Cache L2_bank_004:
MSHR contents

Cache L2_bank_005:
MSHR contents

In Dram Latency Queue (total = 0): 
DRAM[2]: 16 bks, busW=4 BL=8 CL=12, tRRD=2 tCCD=6, tRCD=12 tRAS=28 tRP=12 tRC=40
n_cmd=488387 n_nop=434479 n_act=7696 n_pre=7680 n_req=22016 n_rd=23154 n_write=15378 bw_util=0.1578
n_activity=321654 dram_eff=0.2396
bk0: 1402a 462754i bk1: 1450a 462655i bk2: 1414a 463265i bk3: 1426a 462658i bk4: 1416a 463593i bk5: 1432a 463577i bk6: 1510a 462606i bk7: 1538a 461807i bk8: 1506a 461517i bk9: 1520a 459917i bk10: 1442a 462642i bk11: 1452a 461904i bk12: 1422a 462948i bk13: 1396a 463117i bk14: 1410a 462759i bk15: 1418a 462505i 
dram_util_bins: 0 0 0 0 0 0 0 0 0 0
dram_eff_bins: 0 0 0 0 0 0 0 0 0 0
mrqq: max=16 avg=0.806836
Memory Partition 3: 
Cache L2_bank_006:
MSHR contents

Cache L2_bank_007:
MSHR contents

In Dram Latency Queue (total = 0): 
DRAM[3]: 16 bks, busW=4 BL=8 CL=12, tRRD=2 tCCD=6, tRCD=12 tRAS=28 tRP=12 tRC=40
n_cmd=488387 n_nop=434488 n_act=7713 n_pre=7697 n_req=21992 n_rd=23092 n_write=15397 bw_util=0.1576
n_activity=320594 dram_eff=0.2401
bk0: 1416a 462924i bk1: 1438a 463159i bk2: 1410a 463239i bk3: 1408a 462979i bk4: 1424a 462765i bk5: 1428a 463848i bk6: 1502a 461432i bk7: 1500a 462272i bk8: 1500a 461339i bk9: 1528a 459985i bk10: 1450a 462116i bk11: 1448a 461952i bk12: 1410a 463252i bk13: 1412a 462435i bk14: 1404a 463749i bk15: 1414a 462805i 
dram_util_bins: 0 0 0 0 0 0 0 0 0 0
dram_eff_bins: 0 0 0 0 0 0 0 0 0 0
mrqq: max=16 avg=0.815552
Memory Partition 4: 
Cache L2_bank_008:
MSHR contents

Cache L2_bank_009:
MSHR contents

In Dram Latency Queue (total = 0): 
DRAM[4]: 16 bks, busW=4 BL=8 CL=12, tRRD=2 tCCD=6, tRCD=12 tRAS=28 tRP=12 tRC=40
n_cmd=488387 n_nop=434791 n_act=7586 n_pre=7570 n_req=21961 n_rd=23062 n_write=15378 bw_util=0.1574
n_activity=318717 dram_eff=0.2412
bk0: 1402a 463461i bk1: 1428a 463395i bk2: 1404a 463450i bk3: 1430a 462487i bk4: 1422a 463508i bk5: 1428a 463628i bk6: 1518a 462381i bk7: 1518a 462128i bk8: 1498a 461268i bk9: 1500a 460765i bk10: 1442a 461732i bk11: 1440a 462112i bk12: 1424a 462716i bk13: 1406a 463397i bk14: 1408a 462972i bk15: 1394a 462935i 
dram_util_bins: 0 0 0 0 0 0 0 0 0 0
dram_eff_bins: 0 0 0 0 0 0 0 0 0 0
mrqq: max=16 avg=0.806831
Memory Partition 5: 
Cache L2_bank_010:
MSHR contents

Cache L2_bank_011:
MSHR contents

In Dram Latency Queue (total = 0): 
DRAM[5]: 16 bks, busW=4 BL=8 CL=12, tRRD=2 tCCD=6, tRCD=12 tRAS=28 tRP=12 tRC=40
n_cmd=488387 n_nop=434614 n_act=7674 n_pre=7658 n_req=21968 n_rd=23094 n_write=15347 bw_util=0.1574
n_activity=319615 dram_eff=0.2405
bk0: 1424a 462370i bk1: 1416a 463005i bk2: 1404a 463622i bk3: 1412a 462957i bk4: 1428a 463523i bk5: 1434a 463506i bk6: 1520a 462476i bk7: 1518a 462140i bk8: 1498a 461091i bk9: 1494a 460080i bk10: 1446a 461873i bk11: 1456a 461599i bk12: 1416a 463241i bk13: 1396a 463085i bk14: 1434a 462888i bk15: 1398a 463286i 
dram_util_bins: 0 0 0 0 0 0 0 0 0 0
dram_eff_bins: 0 0 0 0 0 0 0 0 0 0
mrqq: max=16 avg=0.821586

========= L2 cache stats =========
L2_cache_bank[0]: Access = 14898, Miss = 5775, Miss_rate = 0.388, Pending_hits = 4307, Reservation_fails = 1350
L2_cache_bank[1]: Access = 14897, Miss = 5802, Miss_rate = 0.389, Pending_hits = 4305, Reservation_fails = 1403
L2_cache_bank[2]: Access = 14895, Miss = 5764, Miss_rate = 0.387, Pending_hits = 4335, Reservation_fails = 1150
L2_cache_bank[3]: Access = 14867, Miss = 5810, Miss_rate = 0.391, Pending_hits = 4300, Reservation_fails = 1360
L2_cache_bank[4]: Access = 14880, Miss = 5761, Miss_rate = 0.387, Pending_hits = 4385, Reservation_fails = 1678
L2_cache_bank[5]: Access = 14843, Miss = 5816, Miss_rate = 0.392, Pending_hits = 4306, Reservation_fails = 1411
L2_cache_bank[6]: Access = 14876, Miss = 5758, Miss_rate = 0.387, Pending_hits = 4371, Reservation_fails = 1502
L2_cache_bank[7]: Access = 14833, Miss = 5788, Miss_rate = 0.390, Pending_hits = 4306, Reservation_fails = 1233
L2_cache_bank[8]: Access = 14891, Miss = 5759, Miss_rate = 0.387, Pending_hits = 4331, Reservation_fails = 1420
L2_cache_bank[9]: Access = 14846, Miss = 5772, Miss_rate = 0.389, Pending_hits = 4280, Reservation_fails = 1115
L2_cache_bank[10]: Access = 14890, Miss = 5785, Miss_rate = 0.389, Pending_hits = 4285, Reservation_fails = 1353
L2_cache_bank[11]: Access = 14852, Miss = 5762, Miss_rate = 0.388, Pending_hits = 4260, Reservation_fails = 1305
L2_total_cache_accesses = 178468
L2_total_cache_misses = 69352
L2_total_cache_miss_rate = 0.3886
L2_total_cache_pending_hits = 51771
L2_total_cache_reservation_fails = 16280
L2_total_cache_breakdown:
	L2_cache_stats_breakdown[GLOBAL_ACC_R][HIT] = 46316
	L2_cache_stats_breakdown[GLOBAL_ACC_R][HIT_RESERVED] = 29480
	L2_cache_stats_breakdown[GLOBAL_ACC_R][MISS] = 36197
	L2_cache_stats_breakdown[GLOBAL_ACC_R][RESERVATION_FAIL] = 14813
	L2_cache_stats_breakdown[CONST_ACC_R][HIT] = 11
	L2_cache_stats_breakdown[CONST_ACC_R][HIT_RESERVED] = 3
	L2_cache_stats_breakdown[CONST_ACC_R][MISS] = 1
	L2_cache_stats_breakdown[CONST_ACC_R][RESERVATION_FAIL] = 109
	L2_cache_stats_breakdown[GLOBAL_ACC_W][HIT] = 10864
	L2_cache_stats_breakdown[GLOBAL_ACC_W][HIT_RESERVED] = 22246
	L2_cache_stats_breakdown[GLOBAL_ACC_W][MISS] = 33140
	L2_cache_stats_breakdown[GLOBAL_ACC_W][RESERVATION_FAIL] = 30
	L2_cache_stats_breakdown[INST_ACC_R][HIT] = 154
	L2_cache_stats_breakdown[INST_ACC_R][HIT_RESERVED] = 42
	L2_cache_stats_breakdown[INST_ACC_R][MISS] = 14
	L2_cache_stats_breakdown[INST_ACC_R][RESERVATION_FAIL] = 1328
L2_cache_data_port_util = 0.051
L2_cache_fill_port_util = 0.062

icnt_total_pkts_mem_to_simt=627310
icnt_total_pkts_simt_to_mem=338468
LD_mem_lat_dist  0 0 0 0 0 0 0 0 0 0 0 0 0 0 0 0 0 0 0 0 0 0 0 0 0 0 0
ST_mem_lat_dist  0 0 0 0 0 0 0 0 0 0 0 0 0 0 0 0 0 0 0 0 0 0 0 0 0 0 0
----------------------------Interconnect-DETAILS--------------------------------
Class 0:
Packet latency average = 12.504
	minimum = 6
	maximum = 96
Network latency average = 10.946
	minimum = 6
	maximum = 78
Slowest packet = 43131
Flit latency average = 9.87784
	minimum = 6
	maximum = 74
Slowest flit = 117632
Fragmentation average = 0
	minimum = 0
	maximum = 0
Injected packet rate average = 0.0357302
	minimum = 0.0277628 (at node 13)
	maximum = 0.0402658 (at node 15)
Accepted packet rate average = 0.0357302
	minimum = 0.0277628 (at node 13)
	maximum = 0.0402658 (at node 15)
Injected flit rate average = 0.0966768
	minimum = 0.0515472 (at node 13)
	maximum = 0.141617 (at node 16)
Accepted flit rate average= 0.0966768
	minimum = 0.0761424 (at node 22)
	maximum = 0.123849 (at node 7)
Injected packet length average = 2.70575
Accepted packet length average = 2.70575
Total in-flight flits = 0 (0 measured)
====== Overall Traffic Statistics ======
====== Traffic class 0 ======
Packet latency average = 12.504 (1 samples)
	minimum = 6 (1 samples)
	maximum = 96 (1 samples)
Network latency average = 10.946 (1 samples)
	minimum = 6 (1 samples)
	maximum = 78 (1 samples)
Flit latency average = 9.87784 (1 samples)
	minimum = 6 (1 samples)
	maximum = 74 (1 samples)
Fragmentation average = 0 (1 samples)
	minimum = 0 (1 samples)
	maximum = 0 (1 samples)
Injected packet rate average = 0.0357302 (1 samples)
	minimum = 0.0277628 (1 samples)
	maximum = 0.0402658 (1 samples)
Accepted packet rate average = 0.0357302 (1 samples)
	minimum = 0.0277628 (1 samples)
	maximum = 0.0402658 (1 samples)
Injected flit rate average = 0.0966768 (1 samples)
	minimum = 0.0515472 (1 samples)
	maximum = 0.141617 (1 samples)
Accepted flit rate average = 0.0966768 (1 samples)
	minimum = 0.0761424 (1 samples)
	maximum = 0.123849 (1 samples)
Injected packet size average = 2.70575 (1 samples)
Accepted packet size average = 2.70575 (1 samples)
Hops average = 1 (1 samples)
----------------------------END-of-Interconnect-DETAILS-------------------------
GPGPU-Sim API: Stream Manager State


gpgpu_simulation_time = 0 days, 0 hrs, 3 min, 46 sec (226 sec)
gpgpu_simulation_rate = 321733 (inst/sec)
gpgpu_simulation_rate = 1637 (cycle/sec)
GPGPU-Sim: detected inactive GPU simulation thread

1x GPU_laplace3d: 216936.046875 (ms) 

Copy u2 to host: 75.696999 (ms) 

1x Gold_laplace3d: 15.337000 (ms) 
 

 rms error = 0.000000 
CUDA_SAFE_CALL( cudaFree(d_u1) );
CUDA_SAFE_CALL( cudaFree(d_u2) );
free(h_u1);
free(h_u2);
free(h_u3);

Press ENTER to exit...
