

        *** GPGPU-Sim Simulator Version 3.2.2  [build 0] ***


GPGPU-Sim PTX: simulation mode 0 (can change with PTX_SIM_MODE_FUNC environment variable:
               1=functional simulation only, 0=detailed performance simulator)
GPGPU-Sim: Configuration options:

-network_mode                           1 # Interconnection network mode
-inter_config_file   config_fermi_islip.icnt # Interconnection network config file
-gpgpu_ptx_use_cuobjdump                    1 # Use cuobjdump to extract ptx and sass from binaries
-gpgpu_experimental_lib_support                    0 # Try to extract code from cuda libraries [Broken because of unknown cudaGetExportTable]
-gpgpu_ptx_convert_to_ptxplus                    0 # Convert SASS (native ISA) to ptxplus and run ptxplus
-gpgpu_ptx_force_max_capability                   20 # Force maximum compute capability
-gpgpu_ptx_inst_debug_to_file                    0 # Dump executed instructions' debug information to file
-gpgpu_ptx_inst_debug_file       inst_debug.txt # Executed instructions' debug output file
-gpgpu_ptx_inst_debug_thread_uid                    1 # Thread UID for executed instructions' debug output
-gpgpu_simd_model                       1 # 1 = post-dominator
-gpgpu_shader_core_pipeline              1536:32 # shader core pipeline config, i.e., {<nthread>:<warpsize>}
-gpgpu_tex_cache:l1  4:128:24,L:R:m:N:L,F:128:4,128:2 # per-shader L1 texture cache  (READ-ONLY) config  {<nsets>:<bsize>:<assoc>,<rep>:<wr>:<alloc>:<wr_alloc>,<mshr>:<N>:<merge>,<mq>:<rf>}
-gpgpu_const_cache:l1 64:64:2,L:R:f:N:L,A:2:32,4 # per-shader L1 constant memory cache  (READ-ONLY) config  {<nsets>:<bsize>:<assoc>,<rep>:<wr>:<alloc>:<wr_alloc>,<mshr>:<N>:<merge>,<mq>} 
-gpgpu_cache:il1     4:128:4,L:R:f:N:L,A:2:32,4 # shader L1 instruction cache config  {<nsets>:<bsize>:<assoc>,<rep>:<wr>:<alloc>:<wr_alloc>,<mshr>:<N>:<merge>,<mq>} 
-gpgpu_cache:dl1     32:128:4,L:L:m:N:H,A:32:8,8:2,0,1:0:1:1:0:1,1:4:8:16:32:64,/sciclone/data10/hwang07/GPU_RESEARCH/swl/swl_outputs/RESULTS/twolevel601/ # per-shader L1 data cache config  {<nsets>:<bsize>:<assoc>,<rep>:<wr>:<alloc>:<wr_alloc>,<mshr>:<N>:<merge>,<mq> | none}
-gpgpu_cache:dl1PrefL1                 none # per-shader L1 data cache config  {<nsets>:<bsize>:<assoc>,<rep>:<wr>:<alloc>:<wr_alloc>,<mshr>:<N>:<merge>,<mq> | none}
-gpgpu_cache:dl1PreShared                 none # per-shader L1 data cache config  {<nsets>:<bsize>:<assoc>,<rep>:<wr>:<alloc>:<wr_alloc>,<mshr>:<N>:<merge>,<mq> | none}
-gmem_skip_L1D                          0 # global memory access skip L1D cache (implements -Xptxas -dlcm=cg, default=no skip)
-gpgpu_perfect_mem                      0 # enable perfect memory mode (no cache miss)
-n_regfile_gating_group                    4 # group of lanes that should be read/written together)
-gpgpu_clock_gated_reg_file                    0 # enable clock gated reg file for power calculations
-gpgpu_clock_gated_lanes                    0 # enable clock gated lanes for power calculations
-gpgpu_shader_registers                32768 # Number of registers per shader core. Limits number of concurrent CTAs. (default 8192)
-gpgpu_shader_cta                       8 # Maximum number of concurrent CTAs in shader (default 8)
-gpgpu_num_cta_barriers                   16 # Maximum number of named barriers per CTA (default 16)
-gpgpu_n_clusters                      15 # number of processing clusters
-gpgpu_n_cores_per_cluster                    1 # number of simd cores per cluster
-gpgpu_n_cluster_ejection_buffer_size                    8 # number of packets in ejection buffer
-gpgpu_n_ldst_response_buffer_size                    2 # number of response packets in ld/st unit ejection buffer
-gpgpu_shmem_size                   16384 # Size of shared memory per shader core (default 16kB)
-gpgpu_shmem_size                   49152 # Size of shared memory per shader core (default 16kB)
-gpgpu_shmem_size_PrefL1                16384 # Size of shared memory per shader core (default 16kB)
-gpgpu_shmem_size_PrefShared                16384 # Size of shared memory per shader core (default 16kB)
-gpgpu_shmem_num_banks                   32 # Number of banks in the shared memory in each shader core (default 16)
-gpgpu_shmem_limited_broadcast                    0 # Limit shared memory to do one broadcast per cycle (default on)
-gpgpu_shmem_warp_parts                    1 # Number of portions a warp is divided into for shared memory bank conflict check 
-gpgpu_warpdistro_shader                   -1 # Specify which shader core to collect the warp size distribution from
-gpgpu_warp_issue_shader                    0 # Specify which shader core to collect the warp issue distribution from
-gpgpu_local_mem_map                    1 # Mapping from local memory space address to simulated GPU physical address space (default = enabled)
-gpgpu_num_reg_banks                   16 # Number of register banks (default = 8)
-gpgpu_reg_bank_use_warp_id                    0 # Use warp ID in mapping registers to banks (default = off)
-gpgpu_operand_collector_num_units_sp                    6 # number of collector units (default = 4)
-gpgpu_operand_collector_num_units_sfu                    8 # number of collector units (default = 4)
-gpgpu_operand_collector_num_units_mem                    2 # number of collector units (default = 2)
-gpgpu_operand_collector_num_units_gen                    0 # number of collector units (default = 0)
-gpgpu_operand_collector_num_in_ports_sp                    2 # number of collector unit in ports (default = 1)
-gpgpu_operand_collector_num_in_ports_sfu                    1 # number of collector unit in ports (default = 1)
-gpgpu_operand_collector_num_in_ports_mem                    1 # number of collector unit in ports (default = 1)
-gpgpu_operand_collector_num_in_ports_gen                    0 # number of collector unit in ports (default = 0)
-gpgpu_operand_collector_num_out_ports_sp                    2 # number of collector unit in ports (default = 1)
-gpgpu_operand_collector_num_out_ports_sfu                    1 # number of collector unit in ports (default = 1)
-gpgpu_operand_collector_num_out_ports_mem                    1 # number of collector unit in ports (default = 1)
-gpgpu_operand_collector_num_out_ports_gen                    0 # number of collector unit in ports (default = 0)
-gpgpu_coalesce_arch                   13 # Coalescing arch (default = 13, anything else is off for now)
-gpgpu_num_sched_per_core                    2 # Number of warp schedulers per core
-gpgpu_max_insn_issue_per_warp                    1 # Max number of instructions that can be issued per warp in one cycle by scheduler
-gpgpu_simt_core_sim_order                    1 # Select the simulation order of cores in a cluster (0=Fix, 1=Round-Robin)
-gpgpu_pipeline_widths        2,1,1,2,1,1,2 # Pipeline widths ID_OC_SP,ID_OC_SFU,ID_OC_MEM,OC_EX_SP,OC_EX_SFU,OC_EX_MEM,EX_WB
-gpgpu_num_sp_units                     2 # Number of SP units (default=1)
-gpgpu_num_sfu_units                    1 # Number of SF units (default=1)
-gpgpu_num_mem_units                    1 # Number if ldst units (default=1) WARNING: not hooked up to anything
-gpgpu_scheduler     two_level_active:6:0:1 # Scheduler configuration: < lrr | gto | two_level_active > If two_level_active:<num_active_warps>:<inner_prioritization>:<outer_prioritization>For complete list of prioritization values see shader.h enum scheduler_prioritization_typeDefault: gto
-gpgpu_dram_scheduler                    1 # 0 = fifo, 1 = FR-FCFS (defaul)
-gpgpu_dram_partition_queues              8:8:8:8 # i2$:$2d:d2$:$2i
-l2_ideal                               0 # Use a ideal L2 cache that always hit
-gpgpu_cache:dl2     64:128:8,L:B:m:W:L,A:32:4,4:0,32 # unified banked L2 data cache config  {<nsets>:<bsize>:<assoc>,<rep>:<wr>:<alloc>:<wr_alloc>,<mshr>:<N>:<merge>,<mq>}
-gpgpu_cache:dl2_texture_only                    0 # L2 cache used for texture only
-gpgpu_n_mem                            6 # number of memory modules (e.g. memory controllers) in gpu
-gpgpu_n_sub_partition_per_mchannel                    2 # number of memory subpartition in each memory module
-gpgpu_n_mem_per_ctrlr                    2 # number of memory chips per memory controller
-gpgpu_memlatency_stat                   14 # track and display latency statistics 0x2 enables MC, 0x4 enables queue logs
-gpgpu_frfcfs_dram_sched_queue_size                   16 # 0 = unlimited (default); # entries per chip
-gpgpu_dram_return_queue_size                  116 # 0 = unlimited (default); # entries per chip
-gpgpu_dram_buswidth                    4 # default = 4 bytes (8 bytes per cycle at DDR)
-gpgpu_dram_burst_length                    8 # Burst length of each DRAM request (default = 4 data bus cycle)
-dram_data_command_freq_ratio                    4 # Frequency ratio between DRAM data bus and command bus (default = 2 times, i.e. DDR)
-gpgpu_dram_timing_opt nbk=16:CCD=2:RRD=6:RCD=12:RAS=28:RP=12:RC=40: CL=12:WL=4:CDLR=5:WR=12:nbkgrp=4:CCDL=3:RTPL=2 # DRAM timing parameters = {nbk:tCCD:tRRD:tRCD:tRAS:tRP:tRC:CL:WL:tCDLR:tWR:nbkgrp:tCCDL:tRTPL}
-rop_latency                          120 # ROP queue latency (default 85)
-dram_latency                         100 # DRAM latency (default 30)
-gpgpu_mem_addr_mapping dramid@8;00000000.00000000.00000000.00000000.0000RRRR.RRRRRRRR.BBBCCCCB.CCSSSSSS # mapping memory address to dram model {dramid@<start bit>;<memory address map>}
-gpgpu_mem_addr_test                    0 # run sweep test to check address mapping for aliased address
-gpgpu_mem_address_mask                    1 # 0 = old addressing mask, 1 = new addressing mask, 2 = new add. mask + flipped bank sel and chip sel bits
-gpuwattch_xml_file  gpuwattch_gtx480.xml # GPUWattch XML file
-power_simulation_enabled                    0 # Turn on power simulator (1=On, 0=Off)
-power_per_cycle_dump                    0 # Dump detailed power output each cycle
-power_trace_enabled                    0 # produce a file for the power trace (1=On, 0=Off)
-power_trace_zlevel                     6 # Compression level of the power trace output log (0=no comp, 9=highest)
-steady_power_levels_enabled                    0 # produce a file for the steady power levels (1=On, 0=Off)
-steady_state_definition                  8:4 # allowed deviation:number of samples
-gpgpu_max_cycle                        0 # terminates gpu simulation early (0 = no limit)
-gpgpu_max_insn                         0 # terminates gpu simulation early (0 = no limit)
-gpgpu_max_cta                          0 # terminates gpu simulation early (0 = no limit)
-gpgpu_runtime_stat                   500 # display runtime statistics such as dram utilization {<freq>:<flag>}
-liveness_message_freq                    1 # Minimum number of seconds between simulation liveness messages (0 = always print)
-gpgpu_flush_l1_cache                    0 # Flush L1 cache at the end of each kernel call
-gpgpu_flush_l2_cache                    0 # Flush L2 cache at the end of each kernel call
-gpgpu_deadlock_detect                    1 # Stop the simulation at deadlock (1=on (default), 0=off)
-gpgpu_ptx_instruction_classification                    0 # if enabled will classify ptx instruction types per kernel (Max 255 kernels now)
-gpgpu_ptx_sim_mode                     0 # Select between Performance (default) or Functional simulation (1)
-gpgpu_clock_domains 700.0:700.0:700.0:924.0 # Clock Domain Frequencies in MhZ {<Core Clock>:<ICNT Clock>:<L2 Clock>:<DRAM Clock>}
-gpgpu_max_concurrent_kernel                    8 # maximum kernels that can run concurrently on GPU
-gpgpu_cflog_interval                    0 # Interval between each snapshot in control flow logger
-visualizer_enabled                     0 # Turn on visualizer output (1=On, 0=Off)
-visualizer_outputfile                 NULL # Specifies the output log file for visualizer
-visualizer_zlevel                      6 # Compression level of the visualizer output log (0=no comp, 9=highest)
-trace_enabled                          0 # Turn on traces
-trace_components                    none # comma seperated list of traces to enable. Complete list found in trace_streams.tup. Default none
-trace_sampling_core                    0 # The core which is printed using CORE_DPRINTF. Default 0
-trace_sampling_memory_partition                   -1 # The memory partition which is printed using MEMPART_DPRINTF. Default -1 (i.e. all)
-enable_ptx_file_line_stats                    1 # Turn on PTX source line statistic profiling. (1 = On)
-ptx_line_stats_filename gpgpu_inst_stats.txt # Output file for PTX source line statistics.
-save_embedded_ptx                      0 # saves ptx files embedded in binary as <n>.ptx
-keep                                   0 # keep intermediate files created by GPGPU-Sim when interfacing with external programs
-gpgpu_ptx_save_converted_ptxplus                    0 # Saved converted ptxplus to a file
-ptx_opcode_latency_int         4,13,4,5,145 # Opcode latencies for integers <ADD,MAX,MUL,MAD,DIV>Default 1,1,19,25,145
-ptx_opcode_latency_fp          4,13,4,5,39 # Opcode latencies for single precision floating points <ADD,MAX,MUL,MAD,DIV>Default 1,1,1,1,30
-ptx_opcode_latency_dp         8,19,8,8,330 # Opcode latencies for double precision floating points <ADD,MAX,MUL,MAD,DIV>Default 8,8,8,8,335
-ptx_opcode_initiation_int            1,2,2,1,8 # Opcode initiation intervals for integers <ADD,MAX,MUL,MAD,DIV>Default 1,1,4,4,32
-ptx_opcode_initiation_fp            1,2,1,1,4 # Opcode initiation intervals for single precision floating points <ADD,MAX,MUL,MAD,DIV>Default 1,1,1,1,5
-ptx_opcode_initiation_dp         8,16,8,8,130 # Opcode initiation intervals for double precision floating points <ADD,MAX,MUL,MAD,DIV>Default 8,8,8,8,130
DRAM Timing Options:
nbk                                    16 # number of banks
CCD                                     2 # column to column delay
RRD                                     6 # minimal delay between activation of rows in different banks
RCD                                    12 # row to column delay
RAS                                    28 # time needed to activate row
RP                                     12 # time needed to precharge (deactivate) row
RC                                     40 # row cycle time
CDLR                                    5 # switching from write to read (changes tWTR)
WR                                     12 # last data-in to row precharge
CL                                     12 # CAS latency
WL                                      4 # Write latency
nbkgrp                                  4 # number of bank groups
CCDL                                    3 # column to column delay between accesses to different bank groups
RTPL                                    2 # read to precharge delay between accesses to different bank groups
Total number of memory sub partition = 12
addr_dec_mask[CHIP]  = 0000000000000000 	high:64 low:0
addr_dec_mask[BK]    = 000000000000e100 	high:16 low:8
addr_dec_mask[ROW]   = 000000000fff0000 	high:28 low:16
addr_dec_mask[COL]   = 0000000000001eff 	high:13 low:0
addr_dec_mask[BURST] = 000000000000003f 	high:6 low:0
sub_partition_id_mask = 0000000000000100
GPGPU-Sim uArch: clock freqs: 700000000.000000:700000000.000000:700000000.000000:924000000.000000
GPGPU-Sim uArch: clock periods: 0.00000000142857142857:0.00000000142857142857:0.00000000142857142857:0.00000000108225108225
*** Initializing Memory Statistics ***
GPGPU-Sim uArch: interconnect node map (shaderID+MemID to icntID)
GPGPU-Sim uArch: Memory nodes ID start from index: 15
GPGPU-Sim uArch:    0   1   2   3   4
GPGPU-Sim uArch:    5   6   7   8   9
GPGPU-Sim uArch:   10  11  12  13  14
GPGPU-Sim uArch:   15  16  17  18  19
GPGPU-Sim uArch:   20  21  22  23  24
GPGPU-Sim uArch:   25  26
GPGPU-Sim uArch: interconnect node reverse map (icntID to shaderID+MemID)
GPGPU-Sim uArch: Memory nodes start from ID: 15
GPGPU-Sim uArch:    0   1   2   3   4
GPGPU-Sim uArch:    5   6   7   8   9
GPGPU-Sim uArch:   10  11  12  13  14
GPGPU-Sim uArch:   15  16  17  18  19
GPGPU-Sim uArch:   20  21  22  23  24
GPGPU-Sim uArch:   25  26
8ef9342edb8cdfc3e3546abba4d98120  /sciclone/data10/hwang07/adwait/applications/benchmarks/CUDA/NN/gpgpu_ptx_sim__NN
GPGPU-Sim uArch: performance model initialization complete.
GPGPU-Sim PTX: __cudaRegisterFatBinary, fat_cubin_handle = 1, filename=NN.cu
self exe links to: /sciclone/data10/hwang07/adwait/applications/benchmarks/CUDA/NN/gpgpu_ptx_sim__NN
Running md5sum using "md5sum /sciclone/data10/hwang07/adwait/applications/benchmarks/CUDA/NN/gpgpu_ptx_sim__NN "
Parsing file _cuobjdump_complete_output_OkOAmU
######### cuobjdump parser ########
## Adding new section ELF
Adding arch: sm_20
Adding identifier: NN.cu
## Adding new section PTX
Adding ptx filename: _cuobjdump_1.ptx
Adding arch: sm_20
Adding identifier: NN.cu
Done parsing!!!
GPGPU-Sim PTX: __cudaRegisterFunction _Z18executeFourthLayerPfS_S_ : hostFun 0x0x4028e3, fat_cubin_handle = 1
GPGPU-Sim PTX: allocating constant region for "kernelTemplate" from 0x100 to 0x164 (global memory space) 1
GPGPU-Sim PTX: instruction assembly for function '_Z17executeFirstLayerPfS_S_'...   done.
GPGPU-Sim PTX: finding reconvergence points for '_Z17executeFirstLayerPfS_S_'...
GPGPU-Sim PTX: Finding dominators for '_Z17executeFirstLayerPfS_S_'...
GPGPU-Sim PTX: Finding immediate dominators for '_Z17executeFirstLayerPfS_S_'...
GPGPU-Sim PTX: Finding postdominators for '_Z17executeFirstLayerPfS_S_'...
GPGPU-Sim PTX: Finding immediate postdominators for '_Z17executeFirstLayerPfS_S_'...
GPGPU-Sim PTX: pre-decoding instructions for '_Z17executeFirstLayerPfS_S_'...
GPGPU-Sim PTX: reconvergence points for _Z17executeFirstLayerPfS_S_...
GPGPU-Sim PTX:  1 (potential) branch divergence @  PC=0x100 (_1.ptx:100) @%p1 bra $Lt_0_4098;
GPGPU-Sim PTX:    immediate post dominator      @  PC=0x108 (_1.ptx:102) cvt.f64.f32 %fd1, %f1;
GPGPU-Sim PTX:  2 (potential) branch divergence @  PC=0x148 (_1.ptx:110) @!%p2 bra $Lt_0_4866;
GPGPU-Sim PTX:    immediate post dominator      @  PC=0x2a8 (_1.ptx:162) cvt.f64.f32 %fd5, %f29;
GPGPU-Sim PTX:  3 (potential) branch divergence @  PC=0x230 (_1.ptx:142) bra.uni $Lt_0_4610;
GPGPU-Sim PTX:    immediate post dominator      @  PC=0x2a8 (_1.ptx:162) cvt.f64.f32 %fd5, %f29;
GPGPU-Sim PTX: ... end of reconvergence points for _Z17executeFirstLayerPfS_S_
GPGPU-Sim PTX: ... done pre-decoding instructions for '_Z17executeFirstLayerPfS_S_'.
GPGPU-Sim PTX: allocating constant region for "kernelTemplate2" from 0x180 to 0x1e4 (global memory space) 2
GPGPU-Sim PTX: instruction assembly for function '_Z18executeSecondLayerPfS_S_'...   done.
GPGPU-Sim PTX: finding reconvergence points for '_Z18executeSecondLayerPfS_S_'...
GPGPU-Sim PTX: Finding dominators for '_Z18executeSecondLayerPfS_S_'...
GPGPU-Sim PTX: Finding immediate dominators for '_Z18executeSecondLayerPfS_S_'...
GPGPU-Sim PTX: Finding postdominators for '_Z18executeSecondLayerPfS_S_'...
GPGPU-Sim PTX: Finding immediate postdominators for '_Z18executeSecondLayerPfS_S_'...
GPGPU-Sim PTX: pre-decoding instructions for '_Z18executeSecondLayerPfS_S_'...
GPGPU-Sim PTX: reconvergence points for _Z18executeSecondLayerPfS_S_...
GPGPU-Sim PTX:  1 (potential) branch divergence @  PC=0x4a0 (_1.ptx:251) @%p1 bra $Lt_1_5634;
GPGPU-Sim PTX:    immediate post dominator      @  PC=0x4a8 (_1.ptx:253) cvt.f64.f32 %fd1, %f1;
GPGPU-Sim PTX:  2 (potential) branch divergence @  PC=0x4e8 (_1.ptx:261) @!%p2 bra $Lt_1_6402;
GPGPU-Sim PTX:    immediate post dominator      @  PC=0x648 (_1.ptx:313) cvt.f64.f32 %fd5, %f44;
GPGPU-Sim PTX:  3 (potential) branch divergence @  PC=0x5d0 (_1.ptx:293) bra.uni $Lt_1_6146;
GPGPU-Sim PTX:    immediate post dominator      @  PC=0x648 (_1.ptx:313) cvt.f64.f32 %fd5, %f44;
GPGPU-Sim PTX: ... end of reconvergence points for _Z18executeSecondLayerPfS_S_
GPGPU-Sim PTX: ... done pre-decoding instructions for '_Z18executeSecondLayerPfS_S_'.
GPGPU-Sim PTX: instruction assembly for function '_Z17executeThirdLayerPfS_S_'...   done.
GPGPU-Sim PTX: finding reconvergence points for '_Z17executeThirdLayerPfS_S_'...
GPGPU-Sim PTX: Finding dominators for '_Z17executeThirdLayerPfS_S_'...
GPGPU-Sim PTX: Finding immediate dominators for '_Z17executeThirdLayerPfS_S_'...
GPGPU-Sim PTX: Finding postdominators for '_Z17executeThirdLayerPfS_S_'...
GPGPU-Sim PTX: Finding immediate postdominators for '_Z17executeThirdLayerPfS_S_'...
GPGPU-Sim PTX: pre-decoding instructions for '_Z17executeThirdLayerPfS_S_'...
GPGPU-Sim PTX: reconvergence points for _Z17executeThirdLayerPfS_S_...
GPGPU-Sim PTX:  1 (potential) branch divergence @  PC=0x788 (_1.ptx:373) @%p1 bra $Lt_2_4098;
GPGPU-Sim PTX:    immediate post dominator      @  PC=0x790 (_1.ptx:375) cvt.f64.f32 %fd1, %f1;
GPGPU-Sim PTX:  2 (potential) branch divergence @  PC=0x7d0 (_1.ptx:383) @!%p2 bra $Lt_2_4866;
GPGPU-Sim PTX:    immediate post dominator      @  PC=0x930 (_1.ptx:435) cvt.f64.f32 %fd5, %f29;
GPGPU-Sim PTX:  3 (potential) branch divergence @  PC=0x8b8 (_1.ptx:415) bra.uni $Lt_2_4610;
GPGPU-Sim PTX:    immediate post dominator      @  PC=0x930 (_1.ptx:435) cvt.f64.f32 %fd5, %f29;
GPGPU-Sim PTX: ... end of reconvergence points for _Z17executeThirdLayerPfS_S_
GPGPU-Sim PTX: ... done pre-decoding instructions for '_Z17executeThirdLayerPfS_S_'.
GPGPU-Sim PTX: instruction assembly for function '_Z18executeFourthLayerPfS_S_'...   done.
GPGPU-Sim PTX: finding reconvergence points for '_Z18executeFourthLayerPfS_S_'...
GPGPU-Sim PTX: Finding dominators for '_Z18executeFourthLayerPfS_S_'...
GPGPU-Sim PTX: Finding immediate dominators for '_Z18executeFourthLayerPfS_S_'...
GPGPU-Sim PTX: Finding postdominators for '_Z18executeFourthLayerPfS_S_'...
GPGPU-Sim PTX: Finding immediate postdominators for '_Z18executeFourthLayerPfS_S_'...
GPGPU-Sim PTX: pre-decoding instructions for '_Z18executeFourthLayerPfS_S_'...
GPGPU-Sim PTX: reconvergence points for _Z18executeFourthLayerPfS_S_...
GPGPU-Sim PTX:  1 (potential) branch divergence @  PC=0xa50 (_1.ptx:491) @%p1 bra $Lt_3_4098;
GPGPU-Sim PTX:    immediate post dominator      @  PC=0xa58 (_1.ptx:493) cvt.f64.f32 %fd1, %f1;
GPGPU-Sim PTX:  2 (potential) branch divergence @  PC=0xa98 (_1.ptx:501) @!%p2 bra $Lt_3_4866;
GPGPU-Sim PTX:    immediate post dominator      @  PC=0xbf8 (_1.ptx:553) cvt.f64.f32 %fd5, %f29;
GPGPU-Sim PTX:  3 (potential) branch divergence @  PC=0xb80 (_1.ptx:533) bra.uni $Lt_3_4610;
GPGPU-Sim PTX:    immediate post dominator      @  PC=0xbf8 (_1.ptx:553) cvt.f64.f32 %fd5, %f29;
GPGPU-Sim PTX: ... end of reconvergence points for _Z18executeFourthLayerPfS_S_
GPGPU-Sim PTX: ... done pre-decoding instructions for '_Z18executeFourthLayerPfS_S_'.
GPGPU-Sim PTX: finished parsing EMBEDDED .ptx file _1.ptx
Adding _cuobjdump_1.ptx with cubin handle 1
GPGPU-Sim PTX: extracting embedded .ptx to temporary file "_ptx_NuNMGB"
Running: cat _ptx_NuNMGB | sed 's/.version 1.5/.version 1.4/' | sed 's/, texmode_independent//' | sed 's/\(\.extern \.const\[1\] .b8 \w\+\)\[\]/\1\[1\]/' | sed 's/const\[.\]/const\[0\]/g' > _ptx2_KA9njj
GPGPU-Sim PTX: generating ptxinfo using "$CUDA_INSTALL_PATH/bin/ptxas --gpu-name=sm_20 -v _ptx2_KA9njj --output-file  /dev/null 2> _ptx_NuNMGBinfo"
GPGPU-Sim PTX: Kernel '_Z18executeFourthLayerPfS_S_' : regs=12, lmem=0, smem=0, cmem=288
GPGPU-Sim PTX: Kernel '_Z17executeThirdLayerPfS_S_' : regs=12, lmem=0, smem=0, cmem=288
GPGPU-Sim PTX: Kernel '_Z18executeSecondLayerPfS_S_' : regs=22, lmem=0, smem=0, cmem=288
GPGPU-Sim PTX: Kernel '_Z17executeFirstLayerPfS_S_' : regs=17, lmem=0, smem=0, cmem=288
GPGPU-Sim PTX: removing ptxinfo using "rm -f _ptx_NuNMGB _ptx2_KA9njj _ptx_NuNMGBinfo"
GPGPU-Sim PTX: loading globals with explicit initializers... 
GPGPU-Sim PTX: finished loading globals (0 bytes total).
GPGPU-Sim PTX: loading constants with explicit initializers...  done.
GPGPU-Sim PTX: __cudaRegisterFunction _Z17executeThirdLayerPfS_S_ : hostFun 0x0x402821, fat_cubin_handle = 1
GPGPU-Sim PTX: __cudaRegisterFunction _Z18executeSecondLayerPfS_S_ : hostFun 0x0x40275f, fat_cubin_handle = 1
GPGPU-Sim PTX: __cudaRegisterFunction _Z17executeFirstLayerPfS_S_ : hostFun 0x0x40269d, fat_cubin_handle = 1
GPGPU-Sim PTX: __cudaRegisterVar: hostVar = 0x609e60; deviceAddress = kernelTemplate; deviceName = kernelTemplate
GPGPU-Sim PTX: __cudaRegisterVar: Registering const memory space of 100 bytes
GPGPU-Sim PTX registering constant kernelTemplate (100 bytes) to name mapping
GPGPU-Sim PTX: __cudaRegisterVar: hostVar = 0x609ee0; deviceAddress = kernelTemplate2; deviceName = kernelTemplate2
GPGPU-Sim PTX: __cudaRegisterVar: Registering const memory space of 100 bytes
GPGPU-Sim PTX registering constant kernelTemplate2 (100 bytes) to name mapping
magic number = 2051
number of items = 10000
number of rows = 28
number of rows = 28
NUM=28

GPGPU-Sim PTX: cudaLaunch for 0x0x40269d (mode=performance simulation) on stream 0
GPGPU-Sim PTX: pushing kernel '_Z17executeFirstLayerPfS_S_' to stream 0, gridDim= (6,28,1) blockDim = (13,13,1) 
kernel '_Z17executeFirstLayerPfS_S_' transfer to GPU hardware scheduler
GPGPU-Sim uArch: Shader 1 bind to kernel 1 '_Z17executeFirstLayerPfS_S_'
GPGPU-Sim uArch: CTA/core = 8, limited by: threads regs cta_limit
GPGPU-Sim uArch: core:  1, cta: 0 initialized @(1,0)
GPGPU-Sim uArch: Shader 2 bind to kernel 1 '_Z17executeFirstLayerPfS_S_'
GPGPU-Sim uArch: core:  2, cta: 0 initialized @(1,0)
GPGPU-Sim uArch: Shader 3 bind to kernel 1 '_Z17executeFirstLayerPfS_S_'
GPGPU-Sim uArch: core:  3, cta: 0 initialized @(1,0)
GPGPU-Sim uArch: Shader 4 bind to kernel 1 '_Z17executeFirstLayerPfS_S_'
GPGPU-Sim uArch: core:  4, cta: 0 initialized @(1,0)
GPGPU-Sim uArch: Shader 5 bind to kernel 1 '_Z17executeFirstLayerPfS_S_'
GPGPU-Sim uArch: core:  5, cta: 0 initialized @(1,0)
GPGPU-Sim uArch: Shader 6 bind to kernel 1 '_Z17executeFirstLayerPfS_S_'
GPGPU-Sim uArch: core:  6, cta: 0 initialized @(1,0)
GPGPU-Sim uArch: Shader 7 bind to kernel 1 '_Z17executeFirstLayerPfS_S_'
GPGPU-Sim uArch: core:  7, cta: 0 initialized @(1,0)
GPGPU-Sim uArch: Shader 8 bind to kernel 1 '_Z17executeFirstLayerPfS_S_'
GPGPU-Sim uArch: core:  8, cta: 0 initialized @(1,0)
GPGPU-Sim uArch: Shader 9 bind to kernel 1 '_Z17executeFirstLayerPfS_S_'
GPGPU-Sim uArch: core:  9, cta: 0 initialized @(1,0)
GPGPU-Sim uArch: Shader 10 bind to kernel 1 '_Z17executeFirstLayerPfS_S_'
GPGPU-Sim uArch: core: 10, cta: 0 initialized @(1,0)
GPGPU-Sim uArch: Shader 11 bind to kernel 1 '_Z17executeFirstLayerPfS_S_'
GPGPU-Sim uArch: core: 11, cta: 0 initialized @(1,0)
GPGPU-Sim uArch: Shader 12 bind to kernel 1 '_Z17executeFirstLayerPfS_S_'
GPGPU-Sim uArch: core: 12, cta: 0 initialized @(1,0)
GPGPU-Sim uArch: Shader 13 bind to kernel 1 '_Z17executeFirstLayerPfS_S_'
GPGPU-Sim uArch: core: 13, cta: 0 initialized @(1,0)
GPGPU-Sim uArch: Shader 14 bind to kernel 1 '_Z17executeFirstLayerPfS_S_'
GPGPU-Sim uArch: core: 14, cta: 0 initialized @(1,0)
GPGPU-Sim uArch: Shader 0 bind to kernel 1 '_Z17executeFirstLayerPfS_S_'
GPGPU-Sim uArch: core:  0, cta: 0 initialized @(1,0)
GPGPU-Sim uArch: core:  1, cta: 1 initialized @(2,0)
GPGPU-Sim uArch: core:  2, cta: 1 initialized @(2,0)
GPGPU-Sim uArch: core:  3, cta: 1 initialized @(2,0)
GPGPU-Sim uArch: core:  4, cta: 1 initialized @(2,0)
GPGPU-Sim uArch: core:  5, cta: 1 initialized @(2,0)
GPGPU-Sim uArch: core:  6, cta: 1 initialized @(2,0)
GPGPU-Sim uArch: core:  7, cta: 1 initialized @(2,0)
GPGPU-Sim uArch: core:  8, cta: 1 initialized @(2,0)
GPGPU-Sim uArch: core:  9, cta: 1 initialized @(2,0)
GPGPU-Sim uArch: core: 10, cta: 1 initialized @(2,0)
GPGPU-Sim uArch: core: 11, cta: 1 initialized @(2,0)
GPGPU-Sim uArch: core: 12, cta: 1 initialized @(2,0)
GPGPU-Sim uArch: core: 13, cta: 1 initialized @(2,0)
GPGPU-Sim uArch: core: 14, cta: 1 initialized @(2,0)
GPGPU-Sim uArch: core:  0, cta: 1 initialized @(2,0)
GPGPU-Sim uArch: core:  1, cta: 2 initialized @(3,0)
GPGPU-Sim uArch: core:  2, cta: 2 initialized @(3,0)
GPGPU-Sim uArch: core:  3, cta: 2 initialized @(3,0)
GPGPU-Sim uArch: core:  4, cta: 2 initialized @(3,0)
GPGPU-Sim uArch: core:  5, cta: 2 initialized @(3,0)
GPGPU-Sim uArch: core:  6, cta: 2 initialized @(3,0)
GPGPU-Sim uArch: core:  7, cta: 2 initialized @(3,0)
GPGPU-Sim uArch: core:  8, cta: 2 initialized @(3,0)
GPGPU-Sim uArch: core:  9, cta: 2 initialized @(3,0)
GPGPU-Sim uArch: core: 10, cta: 2 initialized @(3,0)
GPGPU-Sim uArch: core: 11, cta: 2 initialized @(3,0)
GPGPU-Sim uArch: core: 12, cta: 2 initialized @(3,0)
GPGPU-Sim uArch: core: 13, cta: 2 initialized @(3,0)
GPGPU-Sim uArch: core: 14, cta: 2 initialized @(3,0)
GPGPU-Sim uArch: core:  0, cta: 2 initialized @(3,0)
GPGPU-Sim uArch: core:  1, cta: 3 initialized @(4,0)
GPGPU-Sim uArch: core:  2, cta: 3 initialized @(4,0)
GPGPU-Sim uArch: core:  3, cta: 3 initialized @(4,0)
GPGPU-Sim uArch: core:  4, cta: 3 initialized @(4,0)
GPGPU-Sim uArch: core:  5, cta: 3 initialized @(4,0)
GPGPU-Sim uArch: core:  6, cta: 3 initialized @(4,0)
GPGPU-Sim uArch: core:  7, cta: 3 initialized @(4,0)
GPGPU-Sim uArch: core:  8, cta: 3 initialized @(4,0)
GPGPU-Sim uArch: core:  9, cta: 3 initialized @(4,0)
GPGPU-Sim uArch: core: 10, cta: 3 initialized @(4,0)
GPGPU-Sim uArch: core: 11, cta: 3 initialized @(4,0)
GPGPU-Sim uArch: core: 12, cta: 3 initialized @(4,0)
GPGPU-Sim uArch: core: 13, cta: 3 initialized @(4,0)
GPGPU-Sim uArch: core: 14, cta: 3 initialized @(4,0)
GPGPU-Sim uArch: core:  0, cta: 3 initialized @(4,0)
GPGPU-Sim uArch: core:  1, cta: 4 initialized @(5,0)
GPGPU-Sim uArch: core:  2, cta: 4 initialized @(5,0)
GPGPU-Sim uArch: core:  3, cta: 4 initialized @(5,0)
GPGPU-Sim uArch: core:  4, cta: 4 initialized @(5,0)
GPGPU-Sim uArch: core:  5, cta: 4 initialized @(5,0)
GPGPU-Sim uArch: core:  6, cta: 4 initialized @(5,0)
GPGPU-Sim uArch: core:  7, cta: 4 initialized @(5,0)
GPGPU-Sim uArch: core:  8, cta: 4 initialized @(5,0)
GPGPU-Sim uArch: core:  9, cta: 4 initialized @(5,0)
GPGPU-Sim uArch: core: 10, cta: 4 initialized @(5,0)
GPGPU-Sim uArch: core: 11, cta: 4 initialized @(5,0)
GPGPU-Sim uArch: core: 12, cta: 4 initialized @(5,0)
GPGPU-Sim uArch: core: 13, cta: 4 initialized @(5,0)
GPGPU-Sim uArch: core: 14, cta: 4 initialized @(5,0)
GPGPU-Sim uArch: core:  0, cta: 4 initialized @(5,0)
GPGPU-Sim uArch: core:  1, cta: 5 initialized @(6,0)
GPGPU-Sim uArch: core:  2, cta: 5 initialized @(6,0)
GPGPU-Sim uArch: core:  3, cta: 5 initialized @(6,0)
GPGPU-Sim uArch: core:  4, cta: 5 initialized @(6,0)
GPGPU-Sim uArch: core:  5, cta: 5 initialized @(6,0)
GPGPU-Sim uArch: core:  6, cta: 5 initialized @(6,0)
GPGPU-Sim uArch: core:  7, cta: 5 initialized @(6,0)
GPGPU-Sim uArch: core:  8, cta: 5 initialized @(6,0)
GPGPU-Sim uArch: core:  9, cta: 5 initialized @(6,0)
GPGPU-Sim uArch: core: 10, cta: 5 initialized @(6,0)
GPGPU-Sim uArch: core: 11, cta: 5 initialized @(6,0)
GPGPU-Sim uArch: core: 12, cta: 5 initialized @(6,0)
GPGPU-Sim uArch: core: 13, cta: 5 initialized @(6,0)
GPGPU-Sim uArch: core: 14, cta: 5 initialized @(6,0)
GPGPU-Sim uArch: core:  0, cta: 5 initialized @(6,0)
GPGPU-Sim uArch: core:  1, cta: 6 initialized @(7,0)
GPGPU-Sim uArch: core:  2, cta: 6 initialized @(7,0)
GPGPU-Sim uArch: core:  3, cta: 6 initialized @(7,0)
GPGPU-Sim uArch: core:  4, cta: 6 initialized @(7,0)
GPGPU-Sim uArch: core:  5, cta: 6 initialized @(7,0)
GPGPU-Sim uArch: core:  6, cta: 6 initialized @(7,0)
GPGPU-Sim uArch: core:  7, cta: 6 initialized @(7,0)
GPGPU-Sim uArch: core:  8, cta: 6 initialized @(7,0)
GPGPU-Sim uArch: core:  9, cta: 6 initialized @(7,0)
GPGPU-Sim uArch: core: 10, cta: 6 initialized @(7,0)
GPGPU-Sim uArch: core: 11, cta: 6 initialized @(7,0)
GPGPU-Sim uArch: core: 12, cta: 6 initialized @(7,0)
GPGPU-Sim uArch: core: 13, cta: 6 initialized @(7,0)
GPGPU-Sim uArch: core: 14, cta: 6 initialized @(7,0)
GPGPU-Sim uArch: core:  0, cta: 6 initialized @(7,0)
GPGPU-Sim uArch: core:  1, cta: 7 initialized @(8,0)
GPGPU-Sim uArch: core:  2, cta: 7 initialized @(8,0)
GPGPU-Sim uArch: core:  3, cta: 7 initialized @(8,0)
GPGPU-Sim uArch: core:  4, cta: 7 initialized @(8,0)
GPGPU-Sim uArch: core:  5, cta: 7 initialized @(8,0)
GPGPU-Sim uArch: core:  6, cta: 7 initialized @(8,0)
GPGPU-Sim uArch: core:  7, cta: 7 initialized @(8,0)
GPGPU-Sim uArch: core:  8, cta: 7 initialized @(8,0)
GPGPU-Sim uArch: core:  9, cta: 7 initialized @(8,0)
GPGPU-Sim uArch: core: 10, cta: 7 initialized @(8,0)
GPGPU-Sim uArch: core: 11, cta: 7 initialized @(8,0)
GPGPU-Sim uArch: core: 12, cta: 7 initialized @(8,0)
GPGPU-Sim uArch: core: 13, cta: 7 initialized @(8,0)
GPGPU-Sim uArch: core: 14, cta: 7 initialized @(8,0)
GPGPU-Sim uArch: core:  0, cta: 7 initialized @(8,0)
GPGPU-Sim uArch: cycles simulated: 500  inst.: 64503 (ipc=129.0) sim_rate=32251 (inst/sec) elapsed = 0:0:00:02 / Tue Mar 22 13:12:32 2016
GPGPU-Sim PTX: 100000 instructions simulated : ctaid=(3,15,0) tid=(9,10,0)
GPGPU-Sim PTX: 200000 instructions simulated : ctaid=(0,15,0) tid=(2,3,0)
GPGPU-Sim uArch: cycles simulated: 1500  inst.: 217581 (ipc=145.1) sim_rate=72527 (inst/sec) elapsed = 0:0:00:03 / Tue Mar 22 13:12:33 2016
GPGPU-Sim PTX: 300000 instructions simulated : ctaid=(0,7,0) tid=(10,6,0)
GPGPU-Sim PTX: 400000 instructions simulated : ctaid=(5,1,0) tid=(5,9,0)
GPGPU-Sim uArch: cycles simulated: 2500  inst.: 403272 (ipc=161.3) sim_rate=100818 (inst/sec) elapsed = 0:0:00:04 / Tue Mar 22 13:12:34 2016
GPGPU-Sim PTX: 500000 instructions simulated : ctaid=(3,7,0) tid=(4,8,0)
GPGPU-Sim PTX: 600000 instructions simulated : ctaid=(4,5,0) tid=(4,5,0)
GPGPU-Sim uArch: cycles simulated: 3500  inst.: 633486 (ipc=181.0) sim_rate=126697 (inst/sec) elapsed = 0:0:00:05 / Tue Mar 22 13:12:35 2016
GPGPU-Sim PTX: 700000 instructions simulated : ctaid=(4,16,0) tid=(3,2,0)
GPGPU-Sim PTX: 800000 instructions simulated : ctaid=(2,19,0) tid=(2,5,0)
GPGPU-Sim uArch: cycles simulated: 4500  inst.: 887483 (ipc=197.2) sim_rate=147913 (inst/sec) elapsed = 0:0:00:06 / Tue Mar 22 13:12:36 2016
GPGPU-Sim PTX: 900000 instructions simulated : ctaid=(2,12,0) tid=(6,4,0)
GPGPU-Sim PTX: 1000000 instructions simulated : ctaid=(4,0,0) tid=(6,5,0)
GPGPU-Sim PTX: 1100000 instructions simulated : ctaid=(5,12,0) tid=(8,5,0)
GPGPU-Sim uArch: cycles simulated: 5500  inst.: 1120114 (ipc=203.7) sim_rate=160016 (inst/sec) elapsed = 0:0:00:07 / Tue Mar 22 13:12:37 2016
GPGPU-Sim PTX: 1200000 instructions simulated : ctaid=(4,4,0) tid=(6,2,0)
GPGPU-Sim PTX: 1300000 instructions simulated : ctaid=(0,16,0) tid=(0,1,0)
GPGPU-Sim uArch: cycles simulated: 6500  inst.: 1357555 (ipc=208.9) sim_rate=169694 (inst/sec) elapsed = 0:0:00:08 / Tue Mar 22 13:12:38 2016
GPGPU-Sim PTX: 1400000 instructions simulated : ctaid=(2,16,0) tid=(8,2,0)
GPGPU-Sim PTX: 1500000 instructions simulated : ctaid=(2,17,0) tid=(7,0,0)
GPGPU-Sim uArch: cycles simulated: 7500  inst.: 1581127 (ipc=210.8) sim_rate=175680 (inst/sec) elapsed = 0:0:00:09 / Tue Mar 22 13:12:39 2016
GPGPU-Sim PTX: 1600000 instructions simulated : ctaid=(5,4,0) tid=(7,3,0)
GPGPU-Sim PTX: 1700000 instructions simulated : ctaid=(3,1,0) tid=(10,5,0)
GPGPU-Sim PTX: 1800000 instructions simulated : ctaid=(4,10,0) tid=(11,12,0)
GPGPU-Sim uArch: cycles simulated: 8500  inst.: 1807156 (ipc=212.6) sim_rate=180715 (inst/sec) elapsed = 0:0:00:10 / Tue Mar 22 13:12:40 2016
GPGPU-Sim PTX: 1900000 instructions simulated : ctaid=(2,15,0) tid=(10,6,0)
GPGPU-Sim PTX: 2000000 instructions simulated : ctaid=(0,18,0) tid=(12,5,0)
GPGPU-Sim uArch: cycles simulated: 9500  inst.: 2015267 (ipc=212.1) sim_rate=183206 (inst/sec) elapsed = 0:0:00:11 / Tue Mar 22 13:12:41 2016
GPGPU-Sim PTX: 2100000 instructions simulated : ctaid=(2,8,0) tid=(5,10,0)
GPGPU-Sim PTX: 2200000 instructions simulated : ctaid=(2,7,0) tid=(11,9,0)
GPGPU-Sim uArch: cycles simulated: 10500  inst.: 2235444 (ipc=212.9) sim_rate=186287 (inst/sec) elapsed = 0:0:00:12 / Tue Mar 22 13:12:42 2016
GPGPU-Sim PTX: 2300000 instructions simulated : ctaid=(3,18,0) tid=(0,0,0)
GPGPU-Sim PTX: 2400000 instructions simulated : ctaid=(2,15,0) tid=(12,12,0)
GPGPU-Sim uArch: cycles simulated: 11500  inst.: 2445575 (ipc=212.7) sim_rate=188121 (inst/sec) elapsed = 0:0:00:13 / Tue Mar 22 13:12:43 2016
GPGPU-Sim PTX: 2500000 instructions simulated : ctaid=(5,4,0) tid=(8,8,0)
GPGPU-Sim PTX: 2600000 instructions simulated : ctaid=(3,17,0) tid=(1,0,0)
GPGPU-Sim uArch: cycles simulated: 12500  inst.: 2642731 (ipc=211.4) sim_rate=188766 (inst/sec) elapsed = 0:0:00:14 / Tue Mar 22 13:12:44 2016
GPGPU-Sim PTX: 2700000 instructions simulated : ctaid=(4,12,0) tid=(5,5,0)
GPGPU-Sim PTX: 2800000 instructions simulated : ctaid=(3,16,0) tid=(5,7,0)
GPGPU-Sim uArch: cycles simulated: 13500  inst.: 2864486 (ipc=212.2) sim_rate=190965 (inst/sec) elapsed = 0:0:00:15 / Tue Mar 22 13:12:45 2016
GPGPU-Sim PTX: 2900000 instructions simulated : ctaid=(0,6,0) tid=(10,11,0)
GPGPU-Sim PTX: 3000000 instructions simulated : ctaid=(4,15,0) tid=(12,1,0)
GPGPU-Sim PTX: 3100000 instructions simulated : ctaid=(5,15,0) tid=(2,6,0)
GPGPU-Sim uArch: cycles simulated: 14500  inst.: 3094431 (ipc=213.4) sim_rate=193401 (inst/sec) elapsed = 0:0:00:16 / Tue Mar 22 13:12:46 2016
GPGPU-Sim PTX: 3200000 instructions simulated : ctaid=(3,1,0) tid=(3,5,0)
GPGPU-Sim PTX: 3300000 instructions simulated : ctaid=(4,17,0) tid=(9,11,0)
GPGPU-Sim uArch: cycles simulated: 15500  inst.: 3309081 (ipc=213.5) sim_rate=194651 (inst/sec) elapsed = 0:0:00:17 / Tue Mar 22 13:12:47 2016
GPGPU-Sim PTX: 3400000 instructions simulated : ctaid=(5,8,0) tid=(8,12,0)
GPGPU-Sim PTX: 3500000 instructions simulated : ctaid=(4,13,0) tid=(11,0,0)
GPGPU-Sim uArch: cycles simulated: 16500  inst.: 3533187 (ipc=214.1) sim_rate=196288 (inst/sec) elapsed = 0:0:00:18 / Tue Mar 22 13:12:48 2016
GPGPU-Sim PTX: 3600000 instructions simulated : ctaid=(1,9,0) tid=(11,5,0)
GPGPU-Sim PTX: 3700000 instructions simulated : ctaid=(1,2,0) tid=(4,5,0)
GPGPU-Sim uArch: cycles simulated: 17500  inst.: 3729750 (ipc=213.1) sim_rate=196302 (inst/sec) elapsed = 0:0:00:19 / Tue Mar 22 13:12:49 2016
GPGPU-Sim PTX: 3800000 instructions simulated : ctaid=(2,16,0) tid=(6,7,0)
GPGPU-Sim PTX: 3900000 instructions simulated : ctaid=(2,14,0) tid=(2,7,0)
GPGPU-Sim uArch: cycles simulated: 18500  inst.: 3957664 (ipc=213.9) sim_rate=197883 (inst/sec) elapsed = 0:0:00:20 / Tue Mar 22 13:12:50 2016
GPGPU-Sim PTX: 4000000 instructions simulated : ctaid=(3,12,0) tid=(0,5,0)
GPGPU-Sim PTX: 4100000 instructions simulated : ctaid=(5,7,0) tid=(3,2,0)
GPGPU-Sim PTX: 4200000 instructions simulated : ctaid=(4,8,0) tid=(3,8,0)
GPGPU-Sim uArch: cycles simulated: 19500  inst.: 4205165 (ipc=215.6) sim_rate=200245 (inst/sec) elapsed = 0:0:00:21 / Tue Mar 22 13:12:51 2016
GPGPU-Sim PTX: 4300000 instructions simulated : ctaid=(1,5,0) tid=(8,10,0)
GPGPU-Sim PTX: 4400000 instructions simulated : ctaid=(0,1,0) tid=(10,0,0)
GPGPU-Sim uArch: cycles simulated: 20500  inst.: 4446203 (ipc=216.9) sim_rate=202100 (inst/sec) elapsed = 0:0:00:22 / Tue Mar 22 13:12:52 2016
GPGPU-Sim PTX: 4500000 instructions simulated : ctaid=(3,7,0) tid=(4,4,0)
GPGPU-Sim PTX: 4600000 instructions simulated : ctaid=(0,17,0) tid=(3,8,0)
GPGPU-Sim PTX: 4700000 instructions simulated : ctaid=(1,4,0) tid=(10,6,0)
GPGPU-Sim uArch: cycles simulated: 21500  inst.: 4706963 (ipc=218.9) sim_rate=204650 (inst/sec) elapsed = 0:0:00:23 / Tue Mar 22 13:12:53 2016
GPGPU-Sim PTX: 4800000 instructions simulated : ctaid=(5,1,0) tid=(8,8,0)
GPGPU-Sim PTX: 4900000 instructions simulated : ctaid=(4,16,0) tid=(8,6,0)
GPGPU-Sim uArch: cycles simulated: 22500  inst.: 4954270 (ipc=220.2) sim_rate=206427 (inst/sec) elapsed = 0:0:00:24 / Tue Mar 22 13:12:54 2016
GPGPU-Sim PTX: 5000000 instructions simulated : ctaid=(4,1,0) tid=(9,5,0)
GPGPU-Sim PTX: 5100000 instructions simulated : ctaid=(5,19,0) tid=(0,12,0)
GPGPU-Sim PTX: 5200000 instructions simulated : ctaid=(4,8,0) tid=(0,2,0)
GPGPU-Sim uArch: cycles simulated: 23500  inst.: 5213927 (ipc=221.9) sim_rate=208557 (inst/sec) elapsed = 0:0:00:25 / Tue Mar 22 13:12:55 2016
GPGPU-Sim PTX: 5300000 instructions simulated : ctaid=(5,1,0) tid=(2,10,0)
GPGPU-Sim PTX: 5400000 instructions simulated : ctaid=(4,5,0) tid=(9,1,0)
GPGPU-Sim uArch: cycles simulated: 24500  inst.: 5477975 (ipc=223.6) sim_rate=210691 (inst/sec) elapsed = 0:0:00:26 / Tue Mar 22 13:12:56 2016
GPGPU-Sim PTX: 5500000 instructions simulated : ctaid=(2,8,0) tid=(10,5,0)
GPGPU-Sim PTX: 5600000 instructions simulated : ctaid=(3,9,0) tid=(0,3,0)
GPGPU-Sim PTX: 5700000 instructions simulated : ctaid=(0,14,0) tid=(9,2,0)
GPGPU-Sim uArch: cycles simulated: 25500  inst.: 5778793 (ipc=226.6) sim_rate=214029 (inst/sec) elapsed = 0:0:00:27 / Tue Mar 22 13:12:57 2016
GPGPU-Sim PTX: 5800000 instructions simulated : ctaid=(5,17,0) tid=(2,1,0)
GPGPU-Sim PTX: 5900000 instructions simulated : ctaid=(4,15,0) tid=(10,0,0)
GPGPU-Sim uArch: cycles simulated: 26000  inst.: 5940673 (ipc=228.5) sim_rate=212166 (inst/sec) elapsed = 0:0:00:28 / Tue Mar 22 13:12:58 2016
GPGPU-Sim PTX: 6000000 instructions simulated : ctaid=(0,10,0) tid=(10,6,0)
GPGPU-Sim PTX: 6100000 instructions simulated : ctaid=(2,10,0) tid=(1,1,0)
GPGPU-Sim PTX: 6200000 instructions simulated : ctaid=(3,5,0) tid=(4,3,0)
GPGPU-Sim uArch: cycles simulated: 27000  inst.: 6272294 (ipc=232.3) sim_rate=216286 (inst/sec) elapsed = 0:0:00:29 / Tue Mar 22 13:12:59 2016
GPGPU-Sim PTX: 6300000 instructions simulated : ctaid=(4,6,0) tid=(0,7,0)
GPGPU-Sim PTX: 6400000 instructions simulated : ctaid=(0,1,0) tid=(2,5,0)
GPGPU-Sim PTX: 6500000 instructions simulated : ctaid=(3,5,0) tid=(7,12,0)
GPGPU-Sim PTX: 6600000 instructions simulated : ctaid=(1,17,0) tid=(7,9,0)
GPGPU-Sim uArch: cycles simulated: 28000  inst.: 6669668 (ipc=238.2) sim_rate=222322 (inst/sec) elapsed = 0:0:00:30 / Tue Mar 22 13:13:00 2016
GPGPU-Sim PTX: 6700000 instructions simulated : ctaid=(5,12,0) tid=(12,2,0)
GPGPU-Sim PTX: 6800000 instructions simulated : ctaid=(2,8,0) tid=(7,9,0)
GPGPU-Sim PTX: 6900000 instructions simulated : ctaid=(1,9,0) tid=(5,12,0)
GPGPU-Sim uArch: cycles simulated: 28500  inst.: 6887024 (ipc=241.6) sim_rate=222162 (inst/sec) elapsed = 0:0:00:31 / Tue Mar 22 13:13:01 2016
GPGPU-Sim PTX: 7000000 instructions simulated : ctaid=(4,12,0) tid=(12,3,0)
GPGPU-Sim PTX: 7100000 instructions simulated : ctaid=(5,18,0) tid=(2,8,0)
GPGPU-Sim PTX: 7200000 instructions simulated : ctaid=(2,18,0) tid=(7,2,0)
GPGPU-Sim PTX: 7300000 instructions simulated : ctaid=(3,9,0) tid=(5,4,0)
GPGPU-Sim uArch: cycles simulated: 29500  inst.: 7289294 (ipc=247.1) sim_rate=227790 (inst/sec) elapsed = 0:0:00:32 / Tue Mar 22 13:13:02 2016
GPGPU-Sim PTX: 7400000 instructions simulated : ctaid=(4,13,0) tid=(5,8,0)
GPGPU-Sim uArch: Shader 1 finished CTA #6 (30048,0), 7 CTAs running
GPGPU-Sim uArch: core:  1, cta: 6 initialized @(30049,0)
GPGPU-Sim PTX: 7500000 instructions simulated : ctaid=(1,2,0) tid=(11,7,0)
GPGPU-Sim uArch: Shader 4 finished CTA #6 (30173,0), 7 CTAs running
GPGPU-Sim uArch: core:  4, cta: 6 initialized @(30174,0)
GPGPU-Sim uArch: Shader 6 finished CTA #2 (30221,0), 7 CTAs running
GPGPU-Sim uArch: core:  6, cta: 2 initialized @(30222,0)
GPGPU-Sim PTX: 7600000 instructions simulated : ctaid=(0,5,0) tid=(12,7,0)
GPGPU-Sim uArch: Shader 6 finished CTA #7 (30450,0), 7 CTAs running
GPGPU-Sim uArch: core:  6, cta: 7 initialized @(30451,0)
GPGPU-Sim uArch: cycles simulated: 30500  inst.: 7623287 (ipc=249.9) sim_rate=231008 (inst/sec) elapsed = 0:0:00:33 / Tue Mar 22 13:13:03 2016
GPGPU-Sim uArch: Shader 6 finished CTA #1 (30567,0), 7 CTAs running
GPGPU-Sim uArch: core:  6, cta: 1 initialized @(30568,0)
GPGPU-Sim PTX: 7700000 instructions simulated : ctaid=(4,11,0) tid=(1,3,0)
GPGPU-Sim PTX: 7800000 instructions simulated : ctaid=(3,17,0) tid=(6,3,0)
GPGPU-Sim uArch: cycles simulated: 31000  inst.: 7809058 (ipc=251.9) sim_rate=229678 (inst/sec) elapsed = 0:0:00:34 / Tue Mar 22 13:13:04 2016
GPGPU-Sim uArch: Shader 3 finished CTA #6 (31033,0), 7 CTAs running
GPGPU-Sim uArch: core:  3, cta: 6 initialized @(31034,0)
GPGPU-Sim uArch: Shader 13 finished CTA #7 (31106,0), 7 CTAs running
GPGPU-Sim uArch: core: 13, cta: 7 initialized @(31107,0)
GPGPU-Sim PTX: 7900000 instructions simulated : ctaid=(2,20,0) tid=(4,8,0)
GPGPU-Sim uArch: Shader 5 finished CTA #7 (31182,0), 7 CTAs running
GPGPU-Sim uArch: core:  5, cta: 7 initialized @(31183,0)
GPGPU-Sim uArch: Shader 13 finished CTA #2 (31188,0), 7 CTAs running
GPGPU-Sim uArch: core: 13, cta: 2 initialized @(31189,0)
GPGPU-Sim uArch: Shader 5 finished CTA #3 (31205,0), 7 CTAs running
GPGPU-Sim uArch: core:  5, cta: 3 initialized @(31206,0)
GPGPU-Sim uArch: Shader 13 finished CTA #5 (31220,0), 7 CTAs running
GPGPU-Sim uArch: core: 13, cta: 5 initialized @(31221,0)
GPGPU-Sim uArch: Shader 5 finished CTA #6 (31264,0), 7 CTAs running
GPGPU-Sim uArch: core:  5, cta: 6 initialized @(31265,0)
GPGPU-Sim uArch: Shader 6 finished CTA #5 (31331,0), 7 CTAs running
GPGPU-Sim uArch: core:  6, cta: 5 initialized @(31332,0)
GPGPU-Sim PTX: 8000000 instructions simulated : ctaid=(4,7,0) tid=(5,7,0)
GPGPU-Sim uArch: Shader 3 finished CTA #5 (31400,0), 7 CTAs running
GPGPU-Sim uArch: core:  3, cta: 5 initialized @(31401,0)
GPGPU-Sim uArch: Shader 14 finished CTA #1 (31428,0), 7 CTAs running
GPGPU-Sim uArch: core: 14, cta: 1 initialized @(31429,0)
GPGPU-Sim uArch: Shader 1 finished CTA #1 (31440,0), 7 CTAs running
GPGPU-Sim uArch: core:  1, cta: 1 initialized @(31441,0)
GPGPU-Sim uArch: Shader 2 finished CTA #4 (31450,0), 7 CTAs running
GPGPU-Sim uArch: core:  2, cta: 4 initialized @(31451,0)
GPGPU-Sim PTX: 8100000 instructions simulated : ctaid=(1,4,0) tid=(4,4,0)
GPGPU-Sim uArch: Shader 8 finished CTA #7 (31702,0), 7 CTAs running
GPGPU-Sim uArch: core:  8, cta: 7 initialized @(31703,0)
GPGPU-Sim PTX: 8200000 instructions simulated : ctaid=(0,20,0) tid=(0,2,0)
GPGPU-Sim uArch: Shader 5 finished CTA #1 (31895,0), 7 CTAs running
GPGPU-Sim uArch: core:  5, cta: 1 initialized @(31896,0)
GPGPU-Sim uArch: Shader 12 finished CTA #1 (31951,0), 7 CTAs running
GPGPU-Sim uArch: core: 12, cta: 1 initialized @(31952,0)
GPGPU-Sim uArch: Shader 6 finished CTA #3 (31989,0), 7 CTAs running
GPGPU-Sim uArch: Shader 6 finished CTA #6 (31989,0), 6 CTAs running
GPGPU-Sim uArch: core:  6, cta: 3 initialized @(31990,0)
GPGPU-Sim uArch: core:  6, cta: 6 initialized @(31991,0)
GPGPU-Sim uArch: cycles simulated: 32000  inst.: 8247722 (ipc=257.7) sim_rate=235649 (inst/sec) elapsed = 0:0:00:35 / Tue Mar 22 13:13:05 2016
GPGPU-Sim uArch: Shader 12 finished CTA #4 (32023,0), 7 CTAs running
GPGPU-Sim uArch: core: 12, cta: 4 initialized @(32024,0)
GPGPU-Sim PTX: 8300000 instructions simulated : ctaid=(4,0,0) tid=(9,8,0)
GPGPU-Sim uArch: Shader 1 finished CTA #2 (32060,0), 7 CTAs running
GPGPU-Sim uArch: core:  1, cta: 2 initialized @(32061,0)
GPGPU-Sim uArch: Shader 4 finished CTA #0 (32083,0), 7 CTAs running
GPGPU-Sim uArch: core:  4, cta: 0 initialized @(32084,0)
GPGPU-Sim uArch: Shader 14 finished CTA #0 (32085,0), 7 CTAs running
GPGPU-Sim uArch: core: 14, cta: 0 initialized @(32086,0)
GPGPU-Sim uArch: Shader 0 finished CTA #4 (32100,0), 7 CTAs running
GPGPU-Sim uArch: core:  0, cta: 4 initialized @(32101,0)
GPGPU-Sim uArch: Shader 6 finished CTA #0 (32118,0), 7 CTAs running
GPGPU-Sim uArch: core:  6, cta: 0 initialized @(32119,0)
GPGPU-Sim uArch: Shader 4 finished CTA #2 (32143,0), 7 CTAs running
GPGPU-Sim uArch: core:  4, cta: 2 initialized @(32144,0)
GPGPU-Sim uArch: Shader 2 finished CTA #6 (32184,0), 7 CTAs running
GPGPU-Sim uArch: core:  2, cta: 6 initialized @(32185,0)
GPGPU-Sim PTX: 8400000 instructions simulated : ctaid=(2,20,0) tid=(2,8,0)
GPGPU-Sim uArch: Shader 2 finished CTA #3 (32319,0), 7 CTAs running
GPGPU-Sim uArch: core:  2, cta: 3 initialized @(32320,0)
GPGPU-Sim uArch: Shader 8 finished CTA #5 (32333,0), 7 CTAs running
GPGPU-Sim uArch: core:  8, cta: 5 initialized @(32334,0)
GPGPU-Sim uArch: Shader 2 finished CTA #7 (32366,0), 7 CTAs running
GPGPU-Sim uArch: core:  2, cta: 7 initialized @(32367,0)
GPGPU-Sim uArch: Shader 5 finished CTA #5 (32385,0), 7 CTAs running
GPGPU-Sim uArch: core:  5, cta: 5 initialized @(32386,0)
GPGPU-Sim uArch: Shader 10 finished CTA #2 (32419,0), 7 CTAs running
GPGPU-Sim uArch: core: 10, cta: 2 initialized @(32420,0)
GPGPU-Sim PTX: 8500000 instructions simulated : ctaid=(1,25,0) tid=(9,6,0)
GPGPU-Sim uArch: Shader 0 finished CTA #2 (32460,0), 7 CTAs running
GPGPU-Sim uArch: core:  0, cta: 2 initialized @(32461,0)
GPGPU-Sim uArch: cycles simulated: 32500  inst.: 8509525 (ipc=261.8) sim_rate=236375 (inst/sec) elapsed = 0:0:00:36 / Tue Mar 22 13:13:06 2016
GPGPU-Sim uArch: Shader 7 finished CTA #2 (32559,0), 7 CTAs running
GPGPU-Sim uArch: core:  7, cta: 2 initialized @(32560,0)
GPGPU-Sim uArch: Shader 5 finished CTA #0 (32563,0), 7 CTAs running
GPGPU-Sim uArch: core:  5, cta: 0 initialized @(32564,0)
GPGPU-Sim uArch: Shader 0 finished CTA #7 (32593,0), 7 CTAs running
GPGPU-Sim uArch: core:  0, cta: 7 initialized @(32594,0)
GPGPU-Sim PTX: 8600000 instructions simulated : ctaid=(0,22,0) tid=(3,6,0)
GPGPU-Sim uArch: Shader 11 finished CTA #7 (32676,0), 7 CTAs running
GPGPU-Sim uArch: core: 11, cta: 7 initialized @(32677,0)
GPGPU-Sim uArch: Shader 12 finished CTA #5 (32689,0), 7 CTAs running
GPGPU-Sim uArch: core: 12, cta: 5 initialized @(32690,0)
GPGPU-Sim uArch: Shader 14 finished CTA #4 (32694,0), 7 CTAs running
GPGPU-Sim uArch: core: 14, cta: 4 initialized @(32695,0)
GPGPU-Sim uArch: Shader 11 finished CTA #1 (32698,0), 7 CTAs running
GPGPU-Sim uArch: core: 11, cta: 1 initialized @(32699,0)
GPGPU-Sim uArch: Shader 11 finished CTA #3 (32754,0), 7 CTAs running
GPGPU-Sim uArch: core: 11, cta: 3 initialized @(32755,0)
GPGPU-Sim uArch: Shader 7 finished CTA #3 (32756,0), 7 CTAs running
GPGPU-Sim uArch: core:  7, cta: 3 initialized @(32757,0)
GPGPU-Sim uArch: Shader 6 finished CTA #4 (32774,0), 7 CTAs running
GPGPU-Sim uArch: core:  6, cta: 4 initialized @(32775,0)
GPGPU-Sim PTX: 8700000 instructions simulated : ctaid=(2,26,0) tid=(6,9,0)
GPGPU-Sim uArch: Shader 3 finished CTA #4 (32811,0), 7 CTAs running
GPGPU-Sim uArch: core:  3, cta: 4 initialized @(32812,0)
GPGPU-Sim uArch: Shader 4 finished CTA #5 (32886,0), 7 CTAs running
GPGPU-Sim uArch: core:  4, cta: 5 initialized @(32887,0)
GPGPU-Sim PTX: 8800000 instructions simulated : ctaid=(4,1,0) tid=(9,4,0)
GPGPU-Sim uArch: Shader 10 finished CTA #4 (32955,0), 7 CTAs running
GPGPU-Sim uArch: Shader 8 finished CTA #6 (32960,0), 7 CTAs running
GPGPU-Sim uArch: Shader 10 finished CTA #0 (32960,0), 6 CTAs running
GPGPU-Sim uArch: Shader 12 finished CTA #7 (32963,0), 7 CTAs running
GPGPU-Sim uArch: Shader 13 finished CTA #1 (32969,0), 7 CTAs running
GPGPU-Sim uArch: Shader 3 finished CTA #1 (32974,0), 7 CTAs running
GPGPU-Sim uArch: cycles simulated: 33000  inst.: 8793313 (ipc=266.5) sim_rate=237657 (inst/sec) elapsed = 0:0:00:37 / Tue Mar 22 13:13:07 2016
GPGPU-Sim uArch: Shader 2 finished CTA #2 (33020,0), 7 CTAs running
GPGPU-Sim uArch: Shader 7 finished CTA #0 (33045,0), 7 CTAs running
GPGPU-Sim uArch: Shader 10 finished CTA #1 (33082,0), 5 CTAs running
GPGPU-Sim uArch: Shader 4 finished CTA #7 (33103,0), 7 CTAs running
GPGPU-Sim PTX: 8900000 instructions simulated : ctaid=(0,25,0) tid=(7,9,0)
GPGPU-Sim uArch: Shader 14 finished CTA #2 (33216,0), 7 CTAs running
GPGPU-Sim uArch: Shader 13 finished CTA #0 (33280,0), 6 CTAs running
GPGPU-Sim PTX: 9000000 instructions simulated : ctaid=(1,25,0) tid=(6,0,0)
GPGPU-Sim uArch: Shader 8 finished CTA #1 (33287,0), 6 CTAs running
GPGPU-Sim uArch: Shader 0 finished CTA #3 (33296,0), 7 CTAs running
GPGPU-Sim uArch: Shader 11 finished CTA #2 (33298,0), 7 CTAs running
GPGPU-Sim uArch: Shader 0 finished CTA #5 (33334,0), 6 CTAs running
GPGPU-Sim uArch: Shader 3 finished CTA #7 (33354,0), 6 CTAs running
GPGPU-Sim uArch: Shader 10 finished CTA #5 (33364,0), 4 CTAs running
GPGPU-Sim uArch: Shader 14 finished CTA #6 (33372,0), 6 CTAs running
GPGPU-Sim PTX: 9100000 instructions simulated : ctaid=(5,25,0) tid=(6,12,0)
GPGPU-Sim uArch: Shader 10 finished CTA #7 (33450,0), 3 CTAs running
GPGPU-Sim uArch: Shader 3 finished CTA #2 (33477,0), 5 CTAs running
GPGPU-Sim uArch: Shader 10 finished CTA #3 (33491,0), 2 CTAs running
GPGPU-Sim uArch: Shader 9 finished CTA #0 (33520,0), 7 CTAs running
GPGPU-Sim uArch: Shader 5 finished CTA #4 (33529,0), 7 CTAs running
GPGPU-Sim uArch: Shader 10 finished CTA #6 (33539,0), 1 CTAs running
GPGPU-Sim uArch: Shader 12 finished CTA #0 (33596,0), 6 CTAs running
GPGPU-Sim PTX: 9200000 instructions simulated : ctaid=(0,24,0) tid=(2,8,0)
GPGPU-Sim uArch: Shader 1 finished CTA #0 (33628,0), 7 CTAs running
GPGPU-Sim uArch: Shader 8 finished CTA #3 (33660,0), 5 CTAs running
GPGPU-Sim uArch: Shader 0 finished CTA #1 (33674,0), 5 CTAs running
GPGPU-Sim uArch: Shader 7 finished CTA #7 (33687,0), 6 CTAs running
GPGPU-Sim uArch: Shader 0 finished CTA #6 (33689,0), 4 CTAs running
GPGPU-Sim uArch: Shader 4 finished CTA #4 (33713,0), 6 CTAs running
GPGPU-Sim uArch: Shader 13 finished CTA #3 (33751,0), 5 CTAs running
GPGPU-Sim PTX: 9300000 instructions simulated : ctaid=(2,26,0) tid=(12,8,0)
GPGPU-Sim uArch: Shader 12 finished CTA #6 (33782,0), 5 CTAs running
GPGPU-Sim uArch: Shader 11 finished CTA #5 (33817,0), 6 CTAs running
GPGPU-Sim uArch: Shader 2 finished CTA #5 (33892,0), 6 CTAs running
GPGPU-Sim uArch: Shader 2 finished CTA #1 (33900,0), 5 CTAs running
GPGPU-Sim uArch: Shader 13 finished CTA #4 (33911,0), 4 CTAs running
GPGPU-Sim uArch: Shader 9 finished CTA #3 (33923,0), 6 CTAs running
GPGPU-Sim PTX: 9400000 instructions simulated : ctaid=(2,24,0) tid=(4,9,0)
GPGPU-Sim uArch: Shader 8 finished CTA #2 (33966,0), 4 CTAs running
GPGPU-Sim uArch: cycles simulated: 34000  inst.: 9413051 (ipc=276.9) sim_rate=247711 (inst/sec) elapsed = 0:0:00:38 / Tue Mar 22 13:13:08 2016
GPGPU-Sim PTX: 9500000 instructions simulated : ctaid=(1,25,0) tid=(5,5,0)
GPGPU-Sim uArch: Shader 9 finished CTA #4 (34103,0), 5 CTAs running
GPGPU-Sim uArch: Shader 9 finished CTA #1 (34182,0), 4 CTAs running
GPGPU-Sim uArch: Shader 3 finished CTA #0 (34186,0), 4 CTAs running
GPGPU-Sim PTX: 9600000 instructions simulated : ctaid=(0,21,0) tid=(8,11,0)
GPGPU-Sim uArch: Shader 14 finished CTA #7 (34261,0), 5 CTAs running
GPGPU-Sim uArch: Shader 12 finished CTA #2 (34269,0), 4 CTAs running
GPGPU-Sim uArch: Shader 1 finished CTA #7 (34277,0), 6 CTAs running
GPGPU-Sim uArch: Shader 9 finished CTA #7 (34295,0), 3 CTAs running
GPGPU-Sim uArch: Shader 12 finished CTA #3 (34309,0), 3 CTAs running
GPGPU-Sim uArch: Shader 3 finished CTA #3 (34336,0), 3 CTAs running
GPGPU-Sim PTX: 9700000 instructions simulated : ctaid=(2,26,0) tid=(12,8,0)
GPGPU-Sim uArch: Shader 13 finished CTA #6 (34426,0), 3 CTAs running
GPGPU-Sim uArch: cycles simulated: 34500  inst.: 9724311 (ipc=281.9) sim_rate=249341 (inst/sec) elapsed = 0:0:00:39 / Tue Mar 22 13:13:09 2016
GPGPU-Sim uArch: Shader 0 finished CTA #0 (34543,0), 3 CTAs running
GPGPU-Sim PTX: 9800000 instructions simulated : ctaid=(4,22,0) tid=(7,4,0)
GPGPU-Sim uArch: Shader 14 finished CTA #3 (34608,0), 4 CTAs running
GPGPU-Sim uArch: Shader 7 finished CTA #6 (34633,0), 5 CTAs running
GPGPU-Sim uArch: Shader 9 finished CTA #5 (34654,0), 2 CTAs running
GPGPU-Sim uArch: Shader 7 finished CTA #1 (34668,0), 4 CTAs running
GPGPU-Sim uArch: Shader 9 finished CTA #6 (34679,0), 1 CTAs running
GPGPU-Sim uArch: Shader 1 finished CTA #5 (34689,0), 5 CTAs running
GPGPU-Sim uArch: Shader 2 finished CTA #0 (34699,0), 4 CTAs running
GPGPU-Sim PTX: 9900000 instructions simulated : ctaid=(5,25,0) tid=(9,0,0)
GPGPU-Sim uArch: Shader 7 finished CTA #4 (34812,0), 3 CTAs running
GPGPU-Sim PTX: 10000000 instructions simulated : ctaid=(4,25,0) tid=(6,2,0)
GPGPU-Sim uArch: Shader 9 finished CTA #2 (34900,0), 0 CTAs running
GPGPU-Sim uArch: Shader 9 empty (release kernel 1 '_Z17executeFirstLayerPfS_S_').
GPGPU-Sim uArch: Shader 11 finished CTA #4 (34919,0), 5 CTAs running
GPGPU-Sim uArch: Shader 8 finished CTA #4 (34922,0), 3 CTAs running
GPGPU-Sim uArch: Shader 11 finished CTA #6 (34996,0), 4 CTAs running
GPGPU-Sim uArch: cycles simulated: 35000  inst.: 10028433 (ipc=286.5) sim_rate=250710 (inst/sec) elapsed = 0:0:00:40 / Tue Mar 22 13:13:10 2016
GPGPU-Sim uArch: Shader 4 finished CTA #1 (35007,0), 5 CTAs running
GPGPU-Sim uArch: Shader 11 finished CTA #0 (35026,0), 3 CTAs running
GPGPU-Sim uArch: Shader 1 finished CTA #3 (35053,0), 4 CTAs running
GPGPU-Sim PTX: 10100000 instructions simulated : ctaid=(2,21,0) tid=(2,11,0)
GPGPU-Sim uArch: Shader 14 finished CTA #5 (35080,0), 3 CTAs running
GPGPU-Sim PTX: 10200000 instructions simulated : ctaid=(0,21,0) tid=(3,8,0)
GPGPU-Sim uArch: Shader 5 finished CTA #2 (35302,0), 6 CTAs running
GPGPU-Sim uArch: Shader 1 finished CTA #4 (35403,0), 3 CTAs running
GPGPU-Sim PTX: 10300000 instructions simulated : ctaid=(4,27,0) tid=(4,1,0)
GPGPU-Sim PTX: 10400000 instructions simulated : ctaid=(1,24,0) tid=(12,3,0)
GPGPU-Sim uArch: Shader 7 finished CTA #5 (35616,0), 2 CTAs running
GPGPU-Sim uArch: Shader 8 finished CTA #0 (35658,0), 2 CTAs running
GPGPU-Sim uArch: Shader 4 finished CTA #3 (35664,0), 4 CTAs running
GPGPU-Sim PTX: 10500000 instructions simulated : ctaid=(5,24,0) tid=(0,7,0)
GPGPU-Sim PTX: 10600000 instructions simulated : ctaid=(2,24,0) tid=(2,3,0)
GPGPU-Sim uArch: cycles simulated: 36000  inst.: 10585468 (ipc=294.0) sim_rate=258182 (inst/sec) elapsed = 0:0:00:41 / Tue Mar 22 13:13:11 2016
GPGPU-Sim PTX: 10700000 instructions simulated : ctaid=(4,23,0) tid=(3,12,0)
GPGPU-Sim PTX: 10800000 instructions simulated : ctaid=(5,25,0) tid=(2,9,0)
GPGPU-Sim uArch: cycles simulated: 36500  inst.: 10827840 (ipc=296.7) sim_rate=257805 (inst/sec) elapsed = 0:0:00:42 / Tue Mar 22 13:13:12 2016
GPGPU-Sim uArch: Shader 1 finished CTA #6 (36506,0), 2 CTAs running
GPGPU-Sim PTX: 10900000 instructions simulated : ctaid=(2,23,0) tid=(11,2,0)
GPGPU-Sim uArch: Shader 10 finished CTA #2 (36597,0), 0 CTAs running
GPGPU-Sim uArch: Shader 10 empty (release kernel 1 '_Z17executeFirstLayerPfS_S_').
GPGPU-Sim uArch: Shader 8 finished CTA #7 (36618,0), 1 CTAs running
GPGPU-Sim uArch: Shader 3 finished CTA #6 (36753,0), 2 CTAs running
GPGPU-Sim PTX: 11000000 instructions simulated : ctaid=(2,20,0) tid=(3,8,0)
GPGPU-Sim uArch: Shader 1 finished CTA #1 (37001,0), 1 CTAs running
GPGPU-Sim uArch: Shader 8 finished CTA #5 (37049,0), 0 CTAs running
GPGPU-Sim uArch: Shader 8 empty (release kernel 1 '_Z17executeFirstLayerPfS_S_').
GPGPU-Sim PTX: 11100000 instructions simulated : ctaid=(4,20,0) tid=(6,2,0)
GPGPU-Sim uArch: Shader 7 finished CTA #3 (37285,0), 1 CTAs running
GPGPU-Sim uArch: Shader 13 finished CTA #7 (37302,0), 2 CTAs running
GPGPU-Sim uArch: Shader 4 finished CTA #6 (37329,0), 3 CTAs running
GPGPU-Sim uArch: Shader 7 finished CTA #2 (37366,0), 0 CTAs running
GPGPU-Sim uArch: Shader 7 empty (release kernel 1 '_Z17executeFirstLayerPfS_S_').
GPGPU-Sim uArch: Shader 13 finished CTA #5 (37374,0), 1 CTAs running
GPGPU-Sim PTX: 11200000 instructions simulated : ctaid=(5,24,0) tid=(5,9,0)
GPGPU-Sim uArch: Shader 1 finished CTA #2 (37474,0), 0 CTAs running
GPGPU-Sim uArch: Shader 1 empty (release kernel 1 '_Z17executeFirstLayerPfS_S_').
GPGPU-Sim uArch: cycles simulated: 37500  inst.: 11175259 (ipc=298.0) sim_rate=259889 (inst/sec) elapsed = 0:0:00:43 / Tue Mar 22 13:13:13 2016
GPGPU-Sim uArch: Shader 13 finished CTA #2 (37512,0), 0 CTAs running
GPGPU-Sim uArch: Shader 13 empty (release kernel 1 '_Z17executeFirstLayerPfS_S_').
GPGPU-Sim uArch: Shader 14 finished CTA #1 (37517,0), 2 CTAs running
GPGPU-Sim uArch: Shader 3 finished CTA #5 (37527,0), 1 CTAs running
GPGPU-Sim uArch: Shader 3 finished CTA #4 (37697,0), 0 CTAs running
GPGPU-Sim uArch: Shader 3 empty (release kernel 1 '_Z17executeFirstLayerPfS_S_').
GPGPU-Sim uArch: Shader 14 finished CTA #0 (37834,0), 1 CTAs running
GPGPU-Sim PTX: 11300000 instructions simulated : ctaid=(5,26,0) tid=(2,4,0)
GPGPU-Sim uArch: Shader 12 finished CTA #4 (37891,0), 2 CTAs running
GPGPU-Sim uArch: Shader 12 finished CTA #1 (37944,0), 1 CTAs running
GPGPU-Sim uArch: Shader 0 finished CTA #2 (38177,0), 2 CTAs running
GPGPU-Sim uArch: Shader 0 finished CTA #7 (38297,0), 1 CTAs running
GPGPU-Sim uArch: Shader 14 finished CTA #4 (38303,0), 0 CTAs running
GPGPU-Sim uArch: Shader 14 empty (release kernel 1 '_Z17executeFirstLayerPfS_S_').
GPGPU-Sim uArch: Shader 0 finished CTA #4 (38316,0), 0 CTAs running
GPGPU-Sim uArch: Shader 0 empty (release kernel 1 '_Z17executeFirstLayerPfS_S_').
GPGPU-Sim uArch: Shader 11 finished CTA #7 (38368,0), 2 CTAs running
GPGPU-Sim PTX: 11400000 instructions simulated : ctaid=(2,25,0) tid=(5,9,0)
GPGPU-Sim uArch: Shader 12 finished CTA #5 (38514,0), 0 CTAs running
GPGPU-Sim uArch: Shader 12 empty (release kernel 1 '_Z17executeFirstLayerPfS_S_').
GPGPU-Sim uArch: Shader 11 finished CTA #1 (38640,0), 1 CTAs running
GPGPU-Sim uArch: Shader 2 finished CTA #4 (38784,0), 3 CTAs running
GPGPU-Sim uArch: Shader 11 finished CTA #3 (38814,0), 0 CTAs running
GPGPU-Sim uArch: Shader 11 empty (release kernel 1 '_Z17executeFirstLayerPfS_S_').
GPGPU-Sim uArch: Shader 4 finished CTA #0 (38928,0), 2 CTAs running
GPGPU-Sim uArch: Shader 4 finished CTA #2 (38976,0), 1 CTAs running
GPGPU-Sim uArch: cycles simulated: 39000  inst.: 11421888 (ipc=292.9) sim_rate=259588 (inst/sec) elapsed = 0:0:00:44 / Tue Mar 22 13:13:14 2016
GPGPU-Sim uArch: Shader 2 finished CTA #3 (39108,0), 2 CTAs running
GPGPU-Sim uArch: Shader 2 finished CTA #6 (39432,0), 1 CTAs running
GPGPU-Sim PTX: 11500000 instructions simulated : ctaid=(1,26,0) tid=(4,3,0)
GPGPU-Sim uArch: Shader 4 finished CTA #5 (39497,0), 0 CTAs running
GPGPU-Sim uArch: Shader 4 empty (release kernel 1 '_Z17executeFirstLayerPfS_S_').
GPGPU-Sim uArch: Shader 2 finished CTA #7 (39541,0), 0 CTAs running
GPGPU-Sim uArch: Shader 2 empty (release kernel 1 '_Z17executeFirstLayerPfS_S_').
GPGPU-Sim PTX: 11600000 instructions simulated : ctaid=(3,25,0) tid=(9,3,0)
GPGPU-Sim uArch: Shader 5 finished CTA #7 (40881,0), 5 CTAs running
GPGPU-Sim uArch: Shader 5 finished CTA #6 (40973,0), 4 CTAs running
GPGPU-Sim uArch: Shader 5 finished CTA #3 (41085,0), 3 CTAs running
GPGPU-Sim uArch: Shader 6 finished CTA #7 (41702,0), 7 CTAs running
GPGPU-Sim uArch: Shader 6 finished CTA #2 (41927,0), 6 CTAs running
GPGPU-Sim uArch: Shader 5 finished CTA #1 (42017,0), 2 CTAs running
GPGPU-Sim uArch: Shader 6 finished CTA #1 (42154,0), 5 CTAs running
GPGPU-Sim uArch: Shader 5 finished CTA #5 (42191,0), 1 CTAs running
GPGPU-Sim uArch: Shader 5 finished CTA #0 (42523,0), 0 CTAs running
GPGPU-Sim uArch: Shader 5 empty (release kernel 1 '_Z17executeFirstLayerPfS_S_').
GPGPU-Sim PTX: 11700000 instructions simulated : ctaid=(2,23,0) tid=(10,8,0)
GPGPU-Sim uArch: Shader 6 finished CTA #5 (43433,0), 4 CTAs running
GPGPU-Sim uArch: Shader 6 finished CTA #6 (43676,0), 3 CTAs running
GPGPU-Sim uArch: Shader 6 finished CTA #3 (43764,0), 2 CTAs running
GPGPU-Sim uArch: Shader 6 finished CTA #4 (44610,0), 1 CTAs running
GPGPU-Sim uArch: Shader 6 finished CTA #0 (45217,0), 0 CTAs running
GPGPU-Sim uArch: Shader 6 empty (release kernel 1 '_Z17executeFirstLayerPfS_S_').
GPGPU-Sim uArch: GPU detected kernel '_Z17executeFirstLayerPfS_S_' finished on shader 6.

GPGPU-Sim PTX: cudaLaunch for 0x0x40275f (mode=performance simulation) on stream 0
GPGPU-Sim PTX: pushing kernel '_Z18executeSecondLayerPfS_S_' to stream 0, gridDim= (50,28,1) blockDim = (5,5,1) 
kernel_name = _Z17executeFirstLayerPfS_S_ 
kernel_launch_uid = 1 
gpu_sim_cycle = 45218
gpu_sim_insn = 11694074
gpu_ipc =     258.6154
gpu_tot_sim_cycle = 45218
gpu_tot_sim_insn = 11694074
gpu_tot_ipc =     258.6154
gpu_tot_issued_cta = 168
gpu_stall_dramfull = 97283
gpu_stall_icnt2sh    = 239571
gpu_total_sim_rate=259868

========= Core cache stats =========
L1I_cache:
	L1I_total_cache_accesses = 243880
	L1I_total_cache_misses = 773
	L1I_total_cache_miss_rate = 0.0032
	L1I_total_cache_pending_hits = 0
	L1I_total_cache_reservation_fails = 4140
L1D_cache:
	L1D_cache_core[0]: Access = 9377, Miss = 2449, Miss_rate = 0.261, Pending_hits = 330, Reservation_fails = 18576
	L1D_cache_core[1]: Access = 9374, Miss = 2401, Miss_rate = 0.256, Pending_hits = 286, Reservation_fails = 17590
	L1D_cache_core[2]: Access = 10239, Miss = 2435, Miss_rate = 0.238, Pending_hits = 333, Reservation_fails = 17924
	L1D_cache_core[3]: Access = 9383, Miss = 2470, Miss_rate = 0.263, Pending_hits = 327, Reservation_fails = 17824
	L1D_cache_core[4]: Access = 10291, Miss = 2500, Miss_rate = 0.243, Pending_hits = 300, Reservation_fails = 17984
	L1D_cache_core[5]: Access = 11952, Miss = 2472, Miss_rate = 0.207, Pending_hits = 314, Reservation_fails = 17729
	L1D_cache_core[6]: Access = 13683, Miss = 2511, Miss_rate = 0.184, Pending_hits = 324, Reservation_fails = 16844
	L1D_cache_core[7]: Access = 8501, Miss = 2369, Miss_rate = 0.279, Pending_hits = 450, Reservation_fails = 19162
	L1D_cache_core[8]: Access = 8499, Miss = 2419, Miss_rate = 0.285, Pending_hits = 406, Reservation_fails = 18911
	L1D_cache_core[9]: Access = 6812, Miss = 2381, Miss_rate = 0.350, Pending_hits = 417, Reservation_fails = 19523
	L1D_cache_core[10]: Access = 7645, Miss = 2318, Miss_rate = 0.303, Pending_hits = 313, Reservation_fails = 18750
	L1D_cache_core[11]: Access = 9347, Miss = 2340, Miss_rate = 0.250, Pending_hits = 411, Reservation_fails = 18835
	L1D_cache_core[12]: Access = 9322, Miss = 2409, Miss_rate = 0.258, Pending_hits = 400, Reservation_fails = 18624
	L1D_cache_core[13]: Access = 9413, Miss = 2384, Miss_rate = 0.253, Pending_hits = 420, Reservation_fails = 17990
	L1D_cache_core[14]: Access = 9364, Miss = 2439, Miss_rate = 0.260, Pending_hits = 367, Reservation_fails = 18411
	L1D_total_cache_accesses = 143202
	L1D_total_cache_misses = 36297
	L1D_total_cache_miss_rate = 0.2535
	L1D_total_cache_pending_hits = 5398
	L1D_total_cache_reservation_fails = 274677
	L1D_cache_data_port_util = 0.175
	L1D_cache_fill_port_util = 0.059
L1C_cache:
	L1C_total_cache_accesses = 28224
	L1C_total_cache_misses = 681
	L1C_total_cache_miss_rate = 0.0241
	L1C_total_cache_pending_hits = 0
	L1C_total_cache_reservation_fails = 2466
L1T_cache:
	L1T_total_cache_accesses = 0
	L1T_total_cache_misses = 0
	L1T_total_cache_pending_hits = 0
	L1T_total_cache_reservation_fails = 0

Total_core_cache_stats:
	Total_core_cache_stats_breakdown[GLOBAL_ACC_R][HIT] = 101507
	Total_core_cache_stats_breakdown[GLOBAL_ACC_R][HIT_RESERVED] = 5398
	Total_core_cache_stats_breakdown[GLOBAL_ACC_R][MISS] = 34437
	Total_core_cache_stats_breakdown[GLOBAL_ACC_R][RESERVATION_FAIL] = 273958
	Total_core_cache_stats_breakdown[CONST_ACC_R][HIT] = 27543
	Total_core_cache_stats_breakdown[CONST_ACC_R][MISS] = 681
	Total_core_cache_stats_breakdown[CONST_ACC_R][RESERVATION_FAIL] = 2466
	Total_core_cache_stats_breakdown[GLOBAL_ACC_W][MISS] = 1860
	Total_core_cache_stats_breakdown[GLOBAL_ACC_W][RESERVATION_FAIL] = 719
	Total_core_cache_stats_breakdown[INST_ACC_R][HIT] = 243107
	Total_core_cache_stats_breakdown[INST_ACC_R][MISS] = 773
	Total_core_cache_stats_breakdown[INST_ACC_R][RESERVATION_FAIL] = 4140
Shader 0 warp_id issue ditsribution:
warp_id:
0, 1, 2, 3, 4, 5, 6, 7, 8, 9, 10, 11, 12, 13, 14, 15, 16, 17, 18, 19, 20, 21, 22, 23, 24, 25, 26, 27, 28, 29, 30, 31, 32, 33, 34, 35, 36, 37, 38, 39, 40, 41, 42, 43, 44, 45, 46, 47, 
distro:
437, 437, 437, 437, 437, 408, 437, 437, 437, 437, 437, 408, 874, 874, 874, 874, 874, 845, 408, 437, 437, 437, 437, 437, 874, 874, 874, 874, 874, 874, 437, 437, 437, 437, 437, 408, 437, 437, 437, 437, 437, 437, 845, 874, 874, 874, 874, 845, 
gpgpu_n_tot_thrd_icount = 13976224
gpgpu_n_tot_w_icount = 436757
gpgpu_n_stall_shd_mem = 367929
gpgpu_n_mem_read_local = 0
gpgpu_n_mem_write_local = 0
gpgpu_n_mem_read_global = 34437
gpgpu_n_mem_write_global = 1860
gpgpu_n_mem_texture = 0
gpgpu_n_mem_const = 45
gpgpu_n_load_insn  = 1447992
gpgpu_n_store_insn = 28392
gpgpu_n_shmem_insn = 0
gpgpu_n_tex_insn = 0
gpgpu_n_const_mem_insn = 709800
gpgpu_n_param_mem_insn = 85176
gpgpu_n_shmem_bkconflict = 0
gpgpu_n_cache_bkconflict = 0
gpgpu_n_intrawarp_mshr_merge = 0
gpgpu_n_cmem_portconflict = 2466
gpgpu_stall_shd_mem[c_mem][bk_conf] = 2466
gpgpu_stall_shd_mem[c_mem][mshr_rc] = 0
gpgpu_stall_shd_mem[c_mem][icnt_rc] = 0
gpgpu_stall_shd_mem[c_mem][data_port_stall] = 0
gpgpu_stall_shd_mem[t_mem][mshr_rc] = 0
gpgpu_stall_shd_mem[t_mem][icnt_rc] = 0
gpgpu_stall_shd_mem[t_mem][data_port_stall] = 0
gpgpu_stall_shd_mem[s_mem][bk_conf] = 0
gpgpu_stall_shd_mem[gl_mem][bk_conf] = 0
gpgpu_stall_shd_mem[gl_mem][coal_stall] = 365463
gpgpu_stall_shd_mem[gl_mem][data_port_stall] = 0
gpgpu_stall_shd_mem[g_mem_ld][mshr_rc] = 0
gpgpu_stall_shd_mem[g_mem_ld][icnt_rc] = 0
gpgpu_stall_shd_mem[g_mem_ld][wb_icnt_rc] = 0
gpgpu_stall_shd_mem[g_mem_ld][wb_rsrv_fail] = 0
gpgpu_stall_shd_mem[g_mem_st][mshr_rc] = 0
gpgpu_stall_shd_mem[g_mem_st][icnt_rc] = 0
gpgpu_stall_shd_mem[g_mem_st][wb_icnt_rc] = 0
gpgpu_stall_shd_mem[g_mem_st][wb_rsrv_fail] = 0
gpgpu_stall_shd_mem[l_mem_ld][mshr_rc] = 0
gpgpu_stall_shd_mem[l_mem_ld][icnt_rc] = 0
gpgpu_stall_shd_mem[l_mem_ld][wb_icnt_rc] = 0
gpgpu_stall_shd_mem[l_mem_ld][wb_rsrv_fail] = 0
gpgpu_stall_shd_mem[l_mem_st][mshr_rc] = 0
gpgpu_stall_shd_mem[l_mem_st][icnt_rc] = 0
gpgpu_stall_shd_mem[l_mem_ld][wb_icnt_rc] = 0
gpgpu_stall_shd_mem[l_mem_ld][wb_rsrv_fail] = 0
gpu_reg_bank_conflict_stalls = 0
Warp Occupancy Distribution:
Stall:550804	W0_Idle:70646	W0_Scoreboard:100463	W1:1617	W2:1706	W3:1602	W4:1573	W5:1910	W6:2148	W7:2029	W8:1839	W9:69677	W10:1230	W11:880	W12:982	W13:1064	W14:1298	W15:978	W16:903	W17:828	W18:938	W19:914	W20:652	W21:625	W22:705	W23:1064	W24:1036	W25:1062	W26:1332	W27:1100	W28:1093	W29:981	W30:664	W31:754	W32:331573
traffic_breakdown_coretomem[CONST_ACC_R] = 360 {8:45,}
traffic_breakdown_coretomem[GLOBAL_ACC_R] = 275496 {8:34437,}
traffic_breakdown_coretomem[GLOBAL_ACC_W] = 172800 {40:499,72:504,136:857,}
traffic_breakdown_coretomem[INST_ACC_R] = 840 {8:105,}
traffic_breakdown_memtocore[CONST_ACC_R] = 3240 {72:45,}
traffic_breakdown_memtocore[GLOBAL_ACC_R] = 4683432 {136:34437,}
traffic_breakdown_memtocore[GLOBAL_ACC_W] = 14880 {8:1860,}
traffic_breakdown_memtocore[INST_ACC_R] = 14280 {136:105,}
maxmrqlatency = 112 
maxdqlatency = 0 
maxmflatency = 1007 
averagemflatency = 346 
max_icnt2mem_latency = 780 
max_icnt2sh_latency = 45217 
mrq_lat_table:1484 	406 	144 	241 	222 	39 	6 	0 	0 	0 	0 	0 	0 	0 	0 	0 	0 	0 	0 	0 	0 	0 	0 	0 	0 	0 	0 	0 	0 	0 	0 	0 	
dq_lat_table:0 	0 	0 	0 	0 	0 	0 	0 	0 	0 	0 	0 	0 	0 	0 	0 	0 	0 	0 	0 	0 	0 	0 	0 	0 	0 	0 	0 	0 	0 	0 	0 	
mf_lat_table:0 	0 	0 	0 	0 	0 	0 	10792 	20822 	4728 	0 	0 	0 	0 	0 	0 	0 	0 	0 	0 	0 	0 	0 	0 	0 	0 	0 	0 	0 	0 	0 	0 	
icnt2mem_lat_table:0 	0 	0 	15551 	2864 	3187 	4999 	6853 	2918 	75 	0 	0 	0 	0 	0 	0 	0 	0 	0 	0 	0 	0 	0 	0 	
icnt2sh_lat_table:0 	0 	0 	1768 	19942 	12212 	560 	0 	0 	0 	0 	0 	0 	0 	1151 	709 	0 	0 	0 	0 	0 	0 	0 	0 	
mf_lat_pw_table:0 	0 	0 	0 	0 	0 	0 	35 	54 	0 	0 	0 	0 	0 	0 	0 	0 	0 	0 	0 	0 	0 	0 	0 	0 	0 	0 	0 	0 	0 	0 	0 	
maximum concurrent accesses to same row:
dram[0]:         1         0         0         0         0         0         0         0         0         0         0         0         0         0         0         0 
dram[1]:         1         0         0         0         0         0         0         0         0         0         0         0         0         0         0         0 
dram[2]:         0         0         0         0         0         0         0         0         0         0         0         0         0         0         0         0 
dram[3]:         0         0         0         0         0         0         0         0         0         0         0         0         0         0         0         0 
dram[4]:         0         0         0         0         0         0         0         0         0         0         0         0         0         0         0         0 
dram[5]:         0         0         0         0         0         0         0         0         0         0         0         0         0         0         0         0 
maximum service time to same row:
dram[0]:       333         0         0         0      1982      2013      1522      1535      1557       838     22959     21013     24332     22931         0         0 
dram[1]:      1962         0         0         0      1944      2126      1513      1510      1932     23549     19329     22144     23744     24734         0         0 
dram[2]:     16653         0         0         0      1997      2251      1512      1504      1584     22585     19128     18879     23544     23397         0         0 
dram[3]:     18477         0         0         0      2226      2304      1504      1497      1578     22688     24185     19827     21806     21428         0         0 
dram[4]:         0         0         0         0      1999      2235      1500      1494       835     24194     21356     19547     21829     24657         0         0 
dram[5]:         0         0         0         0      2003      2147      1497      1491       847     20824     21174     19304     22972     24744         0         0 
average row accesses per activate:
dram[0]:  1.000000      -nan      -nan      -nan 10.000000 10.000000 32.000000 32.000000 44.000000 43.000000 64.000000 64.000000 60.000000 63.000000      -nan      -nan 
dram[1]:  3.000000      -nan      -nan      -nan 10.000000 10.000000 32.000000 32.000000 44.000000 46.000000 64.000000 64.000000 62.000000 57.000000      -nan      -nan 
dram[2]:  2.000000      -nan      -nan      -nan 10.000000 12.000000 32.000000 32.000000 44.000000 46.000000 64.000000 64.000000 62.000000 56.000000      -nan      -nan 
dram[3]:  1.000000      -nan      -nan      -nan 10.000000 12.000000 32.000000 32.000000 44.000000 46.000000 64.000000 64.000000 61.000000 58.000000      -nan      -nan 
dram[4]:      -nan      -nan      -nan      -nan 10.000000 12.000000 32.000000 32.000000 44.000000 46.000000 64.000000 64.000000 61.000000 58.000000      -nan      -nan 
dram[5]:      -nan      -nan      -nan      -nan 10.000000 12.000000 32.000000 32.000000 44.000000 46.000000 64.000000 64.000000 61.000000 57.000000      -nan      -nan 
average row locality = 2542/66 = 38.515152
number of total memory accesses made:
dram[0]:         0         0         0         0         0         0         0         0         0         0         0         0         0         0         0         0 
dram[1]:         0         0         0         0         0         0         0         0         0         0         0         0         0         0         0         0 
dram[2]:         0         0         0         0         0         0         0         0         0         0         0         0         0         0         0         0 
dram[3]:         0         0         0         0         0         0         0         0         0         0         0         0         0         0         0         0 
dram[4]:         0         0         0         0         0         0         0         0         0         0         0         0         0         0         0         0 
dram[5]:         0         0         0         0         0         0         0         0         0         0         0         0         0         0         0         0 
total accesses: 0
min_bank_accesses = 0!
min_chip_accesses = 0!
number of total read accesses:
dram[0]:         3         0         0         0        10        10        32        32        32        31        32        32        30        30         0         0 
dram[1]:         3         0         0         0        10        10        32        32        32        32        32        32        30        28         0         0 
dram[2]:         2         0         0         0        10        12        32        32        32        32        32        32        30        28         0         0 
dram[3]:         1         0         0         0        10        12        32        32        32        32        32        32        30        28         0         0 
dram[4]:         0         0         0         0        10        12        32        32        32        32        32        32        30        28         0         0 
dram[5]:         0         0         0         0        10        12        32        32        32        32        32        32        30        28         0         0 
total reads: 1638
min_bank_accesses = 0!
chip skew: 274/272 = 1.01
number of total write accesses:
dram[0]:         0         0         0         0         0         0         0         0        12        12        32        32        30        33         0         0 
dram[1]:         0         0         0         0         0         0         0         0        12        14        32        32        32        29         0         0 
dram[2]:         0         0         0         0         0         0         0         0        12        14        32        32        32        28         0         0 
dram[3]:         0         0         0         0         0         0         0         0        12        14        32        32        31        30         0         0 
dram[4]:         0         0         0         0         0         0         0         0        12        14        32        32        31        30         0         0 
dram[5]:         0         0         0         0         0         0         0         0        12        14        32        32        31        29         0         0 
total reads: 904
min_bank_accesses = 0!
chip skew: 151/150 = 1.01
average mf latency per bank:
dram[0]:       1296    none      none      none       24836     20199     25583     16954      2456      1581       298       264       232       219    none      none  
dram[1]:       3892    none      none      none       26627     17418     25446     15628      2419       626       283       252       217       215    none      none  
dram[2]:          0    none      none      none       14298     16822     14587     17372      1485       549       246       239       237       230    none      none  
dram[3]:          0    none      none      none       17082     22391     21765     19980      2060       625       253       255       223       219    none      none  
dram[4]:     none      none      none      none       18620     39518     18576     41893      2741       726       264       353       233       285    none      none  
dram[5]:     none      none      none      none       20675     24412     21502     27034      2812       645       304       300       228       235    none      none  
maximum mf latency per bank:
dram[0]:        282         0         0         0       705       606       779       695       695       632       741       699       464       571         0         0
dram[1]:        724         0         0         0       833       587       843       709       704       431       662       693       412       540         0         0
dram[2]:          0         0         0         0       565       644       665       734       725       562       603       492       716       574         0         0
dram[3]:          0         0         0         0       744       781       836       811       788       629       635       656       518       448         0         0
dram[4]:          0         0         0         0       666      1003       646      1007       536       801       701       825       591       910         0         0
dram[5]:          0         0         0         0       677       716       777       728       642       727       688       786       565       503         0         0

Number of Memory Banks Accessed per Memory Operation per Warp (from 0):
0	0	0	0	0	0	0	0	0	0	0	0	0	0	0	0	0	0	0	0	0	0	0	0	0	0	0	0	0	0	0	0	0	0	0	0	0	0	0	0	0	0	0	0	0	0	0	0	0	0	0	0	0	0	0	0	0	0	0	0	0	0	0	0	0	0	0	0	0	0	0	0	0	0	0	0	0	0	0	0	0	0	0	0	0	0	0	0	0	0	0	0	0	0	0	0	
Average # of Memory Banks Accessed per Memory Operation per Warp=-nan

position of mrq chosen
0	0	0	0	0	0	0	0	0	0	0	0	0	0	0	0	

[...]
gpgpu_stall_shd_mem[l_mem_ld][wb_rsrv_fail] = 0
gpgpu_stall_shd_mem[l_mem_st][mshr_rc] = 0
gpgpu_stall_shd_mem[l_mem_st][icnt_rc] = 0
gpgpu_stall_shd_mem[l_mem_ld][wb_icnt_rc] = 0
gpgpu_stall_shd_mem[l_mem_ld][wb_rsrv_fail] = 0
gpu_reg_bank_conflict_stalls = 0
Warp Occupancy Distribution:
Stall:1201848	W0_Idle:303852	W0_Scoreboard:1070410	W1:2597	W2:3581	W3:4068	W4:3798	W5:4566	W6:4331	W7:4364	W8:4137	W9:72206	W10:3671	W11:2610	W12:2826	W13:3133	W14:3223	W15:3869	W16:3792	W17:3561	W18:3978	W19:4192	W20:4403	W21:3990	W22:4431	W23:3704	W24:2421	W25:1078195	W26:1332	W27:1100	W28:1093	W29:981	W30:664	W31:754	W32:331573
traffic_breakdown_coretomem[CONST_ACC_R] = 600 {8:75,}
traffic_breakdown_coretomem[GLOBAL_ACC_R] = 444800 {8:55600,}
traffic_breakdown_coretomem[GLOBAL_ACC_W] = 394000 {40:1199,72:1204,136:1907,}
traffic_breakdown_coretomem[INST_ACC_R] = 1680 {8:210,}
traffic_breakdown_memtocore[CONST_ACC_R] = 5400 {72:75,}
traffic_breakdown_memtocore[GLOBAL_ACC_R] = 7561600 {136:55600,}
traffic_breakdown_memtocore[GLOBAL_ACC_W] = 34480 {8:4310,}
traffic_breakdown_memtocore[INST_ACC_R] = 28560 {136:210,}
maxmrqlatency = 112 
maxdqlatency = 0 
maxmflatency = 1007 
averagemflatency = 272 
max_icnt2mem_latency = 780 
max_icnt2sh_latency = 146305 
mrq_lat_table:3281 	821 	242 	431 	415 	62 	9 	0 	0 	0 	0 	0 	0 	0 	0 	0 	0 	0 	0 	0 	0 	0 	0 	0 	0 	0 	0 	0 	0 	0 	0 	0 	
dq_lat_table:0 	0 	0 	0 	0 	0 	0 	0 	0 	0 	0 	0 	0 	0 	0 	0 	0 	0 	0 	0 	0 	0 	0 	0 	0 	0 	0 	0 	0 	0 	0 	0 	
mf_lat_table:0 	0 	0 	0 	0 	0 	0 	33423 	21834 	4728 	0 	0 	0 	0 	0 	0 	0 	0 	0 	0 	0 	0 	0 	0 	0 	0 	0 	0 	0 	0 	0 	0 	
icnt2mem_lat_table:0 	0 	0 	38605 	3514 	3228 	5002 	6853 	2918 	75 	0 	0 	0 	0 	0 	0 	0 	0 	0 	0 	0 	0 	0 	0 	
icnt2sh_lat_table:0 	0 	0 	15302 	26720 	13082 	571 	0 	0 	0 	0 	0 	0 	0 	1151 	1055 	1663 	441 	0 	0 	0 	0 	0 	0 	
mf_lat_pw_table:0 	0 	0 	0 	0 	0 	0 	237 	55 	0 	0 	0 	0 	0 	0 	0 	0 	0 	0 	0 	0 	0 	0 	0 	0 	0 	0 	0 	0 	0 	0 	0 	
maximum concurrent accesses to same row:
dram[0]:         1         2         0         0        10        10         0         0         0         0         0         0         0         0         0         0 
dram[1]:         2         0         0         0        10        10         0         0         0         0         0         0         0         0         0         0 
dram[2]:         2         0         0         0        10        12         0         0         0         0         0         0         0         0         0         0 
dram[3]:         2         0         0         0        10        12         0         0         0         0         0         0         0         0         0         0 
dram[4]:         2         0         0         0        10        12         0         0         0         0         0         0         0         0         0         0 
dram[5]:         2         0         0         0        10        12         0         0         0         0         0         0         0         0         0         0 
maximum service time to same row:
dram[0]:     19609     12070     55874     55731     86474     87456      1522      1535      1557       838     22959     21013     24332     22931       282       288 
dram[1]:     19436     23037     55074     55728     88107     87778      1513      1510      1932     23549     19329     22144     23744     24734       287       285 
dram[2]:     16653     23097     55069     56616     86699     89393      1512      1504      1584     22585     19128     18879     23544     23397       281       294 
dram[3]:     18477     23719     55497     56507     87106     88333      1504      1497      1578     22688     24185     19827     21806     21428       282       285 
dram[4]:     19113     26360     55615     56500     87310     88397      1500      1494       835     24194     21356     19547     21829     24657       282       285 
dram[5]:     12224     25432     55650     57504     87469     88612      1497      1491       847     20824     21174     19304     22972     24744       284       310 
average row accesses per activate:
dram[0]: 18.750000 38.000000 74.000000 71.000000 21.000000 19.000000 32.000000 32.000000 44.000000 43.000000 64.000000 64.000000 62.000000 65.000000 46.000000 50.000000 
dram[1]: 26.666666 71.000000 68.000000 74.000000 20.500000 19.000000 32.000000 32.000000 44.000000 46.000000 64.000000 64.000000 64.000000 61.000000 49.000000 51.000000 
dram[2]: 35.000000 71.000000 73.000000 70.000000 21.500000 20.000000 32.000000 32.000000 44.000000 46.000000 64.000000 64.000000 64.000000 60.000000 46.000000 51.000000 
dram[3]: 35.500000 76.000000 71.000000 75.000000 20.500000 21.000000 32.000000 32.000000 44.000000 46.000000 64.000000 64.000000 63.000000 62.000000 51.000000 49.000000 
dram[4]: 37.500000 72.000000 73.000000 69.000000 18.000000 19.500000 32.000000 32.000000 44.000000 46.000000 64.000000 64.000000 63.000000 62.000000 48.000000 51.000000 
dram[5]: 37.000000 76.000000 73.000000 76.000000 17.500000 19.500000 32.000000 32.000000 44.000000 46.000000 64.000000 64.000000 63.000000 61.000000 51.000000 51.000000 
average row locality = 5261/118 = 44.584747
number of total memory accesses made:
dram[0]:         0         0         0         0         0         0         0         0         0         0         0         0         0         0         0         0 
dram[1]:         0         0         0         0         0         0         0         0         0         0         0         0         0         0         0         0 
dram[2]:         0         0         0         0         0         0         0         0         0         0         0         0         0         0         0         0 
dram[3]:         0         0         0         0         0         0         0         0         0         0         0         0         0         0         0         0 
dram[4]:         0         0         0         0         0         0         0         0         0         0         0         0         0         0         0         0 
dram[5]:         0         0         0         0         0         0         0         0         0         0         0         0         0         0         0         0 
total accesses: 0
min_bank_accesses = 0!
min_chip_accesses = 0!
number of total read accesses:
dram[0]:        35        34        32        32        24        22        32        32        32        31        32        32        32        32        32        32 
dram[1]:        36        32        32        32        24        22        32        32        32        32        32        32        32        32        32        32 
dram[2]:        34        32        32        32        24        24        32        32        32        32        32        32        32        32        32        32 
dram[3]:        34        32        32        32        24        24        32        32        32        32        32        32        32        32        32        32 
dram[4]:        34        32        32        32        22        24        32        32        32        32        32        32        32        32        32        32 
dram[5]:        34        32        32        32        22        24        32        32        32        32        32        32        32        32        32        32 
total reads: 2984
bank skew: 36/22 = 1.64
chip skew: 498/496 = 1.00
number of total write accesses:
dram[0]:        40        42        42        39        18        16         0         0        12        12        32        32        30        33        14        18 
dram[1]:        44        39        36        42        17        16         0         0        12        14        32        32        32        29        17        19 
dram[2]:        36        39        41        38        19        16         0         0        12        14        32        32        32        28        14        19 
dram[3]:        37        44        39        43        17        18         0         0        12        14        32        32        31        30        19        17 
dram[4]:        41        40        41        37        14        15         0         0        12        14        32        32        31        30        16        19 
dram[5]:        40        44        41        44        13        15         0         0        12        14        32        32        31        29        19        19 
total reads: 2277
min_bank_accesses = 0!
chip skew: 385/372 = 1.03
average mf latency per bank:
dram[0]:        249       196       198       209      6069      5460     25583     16954      3524      2456      1442      1380      1299      1287      2072      1824
dram[1]:        406       205       210       205      6652      4733     25446     15628      3365      1837      1387      1382      1280      1432      1796      1829
dram[2]:        205       207       199       209      3481      5189     14587     17372      2380      1793      1399      1381      1326      1464      1972      1828
dram[3]:        200       204       207       197      4318      6542     21765     19980      3019      1545      1352      1347      1305      1438      1848      1603
dram[4]:        198       207       207       210      5320     12301     18576     41893      3864      1706      1365      1469      1349      1437      1832      1732
dram[5]:        199       204       205       197      6050      7656     21502     27034      3769      1612      1414      1417      1304      1437      1876      1546
maximum mf latency per bank:
dram[0]:        282       275       275       276       705       606       779       695       695       632       741       699       464       571       334       318
dram[1]:        724       293       271       274       833       587       843       709       704       431       662       693       412       540       321       350
dram[2]:        271       274       269       273       565       644       665       734       725       562       603       492       716       574       316       354
dram[3]:        282       282       294       271       744       781       836       811       788       629       635       656       518       448       361       304
dram[4]:        287       290       279       271       666      1003       646      1007       536       801       701       825       591       910       294       354
dram[5]:        313       271       283       283       677       716       777       728       642       727       688       786       565       503       351       342

Number of Memory Banks Accessed per Memory Operation per Warp (from 0):
0	0	0	0	0	0	0	0	0	0	0	0	0	0	0	0	0	0	0	0	0	0	0	0	0	0	0	0	0	0	0	0	0	0	0	0	0	0	0	0	0	0	0	0	0	0	0	0	0	0	0	0	0	0	0	0	0	0	0	0	0	0	0	0	0	0	0	0	0	0	0	0	0	0	0	0	0	0	0	0	0	0	0	0	0	0	0	0	0	0	0	0	0	0	0	0	
Average # of Memory Banks Accessed per Memory Operation per Warp=-nan

position of mrq chosen
0	0	0	0	0	0	0	0	0	0	0	0	0	0	0	0	

average position of mrq chosen = -nan
Memory Partition 0: 
Cache L2_bank_000:
MSHR contents

Cache L2_bank_001:
MSHR contents

In Dram Latency Queue (total = 0): 
DRAM[0]: 16 bks, busW=4 BL=8 CL=12, tRRD=2 tCCD=6, tRCD=12 tRAS=28 tRP=12 tRC=40
n_cmd=193122 n_nop=191540 n_act=22 n_pre=6 n_req=878 n_rd=996 n_write=558 bw_util=0.01609
n_activity=11476 dram_eff=0.2708
bk0: 70a 192413i bk1: 68a 192442i bk2: 64a 192515i bk3: 64a 192518i bk4: 48a 192758i bk5: 44a 192810i bk6: 64a 192904i bk7: 64a 192890i bk8: 64a 192754i bk9: 62a 192694i bk10: 64a 192381i bk11: 64a 192441i bk12: 64a 192512i bk13: 64a 192472i bk14: 64a 192770i bk15: 64a 192706i 
dram_util_bins: 0 0 0 0 0 0 0 0 0 0
dram_eff_bins: 0 0 0 0 0 0 0 0 0 0
mrqq: max=4 avg=0.0173155
Memory Partition 1: 
Cache L2_bank_002:
MSHR contents

Cache L2_bank_003:
MSHR contents

In Dram Latency Queue (total = 0): 
DRAM[1]: 16 bks, busW=4 BL=8 CL=12, tRRD=2 tCCD=6, tRCD=12 tRAS=28 tRP=12 tRC=40
n_cmd=193122 n_nop=191535 n_act=21 n_pre=5 n_req=879 n_rd=996 n_write=565 bw_util=0.01617
n_activity=11461 dram_eff=0.2724
bk0: 72a 192326i bk1: 64a 192495i bk2: 64a 192528i bk3: 64a 192483i bk4: 48a 192767i bk5: 44a 192791i bk6: 64a 192930i bk7: 64a 192886i bk8: 64a 192755i bk9: 64a 192697i bk10: 64a 192356i bk11: 64a 192311i bk12: 64a 192507i bk13: 64a 192528i bk14: 64a 192708i bk15: 64a 192679i 
dram_util_bins: 0 0 0 0 0 0 0 0 0 0
dram_eff_bins: 0 0 0 0 0 0 0 0 0 0
mrqq: max=12 avg=0.0250929
Memory Partition 2: 
Cache L2_bank_004:
MSHR contents

Cache L2_bank_005:
MSHR contents

In Dram Latency Queue (total = 0): 
DRAM[2]: 16 bks, busW=4 BL=8 CL=12, tRRD=2 tCCD=6, tRCD=12 tRAS=28 tRP=12 tRC=40
n_cmd=193122 n_nop=191548 n_act=19 n_pre=3 n_req=870 n_rd=996 n_write=556 bw_util=0.01607
n_activity=11512 dram_eff=0.2696
bk0: 68a 192478i bk1: 64a 192511i bk2: 64a 192486i bk3: 64a 192497i bk4: 48a 192763i bk5: 48a 192774i bk6: 64a 192955i bk7: 64a 192883i bk8: 64a 192750i bk9: 64a 192761i bk10: 64a 192492i bk11: 64a 192439i bk12: 64a 192418i bk13: 64a 192522i bk14: 64a 192764i bk15: 64a 192689i 
dram_util_bins: 0 0 0 0 0 0 0 0 0 0
dram_eff_bins: 0 0 0 0 0 0 0 0 0 0
mrqq: max=5 avg=0.0187705
Memory Partition 3: 
Cache L2_bank_006:
MSHR contents

Cache L2_bank_007:
MSHR contents

In Dram Latency Queue (total = 0): 
DRAM[3]: 16 bks, busW=4 BL=8 CL=12, tRRD=2 tCCD=6, tRCD=12 tRAS=28 tRP=12 tRC=40
n_cmd=193122 n_nop=191554 n_act=19 n_pre=3 n_req=883 n_rd=996 n_write=550 bw_util=0.01601
n_activity=11340 dram_eff=0.2727
bk0: 68a 192478i bk1: 64a 192444i bk2: 64a 192531i bk3: 64a 192505i bk4: 48a 192765i bk5: 48a 192746i bk6: 64a 192928i bk7: 64a 192841i bk8: 64a 192764i bk9: 64a 192722i bk10: 64a 192407i bk11: 64a 192325i bk12: 64a 192497i bk13: 64a 192560i bk14: 64a 192657i bk15: 64a 192636i 
dram_util_bins: 0 0 0 0 0 0 0 0 0 0
dram_eff_bins: 0 0 0 0 0 0 0 0 0 0
mrqq: max=7 avg=0.0229648
Memory Partition 4: 
Cache L2_bank_008:
MSHR contents

Cache L2_bank_009:
MSHR contents

In Dram Latency Queue (total = 0): 
DRAM[4]: 16 bks, busW=4 BL=8 CL=12, tRRD=2 tCCD=6, tRCD=12 tRAS=28 tRP=12 tRC=40
n_cmd=193122 n_nop=191554 n_act=19 n_pre=3 n_req=870 n_rd=992 n_write=554 bw_util=0.01601
n_activity=11396 dram_eff=0.2713
bk0: 68a 192403i bk1: 64a 192477i bk2: 64a 192466i bk3: 64a 192529i bk4: 44a 192811i bk5: 48a 192809i bk6: 64a 192964i bk7: 64a 192923i bk8: 64a 192765i bk9: 64a 192748i bk10: 64a 192386i bk11: 64a 192396i bk12: 64a 192451i bk13: 64a 192482i bk14: 64a 192733i bk15: 64a 192684i 
dram_util_bins: 0 0 0 0 0 0 0 0 0 0
dram_eff_bins: 0 0 0 0 0 0 0 0 0 0
mrqq: max=5 avg=0.019977
Memory Partition 5: 
Cache L2_bank_010:
MSHR contents

Cache L2_bank_011:
MSHR contents

In Dram Latency Queue (total = 0): 
DRAM[5]: 16 bks, busW=4 BL=8 CL=12, tRRD=2 tCCD=6, tRCD=12 tRAS=28 tRP=12 tRC=40
n_cmd=193122 n_nop=191542 n_act=19 n_pre=3 n_req=881 n_rd=992 n_write=566 bw_util=0.01613
n_activity=11477 dram_eff=0.2715
bk0: 68a 192468i bk1: 64a 192471i bk2: 64a 192530i bk3: 64a 192486i bk4: 44a 192826i bk5: 48a 192832i bk6: 64a 192939i bk7: 64a 192884i bk8: 64a 192723i bk9: 64a 192716i bk10: 64a 192391i bk11: 64a 192300i bk12: 64a 192444i bk13: 64a 192594i bk14: 64a 192689i bk15: 64a 192646i 
dram_util_bins: 0 0 0 0 0 0 0 0 0 0
dram_eff_bins: 0 0 0 0 0 0 0 0 0 0
mrqq: max=8 avg=0.0208935

========= L2 cache stats =========
L2_cache_bank[0]: Access = 5380, Miss = 251, Miss_rate = 0.047, Pending_hits = 99, Reservation_fails = 518
L2_cache_bank[1]: Access = 4860, Miss = 247, Miss_rate = 0.051, Pending_hits = 100, Reservation_fails = 237
L2_cache_bank[2]: Access = 5121, Miss = 252, Miss_rate = 0.049, Pending_hits = 98, Reservation_fails = 366
L2_cache_bank[3]: Access = 4723, Miss = 246, Miss_rate = 0.052, Pending_hits = 100, Reservation_fails = 244
L2_cache_bank[4]: Access = 4578, Miss = 250, Miss_rate = 0.055, Pending_hits = 90, Reservation_fails = 117
L2_cache_bank[5]: Access = 4913, Miss = 248, Miss_rate = 0.050, Pending_hits = 107, Reservation_fails = 355
L2_cache_bank[6]: Access = 4896, Miss = 250, Miss_rate = 0.051, Pending_hits = 99, Reservation_fails = 447
L2_cache_bank[7]: Access = 4790, Miss = 248, Miss_rate = 0.052, Pending_hits = 114, Reservation_fails = 417
L2_cache_bank[8]: Access = 5034, Miss = 248, Miss_rate = 0.049, Pending_hits = 110, Reservation_fails = 628
L2_cache_bank[9]: Access = 5456, Miss = 248, Miss_rate = 0.045, Pending_hits = 103, Reservation_fails = 449
L2_cache_bank[10]: Access = 5204, Miss = 248, Miss_rate = 0.048, Pending_hits = 106, Reservation_fails = 301
L2_cache_bank[11]: Access = 5240, Miss = 248, Miss_rate = 0.047, Pending_hits = 101, Reservation_fails = 235
L2_total_cache_accesses = 60195
L2_total_cache_misses = 2984
L2_total_cache_miss_rate = 0.0496
L2_total_cache_pending_hits = 1227
L2_total_cache_reservation_fails = 4314
L2_total_cache_breakdown:
	L2_cache_stats_breakdown[GLOBAL_ACC_R][HIT] = 53711
	L2_cache_stats_breakdown[GLOBAL_ACC_R][HIT_RESERVED] = 904
	L2_cache_stats_breakdown[GLOBAL_ACC_R][MISS] = 985
	L2_cache_stats_breakdown[GLOBAL_ACC_R][RESERVATION_FAIL] = 3529
	L2_cache_stats_breakdown[CONST_ACC_R][HIT] = 63
	L2_cache_stats_breakdown[CONST_ACC_R][HIT_RESERVED] = 9
	L2_cache_stats_breakdown[CONST_ACC_R][MISS] = 3
	L2_cache_stats_breakdown[CONST_ACC_R][RESERVATION_FAIL] = 309
	L2_cache_stats_breakdown[GLOBAL_ACC_W][HIT] = 2033
	L2_cache_stats_breakdown[GLOBAL_ACC_W][HIT_RESERVED] = 295
	L2_cache_stats_breakdown[GLOBAL_ACC_W][MISS] = 1982
	L2_cache_stats_breakdown[GLOBAL_ACC_W][RESERVATION_FAIL] = 6
	L2_cache_stats_breakdown[INST_ACC_R][HIT] = 177
	L2_cache_stats_breakdown[INST_ACC_R][HIT_RESERVED] = 19
	L2_cache_stats_breakdown[INST_ACC_R][MISS] = 14
	L2_cache_stats_breakdown[INST_ACC_R][RESERVATION_FAIL] = 470
L2_cache_data_port_util = 0.126
L2_cache_fill_port_util = 0.007

icnt_total_pkts_mem_to_simt=283585
icnt_total_pkts_simt_to_mem=71430
LD_mem_lat_dist  0 0 0 0 0 0 0 0 0 0 0 0 0 0 0 0 0 0 0 0 0 0 0 0 0 0 0
ST_mem_lat_dist  0 0 0 0 0 0 0 0 0 0 0 0 0 0 0 0 0 0 0 0 0 0 0 0 0 0 0
----------------------------Interconnect-DETAILS--------------------------------
Class 0:
Packet latency average = 10.6791
	minimum = 6
	maximum = 72
Network latency average = 10.1954
	minimum = 6
	maximum = 63
Slowest packet = 73395
Flit latency average = 8.85942
	minimum = 6
	maximum = 59
Slowest flit = 217182
Fragmentation average = 0
	minimum = 0
	maximum = 0
Injected packet rate average = 0.0174018
	minimum = 0.0136218 (at node 7)
	maximum = 0.0208234 (at node 20)
Accepted packet rate average = 0.0174018
	minimum = 0.0136218 (at node 7)
	maximum = 0.0208234 (at node 20)
Injected flit rate average = 0.050901
	minimum = 0.0178458 (at node 7)
	maximum = 0.0960846 (at node 20)
Accepted flit rate average= 0.050901
	minimum = 0.0241077 (at node 22)
	maximum = 0.0882004 (at node 6)
Injected packet length average = 2.92505
Accepted packet length average = 2.92505
Total in-flight flits = 0 (0 measured)
====== Overall Traffic Statistics ======
====== Traffic class 0 ======
Packet latency average = 25.018 (2 samples)
	minimum = 6 (2 samples)
	maximum = 293 (2 samples)
Network latency average = 19.5382 (2 samples)
	minimum = 6 (2 samples)
	maximum = 272 (2 samples)
Flit latency average = 13.9079 (2 samples)
	minimum = 6 (2 samples)
	maximum = 269 (2 samples)
Fragmentation average = 0.0116676 (2 samples)
	minimum = 0 (2 samples)
	maximum = 232.5 (2 samples)
Injected packet rate average = 0.0385538 (2 samples)
	minimum = 0.0325529 (2 samples)
	maximum = 0.0491021 (2 samples)
Accepted packet rate average = 0.0385538 (2 samples)
	minimum = 0.0325529 (2 samples)
	maximum = 0.0491021 (2 samples)
Injected flit rate average = 0.113946 (2 samples)
	minimum = 0.0376172 (2 samples)
	maximum = 0.234771 (2 samples)
Accepted flit rate average = 0.113946 (2 samples)
	minimum = 0.045713 (2 samples)
	maximum = 0.176835 (2 samples)
Injected packet size average = 2.95552 (2 samples)
Accepted packet size average = 2.95552 (2 samples)
Hops average = 1 (2 samples)
