

        *** GPGPU-Sim Simulator Version 3.2.2  [build 0] ***


GPGPU-Sim PTX: simulation mode 0 (can change with PTX_SIM_MODE_FUNC environment variable:
               1=functional simulation only, 0=detailed performance simulator)
GPGPU-Sim: Configuration options:

-network_mode                           1 # Interconnection network mode
-inter_config_file   config_fermi_islip.icnt # Interconnection network config file
-gpgpu_ptx_use_cuobjdump                    1 # Use cuobjdump to extract ptx and sass from binaries
-gpgpu_experimental_lib_support                    0 # Try to extract code from cuda libraries [Broken because of unknown cudaGetExportTable]
-gpgpu_ptx_convert_to_ptxplus                    0 # Convert SASS (native ISA) to ptxplus and run ptxplus
-gpgpu_ptx_force_max_capability                   20 # Force maximum compute capability
-gpgpu_ptx_inst_debug_to_file                    0 # Dump executed instructions' debug information to file
-gpgpu_ptx_inst_debug_file       inst_debug.txt # Executed instructions' debug output file
-gpgpu_ptx_inst_debug_thread_uid                    1 # Thread UID for executed instructions' debug output
-gpgpu_simd_model                       1 # 1 = post-dominator
-gpgpu_shader_core_pipeline              1536:32 # shader core pipeline config, i.e., {<nthread>:<warpsize>}
-gpgpu_tex_cache:l1  4:128:24,L:R:m:N:L,F:128:4,128:2 # per-shader L1 texture cache  (READ-ONLY) config  {<nsets>:<bsize>:<assoc>,<rep>:<wr>:<alloc>:<wr_alloc>,<mshr>:<N>:<merge>,<mq>:<rf>}
-gpgpu_const_cache:l1 64:64:2,L:R:f:N:L,A:2:32,4 # per-shader L1 constant memory cache  (READ-ONLY) config  {<nsets>:<bsize>:<assoc>,<rep>:<wr>:<alloc>:<wr_alloc>,<mshr>:<N>:<merge>,<mq>} 
-gpgpu_cache:il1     4:128:4,L:R:f:N:L,A:2:32,4 # shader L1 instruction cache config  {<nsets>:<bsize>:<assoc>,<rep>:<wr>:<alloc>:<wr_alloc>,<mshr>:<N>:<merge>,<mq>} 
-gpgpu_cache:dl1     32:128:4,L:L:m:N:H,A:32:8,8:2,0,1:0:1:1:0:1,1:4:8:16:32:64,/sciclone/data10/hwang07/GPU_RESEARCH/swl/swl_outputs/RESULTS/swl2/ # per-shader L1 data cache config  {<nsets>:<bsize>:<assoc>,<rep>:<wr>:<alloc>:<wr_alloc>,<mshr>:<N>:<merge>,<mq> | none}
-gpgpu_cache:dl1PrefL1                 none # per-shader L1 data cache config  {<nsets>:<bsize>:<assoc>,<rep>:<wr>:<alloc>:<wr_alloc>,<mshr>:<N>:<merge>,<mq> | none}
-gpgpu_cache:dl1PreShared                 none # per-shader L1 data cache config  {<nsets>:<bsize>:<assoc>,<rep>:<wr>:<alloc>:<wr_alloc>,<mshr>:<N>:<merge>,<mq> | none}
-gmem_skip_L1D                          0 # global memory access skip L1D cache (implements -Xptxas -dlcm=cg, default=no skip)
-gpgpu_perfect_mem                      0 # enable perfect memory mode (no cache miss)
-n_regfile_gating_group                    4 # group of lanes that should be read/written together)
-gpgpu_clock_gated_reg_file                    0 # enable clock gated reg file for power calculations
-gpgpu_clock_gated_lanes                    0 # enable clock gated lanes for power calculations
-gpgpu_shader_registers                32768 # Number of registers per shader core. Limits number of concurrent CTAs. (default 8192)
-gpgpu_shader_cta                       8 # Maximum number of concurrent CTAs in shader (default 8)
-gpgpu_num_cta_barriers                   16 # Maximum number of named barriers per CTA (default 16)
-gpgpu_n_clusters                      15 # number of processing clusters
-gpgpu_n_cores_per_cluster                    1 # number of simd cores per cluster
-gpgpu_n_cluster_ejection_buffer_size                    8 # number of packets in ejection buffer
-gpgpu_n_ldst_response_buffer_size                    2 # number of response packets in ld/st unit ejection buffer
-gpgpu_shmem_size                   16384 # Size of shared memory per shader core (default 16kB)
-gpgpu_shmem_size                   49152 # Size of shared memory per shader core (default 16kB)
-gpgpu_shmem_size_PrefL1                16384 # Size of shared memory per shader core (default 16kB)
-gpgpu_shmem_size_PrefShared                16384 # Size of shared memory per shader core (default 16kB)
-gpgpu_shmem_num_banks                   32 # Number of banks in the shared memory in each shader core (default 16)
-gpgpu_shmem_limited_broadcast                    0 # Limit shared memory to do one broadcast per cycle (default on)
-gpgpu_shmem_warp_parts                    1 # Number of portions a warp is divided into for shared memory bank conflict check 
-gpgpu_warpdistro_shader                   -1 # Specify which shader core to collect the warp size distribution from
-gpgpu_warp_issue_shader                    0 # Specify which shader core to collect the warp issue distribution from
-gpgpu_local_mem_map                    1 # Mapping from local memory space address to simulated GPU physical address space (default = enabled)
-gpgpu_num_reg_banks                   16 # Number of register banks (default = 8)
-gpgpu_reg_bank_use_warp_id                    0 # Use warp ID in mapping registers to banks (default = off)
-gpgpu_operand_collector_num_units_sp                    6 # number of collector units (default = 4)
-gpgpu_operand_collector_num_units_sfu                    8 # number of collector units (default = 4)
-gpgpu_operand_collector_num_units_mem                    2 # number of collector units (default = 2)
-gpgpu_operand_collector_num_units_gen                    0 # number of collector units (default = 0)
-gpgpu_operand_collector_num_in_ports_sp                    2 # number of collector unit in ports (default = 1)
-gpgpu_operand_collector_num_in_ports_sfu                    1 # number of collector unit in ports (default = 1)
-gpgpu_operand_collector_num_in_ports_mem                    1 # number of collector unit in ports (default = 1)
-gpgpu_operand_collector_num_in_ports_gen                    0 # number of collector unit in ports (default = 0)
-gpgpu_operand_collector_num_out_ports_sp                    2 # number of collector unit in ports (default = 1)
-gpgpu_operand_collector_num_out_ports_sfu                    1 # number of collector unit in ports (default = 1)
-gpgpu_operand_collector_num_out_ports_mem                    1 # number of collector unit in ports (default = 1)
-gpgpu_operand_collector_num_out_ports_gen                    0 # number of collector unit in ports (default = 0)
-gpgpu_coalesce_arch                   13 # Coalescing arch (default = 13, anything else is off for now)
-gpgpu_num_sched_per_core                    2 # Number of warp schedulers per core
-gpgpu_max_insn_issue_per_warp                    1 # Max number of instructions that can be issued per warp in one cycle by scheduler
-gpgpu_simt_core_sim_order                    1 # Select the simulation order of cores in a cluster (0=Fix, 1=Round-Robin)
-gpgpu_pipeline_widths        2,1,1,2,1,1,2 # Pipeline widths ID_OC_SP,ID_OC_SFU,ID_OC_MEM,OC_EX_SP,OC_EX_SFU,OC_EX_MEM,EX_WB
-gpgpu_num_sp_units                     2 # Number of SP units (default=1)
-gpgpu_num_sfu_units                    1 # Number of SF units (default=1)
-gpgpu_num_mem_units                    1 # Number if ldst units (default=1) WARNING: not hooked up to anything
-gpgpu_scheduler        warp_limiting:2:2 # Scheduler configuration: < lrr | gto | two_level_active > If two_level_active:<num_active_warps>:<inner_prioritization>:<outer_prioritization>For complete list of prioritization values see shader.h enum scheduler_prioritization_typeDefault: gto
-gpgpu_dram_scheduler                    1 # 0 = fifo, 1 = FR-FCFS (defaul)
-gpgpu_dram_partition_queues              8:8:8:8 # i2$:$2d:d2$:$2i
-l2_ideal                               0 # Use a ideal L2 cache that always hit
-gpgpu_cache:dl2     64:128:8,L:B:m:W:L,A:32:4,4:0,32 # unified banked L2 data cache config  {<nsets>:<bsize>:<assoc>,<rep>:<wr>:<alloc>:<wr_alloc>,<mshr>:<N>:<merge>,<mq>}
-gpgpu_cache:dl2_texture_only                    0 # L2 cache used for texture only
-gpgpu_n_mem                            6 # number of memory modules (e.g. memory controllers) in gpu
-gpgpu_n_sub_partition_per_mchannel                    2 # number of memory subpartition in each memory module
-gpgpu_n_mem_per_ctrlr                    2 # number of memory chips per memory controller
-gpgpu_memlatency_stat                   14 # track and display latency statistics 0x2 enables MC, 0x4 enables queue logs
-gpgpu_frfcfs_dram_sched_queue_size                   16 # 0 = unlimited (default); # entries per chip
-gpgpu_dram_return_queue_size                  116 # 0 = unlimited (default); # entries per chip
-gpgpu_dram_buswidth                    4 # default = 4 bytes (8 bytes per cycle at DDR)
-gpgpu_dram_burst_length                    8 # Burst length of each DRAM request (default = 4 data bus cycle)
-dram_data_command_freq_ratio                    4 # Frequency ratio between DRAM data bus and command bus (default = 2 times, i.e. DDR)
-gpgpu_dram_timing_opt nbk=16:CCD=2:RRD=6:RCD=12:RAS=28:RP=12:RC=40: CL=12:WL=4:CDLR=5:WR=12:nbkgrp=4:CCDL=3:RTPL=2 # DRAM timing parameters = {nbk:tCCD:tRRD:tRCD:tRAS:tRP:tRC:CL:WL:tCDLR:tWR:nbkgrp:tCCDL:tRTPL}
-rop_latency                          120 # ROP queue latency (default 85)
-dram_latency                         100 # DRAM latency (default 30)
-gpgpu_mem_addr_mapping dramid@8;00000000.00000000.00000000.00000000.0000RRRR.RRRRRRRR.BBBCCCCB.CCSSSSSS # mapping memory address to dram model {dramid@<start bit>;<memory address map>}
-gpgpu_mem_addr_test                    0 # run sweep test to check address mapping for aliased address
-gpgpu_mem_address_mask                    1 # 0 = old addressing mask, 1 = new addressing mask, 2 = new add. mask + flipped bank sel and chip sel bits
-gpuwattch_xml_file  gpuwattch_gtx480.xml # GPUWattch XML file
-power_simulation_enabled                    0 # Turn on power simulator (1=On, 0=Off)
-power_per_cycle_dump                    0 # Dump detailed power output each cycle
-power_trace_enabled                    0 # produce a file for the power trace (1=On, 0=Off)
-power_trace_zlevel                     6 # Compression level of the power trace output log (0=no comp, 9=highest)
-steady_power_levels_enabled                    0 # produce a file for the steady power levels (1=On, 0=Off)
-steady_state_definition                  8:4 # allowed deviation:number of samples
-gpgpu_max_cycle                        0 # terminates gpu simulation early (0 = no limit)
-gpgpu_max_insn                         0 # terminates gpu simulation early (0 = no limit)
-gpgpu_max_cta                          0 # terminates gpu simulation early (0 = no limit)
-gpgpu_runtime_stat                   500 # display runtime statistics such as dram utilization {<freq>:<flag>}
-liveness_message_freq                    1 # Minimum number of seconds between simulation liveness messages (0 = always print)
-gpgpu_flush_l1_cache                    0 # Flush L1 cache at the end of each kernel call
-gpgpu_flush_l2_cache                    0 # Flush L2 cache at the end of each kernel call
-gpgpu_deadlock_detect                    1 # Stop the simulation at deadlock (1=on (default), 0=off)
-gpgpu_ptx_instruction_classification                    0 # if enabled will classify ptx instruction types per kernel (Max 255 kernels now)
-gpgpu_ptx_sim_mode                     0 # Select between Performance (default) or Functional simulation (1)
-gpgpu_clock_domains 700.0:700.0:700.0:924.0 # Clock Domain Frequencies in MhZ {<Core Clock>:<ICNT Clock>:<L2 Clock>:<DRAM Clock>}
-gpgpu_max_concurrent_kernel                    8 # maximum kernels that can run concurrently on GPU
-gpgpu_cflog_interval                    0 # Interval between each snapshot in control flow logger
-visualizer_enabled                     0 # Turn on visualizer output (1=On, 0=Off)
-visualizer_outputfile                 NULL # Specifies the output log file for visualizer
-visualizer_zlevel                      6 # Compression level of the visualizer output log (0=no comp, 9=highest)
-trace_enabled                          0 # Turn on traces
-trace_components                    none # comma seperated list of traces to enable. Complete list found in trace_streams.tup. Default none
-trace_sampling_core                    0 # The core which is printed using CORE_DPRINTF. Default 0
-trace_sampling_memory_partition                   -1 # The memory partition which is printed using MEMPART_DPRINTF. Default -1 (i.e. all)
-enable_ptx_file_line_stats                    1 # Turn on PTX source line statistic profiling. (1 = On)
-ptx_line_stats_filename gpgpu_inst_stats.txt # Output file for PTX source line statistics.
-save_embedded_ptx                      0 # saves ptx files embedded in binary as <n>.ptx
-keep                                   0 # keep intermediate files created by GPGPU-Sim when interfacing with external programs
-gpgpu_ptx_save_converted_ptxplus                    0 # Saved converted ptxplus to a file
-ptx_opcode_latency_int         4,13,4,5,145 # Opcode latencies for integers <ADD,MAX,MUL,MAD,DIV>Default 1,1,19,25,145
-ptx_opcode_latency_fp          4,13,4,5,39 # Opcode latencies for single precision floating points <ADD,MAX,MUL,MAD,DIV>Default 1,1,1,1,30
-ptx_opcode_latency_dp         8,19,8,8,330 # Opcode latencies for double precision floating points <ADD,MAX,MUL,MAD,DIV>Default 8,8,8,8,335
-ptx_opcode_initiation_int            1,2,2,1,8 # Opcode initiation intervals for integers <ADD,MAX,MUL,MAD,DIV>Default 1,1,4,4,32
-ptx_opcode_initiation_fp            1,2,1,1,4 # Opcode initiation intervals for single precision floating points <ADD,MAX,MUL,MAD,DIV>Default 1,1,1,1,5
-ptx_opcode_initiation_dp         8,16,8,8,130 # Opcode initiation intervals for double precision floating points <ADD,MAX,MUL,MAD,DIV>Default 8,8,8,8,130
DRAM Timing Options:
nbk                                    16 # number of banks
CCD                                     2 # column to column delay
RRD                                     6 # minimal delay between activation of rows in different banks
RCD                                    12 # row to column delay
RAS                                    28 # time needed to activate row
RP                                     12 # time needed to precharge (deactivate) row
RC                                     40 # row cycle time
CDLR                                    5 # switching from write to read (changes tWTR)
WR                                     12 # last data-in to row precharge
CL                                     12 # CAS latency
WL                                      4 # Write latency
nbkgrp                                  4 # number of bank groups
CCDL                                    3 # column to column delay between accesses to different bank groups
RTPL                                    2 # read to precharge delay between accesses to different bank groups
Total number of memory sub partition = 12
addr_dec_mask[CHIP]  = 0000000000000000 	high:64 low:0
addr_dec_mask[BK]    = 000000000000e100 	high:16 low:8
addr_dec_mask[ROW]   = 000000000fff0000 	high:28 low:16
addr_dec_mask[COL]   = 0000000000001eff 	high:13 low:0
addr_dec_mask[BURST] = 000000000000003f 	high:6 low:0
sub_partition_id_mask = 0000000000000100
GPGPU-Sim uArch: clock freqs: 700000000.000000:700000000.000000:700000000.000000:924000000.000000
GPGPU-Sim uArch: clock periods: 0.00000000142857142857:0.00000000142857142857:0.00000000142857142857:0.00000000108225108225
*** Initializing Memory Statistics ***
GPGPU-Sim uArch: interconnect node map (shaderID+MemID to icntID)
GPGPU-Sim uArch: Memory nodes ID start from index: 15
GPGPU-Sim uArch:    0   1   2   3   4
GPGPU-Sim uArch:    5   6   7   8   9
GPGPU-Sim uArch:   10  11  12  13  14
GPGPU-Sim uArch:   15  16  17  18  19
GPGPU-Sim uArch:   20  21  22  23  24
GPGPU-Sim uArch:   25  26
GPGPU-Sim uArch: interconnect node reverse map (icntID to shaderID+MemID)
GPGPU-Sim uArch: Memory nodes start from ID: 15
GPGPU-Sim uArch:    0   1   2   3   4
GPGPU-Sim uArch:    5   6   7   8   9
GPGPU-Sim uArch:   10  11  12  13  14
GPGPU-Sim uArch:   15  16  17  18  19
GPGPU-Sim uArch:   20  21  22  23  24
GPGPU-Sim uArch:   25  26
af04f0b458cb08397a3295dafdcb0262  /sciclone/data10/hwang07/adwait/applications/benchmarks/CUDA/TRA/gpgpu_ptx_sim__TRA
GPGPU-Sim uArch: performance model initialization complete.
GPGPU-Sim PTX: __cudaRegisterFatBinary, fat_cubin_handle = 1, filename=transpose.cu
self exe links to: /sciclone/data10/hwang07/adwait/applications/benchmarks/CUDA/TRA/gpgpu_ptx_sim__TRA
Running md5sum using "md5sum /sciclone/data10/hwang07/adwait/applications/benchmarks/CUDA/TRA/gpgpu_ptx_sim__TRA "
Parsing file _cuobjdump_complete_output_rwlqPi
######### cuobjdump parser ########
## Adding new section ELF
Adding arch: sm_20
Adding identifier: transpose.cu
## Adding new section PTX
Adding ptx filename: _cuobjdump_1.ptx
Adding arch: sm_20
Adding identifier: transpose.cu
Done parsing!!!
GPGPU-Sim PTX: __cudaRegisterFunction _Z15transpose_naivePfS_ii : hostFun 0x0x404f49, fat_cubin_handle = 1
GPGPU-Sim PTX: allocating shared region for "__cuda___cuda_local_var_42235_32_non_const_block24" from 0x0 to 0x440 (shared memory space)
GPGPU-Sim PTX: instruction assembly for function '_Z9transposePfS_ii'...   done.
GPGPU-Sim PTX: finding reconvergence points for '_Z9transposePfS_ii'...
GPGPU-Sim PTX: Finding dominators for '_Z9transposePfS_ii'...
GPGPU-Sim PTX: Finding immediate dominators for '_Z9transposePfS_ii'...
GPGPU-Sim PTX: Finding postdominators for '_Z9transposePfS_ii'...
GPGPU-Sim PTX: Finding immediate postdominators for '_Z9transposePfS_ii'...
GPGPU-Sim PTX: pre-decoding instructions for '_Z9transposePfS_ii'...
GPGPU-Sim PTX: reconvergence points for _Z9transposePfS_ii...
GPGPU-Sim PTX:  1 (potential) branch divergence @  PC=0x088 (_1.ptx:81) @%p1 bra $Lt_0_2306;
GPGPU-Sim PTX:    immediate post dominator      @  PC=0x108 (_1.ptx:99) mov.u64 %rd1, __cuda___cuda_local_var_42235_32_non_const_block24;
GPGPU-Sim PTX:  2 (potential) branch divergence @  PC=0x160 (_1.ptx:111) @%p2 bra $Lt_0_2818;
GPGPU-Sim PTX:    immediate post dominator      @  PC=0x1d8 (_1.ptx:129) exit;
GPGPU-Sim PTX: ... end of reconvergence points for _Z9transposePfS_ii
GPGPU-Sim PTX: ... done pre-decoding instructions for '_Z9transposePfS_ii'.
GPGPU-Sim PTX: instruction assembly for function '_Z15transpose_naivePfS_ii'...   done.
GPGPU-Sim PTX: finding reconvergence points for '_Z15transpose_naivePfS_ii'...
GPGPU-Sim PTX: Finding dominators for '_Z15transpose_naivePfS_ii'...
GPGPU-Sim PTX: Finding immediate dominators for '_Z15transpose_naivePfS_ii'...
GPGPU-Sim PTX: Finding postdominators for '_Z15transpose_naivePfS_ii'...
GPGPU-Sim PTX: Finding immediate postdominators for '_Z15transpose_naivePfS_ii'...
GPGPU-Sim PTX: pre-decoding instructions for '_Z15transpose_naivePfS_ii'...
GPGPU-Sim PTX: reconvergence points for _Z15transpose_naivePfS_ii...
GPGPU-Sim PTX:  1 (potential) branch divergence @  PC=0x278 (_1.ptx:164) @%p1 bra $Lt_1_1282;
GPGPU-Sim PTX:    immediate post dominator      @  PC=0x2f0 (_1.ptx:182) exit;
GPGPU-Sim PTX: ... end of reconvergence points for _Z15transpose_naivePfS_ii
GPGPU-Sim PTX: ... done pre-decoding instructions for '_Z15transpose_naivePfS_ii'.
GPGPU-Sim PTX: finished parsing EMBEDDED .ptx file _1.ptx
Adding _cuobjdump_1.ptx with cubin handle 1
GPGPU-Sim PTX: extracting embedded .ptx to temporary file "_ptx_lsdpgN"
Running: cat _ptx_lsdpgN | sed 's/.version 1.5/.version 1.4/' | sed 's/, texmode_independent//' | sed 's/\(\.extern \.const\[1\] .b8 \w\+\)\[\]/\1\[1\]/' | sed 's/const\[.\]/const\[0\]/g' > _ptx2_ps96ar
GPGPU-Sim PTX: generating ptxinfo using "$CUDA_INSTALL_PATH/bin/ptxas --gpu-name=sm_20 -v _ptx2_ps96ar --output-file  /dev/null 2> _ptx_lsdpgNinfo"
GPGPU-Sim PTX: Kernel '_Z15transpose_naivePfS_ii' : regs=8, lmem=0, smem=0, cmem=56
GPGPU-Sim PTX: Kernel '_Z9transposePfS_ii' : regs=9, lmem=0, smem=1088, cmem=56
GPGPU-Sim PTX: removing ptxinfo using "rm -f _ptx_lsdpgN _ptx2_ps96ar _ptx_lsdpgNinfo"
GPGPU-Sim PTX: loading globals with explicit initializers... 
GPGPU-Sim PTX: finished loading globals (0 bytes total).
GPGPU-Sim PTX: loading constants with explicit initializers...  done.
GPGPU-Sim PTX: __cudaRegisterFunction _Z9transposePfS_ii : hostFun 0x0x404e59, fat_cubin_handle = 1

GPGPU-Sim PTX: cudaLaunch for 0x0x404f49 (mode=performance simulation) on stream 0
GPGPU-Sim PTX: pushing kernel '_Z15transpose_naivePfS_ii' to stream 0, gridDim= (16,256,1) blockDim = (16,16,1) 
kernel '_Z15transpose_naivePfS_ii' transfer to GPU hardware scheduler
GPGPU-Sim uArch: Shader 1 bind to kernel 1 '_Z15transpose_naivePfS_ii'
GPGPU-Sim uArch: CTA/core = 6, limited by: threads
GPGPU-Sim uArch: core:  1, cta: 0 initialized @(1,0)
GPGPU-Sim uArch: Shader 2 bind to kernel 1 '_Z15transpose_naivePfS_ii'
GPGPU-Sim uArch: core:  2, cta: 0 initialized @(1,0)
GPGPU-Sim uArch: Shader 3 bind to kernel 1 '_Z15transpose_naivePfS_ii'
GPGPU-Sim uArch: core:  3, cta: 0 initialized @(1,0)
GPGPU-Sim uArch: Shader 4 bind to kernel 1 '_Z15transpose_naivePfS_ii'
GPGPU-Sim uArch: core:  4, cta: 0 initialized @(1,0)
GPGPU-Sim uArch: Shader 5 bind to kernel 1 '_Z15transpose_naivePfS_ii'
GPGPU-Sim uArch: core:  5, cta: 0 initialized @(1,0)
GPGPU-Sim uArch: Shader 6 bind to kernel 1 '_Z15transpose_naivePfS_ii'
GPGPU-Sim uArch: core:  6, cta: 0 initialized @(1,0)
GPGPU-Sim uArch: Shader 7 bind to kernel 1 '_Z15transpose_naivePfS_ii'
GPGPU-Sim uArch: core:  7, cta: 0 initialized @(1,0)
GPGPU-Sim uArch: Shader 8 bind to kernel 1 '_Z15transpose_naivePfS_ii'
GPGPU-Sim uArch: core:  8, cta: 0 initialized @(1,0)
GPGPU-Sim uArch: Shader 9 bind to kernel 1 '_Z15transpose_naivePfS_ii'
GPGPU-Sim uArch: core:  9, cta: 0 initialized @(1,0)
GPGPU-Sim uArch: Shader 10 bind to kernel 1 '_Z15transpose_naivePfS_ii'
GPGPU-Sim uArch: core: 10, cta: 0 initialized @(1,0)
GPGPU-Sim uArch: Shader 11 bind to kernel 1 '_Z15transpose_naivePfS_ii'
GPGPU-Sim uArch: core: 11, cta: 0 initialized @(1,0)
GPGPU-Sim uArch: Shader 12 bind to kernel 1 '_Z15transpose_naivePfS_ii'
GPGPU-Sim uArch: core: 12, cta: 0 initialized @(1,0)
GPGPU-Sim uArch: Shader 13 bind to kernel 1 '_Z15transpose_naivePfS_ii'
GPGPU-Sim uArch: core: 13, cta: 0 initialized @(1,0)
GPGPU-Sim uArch: Shader 14 bind to kernel 1 '_Z15transpose_naivePfS_ii'
GPGPU-Sim uArch: core: 14, cta: 0 initialized @(1,0)
GPGPU-Sim uArch: Shader 0 bind to kernel 1 '_Z15transpose_naivePfS_ii'
GPGPU-Sim uArch: core:  0, cta: 0 initialized @(1,0)
GPGPU-Sim uArch: core:  1, cta: 1 initialized @(2,0)
GPGPU-Sim uArch: core:  2, cta: 1 initialized @(2,0)
GPGPU-Sim uArch: core:  3, cta: 1 initialized @(2,0)
GPGPU-Sim uArch: core:  4, cta: 1 initialized @(2,0)
GPGPU-Sim uArch: core:  5, cta: 1 initialized @(2,0)
GPGPU-Sim uArch: core:  6, cta: 1 initialized @(2,0)
GPGPU-Sim uArch: core:  7, cta: 1 initialized @(2,0)
GPGPU-Sim uArch: core:  8, cta: 1 initialized @(2,0)
GPGPU-Sim uArch: core:  9, cta: 1 initialized @(2,0)
GPGPU-Sim uArch: core: 10, cta: 1 initialized @(2,0)
GPGPU-Sim uArch: core: 11, cta: 1 initialized @(2,0)
GPGPU-Sim uArch: core: 12, cta: 1 initialized @(2,0)
GPGPU-Sim uArch: core: 13, cta: 1 initialized @(2,0)
GPGPU-Sim uArch: core: 14, cta: 1 initialized @(2,0)
GPGPU-Sim uArch: core:  0, cta: 1 initialized @(2,0)
GPGPU-Sim uArch: core:  1, cta: 2 initialized @(3,0)
GPGPU-Sim uArch: core:  2, cta: 2 initialized @(3,0)
GPGPU-Sim uArch: core:  3, cta: 2 initialized @(3,0)
GPGPU-Sim uArch: core:  4, cta: 2 initialized @(3,0)
GPGPU-Sim uArch: core:  5, cta: 2 initialized @(3,0)
GPGPU-Sim uArch: core:  6, cta: 2 initialized @(3,0)
GPGPU-Sim uArch: core:  7, cta: 2 initialized @(3,0)
GPGPU-Sim uArch: core:  8, cta: 2 initialized @(3,0)
GPGPU-Sim uArch: core:  9, cta: 2 initialized @(3,0)
GPGPU-Sim uArch: core: 10, cta: 2 initialized @(3,0)
GPGPU-Sim uArch: core: 11, cta: 2 initialized @(3,0)
GPGPU-Sim uArch: core: 12, cta: 2 initialized @(3,0)
GPGPU-Sim uArch: core: 13, cta: 2 initialized @(3,0)
GPGPU-Sim uArch: core: 14, cta: 2 initialized @(3,0)
GPGPU-Sim uArch: core:  0, cta: 2 initialized @(3,0)
GPGPU-Sim uArch: core:  1, cta: 3 initialized @(4,0)
GPGPU-Sim uArch: core:  2, cta: 3 initialized @(4,0)
GPGPU-Sim uArch: core:  3, cta: 3 initialized @(4,0)
GPGPU-Sim uArch: core:  4, cta: 3 initialized @(4,0)
GPGPU-Sim uArch: core:  5, cta: 3 initialized @(4,0)
GPGPU-Sim uArch: core:  6, cta: 3 initialized @(4,0)
GPGPU-Sim uArch: core:  7, cta: 3 initialized @(4,0)
GPGPU-Sim uArch: core:  8, cta: 3 initialized @(4,0)
GPGPU-Sim uArch: core:  9, cta: 3 initialized @(4,0)
GPGPU-Sim uArch: core: 10, cta: 3 initialized @(4,0)
GPGPU-Sim uArch: core: 11, cta: 3 initialized @(4,0)
GPGPU-Sim uArch: core: 12, cta: 3 initialized @(4,0)
GPGPU-Sim uArch: core: 13, cta: 3 initialized @(4,0)
GPGPU-Sim uArch: core: 14, cta: 3 initialized @(4,0)
GPGPU-Sim uArch: core:  0, cta: 3 initialized @(4,0)
GPGPU-Sim uArch: core:  1, cta: 4 initialized @(5,0)
GPGPU-Sim uArch: core:  2, cta: 4 initialized @(5,0)
GPGPU-Sim uArch: core:  3, cta: 4 initialized @(5,0)
GPGPU-Sim uArch: core:  4, cta: 4 initialized @(5,0)
GPGPU-Sim uArch: core:  5, cta: 4 initialized @(5,0)
GPGPU-Sim uArch: core:  6, cta: 4 initialized @(5,0)
GPGPU-Sim uArch: core:  7, cta: 4 initialized @(5,0)
GPGPU-Sim uArch: core:  8, cta: 4 initialized @(5,0)
GPGPU-Sim uArch: core:  9, cta: 4 initialized @(5,0)
GPGPU-Sim uArch: core: 10, cta: 4 initialized @(5,0)
GPGPU-Sim uArch: core: 11, cta: 4 initialized @(5,0)
GPGPU-Sim uArch: core: 12, cta: 4 initialized @(5,0)
GPGPU-Sim uArch: core: 13, cta: 4 initialized @(5,0)
GPGPU-Sim uArch: core: 14, cta: 4 initialized @(5,0)
GPGPU-Sim uArch: core:  0, cta: 4 initialized @(5,0)
GPGPU-Sim uArch: core:  1, cta: 5 initialized @(6,0)
GPGPU-Sim uArch: core:  2, cta: 5 initialized @(6,0)
GPGPU-Sim uArch: core:  3, cta: 5 initialized @(6,0)
GPGPU-Sim uArch: core:  4, cta: 5 initialized @(6,0)
GPGPU-Sim uArch: core:  5, cta: 5 initialized @(6,0)
GPGPU-Sim uArch: core:  6, cta: 5 initialized @(6,0)
GPGPU-Sim uArch: core:  7, cta: 5 initialized @(6,0)
GPGPU-Sim uArch: core:  8, cta: 5 initialized @(6,0)
GPGPU-Sim uArch: core:  9, cta: 5 initialized @(6,0)
GPGPU-Sim uArch: core: 10, cta: 5 initialized @(6,0)
GPGPU-Sim uArch: core: 11, cta: 5 initialized @(6,0)
GPGPU-Sim uArch: core: 12, cta: 5 initialized @(6,0)
GPGPU-Sim uArch: core: 13, cta: 5 initialized @(6,0)
GPGPU-Sim uArch: core: 14, cta: 5 initialized @(6,0)
GPGPU-Sim uArch: core:  0, cta: 5 initialized @(6,0)
GPGPU-Sim uArch: cycles simulated: 500  inst.: 7680 (ipc=15.4) sim_rate=640 (inst/sec) elapsed = 0:0:00:12 / Tue Mar 22 12:44:20 2016
GPGPU-Sim uArch: cycles simulated: 1500  inst.: 59520 (ipc=39.7) sim_rate=4251 (inst/sec) elapsed = 0:0:00:14 / Tue Mar 22 12:44:22 2016
GPGPU-Sim uArch: cycles simulated: 4000  inst.: 94304 (ipc=23.6) sim_rate=6286 (inst/sec) elapsed = 0:0:00:15 / Tue Mar 22 12:44:23 2016
GPGPU-Sim PTX: 100000 instructions simulated : ctaid=(3,0,0) tid=(15,15,0)
GPGPU-Sim uArch: cycles simulated: 6500  inst.: 150848 (ipc=23.2) sim_rate=9428 (inst/sec) elapsed = 0:0:00:16 / Tue Mar 22 12:44:24 2016
GPGPU-Sim uArch: Shader 0 finished CTA #0 (8637,0), 5 CTAs running
GPGPU-Sim uArch: core:  0, cta: 0 initialized @(8638,0)
GPGPU-Sim PTX: 200000 instructions simulated : ctaid=(7,1,0) tid=(15,15,0)
GPGPU-Sim uArch: cycles simulated: 9000  inst.: 192800 (ipc=21.4) sim_rate=11341 (inst/sec) elapsed = 0:0:00:17 / Tue Mar 22 12:44:25 2016
GPGPU-Sim uArch: Shader 6 finished CTA #0 (9024,0), 5 CTAs running
GPGPU-Sim uArch: core:  6, cta: 0 initialized @(9025,0)
GPGPU-Sim uArch: Shader 5 finished CTA #0 (9344,0), 5 CTAs running
GPGPU-Sim uArch: core:  5, cta: 0 initialized @(9345,0)
GPGPU-Sim uArch: Shader 9 finished CTA #0 (9351,0), 5 CTAs running
GPGPU-Sim uArch: core:  9, cta: 0 initialized @(9352,0)
GPGPU-Sim uArch: Shader 12 finished CTA #0 (9398,0), 5 CTAs running
GPGPU-Sim uArch: core: 12, cta: 0 initialized @(9399,0)
GPGPU-Sim uArch: Shader 2 finished CTA #0 (9448,0), 5 CTAs running
GPGPU-Sim uArch: core:  2, cta: 0 initialized @(9449,0)
GPGPU-Sim uArch: Shader 11 finished CTA #0 (9561,0), 5 CTAs running
GPGPU-Sim uArch: core: 11, cta: 0 initialized @(9562,0)
GPGPU-Sim uArch: Shader 1 finished CTA #0 (9574,0), 5 CTAs running
GPGPU-Sim uArch: core:  1, cta: 0 initialized @(9575,0)
GPGPU-Sim uArch: Shader 3 finished CTA #0 (9852,0), 5 CTAs running
GPGPU-Sim uArch: core:  3, cta: 0 initialized @(9853,0)
GPGPU-Sim uArch: Shader 10 finished CTA #0 (9866,0), 5 CTAs running
GPGPU-Sim uArch: core: 10, cta: 0 initialized @(9867,0)
GPGPU-Sim uArch: Shader 14 finished CTA #0 (9870,0), 5 CTAs running
GPGPU-Sim uArch: core: 14, cta: 0 initialized @(9871,0)
GPGPU-Sim uArch: Shader 13 finished CTA #0 (9918,0), 5 CTAs running
GPGPU-Sim uArch: core: 13, cta: 0 initialized @(9919,0)
GPGPU-Sim uArch: Shader 4 finished CTA #0 (9967,0), 5 CTAs running
GPGPU-Sim uArch: core:  4, cta: 0 initialized @(9968,0)
GPGPU-Sim uArch: Shader 8 finished CTA #0 (9971,0), 5 CTAs running
GPGPU-Sim uArch: core:  8, cta: 0 initialized @(9972,0)
GPGPU-Sim uArch: Shader 7 finished CTA #0 (10001,0), 5 CTAs running
GPGPU-Sim uArch: core:  7, cta: 0 initialized @(10002,0)
GPGPU-Sim uArch: cycles simulated: 11500  inst.: 223328 (ipc=19.4) sim_rate=12407 (inst/sec) elapsed = 0:0:00:18 / Tue Mar 22 12:44:26 2016
GPGPU-Sim uArch: cycles simulated: 14000  inst.: 274112 (ipc=19.6) sim_rate=14426 (inst/sec) elapsed = 0:0:00:19 / Tue Mar 22 12:44:27 2016
GPGPU-Sim PTX: 300000 instructions simulated : ctaid=(6,2,0) tid=(15,1,0)
GPGPU-Sim uArch: Shader 0 finished CTA #1 (16106,0), 5 CTAs running
GPGPU-Sim uArch: core:  0, cta: 1 initialized @(16107,0)
GPGPU-Sim uArch: cycles simulated: 16500  inst.: 306528 (ipc=18.6) sim_rate=15326 (inst/sec) elapsed = 0:0:00:20 / Tue Mar 22 12:44:28 2016
GPGPU-Sim uArch: Shader 6 finished CTA #1 (16811,0), 5 CTAs running
GPGPU-Sim uArch: core:  6, cta: 1 initialized @(16812,0)
GPGPU-Sim uArch: Shader 9 finished CTA #1 (16852,0), 5 CTAs running
GPGPU-Sim uArch: core:  9, cta: 1 initialized @(16853,0)
GPGPU-Sim uArch: Shader 10 finished CTA #1 (17004,0), 5 CTAs running
GPGPU-Sim uArch: core: 10, cta: 1 initialized @(17005,0)
GPGPU-Sim uArch: Shader 13 finished CTA #1 (17044,0), 5 CTAs running
GPGPU-Sim uArch: core: 13, cta: 1 initialized @(17045,0)
GPGPU-Sim uArch: Shader 12 finished CTA #1 (17331,0), 5 CTAs running
GPGPU-Sim uArch: core: 12, cta: 1 initialized @(17332,0)
GPGPU-Sim uArch: Shader 7 finished CTA #1 (17687,0), 5 CTAs running
GPGPU-Sim uArch: core:  7, cta: 1 initialized @(17688,0)
GPGPU-Sim uArch: Shader 14 finished CTA #1 (17848,0), 5 CTAs running
GPGPU-Sim uArch: core: 14, cta: 1 initialized @(17849,0)
GPGPU-Sim uArch: Shader 1 finished CTA #1 (17928,0), 5 CTAs running
GPGPU-Sim uArch: core:  1, cta: 1 initialized @(17929,0)
GPGPU-Sim uArch: Shader 4 finished CTA #1 (18022,0), 5 CTAs running
GPGPU-Sim uArch: core:  4, cta: 1 initialized @(18023,0)
GPGPU-Sim uArch: Shader 2 finished CTA #1 (18024,0), 5 CTAs running
GPGPU-Sim uArch: core:  2, cta: 1 initialized @(18025,0)
GPGPU-Sim uArch: Shader 11 finished CTA #1 (18190,0), 5 CTAs running
GPGPU-Sim uArch: core: 11, cta: 1 initialized @(18191,0)
GPGPU-Sim uArch: Shader 3 finished CTA #1 (18387,0), 5 CTAs running
GPGPU-Sim uArch: core:  3, cta: 1 initialized @(18388,0)
GPGPU-Sim uArch: Shader 5 finished CTA #1 (18967,0), 5 CTAs running
GPGPU-Sim uArch: core:  5, cta: 1 initialized @(18968,0)
GPGPU-Sim uArch: cycles simulated: 19000  inst.: 352736 (ipc=18.6) sim_rate=16796 (inst/sec) elapsed = 0:0:00:21 / Tue Mar 22 12:44:29 2016
GPGPU-Sim uArch: Shader 8 finished CTA #1 (19036,0), 5 CTAs running
GPGPU-Sim uArch: core:  8, cta: 1 initialized @(19037,0)
GPGPU-Sim PTX: 400000 instructions simulated : ctaid=(2,2,0) tid=(15,13,0)
GPGPU-Sim uArch: cycles simulated: 21500  inst.: 404480 (ipc=18.8) sim_rate=18385 (inst/sec) elapsed = 0:0:00:22 / Tue Mar 22 12:44:30 2016
GPGPU-Sim uArch: Shader 0 finished CTA #2 (23830,0), 5 CTAs running
GPGPU-Sim uArch: core:  0, cta: 2 initialized @(23831,0)
GPGPU-Sim uArch: Shader 10 finished CTA #2 (23934,0), 5 CTAs running
GPGPU-Sim uArch: core: 10, cta: 2 initialized @(23935,0)
GPGPU-Sim uArch: cycles simulated: 24000  inst.: 444832 (ipc=18.5) sim_rate=19340 (inst/sec) elapsed = 0:0:00:23 / Tue Mar 22 12:44:31 2016
GPGPU-Sim uArch: Shader 13 finished CTA #2 (24145,0), 5 CTAs running
GPGPU-Sim uArch: core: 13, cta: 2 initialized @(24146,0)
GPGPU-Sim uArch: Shader 7 finished CTA #2 (24626,0), 5 CTAs running
GPGPU-Sim uArch: core:  7, cta: 2 initialized @(24627,0)
GPGPU-Sim uArch: Shader 1 finished CTA #2 (24692,0), 5 CTAs running
GPGPU-Sim uArch: core:  1, cta: 2 initialized @(24693,0)
GPGPU-Sim uArch: Shader 14 finished CTA #2 (24822,0), 5 CTAs running
GPGPU-Sim uArch: core: 14, cta: 2 initialized @(24823,0)
GPGPU-Sim uArch: Shader 12 finished CTA #2 (24951,0), 5 CTAs running
GPGPU-Sim uArch: core: 12, cta: 2 initialized @(24952,0)
GPGPU-Sim uArch: Shader 9 finished CTA #2 (25025,0), 5 CTAs running
GPGPU-Sim uArch: core:  9, cta: 2 initialized @(25026,0)
GPGPU-Sim uArch: Shader 11 finished CTA #2 (25330,0), 5 CTAs running
GPGPU-Sim uArch: core: 11, cta: 2 initialized @(25331,0)
GPGPU-Sim uArch: Shader 5 finished CTA #2 (25480,0), 5 CTAs running
GPGPU-Sim uArch: core:  5, cta: 2 initialized @(25481,0)
GPGPU-Sim uArch: Shader 4 finished CTA #2 (25769,0), 5 CTAs running
GPGPU-Sim uArch: core:  4, cta: 2 initialized @(25770,0)
GPGPU-Sim uArch: Shader 8 finished CTA #2 (25773,0), 5 CTAs running
GPGPU-Sim uArch: core:  8, cta: 2 initialized @(25774,0)
GPGPU-Sim uArch: Shader 2 finished CTA #2 (25818,0), 5 CTAs running
GPGPU-Sim uArch: core:  2, cta: 2 initialized @(25819,0)
GPGPU-Sim uArch: Shader 3 finished CTA #2 (25972,0), 5 CTAs running
GPGPU-Sim uArch: core:  3, cta: 2 initialized @(25973,0)
GPGPU-Sim uArch: Shader 6 finished CTA #2 (26003,0), 5 CTAs running
GPGPU-Sim uArch: core:  6, cta: 2 initialized @(26004,0)
GPGPU-Sim PTX: 500000 instructions simulated : ctaid=(5,3,0) tid=(15,9,0)
GPGPU-Sim uArch: cycles simulated: 26500  inst.: 490304 (ipc=18.5) sim_rate=20429 (inst/sec) elapsed = 0:0:00:24 / Tue Mar 22 12:44:32 2016
GPGPU-Sim uArch: cycles simulated: 29000  inst.: 532608 (ipc=18.4) sim_rate=21304 (inst/sec) elapsed = 0:0:00:25 / Tue Mar 22 12:44:33 2016
GPGPU-Sim uArch: Shader 0 finished CTA #3 (30698,0), 5 CTAs running
GPGPU-Sim uArch: core:  0, cta: 3 initialized @(30699,0)
GPGPU-Sim uArch: Shader 0 finished CTA #4 (31099,0), 5 CTAs running
GPGPU-Sim uArch: core:  0, cta: 4 initialized @(31100,0)
GPGPU-Sim PTX: 600000 instructions simulated : ctaid=(6,4,0) tid=(15,5,0)
GPGPU-Sim uArch: cycles simulated: 31500  inst.: 582592 (ipc=18.5) sim_rate=22407 (inst/sec) elapsed = 0:0:00:26 / Tue Mar 22 12:44:34 2016
GPGPU-Sim uArch: Shader 10 finished CTA #3 (31726,0), 5 CTAs running
GPGPU-Sim uArch: core: 10, cta: 3 initialized @(31727,0)
GPGPU-Sim uArch: Shader 14 finished CTA #3 (31781,0), 5 CTAs running
GPGPU-Sim uArch: core: 14, cta: 3 initialized @(31782,0)
GPGPU-Sim uArch: Shader 1 finished CTA #3 (31826,0), 5 CTAs running
GPGPU-Sim uArch: core:  1, cta: 3 initialized @(31827,0)
GPGPU-Sim uArch: Shader 12 finished CTA #3 (31953,0), 5 CTAs running
GPGPU-Sim uArch: core: 12, cta: 3 initialized @(31954,0)
GPGPU-Sim uArch: Shader 13 finished CTA #3 (32100,0), 5 CTAs running
GPGPU-Sim uArch: core: 13, cta: 3 initialized @(32101,0)
GPGPU-Sim uArch: Shader 9 finished CTA #3 (32246,0), 5 CTAs running
GPGPU-Sim uArch: core:  9, cta: 3 initialized @(32247,0)
GPGPU-Sim uArch: Shader 11 finished CTA #3 (32678,0), 5 CTAs running
GPGPU-Sim uArch: core: 11, cta: 3 initialized @(32679,0)
GPGPU-Sim uArch: Shader 5 finished CTA #3 (32753,0), 5 CTAs running
GPGPU-Sim uArch: core:  5, cta: 3 initialized @(32754,0)
GPGPU-Sim uArch: Shader 0 finished CTA #5 (32899,0), 5 CTAs running
GPGPU-Sim uArch: core:  0, cta: 5 initialized @(32900,0)
GPGPU-Sim uArch: Shader 2 finished CTA #3 (32950,0), 5 CTAs running
GPGPU-Sim uArch: core:  2, cta: 3 initialized @(32951,0)
GPGPU-Sim uArch: Shader 3 finished CTA #3 (33023,0), 5 CTAs running
GPGPU-Sim uArch: core:  3, cta: 3 initialized @(33024,0)
GPGPU-Sim uArch: Shader 6 finished CTA #3 (33032,0), 5 CTAs running
GPGPU-Sim uArch: core:  6, cta: 3 initialized @(33033,0)
GPGPU-Sim uArch: Shader 8 finished CTA #3 (33078,0), 5 CTAs running
GPGPU-Sim uArch: core:  8, cta: 3 initialized @(33079,0)
GPGPU-Sim uArch: Shader 7 finished CTA #3 (33107,0), 5 CTAs running
GPGPU-Sim uArch: core:  7, cta: 3 initialized @(33108,0)
GPGPU-Sim uArch: Shader 4 finished CTA #3 (33206,0), 5 CTAs running
GPGPU-Sim uArch: core:  4, cta: 3 initialized @(33207,0)
GPGPU-Sim uArch: Shader 10 finished CTA #4 (33340,0), 5 CTAs running
GPGPU-Sim uArch: core: 10, cta: 4 initialized @(33341,0)
GPGPU-Sim uArch: cycles simulated: 33500  inst.: 665792 (ipc=19.9) sim_rate=24658 (inst/sec) elapsed = 0:0:00:27 / Tue Mar 22 12:44:35 2016
GPGPU-Sim PTX: 700000 instructions simulated : ctaid=(12,4,0) tid=(15,11,0)
GPGPU-Sim uArch: Shader 2 finished CTA #4 (33974,0), 5 CTAs running
GPGPU-Sim uArch: core:  2, cta: 4 initialized @(33975,0)
GPGPU-Sim uArch: Shader 1 finished CTA #4 (34367,0), 5 CTAs running
GPGPU-Sim uArch: core:  1, cta: 4 initialized @(34368,0)
GPGPU-Sim uArch: Shader 4 finished CTA #4 (34819,0), 5 CTAs running
GPGPU-Sim uArch: core:  4, cta: 4 initialized @(34820,0)
GPGPU-Sim uArch: Shader 3 finished CTA #4 (34830,0), 5 CTAs running
GPGPU-Sim uArch: core:  3, cta: 4 initialized @(34831,0)
GPGPU-Sim uArch: Shader 14 finished CTA #4 (35193,0), 5 CTAs running
GPGPU-Sim uArch: core: 14, cta: 4 initialized @(35194,0)
GPGPU-Sim uArch: cycles simulated: 36000  inst.: 725504 (ipc=20.2) sim_rate=25910 (inst/sec) elapsed = 0:0:00:28 / Tue Mar 22 12:44:36 2016
GPGPU-Sim uArch: Shader 13 finished CTA #4 (36541,0), 5 CTAs running
GPGPU-Sim uArch: core: 13, cta: 4 initialized @(36542,0)
GPGPU-Sim uArch: Shader 12 finished CTA #4 (36648,0), 5 CTAs running
GPGPU-Sim uArch: core: 12, cta: 4 initialized @(36649,0)
GPGPU-Sim uArch: Shader 9 finished CTA #4 (37177,0), 5 CTAs running
GPGPU-Sim uArch: core:  9, cta: 4 initialized @(37178,0)
GPGPU-Sim uArch: cycles simulated: 38000  inst.: 760192 (ipc=20.0) sim_rate=26213 (inst/sec) elapsed = 0:0:00:29 / Tue Mar 22 12:44:37 2016
GPGPU-Sim PTX: 800000 instructions simulated : ctaid=(0,5,0) tid=(15,5,0)
GPGPU-Sim uArch: Shader 5 finished CTA #4 (39440,0), 5 CTAs running
GPGPU-Sim uArch: core:  5, cta: 4 initialized @(39441,0)
GPGPU-Sim uArch: Shader 6 finished CTA #4 (39444,0), 5 CTAs running
GPGPU-Sim uArch: core:  6, cta: 4 initialized @(39445,0)
GPGPU-Sim uArch: Shader 0 finished CTA #0 (39544,0), 5 CTAs running
GPGPU-Sim uArch: core:  0, cta: 0 initialized @(39545,0)
GPGPU-Sim uArch: Shader 7 finished CTA #4 (39627,0), 5 CTAs running
GPGPU-Sim uArch: core:  7, cta: 4 initialized @(39628,0)
GPGPU-Sim uArch: Shader 11 finished CTA #4 (39777,0), 5 CTAs running
GPGPU-Sim uArch: core: 11, cta: 4 initialized @(39778,0)
GPGPU-Sim uArch: cycles simulated: 40500  inst.: 804096 (ipc=19.9) sim_rate=26803 (inst/sec) elapsed = 0:0:00:30 / Tue Mar 22 12:44:38 2016
GPGPU-Sim uArch: Shader 8 finished CTA #4 (40565,0), 5 CTAs running
GPGPU-Sim uArch: core:  8, cta: 4 initialized @(40566,0)
GPGPU-Sim uArch: Shader 1 finished CTA #5 (40844,0), 5 CTAs running
GPGPU-Sim uArch: core:  1, cta: 5 initialized @(40845,0)
GPGPU-Sim uArch: Shader 10 finished CTA #5 (41117,0), 5 CTAs running
GPGPU-Sim uArch: core: 10, cta: 5 initialized @(41118,0)
GPGPU-Sim uArch: Shader 3 finished CTA #5 (41351,0), 5 CTAs running
GPGPU-Sim uArch: core:  3, cta: 5 initialized @(41352,0)
GPGPU-Sim uArch: Shader 2 finished CTA #5 (41739,0), 5 CTAs running
GPGPU-Sim uArch: core:  2, cta: 5 initialized @(41740,0)
GPGPU-Sim uArch: Shader 14 finished CTA #5 (41912,0), 5 CTAs running
GPGPU-Sim uArch: core: 14, cta: 5 initialized @(41913,0)
GPGPU-Sim uArch: Shader 4 finished CTA #5 (42291,0), 5 CTAs running
GPGPU-Sim uArch: core:  4, cta: 5 initialized @(42292,0)
GPGPU-Sim uArch: cycles simulated: 42500  inst.: 846368 (ipc=19.9) sim_rate=27302 (inst/sec) elapsed = 0:0:00:31 / Tue Mar 22 12:44:39 2016
GPGPU-Sim PTX: 900000 instructions simulated : ctaid=(14,5,0) tid=(15,9,0)
GPGPU-Sim uArch: Shader 9 finished CTA #5 (44006,0), 5 CTAs running
GPGPU-Sim uArch: core:  9, cta: 5 initialized @(44007,0)
GPGPU-Sim uArch: Shader 12 finished CTA #5 (44131,0), 5 CTAs running
GPGPU-Sim uArch: core: 12, cta: 5 initialized @(44132,0)
GPGPU-Sim uArch: Shader 13 finished CTA #5 (44153,0), 5 CTAs running
GPGPU-Sim uArch: core: 13, cta: 5 initialized @(44154,0)
GPGPU-Sim uArch: cycles simulated: 45000  inst.: 903936 (ipc=20.1) sim_rate=28248 (inst/sec) elapsed = 0:0:00:32 / Tue Mar 22 12:44:40 2016
GPGPU-Sim uArch: Shader 5 finished CTA #5 (45438,0), 5 CTAs running
GPGPU-Sim uArch: core:  5, cta: 5 initialized @(45439,0)
GPGPU-Sim uArch: Shader 0 finished CTA #1 (45704,0), 5 CTAs running
GPGPU-Sim uArch: core:  0, cta: 1 initialized @(45705,0)
GPGPU-Sim uArch: Shader 8 finished CTA #5 (45709,0), 5 CTAs running
GPGPU-Sim uArch: core:  8, cta: 5 initialized @(45710,0)
GPGPU-Sim uArch: Shader 11 finished CTA #5 (46334,0), 5 CTAs running
GPGPU-Sim uArch: core: 11, cta: 5 initialized @(46335,0)
GPGPU-Sim uArch: Shader 1 finished CTA #0 (46626,0), 5 CTAs running
GPGPU-Sim uArch: core:  1, cta: 0 initialized @(46627,0)
GPGPU-Sim uArch: Shader 10 finished CTA #0 (46763,0), 5 CTAs running
GPGPU-Sim uArch: core: 10, cta: 0 initialized @(46764,0)
GPGPU-Sim uArch: Shader 3 finished CTA #0 (46864,0), 5 CTAs running
GPGPU-Sim uArch: core:  3, cta: 0 initialized @(46865,0)
GPGPU-Sim uArch: Shader 7 finished CTA #5 (47048,0), 5 CTAs running
GPGPU-Sim uArch: core:  7, cta: 5 initialized @(47049,0)
GPGPU-Sim uArch: Shader 6 finished CTA #5 (47159,0), 5 CTAs running
GPGPU-Sim uArch: core:  6, cta: 5 initialized @(47160,0)
GPGPU-Sim uArch: cycles simulated: 47500  inst.: 963232 (ipc=20.3) sim_rate=29188 (inst/sec) elapsed = 0:0:00:33 / Tue Mar 22 12:44:41 2016
GPGPU-Sim PTX: 1000000 instructions simulated : ctaid=(5,7,0) tid=(15,11,0)
GPGPU-Sim uArch: Shader 14 finished CTA #0 (47982,0), 5 CTAs running
GPGPU-Sim uArch: core: 14, cta: 0 initialized @(47983,0)
GPGPU-Sim uArch: Shader 2 finished CTA #0 (48573,0), 5 CTAs running
GPGPU-Sim uArch: core:  2, cta: 0 initialized @(48574,0)
GPGPU-Sim uArch: Shader 12 finished CTA #0 (49742,0), 5 CTAs running
GPGPU-Sim uArch: core: 12, cta: 0 initialized @(49743,0)
GPGPU-Sim uArch: cycles simulated: 50000  inst.: 1018016 (ipc=20.4) sim_rate=29941 (inst/sec) elapsed = 0:0:00:34 / Tue Mar 22 12:44:42 2016
GPGPU-Sim uArch: Shader 13 finished CTA #0 (50326,0), 5 CTAs running
GPGPU-Sim uArch: core: 13, cta: 0 initialized @(50327,0)
GPGPU-Sim uArch: Shader 9 finished CTA #0 (50397,0), 5 CTAs running
GPGPU-Sim uArch: core:  9, cta: 0 initialized @(50398,0)
GPGPU-Sim uArch: Shader 4 finished CTA #0 (50408,0), 5 CTAs running
GPGPU-Sim uArch: core:  4, cta: 0 initialized @(50409,0)
GPGPU-Sim uArch: Shader 5 finished CTA #0 (50866,0), 5 CTAs running
GPGPU-Sim uArch: core:  5, cta: 0 initialized @(50867,0)
GPGPU-Sim uArch: Shader 0 finished CTA #2 (50936,0), 5 CTAs running
GPGPU-Sim uArch: core:  0, cta: 2 initialized @(50937,0)
GPGPU-Sim uArch: Shader 11 finished CTA #0 (51023,0), 5 CTAs running
GPGPU-Sim uArch: core: 11, cta: 0 initialized @(51024,0)
GPGPU-Sim uArch: Shader 7 finished CTA #0 (51065,0), 5 CTAs running
GPGPU-Sim uArch: core:  7, cta: 0 initialized @(51066,0)
GPGPU-Sim uArch: Shader 6 finished CTA #0 (51658,0), 5 CTAs running
GPGPU-Sim uArch: core:  6, cta: 0 initialized @(51659,0)
GPGPU-Sim uArch: cycles simulated: 52000  inst.: 1065952 (ipc=20.5) sim_rate=30455 (inst/sec) elapsed = 0:0:00:35 / Tue Mar 22 12:44:43 2016
GPGPU-Sim PTX: 1100000 instructions simulated : ctaid=(8,8,0) tid=(15,1,0)
GPGPU-Sim uArch: Shader 3 finished CTA #1 (52353,0), 5 CTAs running
GPGPU-Sim uArch: core:  3, cta: 1 initialized @(52354,0)
GPGPU-Sim uArch: Shader 0 finished CTA #3 (52425,0), 5 CTAs running
GPGPU-Sim uArch: core:  0, cta: 3 initialized @(52426,0)
GPGPU-Sim uArch: Shader 1 finished CTA #1 (52607,0), 5 CTAs running
GPGPU-Sim uArch: core:  1, cta: 1 initialized @(52608,0)
GPGPU-Sim uArch: Shader 8 finished CTA #0 (52716,0), 5 CTAs running
GPGPU-Sim uArch: core:  8, cta: 0 initialized @(52717,0)
GPGPU-Sim uArch: Shader 2 finished CTA #1 (53268,0), 5 CTAs running
GPGPU-Sim uArch: core:  2, cta: 1 initialized @(53269,0)
GPGPU-Sim uArch: Shader 4 finished CTA #1 (53297,0), 5 CTAs running
GPGPU-Sim uArch: core:  4, cta: 1 initialized @(53298,0)
GPGPU-Sim uArch: Shader 0 finished CTA #4 (53599,0), 5 CTAs running
GPGPU-Sim uArch: core:  0, cta: 4 initialized @(53600,0)
GPGPU-Sim uArch: Shader 14 finished CTA #1 (54091,0), 5 CTAs running
GPGPU-Sim uArch: core: 14, cta: 1 initialized @(54092,0)
GPGPU-Sim uArch: Shader 3 finished CTA #2 (54106,0), 5 CTAs running
GPGPU-Sim uArch: core:  3, cta: 2 initialized @(54107,0)
GPGPU-Sim uArch: Shader 4 finished CTA #2 (54272,0), 5 CTAs running
GPGPU-Sim uArch: core:  4, cta: 2 initialized @(54273,0)
GPGPU-Sim PTX: 1200000 instructions simulated : ctaid=(14,7,0) tid=(15,1,0)
GPGPU-Sim uArch: cycles simulated: 54500  inst.: 1167264 (ipc=21.4) sim_rate=32424 (inst/sec) elapsed = 0:0:00:36 / Tue Mar 22 12:44:44 2016
GPGPU-Sim uArch: Shader 0 finished CTA #5 (54753,0), 5 CTAs running
GPGPU-Sim uArch: core:  0, cta: 5 initialized @(54754,0)
GPGPU-Sim uArch: Shader 10 finished CTA #1 (54806,0), 5 CTAs running
GPGPU-Sim uArch: core: 10, cta: 1 initialized @(54807,0)
GPGPU-Sim uArch: Shader 2 finished CTA #2 (54976,0), 5 CTAs running
GPGPU-Sim uArch: core:  2, cta: 2 initialized @(54977,0)
GPGPU-Sim uArch: Shader 3 finished CTA #3 (55133,0), 5 CTAs running
GPGPU-Sim uArch: core:  3, cta: 3 initialized @(55134,0)
GPGPU-Sim uArch: Shader 13 finished CTA #1 (55262,0), 5 CTAs running
GPGPU-Sim uArch: core: 13, cta: 1 initialized @(55263,0)
GPGPU-Sim uArch: Shader 2 finished CTA #3 (55331,0), 5 CTAs running
GPGPU-Sim uArch: core:  2, cta: 3 initialized @(55332,0)
GPGPU-Sim uArch: Shader 12 finished CTA #1 (55395,0), 5 CTAs running
GPGPU-Sim uArch: core: 12, cta: 1 initialized @(55396,0)
GPGPU-Sim uArch: Shader 0 finished CTA #0 (55449,0), 5 CTAs running
GPGPU-Sim uArch: core:  0, cta: 0 initialized @(55450,0)
GPGPU-Sim uArch: Shader 4 finished CTA #3 (56001,0), 5 CTAs running
GPGPU-Sim uArch: core:  4, cta: 3 initialized @(56002,0)
GPGPU-Sim uArch: Shader 9 finished CTA #1 (56069,0), 5 CTAs running
GPGPU-Sim uArch: core:  9, cta: 1 initialized @(56070,0)
GPGPU-Sim uArch: Shader 3 finished CTA #4 (56163,0), 5 CTAs running
GPGPU-Sim uArch: core:  3, cta: 4 initialized @(56164,0)
GPGPU-Sim PTX: 1300000 instructions simulated : ctaid=(6,8,0) tid=(15,9,0)
GPGPU-Sim uArch: cycles simulated: 56500  inst.: 1268928 (ipc=22.5) sim_rate=34295 (inst/sec) elapsed = 0:0:00:37 / Tue Mar 22 12:44:45 2016
GPGPU-Sim uArch: Shader 7 finished CTA #1 (56549,0), 5 CTAs running
GPGPU-Sim uArch: core:  7, cta: 1 initialized @(56550,0)
GPGPU-Sim uArch: Shader 6 finished CTA #1 (56665,0), 5 CTAs running
GPGPU-Sim uArch: core:  6, cta: 1 initialized @(56666,0)
GPGPU-Sim uArch: Shader 0 finished CTA #1 (56706,0), 5 CTAs running
GPGPU-Sim uArch: core:  0, cta: 1 initialized @(56707,0)
GPGPU-Sim uArch: Shader 2 finished CTA #4 (56712,0), 5 CTAs running
GPGPU-Sim uArch: core:  2, cta: 4 initialized @(56713,0)
GPGPU-Sim uArch: Shader 4 finished CTA #4 (56996,0), 5 CTAs running
GPGPU-Sim uArch: core:  4, cta: 4 initialized @(56997,0)
GPGPU-Sim uArch: Shader 3 finished CTA #5 (57415,0), 5 CTAs running
GPGPU-Sim uArch: core:  3, cta: 5 initialized @(57416,0)
GPGPU-Sim uArch: Shader 11 finished CTA #1 (57423,0), 5 CTAs running
GPGPU-Sim uArch: core: 11, cta: 1 initialized @(57424,0)
GPGPU-Sim uArch: Shader 8 finished CTA #1 (57666,0), 5 CTAs running
GPGPU-Sim uArch: core:  8, cta: 1 initialized @(57667,0)
GPGPU-Sim uArch: Shader 0 finished CTA #2 (57671,0), 5 CTAs running
GPGPU-Sim uArch: core:  0, cta: 2 initialized @(57672,0)
GPGPU-Sim uArch: Shader 5 finished CTA #1 (57709,0), 5 CTAs running
GPGPU-Sim uArch: core:  5, cta: 1 initialized @(57710,0)
GPGPU-Sim uArch: Shader 1 finished CTA #2 (57875,0), 5 CTAs running
GPGPU-Sim uArch: core:  1, cta: 2 initialized @(57876,0)
GPGPU-Sim PTX: 1400000 instructions simulated : ctaid=(12,8,0) tid=(15,7,0)
GPGPU-Sim uArch: Shader 14 finished CTA #2 (58231,0), 5 CTAs running
GPGPU-Sim uArch: core: 14, cta: 2 initialized @(58232,0)
GPGPU-Sim uArch: Shader 10 finished CTA #2 (58249,0), 5 CTAs running
GPGPU-Sim uArch: core: 10, cta: 2 initialized @(58250,0)
GPGPU-Sim uArch: cycles simulated: 58500  inst.: 1369856 (ipc=23.4) sim_rate=36048 (inst/sec) elapsed = 0:0:00:38 / Tue Mar 22 12:44:46 2016
GPGPU-Sim uArch: Shader 12 finished CTA #2 (58541,0), 5 CTAs running
GPGPU-Sim uArch: core: 12, cta: 2 initialized @(58542,0)
GPGPU-Sim uArch: Shader 9 finished CTA #2 (58624,0), 5 CTAs running
GPGPU-Sim uArch: core:  9, cta: 2 initialized @(58625,0)
GPGPU-Sim uArch: Shader 0 finished CTA #3 (58941,0), 5 CTAs running
GPGPU-Sim uArch: core:  0, cta: 3 initialized @(58942,0)
GPGPU-Sim uArch: Shader 6 finished CTA #2 (59353,0), 5 CTAs running
GPGPU-Sim uArch: core:  6, cta: 2 initialized @(59354,0)
GPGPU-Sim uArch: Shader 2 finished CTA #5 (59624,0), 5 CTAs running
GPGPU-Sim uArch: core:  2, cta: 5 initialized @(59625,0)
GPGPU-Sim uArch: Shader 11 finished CTA #2 (59831,0), 5 CTAs running
GPGPU-Sim uArch: core: 11, cta: 2 initialized @(59832,0)
GPGPU-Sim uArch: Shader 13 finished CTA #2 (59975,0), 5 CTAs running
GPGPU-Sim uArch: core: 13, cta: 2 initialized @(59976,0)
GPGPU-Sim uArch: Shader 7 finished CTA #2 (60305,0), 5 CTAs running
GPGPU-Sim uArch: core:  7, cta: 2 initialized @(60306,0)
GPGPU-Sim uArch: cycles simulated: 60500  inst.: 1427808 (ipc=23.6) sim_rate=36610 (inst/sec) elapsed = 0:0:00:39 / Tue Mar 22 12:44:47 2016
GPGPU-Sim uArch: Shader 8 finished CTA #2 (60652,0), 5 CTAs running
GPGPU-Sim uArch: core:  8, cta: 2 initialized @(60653,0)
GPGPU-Sim uArch: Shader 0 finished CTA #4 (60705,0), 5 CTAs running
GPGPU-Sim uArch: core:  0, cta: 4 initialized @(60706,0)
GPGPU-Sim uArch: Shader 4 finished CTA #5 (61112,0), 5 CTAs running
GPGPU-Sim uArch: core:  4, cta: 5 initialized @(61113,0)
GPGPU-Sim uArch: Shader 0 finished CTA #5 (61488,0), 5 CTAs running
GPGPU-Sim uArch: core:  0, cta: 5 initialized @(61489,0)
GPGPU-Sim PTX: 1500000 instructions simulated : ctaid=(13,9,0) tid=(15,7,0)
GPGPU-Sim uArch: Shader 0 finished CTA #0 (62500,0), 5 CTAs running
GPGPU-Sim uArch: core:  0, cta: 0 initialized @(62501,0)
GPGPU-Sim uArch: Shader 5 finished CTA #2 (62865,0), 5 CTAs running
GPGPU-Sim uArch: core:  5, cta: 2 initialized @(62866,0)
GPGPU-Sim uArch: cycles simulated: 63000  inst.: 1495712 (ipc=23.7) sim_rate=37392 (inst/sec) elapsed = 0:0:00:40 / Tue Mar 22 12:44:48 2016
GPGPU-Sim uArch: Shader 3 finished CTA #0 (63062,0), 5 CTAs running
GPGPU-Sim uArch: core:  3, cta: 0 initialized @(63063,0)
GPGPU-Sim uArch: Shader 3 finished CTA #1 (63627,0), 5 CTAs running
GPGPU-Sim uArch: core:  3, cta: 1 initialized @(63628,0)
GPGPU-Sim uArch: Shader 1 finished CTA #3 (63862,0), 5 CTAs running
GPGPU-Sim uArch: core:  1, cta: 3 initialized @(63863,0)
GPGPU-Sim uArch: Shader 0 finished CTA #1 (64102,0), 5 CTAs running
GPGPU-Sim uArch: core:  0, cta: 1 initialized @(64103,0)
GPGPU-Sim PTX: 1600000 instructions simulated : ctaid=(1,10,0) tid=(15,5,0)
GPGPU-Sim uArch: Shader 10 finished CTA #3 (64474,0), 5 CTAs running
GPGPU-Sim uArch: core: 10, cta: 3 initialized @(64475,0)
GPGPU-Sim uArch: Shader 13 finished CTA #3 (64500,0), 5 CTAs running
GPGPU-Sim uArch: core: 13, cta: 3 initialized @(64501,0)
GPGPU-Sim uArch: Shader 12 finished CTA #3 (64568,0), 5 CTAs running
GPGPU-Sim uArch: core: 12, cta: 3 initialized @(64569,0)
GPGPU-Sim uArch: Shader 3 finished CTA #2 (64601,0), 5 CTAs running
GPGPU-Sim uArch: core:  3, cta: 2 initialized @(64602,0)
GPGPU-Sim uArch: Shader 6 finished CTA #3 (64807,0), 5 CTAs running
GPGPU-Sim uArch: core:  6, cta: 3 initialized @(64808,0)
GPGPU-Sim uArch: Shader 0 finished CTA #2 (64883,0), 5 CTAs running
GPGPU-Sim uArch: core:  0, cta: 2 initialized @(64884,0)
GPGPU-Sim uArch: Shader 7 finished CTA #3 (64999,0), 5 CTAs running
GPGPU-Sim uArch: core:  7, cta: 3 initialized @(65000,0)
GPGPU-Sim uArch: cycles simulated: 65000  inst.: 1582336 (ipc=24.3) sim_rate=38593 (inst/sec) elapsed = 0:0:00:41 / Tue Mar 22 12:44:49 2016
GPGPU-Sim uArch: Shader 14 finished CTA #3 (65049,0), 5 CTAs running
GPGPU-Sim uArch: core: 14, cta: 3 initialized @(65050,0)
GPGPU-Sim uArch: Shader 8 finished CTA #3 (65456,0), 5 CTAs running
GPGPU-Sim uArch: core:  8, cta: 3 initialized @(65457,0)
GPGPU-Sim uArch: Shader 11 finished CTA #3 (65507,0), 5 CTAs running
GPGPU-Sim uArch: core: 11, cta: 3 initialized @(65508,0)
GPGPU-Sim uArch: Shader 3 finished CTA #3 (65586,0), 5 CTAs running
GPGPU-Sim uArch: core:  3, cta: 3 initialized @(65587,0)
GPGPU-Sim uArch: Shader 2 finished CTA #0 (65654,0), 5 CTAs running
GPGPU-Sim uArch: core:  2, cta: 0 initialized @(65655,0)
GPGPU-Sim uArch: Shader 9 finished CTA #3 (65662,0), 5 CTAs running
GPGPU-Sim uArch: core:  9, cta: 3 initialized @(65663,0)
GPGPU-Sim uArch: Shader 4 finished CTA #0 (65836,0), 5 CTAs running
GPGPU-Sim uArch: core:  4, cta: 0 initialized @(65837,0)
GPGPU-Sim PTX: 1700000 instructions simulated : ctaid=(15,14,0) tid=(15,13,0)
GPGPU-Sim uArch: Shader 0 finished CTA #3 (66871,0), 5 CTAs running
GPGPU-Sim uArch: core:  0, cta: 3 initialized @(66872,0)
GPGPU-Sim uArch: Shader 2 finished CTA #1 (66961,0), 5 CTAs running
GPGPU-Sim uArch: core:  2, cta: 1 initialized @(66962,0)
GPGPU-Sim uArch: Shader 4 finished CTA #1 (66983,0), 5 CTAs running
GPGPU-Sim uArch: core:  4, cta: 1 initialized @(66984,0)
GPGPU-Sim uArch: cycles simulated: 67000  inst.: 1668960 (ipc=24.9) sim_rate=39737 (inst/sec) elapsed = 0:0:00:42 / Tue Mar 22 12:44:50 2016
GPGPU-Sim uArch: Shader 3 finished CTA #4 (67104,0), 5 CTAs running
GPGPU-Sim uArch: core:  3, cta: 4 initialized @(67105,0)
GPGPU-Sim uArch: Shader 5 finished CTA #3 (67423,0), 5 CTAs running
GPGPU-Sim uArch: core:  5, cta: 3 initialized @(67424,0)
GPGPU-Sim uArch: Shader 2 finished CTA #2 (67712,0), 5 CTAs running
GPGPU-Sim uArch: core:  2, cta: 2 initialized @(67713,0)
GPGPU-Sim uArch: Shader 4 finished CTA #2 (67782,0), 5 CTAs running
GPGPU-Sim uArch: core:  4, cta: 2 initialized @(67783,0)
GPGPU-Sim uArch: Shader 0 finished CTA #4 (67885,0), 5 CTAs running
GPGPU-Sim uArch: core:  0, cta: 4 initialized @(67886,0)
GPGPU-Sim PTX: 1800000 instructions simulated : ctaid=(4,15,0) tid=(15,13,0)
GPGPU-Sim uArch: Shader 3 finished CTA #5 (68278,0), 5 CTAs running
GPGPU-Sim uArch: core:  3, cta: 5 initialized @(68279,0)
GPGPU-Sim uArch: Shader 1 finished CTA #4 (68335,0), 5 CTAs running
GPGPU-Sim uArch: core:  1, cta: 4 initialized @(68336,0)
GPGPU-Sim uArch: Shader 14 finished CTA #4 (68439,0), 5 CTAs running
GPGPU-Sim uArch: core: 14, cta: 4 initialized @(68440,0)
GPGPU-Sim uArch: Shader 2 finished CTA #3 (68710,0), 5 CTAs running
GPGPU-Sim uArch: core:  2, cta: 3 initialized @(68711,0)
GPGPU-Sim uArch: Shader 4 finished CTA #3 (68720,0), 5 CTAs running
GPGPU-Sim uArch: core:  4, cta: 3 initialized @(68721,0)
GPGPU-Sim uArch: Shader 10 finished CTA #4 (68987,0), 5 CTAs running
GPGPU-Sim uArch: core: 10, cta: 4 initialized @(68988,0)
GPGPU-Sim uArch: cycles simulated: 69000  inst.: 1783776 (ipc=25.9) sim_rate=41483 (inst/sec) elapsed = 0:0:00:43 / Tue Mar 22 12:44:51 2016
GPGPU-Sim uArch: Shader 3 finished CTA #0 (69063,0), 5 CTAs running
GPGPU-Sim uArch: core:  3, cta: 0 initialized @(69064,0)
GPGPU-Sim uArch: Shader 13 finished CTA #4 (69069,0), 5 CTAs running
GPGPU-Sim uArch: core: 13, cta: 4 initialized @(69070,0)
GPGPU-Sim uArch: Shader 12 finished CTA #4 (69113,0), 5 CTAs running
GPGPU-Sim uArch: core: 12, cta: 4 initialized @(69114,0)
GPGPU-Sim uArch: Shader 6 finished CTA #4 (69157,0), 5 CTAs running
GPGPU-Sim uArch: core:  6, cta: 4 initialized @(69158,0)
GPGPU-Sim uArch: Shader 0 finished CTA #5 (69287,0), 5 CTAs running
GPGPU-Sim uArch: core:  0, cta: 5 initialized @(69288,0)
GPGPU-Sim uArch: Shader 9 finished CTA #4 (69428,0), 5 CTAs running
GPGPU-Sim uArch: core:  9, cta: 4 initialized @(69429,0)
GPGPU-Sim uArch: Shader 3 finished CTA #1 (69573,0), 5 CTAs running
GPGPU-Sim uArch: core:  3, cta: 1 initialized @(69574,0)
GPGPU-Sim uArch: Shader 4 finished CTA #4 (69648,0), 5 CTAs running
GPGPU-Sim uArch: core:  4, cta: 4 initialized @(69649,0)
GPGPU-Sim uArch: Shader 11 finished CTA #4 (69692,0), 5 CTAs running
GPGPU-Sim uArch: core: 11, cta: 4 initialized @(69693,0)
GPGPU-Sim uArch: Shader 2 finished CTA #4 (69934,0), 5 CTAs running
GPGPU-Sim uArch: core:  2, cta: 4 initialized @(69935,0)
GPGPU-Sim PTX: 1900000 instructions simulated : ctaid=(10,14,0) tid=(15,9,0)
GPGPU-Sim uArch: Shader 0 finished CTA #0 (70194,0), 5 CTAs running
GPGPU-Sim uArch: core:  0, cta: 0 initialized @(70195,0)
GPGPU-Sim uArch: Shader 8 finished CTA #4 (70378,0), 5 CTAs running
GPGPU-Sim uArch: core:  8, cta: 4 initialized @(70379,0)
GPGPU-Sim uArch: Shader 7 finished CTA #4 (70461,0), 5 CTAs running
GPGPU-Sim uArch: core:  7, cta: 4 initialized @(70462,0)
GPGPU-Sim uArch: Shader 4 finished CTA #5 (70603,0), 5 CTAs running
GPGPU-Sim uArch: core:  4, cta: 5 initialized @(70604,0)
GPGPU-Sim uArch: cycles simulated: 71000  inst.: 1882720 (ipc=26.5) sim_rate=42789 (inst/sec) elapsed = 0:0:00:44 / Tue Mar 22 12:44:52 2016
GPGPU-Sim uArch: Shader 0 finished CTA #1 (71216,0), 5 CTAs running
GPGPU-Sim uArch: core:  0, cta: 1 initialized @(71217,0)
GPGPU-Sim uArch: Shader 3 finished CTA #2 (71468,0), 5 CTAs running
GPGPU-Sim uArch: core:  3, cta: 2 initialized @(71469,0)
GPGPU-Sim uArch: Shader 2 finished CTA #5 (71490,0), 5 CTAs running
GPGPU-Sim uArch: core:  2, cta: 5 initialized @(71491,0)
GPGPU-Sim uArch: Shader 4 finished CTA #0 (71723,0), 5 CTAs running
GPGPU-Sim uArch: core:  4, cta: 0 initialized @(71724,0)
GPGPU-Sim uArch: Shader 0 finished CTA #2 (72062,0), 5 CTAs running
GPGPU-Sim uArch: core:  0, cta: 2 initialized @(72063,0)
GPGPU-Sim PTX: 2000000 instructions simulated : ctaid=(7,16,0) tid=(15,11,0)
GPGPU-Sim uArch: Shader 5 finished CTA #4 (72319,0), 5 CTAs running
GPGPU-Sim uArch: core:  5, cta: 4 initialized @(72320,0)
GPGPU-Sim uArch: Shader 2 finished CTA #0 (72627,0), 5 CTAs running
GPGPU-Sim uArch: core:  2, cta: 0 initialized @(72628,0)
GPGPU-Sim uArch: Shader 3 finished CTA #3 (72652,0), 5 CTAs running
GPGPU-Sim uArch: core:  3, cta: 3 initialized @(72653,0)
GPGPU-Sim uArch: cycles simulated: 73000  inst.: 1971808 (ipc=27.0) sim_rate=43817 (inst/sec) elapsed = 0:0:00:45 / Tue Mar 22 12:44:53 2016
GPGPU-Sim uArch: Shader 2 finished CTA #1 (73325,0), 5 CTAs running
GPGPU-Sim uArch: core:  2, cta: 1 initialized @(73326,0)
GPGPU-Sim uArch: Shader 0 finished CTA #3 (73394,0), 5 CTAs running
GPGPU-Sim uArch: core:  0, cta: 3 initialized @(73395,0)
GPGPU-Sim uArch: Shader 4 finished CTA #1 (73931,0), 5 CTAs running
GPGPU-Sim uArch: core:  4, cta: 1 initialized @(73932,0)
GPGPU-Sim uArch: Shader 1 finished CTA #5 (73933,0), 5 CTAs running
GPGPU-Sim uArch: core:  1, cta: 5 initialized @(73934,0)
GPGPU-Sim uArch: Shader 9 finished CTA #5 (74225,0), 5 CTAs running
GPGPU-Sim uArch: core:  9, cta: 5 initialized @(74226,0)
GPGPU-Sim uArch: Shader 7 finished CTA #5 (74362,0), 5 CTAs running
GPGPU-Sim uArch: core:  7, cta: 5 initialized @(74363,0)
GPGPU-Sim uArch: Shader 3 finished CTA #4 (74624,0), 5 CTAs running
GPGPU-Sim uArch: core:  3, cta: 4 initialized @(74625,0)
GPGPU-Sim PTX: 2100000 instructions simulated : ctaid=(1,12,0) tid=(15,7,0)
GPGPU-Sim uArch: Shader 0 finished CTA #4 (74971,0), 5 CTAs running
GPGPU-Sim uArch: core:  0, cta: 4 initialized @(74972,0)
GPGPU-Sim uArch: Shader 4 finished CTA #2 (75036,0), 5 CTAs running
GPGPU-Sim uArch: core:  4, cta: 2 initialized @(75037,0)
GPGPU-Sim uArch: Shader 7 finished CTA #0 (75239,0), 5 CTAs running
GPGPU-Sim uArch: core:  7, cta: 0 initialized @(75240,0)
GPGPU-Sim uArch: Shader 13 finished CTA #5 (75417,0), 5 CTAs running
GPGPU-Sim uArch: core: 13, cta: 5 initialized @(75418,0)
GPGPU-Sim uArch: cycles simulated: 75500  inst.: 2069216 (ipc=27.4) sim_rate=44982 (inst/sec) elapsed = 0:0:00:46 / Tue Mar 22 12:44:54 2016
GPGPU-Sim uArch: Shader 2 finished CTA #2 (75680,0), 5 CTAs running
GPGPU-Sim uArch: core:  2, cta: 2 initialized @(75681,0)
GPGPU-Sim uArch: Shader 12 finished CTA #5 (75713,0), 5 CTAs running
GPGPU-Sim uArch: core: 12, cta: 5 initialized @(75714,0)
GPGPU-Sim uArch: Shader 10 finished CTA #5 (75910,0), 5 CTAs running
GPGPU-Sim uArch: core: 10, cta: 5 initialized @(75911,0)
GPGPU-Sim uArch: Shader 3 finished CTA #5 (75959,0), 5 CTAs running
GPGPU-Sim uArch: core:  3, cta: 5 initialized @(75960,0)
GPGPU-Sim uArch: Shader 11 finished CTA #5 (76202,0), 5 CTAs running
GPGPU-Sim uArch: core: 11, cta: 5 initialized @(76203,0)
GPGPU-Sim uArch: Shader 14 finished CTA #5 (76379,0), 5 CTAs running
GPGPU-Sim uArch: core: 14, cta: 5 initialized @(76380,0)
GPGPU-Sim uArch: Shader 11 finished CTA #0 (76525,0), 5 CTAs running
GPGPU-Sim uArch: core: 11, cta: 0 initialized @(76526,0)
GPGPU-Sim PTX: 2200000 instructions simulated : ctaid=(10,17,0) tid=(15,7,0)
GPGPU-Sim uArch: Shader 4 finished CTA #3 (76881,0), 5 CTAs running
GPGPU-Sim uArch: core:  4, cta: 3 initialized @(76882,0)
GPGPU-Sim uArch: Shader 11 finished CTA #1 (77035,0), 5 CTAs running
GPGPU-Sim uArch: core: 11, cta: 1 initialized @(77036,0)
GPGPU-Sim uArch: Shader 6 finished CTA #5 (77118,0), 5 CTAs running
GPGPU-Sim uArch: core:  6, cta: 5 initialized @(77119,0)
GPGPU-Sim uArch: Shader 7 finished CTA #1 (77176,0), 5 CTAs running
GPGPU-Sim uArch: core:  7, cta: 1 initialized @(77177,0)
GPGPU-Sim uArch: cycles simulated: 77500  inst.: 2170208 (ipc=28.0) sim_rate=46174 (inst/sec) elapsed = 0:0:00:47 / Tue Mar 22 12:44:55 2016
GPGPU-Sim uArch: Shader 8 finished CTA #5 (77633,0), 5 CTAs running
GPGPU-Sim uArch: core:  8, cta: 5 initialized @(77634,0)
GPGPU-Sim uArch: Shader 0 finished CTA #5 (77659,0), 5 CTAs running
GPGPU-Sim uArch: core:  0, cta: 5 initialized @(77660,0)
GPGPU-Sim uArch: Shader 2 finished CTA #3 (77812,0), 5 CTAs running
GPGPU-Sim uArch: core:  2, cta: 3 initialized @(77813,0)
GPGPU-Sim uArch: Shader 3 finished CTA #0 (77917,0), 5 CTAs running
GPGPU-Sim uArch: core:  3, cta: 0 initialized @(77918,0)
GPGPU-Sim uArch: Shader 11 finished CTA #2 (78224,0), 5 CTAs running
GPGPU-Sim uArch: core: 11, cta: 2 initialized @(78225,0)
GPGPU-Sim uArch: Shader 8 finished CTA #0 (78298,0), 5 CTAs running
GPGPU-Sim uArch: core:  8, cta: 0 initialized @(78299,0)
GPGPU-Sim uArch: Shader 5 finished CTA #5 (78475,0), 5 CTAs running
GPGPU-Sim uArch: core:  5, cta: 5 initialized @(78476,0)
GPGPU-Sim uArch: Shader 7 finished CTA #2 (78480,0), 5 CTAs running
GPGPU-Sim uArch: core:  7, cta: 2 initialized @(78481,0)
GPGPU-Sim uArch: Shader 6 finished CTA #0 (78482,0), 5 CTAs running
GPGPU-Sim uArch: core:  6, cta: 0 initialized @(78483,0)
GPGPU-Sim PTX: 2300000 instructions simulated : ctaid=(2,13,0) tid=(15,7,0)
GPGPU-Sim uArch: Shader 4 finished CTA #4 (79163,0), 5 CTAs running
GPGPU-Sim uArch: core:  4, cta: 4 initialized @(79164,0)
GPGPU-Sim uArch: Shader 9 finished CTA #0 (79378,0), 5 CTAs running
GPGPU-Sim uArch: core:  9, cta: 0 initialized @(79379,0)
GPGPU-Sim uArch: Shader 8 finished CTA #1 (79488,0), 5 CTAs running
GPGPU-Sim uArch: core:  8, cta: 1 initialized @(79489,0)
GPGPU-Sim uArch: cycles simulated: 79500  inst.: 2295648 (ipc=28.9) sim_rate=47826 (inst/sec) elapsed = 0:0:00:48 / Tue Mar 22 12:44:56 2016
GPGPU-Sim uArch: Shader 2 finished CTA #4 (79532,0), 5 CTAs running
GPGPU-Sim uArch: core:  2, cta: 4 initialized @(79533,0)
GPGPU-Sim uArch: Shader 1 finished CTA #0 (79544,0), 5 CTAs running
GPGPU-Sim uArch: core:  1, cta: 0 initialized @(79545,0)
GPGPU-Sim uArch: Shader 9 finished CTA #1 (79550,0), 5 CTAs running
GPGPU-Sim uArch: core:  9, cta: 1 initialized @(79551,0)
GPGPU-Sim uArch: Shader 0 finished CTA #0 (79654,0), 5 CTAs running
GPGPU-Sim uArch: core:  0, cta: 0 initialized @(79655,0)
GPGPU-Sim uArch: Shader 1 finished CTA #1 (79716,0), 5 CTAs running
GPGPU-Sim uArch: core:  1, cta: 1 initialized @(79717,0)
GPGPU-Sim PTX: 2400000 instructions simulated : ctaid=(15,12,0) tid=(15,11,0)
GPGPU-Sim uArch: Shader 8 finished CTA #2 (79968,0), 5 CTAs running
GPGPU-Sim uArch: core:  8, cta: 2 initialized @(79969,0)
GPGPU-Sim uArch: Shader 13 finished CTA #0 (80053,0), 5 CTAs running
GPGPU-Sim uArch: core: 13, cta: 0 initialized @(80054,0)
GPGPU-Sim uArch: Shader 10 finished CTA #0 (80090,0), 5 CTAs running
GPGPU-Sim uArch: core: 10, cta: 0 initialized @(80091,0)
GPGPU-Sim uArch: Shader 14 finished CTA #0 (80244,0), 5 CTAs running
GPGPU-Sim uArch: core: 14, cta: 0 initialized @(80245,0)
GPGPU-Sim uArch: Shader 6 finished CTA #1 (80253,0), 5 CTAs running
GPGPU-Sim uArch: core:  6, cta: 1 initialized @(80254,0)
GPGPU-Sim uArch: Shader 12 finished CTA #0 (80383,0), 5 CTAs running
GPGPU-Sim uArch: core: 12, cta: 0 initialized @(80384,0)
GPGPU-Sim uArch: Shader 5 finished CTA #0 (80476,0), 5 CTAs running
GPGPU-Sim uArch: core:  5, cta: 0 initialized @(80477,0)
GPGPU-Sim uArch: Shader 3 finished CTA #1 (80656,0), 5 CTAs running
GPGPU-Sim uArch: core:  3, cta: 1 initialized @(80657,0)
GPGPU-Sim uArch: Shader 7 finished CTA #3 (80961,0), 5 CTAs running
GPGPU-Sim uArch: core:  7, cta: 3 initialized @(80962,0)
GPGPU-Sim uArch: Shader 12 finished CTA #1 (81116,0), 5 CTAs running
GPGPU-Sim uArch: core: 12, cta: 1 initialized @(81117,0)
GPGPU-Sim uArch: Shader 11 finished CTA #3 (81232,0), 5 CTAs running
GPGPU-Sim uArch: core: 11, cta: 3 initialized @(81233,0)
GPGPU-Sim uArch: Shader 4 finished CTA #5 (81394,0), 5 CTAs running
GPGPU-Sim uArch: core:  4, cta: 5 initialized @(81395,0)
GPGPU-Sim uArch: Shader 14 finished CTA #1 (81473,0), 5 CTAs running
GPGPU-Sim uArch: core: 14, cta: 1 initialized @(81474,0)
GPGPU-Sim uArch: cycles simulated: 81500  inst.: 2414784 (ipc=29.6) sim_rate=49281 (inst/sec) elapsed = 0:0:00:49 / Tue Mar 22 12:44:57 2016
GPGPU-Sim uArch: Shader 2 finished CTA #5 (81575,0), 5 CTAs running
GPGPU-Sim uArch: core:  2, cta: 5 initialized @(81576,0)
GPGPU-Sim PTX: 2500000 instructions simulated : ctaid=(6,18,0) tid=(15,11,0)
GPGPU-Sim uArch: Shader 9 finished CTA #2 (81815,0), 5 CTAs running
GPGPU-Sim uArch: core:  9, cta: 2 initialized @(81816,0)
GPGPU-Sim uArch: Shader 6 finished CTA #2 (82143,0), 5 CTAs running
GPGPU-Sim uArch: core:  6, cta: 2 initialized @(82144,0)
GPGPU-Sim uArch: Shader 0 finished CTA #1 (82194,0), 5 CTAs running
GPGPU-Sim uArch: core:  0, cta: 1 initialized @(82195,0)
GPGPU-Sim uArch: Shader 10 finished CTA #1 (82415,0), 5 CTAs running
GPGPU-Sim uArch: core: 10, cta: 1 initialized @(82416,0)
GPGPU-Sim uArch: Shader 1 finished CTA #2 (82523,0), 5 CTAs running
GPGPU-Sim uArch: core:  1, cta: 2 initialized @(82524,0)
GPGPU-Sim uArch: Shader 8 finished CTA #3 (82688,0), 5 CTAs running
GPGPU-Sim uArch: core:  8, cta: 3 initialized @(82689,0)
GPGPU-Sim uArch: Shader 13 finished CTA #1 (82719,0), 5 CTAs running
GPGPU-Sim uArch: core: 13, cta: 1 initialized @(82720,0)
GPGPU-Sim uArch: Shader 5 finished CTA #1 (82952,0), 5 CTAs running
GPGPU-Sim uArch: core:  5, cta: 1 initialized @(82953,0)
GPGPU-Sim uArch: Shader 7 finished CTA #4 (83073,0), 5 CTAs running
GPGPU-Sim uArch: core:  7, cta: 4 initialized @(83074,0)
GPGPU-Sim uArch: cycles simulated: 83500  inst.: 2513088 (ipc=30.1) sim_rate=50261 (inst/sec) elapsed = 0:0:00:50 / Tue Mar 22 12:44:58 2016
GPGPU-Sim PTX: 2600000 instructions simulated : ctaid=(8,15,0) tid=(15,3,0)
GPGPU-Sim uArch: Shader 3 finished CTA #2 (83969,0), 5 CTAs running
GPGPU-Sim uArch: core:  3, cta: 2 initialized @(83970,0)
GPGPU-Sim uArch: Shader 11 finished CTA #4 (84008,0), 5 CTAs running
GPGPU-Sim uArch: core: 11, cta: 4 initialized @(84009,0)
GPGPU-Sim uArch: Shader 9 finished CTA #3 (84106,0), 5 CTAs running
GPGPU-Sim uArch: core:  9, cta: 3 initialized @(84107,0)
GPGPU-Sim uArch: Shader 12 finished CTA #2 (84107,0), 5 CTAs running
GPGPU-Sim uArch: core: 12, cta: 2 initialized @(84108,0)
GPGPU-Sim uArch: Shader 10 finished CTA #2 (84403,0), 5 CTAs running
GPGPU-Sim uArch: core: 10, cta: 2 initialized @(84404,0)
GPGPU-Sim uArch: Shader 4 finished CTA #0 (84473,0), 5 CTAs running
GPGPU-Sim uArch: core:  4, cta: 0 initialized @(84474,0)
GPGPU-Sim uArch: Shader 2 finished CTA #0 (84634,0), 5 CTAs running
GPGPU-Sim uArch: core:  2, cta: 0 initialized @(84635,0)
GPGPU-Sim uArch: Shader 0 finished CTA #2 (84645,0), 5 CTAs running
GPGPU-Sim uArch: core:  0, cta: 2 initialized @(84646,0)
GPGPU-Sim uArch: Shader 14 finished CTA #2 (84820,0), 5 CTAs running
GPGPU-Sim uArch: core: 14, cta: 2 initialized @(84821,0)
GPGPU-Sim uArch: Shader 1 finished CTA #3 (85281,0), 5 CTAs running
GPGPU-Sim uArch: core:  1, cta: 3 initialized @(85282,0)
GPGPU-Sim uArch: cycles simulated: 85500  inst.: 2597728 (ipc=30.4) sim_rate=50935 (inst/sec) elapsed = 0:0:00:51 / Tue Mar 22 12:44:59 2016
GPGPU-Sim uArch: Shader 8 finished CTA #4 (85549,0), 5 CTAs running
GPGPU-Sim uArch: core:  8, cta: 4 initialized @(85550,0)
GPGPU-Sim PTX: 2700000 instructions simulated : ctaid=(8,19,0) tid=(15,1,0)
GPGPU-Sim uArch: Shader 3 finished CTA #3 (85915,0), 5 CTAs running
GPGPU-Sim uArch: core:  3, cta: 3 initialized @(85916,0)
GPGPU-Sim uArch: Shader 5 finished CTA #2 (85994,0), 5 CTAs running
GPGPU-Sim uArch: core:  5, cta: 2 initialized @(85995,0)
GPGPU-Sim uArch: Shader 6 finished CTA #3 (86040,0), 5 CTAs running
GPGPU-Sim uArch: core:  6, cta: 3 initialized @(86041,0)
GPGPU-Sim uArch: Shader 13 finished CTA #2 (86100,0), 5 CTAs running
GPGPU-Sim uArch: core: 13, cta: 2 initialized @(86101,0)
GPGPU-Sim uArch: Shader 12 finished CTA #3 (86222,0), 5 CTAs running
GPGPU-Sim uArch: core: 12, cta: 3 initialized @(86223,0)
GPGPU-Sim uArch: Shader 14 finished CTA #3 (86537,0), 5 CTAs running
GPGPU-Sim uArch: core: 14, cta: 3 initialized @(86538,0)
GPGPU-Sim uArch: Shader 8 finished CTA #5 (86796,0), 5 CTAs running
GPGPU-Sim uArch: core:  8, cta: 5 initialized @(86797,0)
GPGPU-Sim uArch: Shader 10 finished CTA #3 (87028,0), 5 CTAs running
GPGPU-Sim uArch: core: 10, cta: 3 initialized @(87029,0)
GPGPU-Sim uArch: Shader 13 finished CTA #3 (87075,0), 5 CTAs running
GPGPU-Sim uArch: core: 13, cta: 3 initialized @(87076,0)
GPGPU-Sim uArch: Shader 7 finished CTA #5 (87230,0), 5 CTAs running
GPGPU-Sim uArch: core:  7, cta: 5 initialized @(87231,0)
GPGPU-Sim uArch: cycles simulated: 87500  inst.: 2674720 (ipc=30.6) sim_rate=51436 (inst/sec) elapsed = 0:0:00:52 / Tue Mar 22 12:45:00 2016
GPGPU-Sim uArch: Shader 0 finished CTA #3 (87693,0), 5 CTAs running
GPGPU-Sim uArch: core:  0, cta: 3 initialized @(87694,0)
GPGPU-Sim uArch: Shader 8 finished CTA #0 (87777,0), 5 CTAs running
GPGPU-Sim uArch: core:  8, cta: 0 initialized @(87778,0)
GPGPU-Sim uArch: Shader 2 finished CTA #1 (88258,0), 5 CTAs running
GPGPU-Sim uArch: core:  2, cta: 1 initialized @(88259,0)
GPGPU-Sim PTX: 2800000 instructions simulated : ctaid=(11,19,0) tid=(15,15,0)
GPGPU-Sim uArch: Shader 8 finished CTA #1 (88857,0), 5 CTAs running
GPGPU-Sim uArch: core:  8, cta: 1 initialized @(88858,0)
GPGPU-Sim uArch: Shader 11 finished CTA #5 (89065,0), 5 CTAs running
GPGPU-Sim uArch: core: 11, cta: 5 initialized @(89066,0)
GPGPU-Sim uArch: Shader 9 finished CTA #4 (89106,0), 5 CTAs running
GPGPU-Sim uArch: core:  9, cta: 4 initialized @(89107,0)
GPGPU-Sim uArch: cycles simulated: 89500  inst.: 2735680 (ipc=30.6) sim_rate=51616 (inst/sec) elapsed = 0:0:00:53 / Tue Mar 22 12:45:01 2016
GPGPU-Sim uArch: Shader 1 finished CTA #4 (89593,0), 5 CTAs running
GPGPU-Sim uArch: core:  1, cta: 4 initialized @(89594,0)
GPGPU-Sim uArch: Shader 4 finished CTA #1 (89943,0), 5 CTAs running
GPGPU-Sim uArch: core:  4, cta: 1 initialized @(89944,0)
GPGPU-Sim uArch: Shader 5 finished CTA #3 (90141,0), 5 CTAs running
GPGPU-Sim uArch: core:  5, cta: 3 initialized @(90142,0)
GPGPU-Sim uArch: Shader 8 finished CTA #2 (90245,0), 5 CTAs running
GPGPU-Sim uArch: core:  8, cta: 2 initialized @(90246,0)
GPGPU-Sim uArch: Shader 6 finished CTA #4 (90255,0), 5 CTAs running
GPGPU-Sim uArch: core:  6, cta: 4 initialized @(90256,0)
GPGPU-Sim uArch: Shader 3 finished CTA #4 (90666,0), 5 CTAs running
GPGPU-Sim uArch: core:  3, cta: 4 initialized @(90667,0)
GPGPU-Sim uArch: Shader 8 finished CTA #3 (91286,0), 5 CTAs running
GPGPU-Sim uArch: core:  8, cta: 3 initialized @(91287,0)
GPGPU-Sim uArch: Shader 12 finished CTA #4 (91474,0), 5 CTAs running
GPGPU-Sim uArch: core: 12, cta: 4 initialized @(91475,0)
GPGPU-Sim PTX: 2900000 instructions simulated : ctaid=(1,20,0) tid=(15,13,0)
GPGPU-Sim uArch: cycles simulated: 92000  inst.: 2815584 (ipc=30.6) sim_rate=52140 (inst/sec) elapsed = 0:0:00:54 / Tue Mar 22 12:45:02 2016
GPGPU-Sim uArch: Shader 0 finished CTA #4 (92277,0), 5 CTAs running
GPGPU-Sim uArch: core:  0, cta: 4 initialized @(92278,0)
GPGPU-Sim uArch: Shader 14 finished CTA #4 (92664,0), 5 CTAs running
GPGPU-Sim uArch: core: 14, cta: 4 initialized @(92665,0)
GPGPU-Sim uArch: Shader 8 finished CTA #4 (92842,0), 5 CTAs running
GPGPU-Sim uArch: core:  8, cta: 4 initialized @(92843,0)
GPGPU-Sim uArch: Shader 2 finished CTA #2 (92936,0), 5 CTAs running
GPGPU-Sim uArch: core:  2, cta: 2 initialized @(92937,0)
GPGPU-Sim uArch: Shader 7 finished CTA #0 (93004,0), 5 CTAs running
GPGPU-Sim uArch: core:  7, cta: 0 initialized @(93005,0)
GPGPU-Sim uArch: Shader 13 finished CTA #4 (93381,0), 5 CTAs running
GPGPU-Sim uArch: core: 13, cta: 4 initialized @(93382,0)
GPGPU-Sim uArch: Shader 9 finished CTA #5 (93466,0), 5 CTAs running
GPGPU-Sim uArch: core:  9, cta: 5 initialized @(93467,0)
GPGPU-Sim uArch: Shader 0 finished CTA #5 (93735,0), 5 CTAs running
GPGPU-Sim uArch: core:  0, cta: 5 initialized @(93736,0)
GPGPU-Sim uArch: Shader 1 finished CTA #5 (93815,0), 5 CTAs running
GPGPU-Sim uArch: core:  1, cta: 5 initialized @(93816,0)
GPGPU-Sim uArch: Shader 10 finished CTA #4 (93945,0), 5 CTAs running
GPGPU-Sim uArch: core: 10, cta: 4 initialized @(93946,0)
GPGPU-Sim uArch: Shader 8 finished CTA #5 (93975,0), 5 CTAs running
GPGPU-Sim uArch: core:  8, cta: 5 initialized @(93976,0)
GPGPU-Sim uArch: cycles simulated: 94000  inst.: 2906400 (ipc=30.9) sim_rate=52843 (inst/sec) elapsed = 0:0:00:55 / Tue Mar 22 12:45:03 2016
GPGPU-Sim uArch: Shader 11 finished CTA #0 (94020,0), 5 CTAs running
GPGPU-Sim uArch: core: 11, cta: 0 initialized @(94021,0)
GPGPU-Sim PTX: 3000000 instructions simulated : ctaid=(1,22,0) tid=(15,3,0)
GPGPU-Sim uArch: Shader 9 finished CTA #0 (94700,0), 5 CTAs running
GPGPU-Sim uArch: core:  9, cta: 0 initialized @(94701,0)
GPGPU-Sim uArch: Shader 3 finished CTA #5 (94720,0), 5 CTAs running
GPGPU-Sim uArch: core:  3, cta: 5 initialized @(94721,0)
GPGPU-Sim uArch: Shader 2 finished CTA #3 (94749,0), 5 CTAs running
GPGPU-Sim uArch: core:  2, cta: 3 initialized @(94750,0)
GPGPU-Sim uArch: Shader 6 finished CTA #5 (94767,0), 5 CTAs running
GPGPU-Sim uArch: core:  6, cta: 5 initialized @(94768,0)
GPGPU-Sim uArch: Shader 5 finished CTA #4 (94884,0), 5 CTAs running
GPGPU-Sim uArch: core:  5, cta: 4 initialized @(94885,0)
GPGPU-Sim uArch: Shader 4 finished CTA #2 (95096,0), 5 CTAs running
GPGPU-Sim uArch: core:  4, cta: 2 initialized @(95097,0)
GPGPU-Sim uArch: Shader 0 finished CTA #0 (95430,0), 5 CTAs running
GPGPU-Sim uArch: core:  0, cta: 0 initialized @(95431,0)
GPGPU-Sim uArch: cycles simulated: 96000  inst.: 2988416 (ipc=31.1) sim_rate=53364 (inst/sec) elapsed = 0:0:00:56 / Tue Mar 22 12:45:04 2016
GPGPU-Sim uArch: Shader 1 finished CTA #0 (96296,0), 5 CTAs running
GPGPU-Sim uArch: core:  1, cta: 0 initialized @(96297,0)
GPGPU-Sim uArch: Shader 12 finished CTA #5 (96324,0), 5 CTAs running
GPGPU-Sim uArch: core: 12, cta: 5 initialized @(96325,0)
GPGPU-Sim PTX: 3100000 instructions simulated : ctaid=(0,24,0) tid=(15,9,0)
GPGPU-Sim uArch: Shader 14 finished CTA #5 (96363,0), 5 CTAs running
GPGPU-Sim uArch: core: 14, cta: 5 initialized @(96364,0)
GPGPU-Sim uArch: Shader 10 finished CTA #5 (96436,0), 5 CTAs running
GPGPU-Sim uArch: core: 10, cta: 5 initialized @(96437,0)
GPGPU-Sim uArch: Shader 8 finished CTA #0 (96555,0), 5 CTAs running
GPGPU-Sim uArch: core:  8, cta: 0 initialized @(96556,0)
GPGPU-Sim uArch: Shader 7 finished CTA #1 (96646,0), 5 CTAs running
GPGPU-Sim uArch: core:  7, cta: 1 initialized @(96647,0)
GPGPU-Sim uArch: Shader 13 finished CTA #5 (96856,0), 5 CTAs running
GPGPU-Sim uArch: core: 13, cta: 5 initialized @(96857,0)
GPGPU-Sim uArch: Shader 9 finished CTA #1 (97179,0), 5 CTAs running
GPGPU-Sim uArch: core:  9, cta: 1 initialized @(97180,0)
GPGPU-Sim uArch: Shader 4 finished CTA #3 (97212,0), 5 CTAs running
GPGPU-Sim uArch: core:  4, cta: 3 initialized @(97213,0)
GPGPU-Sim uArch: Shader 8 finished CTA #1 (97334,0), 5 CTAs running
GPGPU-Sim uArch: core:  8, cta: 1 initialized @(97335,0)
GPGPU-Sim uArch: Shader 2 finished CTA #4 (97557,0), 5 CTAs running
GPGPU-Sim uArch: core:  2, cta: 4 initialized @(97558,0)
GPGPU-Sim uArch: Shader 11 finished CTA #1 (97850,0), 5 CTAs running
GPGPU-Sim uArch: core: 11, cta: 1 initialized @(97851,0)
GPGPU-Sim uArch: cycles simulated: 98500  inst.: 3064384 (ipc=31.1) sim_rate=53761 (inst/sec) elapsed = 0:0:00:57 / Tue Mar 22 12:45:05 2016
GPGPU-Sim uArch: Shader 6 finished CTA #0 (99146,0), 5 CTAs running
GPGPU-Sim uArch: core:  6, cta: 0 initialized @(99147,0)
GPGPU-Sim uArch: Shader 5 finished CTA #5 (99239,0), 5 CTAs running
GPGPU-Sim uArch: core:  5, cta: 5 initialized @(99240,0)
GPGPU-Sim uArch: Shader 8 finished CTA #2 (99256,0), 5 CTAs running
GPGPU-Sim uArch: core:  8, cta: 2 initialized @(99257,0)
GPGPU-Sim uArch: Shader 3 finished CTA #0 (99394,0), 5 CTAs running
GPGPU-Sim uArch: core:  3, cta: 0 initialized @(99395,0)
GPGPU-Sim uArch: Shader 0 finished CTA #1 (99972,0), 5 CTAs running
GPGPU-Sim uArch: core:  0, cta: 1 initialized @(99973,0)
GPGPU-Sim PTX: 3200000 instructions simulated : ctaid=(15,23,0) tid=(15,5,0)
GPGPU-Sim uArch: Shader 8 finished CTA #3 (100288,0), 5 CTAs running
GPGPU-Sim uArch: core:  8, cta: 3 initialized @(100289,0)
GPGPU-Sim uArch: cycles simulated: 100500  inst.: 3119328 (ipc=31.0) sim_rate=53781 (inst/sec) elapsed = 0:0:00:58 / Tue Mar 22 12:45:06 2016
GPGPU-Sim uArch: Shader 8 finished CTA #4 (101609,0), 5 CTAs running
GPGPU-Sim uArch: core:  8, cta: 4 initialized @(101610,0)
GPGPU-Sim uArch: Shader 1 finished CTA #1 (101853,0), 5 CTAs running
GPGPU-Sim uArch: core:  1, cta: 1 initialized @(101854,0)
GPGPU-Sim uArch: Shader 13 finished CTA #0 (102368,0), 5 CTAs running
GPGPU-Sim uArch: core: 13, cta: 0 initialized @(102369,0)
GPGPU-Sim uArch: cycles simulated: 103000  inst.: 3175968 (ipc=30.8) sim_rate=53829 (inst/sec) elapsed = 0:0:00:59 / Tue Mar 22 12:45:07 2016
GPGPU-Sim uArch: Shader 10 finished CTA #0 (103198,0), 5 CTAs running
GPGPU-Sim uArch: core: 10, cta: 0 initialized @(103199,0)
GPGPU-Sim uArch: Shader 12 finished CTA #0 (103248,0), 5 CTAs running
GPGPU-Sim uArch: core: 12, cta: 0 initialized @(103249,0)
GPGPU-Sim uArch: Shader 2 finished CTA #5 (103417,0), 5 CTAs running
GPGPU-Sim uArch: core:  2, cta: 5 initialized @(103418,0)
GPGPU-Sim uArch: Shader 8 finished CTA #5 (103427,0), 5 CTAs running
GPGPU-Sim uArch: core:  8, cta: 5 initialized @(103428,0)
GPGPU-Sim uArch: Shader 7 finished CTA #2 (103615,0), 5 CTAs running
GPGPU-Sim uArch: core:  7, cta: 2 initialized @(103616,0)
GPGPU-Sim PTX: 3300000 instructions simulated : ctaid=(13,21,0) tid=(15,13,0)
GPGPU-Sim uArch: Shader 9 finished CTA #2 (103818,0), 5 CTAs running
GPGPU-Sim uArch: core:  9, cta: 2 initialized @(103819,0)
GPGPU-Sim uArch: Shader 14 finished CTA #0 (103864,0), 5 CTAs running
GPGPU-Sim uArch: core: 14, cta: 0 initialized @(103865,0)
GPGPU-Sim uArch: Shader 4 finished CTA #4 (104281,0), 5 CTAs running
GPGPU-Sim uArch: core:  4, cta: 4 initialized @(104282,0)
GPGPU-Sim uArch: Shader 8 finished CTA #0 (104582,0), 5 CTAs running
GPGPU-Sim uArch: core:  8, cta: 0 initialized @(104583,0)
[...]
mf_lat_table:0 	0 	0 	0 	0 	0 	0 	69939 	268610 	290181 	92028 	9 	0 	0 	0 	0 	0 	0 	0 	0 	0 	0 	0 	0 	0 	0 	0 	0 	0 	0 	0 	0 	
icnt2mem_lat_table:0 	0 	0 	90436 	65118 	121857 	73725 	68671 	157578 	136642 	6830 	0 	0 	0 	0 	0 	0 	0 	0 	0 	0 	0 	0 	0 	
icnt2sh_lat_table:0 	0 	0 	63912 	60878 	6143 	10 	0 	0 	0 	82 	475 	1003 	1929 	4701 	14220 	42790 	67956 	166567 	265307 	24794 	0 	0 	0 	
mf_lat_pw_table:0 	0 	0 	0 	0 	0 	0 	28 	649 	1493 	153 	0 	0 	0 	0 	0 	0 	0 	0 	0 	0 	0 	0 	0 	0 	0 	0 	0 	0 	0 	0 	0 	
maximum concurrent accesses to same row:
dram[0]:        32        30        32        32        32        32        32        32        32        32        32        32        32        32        32        32 
dram[1]:        32        32        32        32        32        32        32        32        29        32        32        32        32        30        32        32 
dram[2]:        32        32        32        32        32        32        32        32        32        32        32        32        32        32        32        32 
dram[3]:        32        32        32        32        32        32        32        32        32        32        32        32        32        32        32        32 
dram[4]:        32        32        32        32        32        32        32        32        32        32        32        32        32        32        32        32 
dram[5]:        32        32        32        32        32        32        32        32        29        32        32        32        32        31        32        32 
maximum service time to same row:
dram[0]:     36802     51306     36629     51297     36450     49767     36650     42315     36300     31786     40425     45454     47322     51324     46696     51315 
dram[1]:     30264     56725     30478     56716     28975     55441     27181     48703     31338     33772     31644     50347     30504     56618     30496     57954 
dram[2]:     50758     36344     51300     37193     49766     36603     42325     36462     38065     45728     45457     33204     51327     47313     51318     46686 
dram[3]:     56728     30481     56719     30537     55239     30066     48712     34587     33759     31340     56509     33743     56619     33726     57957     30490 
dram[4]:     36820     51303     37191     51294     37193     50056     44588     42316     36303     41686     39134     45459     46705     51321     45516     51312 
dram[5]:     30484     56722     30475     56713     28975     55239     28531     48703     31344     42430     30510     55129     30502     57054     30493     57950 
average row accesses per activate:
dram[0]:  2.109684  2.091143  2.073122  2.087505  2.103996  2.109900  2.090809  2.101670  2.097766  2.087411  2.115429  2.114258  2.124671  2.101575  2.122015  2.115913 
dram[1]:  2.097508  2.109586  2.101561  2.091636  2.103517  2.106785  2.105667  2.104579  2.088341  2.100848  2.089595  2.102233  2.129241  2.133956  2.131875  2.104614 
dram[2]:  2.095835  2.112395  2.084119  2.088154  2.110575  2.100584  2.106738  2.097651  2.085667  2.092701  2.119080  2.127434  2.093210  2.117718  2.105908  2.116938 
dram[3]:  2.100154  2.103988  2.094413  2.105399  2.100192  2.094875  2.100409  2.106208  2.101966  2.088564  2.097855  2.088342  2.114630  2.128629  2.107929  2.117247 
dram[4]:  2.114270  2.100851  2.082510  2.092599  2.117560  2.094689  2.087700  2.106605  2.089227  2.081718  2.130129  2.108992  2.125304  2.095477  2.135875  2.108179 
dram[5]:  2.104273  2.105589  2.084309  2.098127  2.111717  2.107357  2.107018  2.097921  2.080877  2.096035  2.087023  2.099691  2.121633  2.127784  2.131352  2.097800 
average row locality = 1054527/501288 = 2.103635
number of total memory accesses made:
dram[0]:         0         0         0         0         0         0         0         0         0         0         0         0         0         0         0         0 
dram[1]:         0         0         0         0         0         0         0         0         0         0         0         0         0         0         0         0 
dram[2]:         0         0         0         0         0         0         0         0         0         0         0         0         0         0         0         0 
dram[3]:         0         0         0         0         0         0         0         0         0         0         0         0         0         0         0         0 
dram[4]:         0         0         0         0         0         0         0         0         0         0         0         0         0         0         0         0 
dram[5]:         0         0         0         0         0         0         0         0         0         0         0         0         0         0         0         0 
total accesses: 0
min_bank_accesses = 0!
min_chip_accesses = 0!
number of total read accesses:
dram[0]:      5462      5384      5373      5315      5472      5430      5383      5390      5458      5449      5202      5147      5032      4978      5017      5019 
dram[1]:      5498      5076      5438      4970      5551      5096      5515      5077      5578      5132      5290      4866      5094      4638      5127      4681 
dram[2]:      5387      5471      5331      5381      5396      5451      5405      5374      5451      5452      5196      5162      4988      5010      5013      5041 
dram[3]:      5073      5510      4995      5427      5115      5492      5047      5507      5138      5564      4831      5285      4644      5092      4666      5102 
dram[4]:      5479      5375      5384      5323      5456      5426      5373      5382      5424      5446      5230      5179      5018      4985      5049      4986 
dram[5]:      5489      5068      5424      4985      5558      5103      5507      5056      5563      5132      5280      4821      5093      4654      5123      4640 
total reads: 501146
bank skew: 5578/4638 = 1.20
chip skew: 84515/82488 = 1.02
number of total write accesses:
dram[0]:      6040      5973      5996      5945      6060      5993      5991      5938      6000      5942      5684      5604      5466      5429      5470      5459 
dram[1]:      6032      5839      6005      5758      6052      5834      6003      5770      6029      5763      5695      5395      5450      5191      5494      5217 
dram[2]:      5985      6050      5942      5989      5980      6056      5944      5968      5943      6016      5677      5656      5432      5460      5466      5495 
dram[3]:      5810      6043      5764      5999      5848      6034      5747      5995      5767      6015      5438      5660      5170      5466      5197      5480 
dram[4]:      6048      5978      5999      5931      6036      6011      5982      5941      5979      5941      5672      5657      5464      5440      5483      5479 
dram[5]:      6034      5820      5973      5770      6067      5811      5991      5742      6015      5759      5656      5373      5460      5187      5489      5184 
total reads: 553381
bank skew: 6067/5170 = 1.17
chip skew: 93059/91331 = 1.02
average mf latency per bank:
dram[0]:        423       412       421       405       416       406       431       418       414       401       420       410       423       416       414       406
dram[1]:        429       392       427       390       426       388       430       398       418       391       424       399       425       399       420       393
dram[2]:        412       421       406       420       401       417       417       429       401       412       414       420       420       423       409       412
dram[3]:        385       429       383       424       380       422       393       425       382       416       389       420       392       421       391       420
dram[4]:        418       412       417       407       417       406       428       418       411       403       415       416       420       418       411       408
dram[5]:        435       391       433       389       429       394       437       398       425       386       433       390       430       394       426       394
maximum mf latency per bank:
dram[0]:       2033      1783      1989      1755      2036      1816      1926      1942      1968      1902      1974      1976      1865      1832      1962      1751
dram[1]:       1707      1700      1692      1883      1725      1754      1762      1722      1718      1793      1743      1732      1739      1591      1691      1668
dram[2]:       1894      1886      1748      1919      1919      1900      1860      1812      1926      1889      1890      1857      1867      1894      1692      1983
dram[3]:       1877      1893      1838      1886      1724      1833      1696      1757      1917      1853      1676      1868      1592      1851      1776      1791
dram[4]:       1967      1878      2024      1873      1995      2014      1926      1961      1953      2012      1898      1934      1986      2049      2026      1793
dram[5]:       1674      2230      1828      2154      1837      2023      1729      2014      1684      2171      1754      2055      1754      1926      1700      1826

Number of Memory Banks Accessed per Memory Operation per Warp (from 0):
0	0	0	0	0	0	0	0	0	0	0	0	0	0	0	0	0	0	0	0	0	0	0	0	0	0	0	0	0	0	0	0	0	0	0	0	0	0	0	0	0	0	0	0	0	0	0	0	0	0	0	0	0	0	0	0	0	0	0	0	0	0	0	0	0	0	0	0	0	0	0	0	0	0	0	0	0	0	0	0	0	0	0	0	0	0	0	0	0	0	0	0	0	0	0	0	
Average # of Memory Banks Accessed per Memory Operation per Warp=-nan

position of mrq chosen
0	0	0	0	0	0	0	0	0	0	0	0	0	0	0	0	

average position of mrq chosen = -nan
Memory Partition 0: 
Cache L2_bank_000:
MSHR contents

Cache L2_bank_001:
MSHR contents

In Dram Latency Queue (total = 0): 
DRAM[0]: 16 bks, busW=4 BL=8 CL=12, tRRD=2 tCCD=6, tRCD=12 tRAS=28 tRP=12 tRC=40
n_cmd=1535120 n_nop=1098183 n_act=84424 n_pre=84408 n_req=177501 n_rd=169022 n_write=99083 bw_util=0.3493
n_activity=1170529 dram_eff=0.4581
bk0: 10924a 1168068i bk1: 10768a 1165304i bk2: 10746a 1156707i bk3: 10630a 1157158i bk4: 10944a 1145838i bk5: 10860a 1149662i bk6: 10766a 1145805i bk7: 10780a 1140554i bk8: 10916a 1164372i bk9: 10898a 1162005i bk10: 10404a 1176577i bk11: 10294a 1176397i bk12: 10064a 1177844i bk13: 9956a 1177576i bk14: 10034a 1175234i bk15: 10038a 1174349i 
dram_util_bins: 0 0 0 0 0 0 0 0 0 0
dram_eff_bins: 0 0 0 0 0 0 0 0 0 0
mrqq: max=16 avg=5.77206
Memory Partition 1: 
Cache L2_bank_002:
MSHR contents

Cache L2_bank_003:
MSHR contents
MSHR: tag=0x807bbf80, atomic=0 1 entries : 0x7f345f2f1310 :  mf: uid=11495347, sid08:w31, part=1, addr=0x807bbfc0, load , size=64, unknown  status = IN_PARTITION_DRAM (1162968), 

In Dram Latency Queue (total = 0): 
DRAM[1]: 16 bks, busW=4 BL=8 CL=12, tRRD=2 tCCD=6, tRCD=12 tRAS=28 tRP=12 tRC=40
n_cmd=1535120 n_nop=1106549 n_act=82698 n_pre=82682 n_req=174154 n_rd=165254 n_write=97937 bw_util=0.3429
n_activity=1162769 dram_eff=0.4527
bk0: 10996a 1166216i bk1: 10152a 1182017i bk2: 10876a 1158884i bk3: 9940a 1175671i bk4: 11102a 1148887i bk5: 10192a 1164766i bk6: 11030a 1146648i bk7: 10154a 1164279i bk8: 11156a 1164707i bk9: 10264a 1181908i bk10: 10580a 1177258i bk11: 9732a 1194326i bk12: 10188a 1185511i bk13: 9276a 1204741i bk14: 10254a 1179552i bk15: 9362a 1198409i 
dram_util_bins: 0 0 0 0 0 0 0 0 0 0
dram_eff_bins: 0 0 0 0 0 0 0 0 0 0
mrqq: max=16 avg=5.53107
Memory Partition 2: 
Cache L2_bank_004:
MSHR contents

Cache L2_bank_005:
MSHR contents

In Dram Latency Queue (total = 0): 
DRAM[2]: 16 bks, busW=4 BL=8 CL=12, tRRD=2 tCCD=6, tRCD=12 tRAS=28 tRP=12 tRC=40
n_cmd=1535120 n_nop=1098107 n_act=84430 n_pre=84414 n_req=177568 n_rd=169018 n_write=99151 bw_util=0.3494
n_activity=1171177 dram_eff=0.4579
bk0: 10774a 1168539i bk1: 10942a 1162827i bk2: 10662a 1159387i bk3: 10762a 1155472i bk4: 10792a 1150511i bk5: 10902a 1148586i bk6: 10810a 1143846i bk7: 10748a 1145890i bk8: 10902a 1165154i bk9: 10904a 1162299i bk10: 10392a 1172014i bk11: 10324a 1175221i bk12: 9976a 1178750i bk13: 10020a 1176716i bk14: 10026a 1176399i bk15: 10082a 1172856i 
dram_util_bins: 0 0 0 0 0 0 0 0 0 0
dram_eff_bins: 0 0 0 0 0 0 0 0 0 0
mrqq: max=16 avg=5.78256
Memory Partition 3: 
Cache L2_bank_006:
MSHR contents

Cache L2_bank_007:
MSHR contents

In Dram Latency Queue (total = 0): 
DRAM[3]: 16 bks, busW=4 BL=8 CL=12, tRRD=2 tCCD=6, tRCD=12 tRAS=28 tRP=12 tRC=40
n_cmd=1535120 n_nop=1106830 n_act=82705 n_pre=82689 n_req=173921 n_rd=164976 n_write=97920 bw_util=0.3425
n_activity=1162712 dram_eff=0.4522
bk0: 10146a 1184532i bk1: 11020a 1165533i bk2: 9990a 1176496i bk3: 10854a 1159034i bk4: 10230a 1165576i bk5: 10984a 1150573i bk6: 10094a 1163442i bk7: 11014a 1146098i bk8: 10276a 1179285i bk9: 11128a 1161847i bk10: 9662a 1193874i bk11: 10570a 1175889i bk12: 9288a 1205844i bk13: 10184a 1186808i bk14: 9332a 1200704i bk15: 10204a 1178252i 
dram_util_bins: 0 0 0 0 0 0 0 0 0 0
dram_eff_bins: 0 0 0 0 0 0 0 0 0 0
mrqq: max=16 avg=5.45166
Memory Partition 4: 
Cache L2_bank_008:
MSHR contents

Cache L2_bank_009:
MSHR contents

In Dram Latency Queue (total = 0): 
DRAM[4]: 16 bks, busW=4 BL=8 CL=12, tRRD=2 tCCD=6, tRCD=12 tRAS=28 tRP=12 tRC=40
n_cmd=1535120 n_nop=1098257 n_act=84387 n_pre=84371 n_req=177556 n_rd=169030 n_write=99075 bw_util=0.3493
n_activity=1170730 dram_eff=0.458
bk0: 10958a 1168439i bk1: 10750a 1166196i bk2: 10768a 1158540i bk3: 10646a 1158123i bk4: 10912a 1149830i bk5: 10852a 1148898i bk6: 10746a 1143882i bk7: 10764a 1145200i bk8: 10848a 1165389i bk9: 10892a 1161869i bk10: 10460a 1173108i bk11: 10358a 1171646i bk12: 10036a 1177274i bk13: 9970a 1179127i bk14: 10098a 1172821i bk15: 9972a 1174860i 
dram_util_bins: 0 0 0 0 0 0 0 0 0 0
dram_eff_bins: 0 0 0 0 0 0 0 0 0 0
mrqq: max=16 avg=5.77113
Memory Partition 5: 
Cache L2_bank_010:
MSHR contents

Cache L2_bank_011:
MSHR contents
MSHR: tag=0x807bff80, atomic=0 1 entries : 0x7f345f2ea390 :  mf: uid=11495346, sid08:w31, part=5, addr=0x807bffc0, load , size=64, unknown  status = IN_PARTITION_DRAM (1162970), 
MSHR: tag=0x807fbf80, atomic=0 1 entries : 0x7f345f2f00e0 :  mf: uid=11495344, sid12:w23, part=5, addr=0x807fbfc0, load , size=64, unknown  status = IN_PARTITION_DRAM (1162961), 
MSHR: tag=0x807b3f80, atomic=0 1 entries : 0x7f345f2e1990 :  mf: uid=11495345, sid08:w30, part=5, addr=0x807b3fc0, load , size=64, unknown  status = IN_PARTITION_DRAM (1162966), 

In Dram Latency Queue (total = 0): 
DRAM[5]: 16 bks, busW=4 BL=8 CL=12, tRRD=2 tCCD=6, tRCD=12 tRAS=28 tRP=12 tRC=40
n_cmd=1535120 n_nop=1107109 n_act=82645 n_pre=82629 n_req=173827 n_rd=164991 n_write=97746 bw_util=0.3423
n_activity=1160516 dram_eff=0.4528
bk0: 10978a 1168171i bk1: 10136a 1181627i bk2: 10848a 1161940i bk3: 9970a 1175337i bk4: 11116a 1149474i bk5: 10206a 1167336i bk6: 11014a 1146756i bk7: 10112a 1162816i bk8: 11126a 1164831i bk9: 10264a 1180296i bk10: 10560a 1174565i bk11: 9642a 1196078i bk12: 10186a 1185301i bk13: 9308a 1206726i bk14: 10246a 1180507i bk15: 9279a 1201405i 
dram_util_bins: 0 0 0 0 0 0 0 0 0 0
dram_eff_bins: 0 0 0 0 0 0 0 0 0 0
mrqq: max=16 avg=5.5117

========= L2 cache stats =========
L2_cache_bank[0]: Access = 60141, Miss = 42399, Miss_rate = 0.705, Pending_hits = 8266, Reservation_fails = 248201
L2_cache_bank[1]: Access = 60033, Miss = 42112, Miss_rate = 0.701, Pending_hits = 8001, Reservation_fails = 240180
L2_cache_bank[2]: Access = 60115, Miss = 43091, Miss_rate = 0.717, Pending_hits = 7682, Reservation_fails = 251484
L2_cache_bank[3]: Access = 60049, Miss = 39536, Miss_rate = 0.658, Pending_hits = 8643, Reservation_fails = 205032
L2_cache_bank[4]: Access = 60101, Miss = 42167, Miss_rate = 0.702, Pending_hits = 8058, Reservation_fails = 236301
L2_cache_bank[5]: Access = 60068, Miss = 42342, Miss_rate = 0.705, Pending_hits = 8264, Reservation_fails = 247318
L2_cache_bank[6]: Access = 60086, Miss = 39509, Miss_rate = 0.658, Pending_hits = 8549, Reservation_fails = 201224
L2_cache_bank[7]: Access = 60057, Miss = 42979, Miss_rate = 0.716, Pending_hits = 7679, Reservation_fails = 246134
L2_cache_bank[8]: Access = 60060, Miss = 42413, Miss_rate = 0.706, Pending_hits = 8242, Reservation_fails = 244568
L2_cache_bank[9]: Access = 60040, Miss = 42102, Miss_rate = 0.701, Pending_hits = 8193, Reservation_fails = 237771
L2_cache_bank[10]: Access = 60050, Miss = 43037, Miss_rate = 0.717, Pending_hits = 7681, Reservation_fails = 251142
L2_cache_bank[11]: Access = 60057, Miss = 39459, Miss_rate = 0.657, Pending_hits = 8592, Reservation_fails = 202296
L2_total_cache_accesses = 720857
L2_total_cache_misses = 501146
L2_total_cache_miss_rate = 0.6952
L2_total_cache_pending_hits = 97850
L2_total_cache_reservation_fails = 2811651
L2_total_cache_breakdown:
	L2_cache_stats_breakdown[GLOBAL_ACC_R][HIT] = 47810
	L2_cache_stats_breakdown[GLOBAL_ACC_R][HIT_RESERVED] = 16486
	L2_cache_stats_breakdown[GLOBAL_ACC_R][MISS] = 66632
	L2_cache_stats_breakdown[GLOBAL_ACC_R][RESERVATION_FAIL] = 11539
	L2_cache_stats_breakdown[CONST_ACC_R][HIT] = 11
	L2_cache_stats_breakdown[CONST_ACC_R][HIT_RESERVED] = 3
	L2_cache_stats_breakdown[CONST_ACC_R][MISS] = 1
	L2_cache_stats_breakdown[CONST_ACC_R][RESERVATION_FAIL] = 100
	L2_cache_stats_breakdown[GLOBAL_ACC_W][HIT] = 73974
	L2_cache_stats_breakdown[GLOBAL_ACC_W][HIT_RESERVED] = 81343
	L2_cache_stats_breakdown[GLOBAL_ACC_W][MISS] = 434507
	L2_cache_stats_breakdown[GLOBAL_ACC_W][RESERVATION_FAIL] = 2799372
	L2_cache_stats_breakdown[INST_ACC_R][HIT] = 66
	L2_cache_stats_breakdown[INST_ACC_R][HIT_RESERVED] = 18
	L2_cache_stats_breakdown[INST_ACC_R][MISS] = 6
	L2_cache_stats_breakdown[INST_ACC_R][RESERVATION_FAIL] = 640
L2_cache_data_port_util = 0.020
L2_cache_fill_port_util = 0.144

icnt_total_pkts_mem_to_simt=1244959
icnt_total_pkts_simt_to_mem=1376217
LD_mem_lat_dist  0 0 0 0 0 0 0 0 0 0 0 0 0 0 0 0 0 0 0 0 0 0 0 0 0 0 0
ST_mem_lat_dist  0 0 0 0 0 0 0 0 0 0 0 0 0 0 0 0 0 0 0 0 0 0 0 0 0 0 0
----------------------------Interconnect-DETAILS--------------------------------
Class 0:
Packet latency average = 18.366
	minimum = 6
	maximum = 413
Network latency average = 14.8335
	minimum = 6
	maximum = 387
Slowest packet = 1180203
Flit latency average = 13.2088
	minimum = 6
	maximum = 385
Slowest flit = 1967775
Fragmentation average = 0.17966
	minimum = 0
	maximum = 354
Injected packet rate average = 0.0321331
	minimum = 0.028701 (at node 2)
	maximum = 0.036241 (at node 15)
Accepted packet rate average = 0.0321331
	minimum = 0.028701 (at node 2)
	maximum = 0.036241 (at node 15)
Injected flit rate average = 0.0803384
	minimum = 0.0573921 (at node 2)
	maximum = 0.108895 (at node 15)
Accepted flit rate average= 0.0803384
	minimum = 0.0722571 (at node 16)
	maximum = 0.0870758 (at node 4)
Injected packet length average = 2.50017
Accepted packet length average = 2.50017
Total in-flight flits = 0 (0 measured)
====== Overall Traffic Statistics ======
====== Traffic class 0 ======
Packet latency average = 52.6945 (2 samples)
	minimum = 6 (2 samples)
	maximum = 864.5 (2 samples)
Network latency average = 32.159 (2 samples)
	minimum = 6 (2 samples)
	maximum = 770 (2 samples)
Flit latency average = 33.5504 (2 samples)
	minimum = 6 (2 samples)
	maximum = 769 (2 samples)
Fragmentation average = 0.199394 (2 samples)
	minimum = 0 (2 samples)
	maximum = 532.5 (2 samples)
Injected packet rate average = 0.0414433 (2 samples)
	minimum = 0.0324215 (2 samples)
	maximum = 0.0484789 (2 samples)
Accepted packet rate average = 0.0414433 (2 samples)
	minimum = 0.0324215 (2 samples)
	maximum = 0.0484789 (2 samples)
Injected flit rate average = 0.0824583 (2 samples)
	minimum = 0.0628281 (2 samples)
	maximum = 0.111797 (2 samples)
Accepted flit rate average = 0.0824583 (2 samples)
	minimum = 0.0622382 (2 samples)
	maximum = 0.0975039 (2 samples)
Injected packet size average = 1.98966 (2 samples)
Accepted packet size average = 1.98966 (2 samples)
Hops average = 1 (2 samples)
----------------------------END-of-Interconnect-DETAILS-------------------------
GPGPU-Sim API: Stream Manager State
