

        *** GPGPU-Sim Simulator Version 3.2.2  [build 0] ***


GPGPU-Sim PTX: simulation mode 0 (can change with PTX_SIM_MODE_FUNC environment variable:
               1=functional simulation only, 0=detailed performance simulator)
GPGPU-Sim: Configuration options:

-network_mode                           1 # Interconnection network mode
-inter_config_file   config_fermi_islip.icnt # Interconnection network config file
-gpgpu_ptx_use_cuobjdump                    1 # Use cuobjdump to extract ptx and sass from binaries
-gpgpu_experimental_lib_support                    0 # Try to extract code from cuda libraries [Broken because of unknown cudaGetExportTable]
-gpgpu_ptx_convert_to_ptxplus                    0 # Convert SASS (native ISA) to ptxplus and run ptxplus
-gpgpu_ptx_force_max_capability                   20 # Force maximum compute capability
-gpgpu_ptx_inst_debug_to_file                    0 # Dump executed instructions' debug information to file
-gpgpu_ptx_inst_debug_file       inst_debug.txt # Executed instructions' debug output file
-gpgpu_ptx_inst_debug_thread_uid                    1 # Thread UID for executed instructions' debug output
-gpgpu_simd_model                       1 # 1 = post-dominator
-gpgpu_shader_core_pipeline              1536:32 # shader core pipeline config, i.e., {<nthread>:<warpsize>}
-gpgpu_tex_cache:l1  4:128:24,L:R:m:N:L,F:128:4,128:2 # per-shader L1 texture cache  (READ-ONLY) config  {<nsets>:<bsize>:<assoc>,<rep>:<wr>:<alloc>:<wr_alloc>,<mshr>:<N>:<merge>,<mq>:<rf>}
-gpgpu_const_cache:l1 64:64:2,L:R:f:N:L,A:2:32,4 # per-shader L1 constant memory cache  (READ-ONLY) config  {<nsets>:<bsize>:<assoc>,<rep>:<wr>:<alloc>:<wr_alloc>,<mshr>:<N>:<merge>,<mq>} 
-gpgpu_cache:il1     4:128:4,L:R:f:N:L,A:2:32,4 # shader L1 instruction cache config  {<nsets>:<bsize>:<assoc>,<rep>:<wr>:<alloc>:<wr_alloc>,<mshr>:<N>:<merge>,<mq>} 
-gpgpu_cache:dl1     32:128:4,L:L:m:N:H,A:32:8,8:2,0,1:0:1:1:0:1,1:4:8:16:32:64,/sciclone/data10/hwang07/GPU_RESEARCH/swl/swl_outputs/RESULTS/lrr/ # per-shader L1 data cache config  {<nsets>:<bsize>:<assoc>,<rep>:<wr>:<alloc>:<wr_alloc>,<mshr>:<N>:<merge>,<mq> | none}
-gpgpu_cache:dl1PrefL1                 none # per-shader L1 data cache config  {<nsets>:<bsize>:<assoc>,<rep>:<wr>:<alloc>:<wr_alloc>,<mshr>:<N>:<merge>,<mq> | none}
-gpgpu_cache:dl1PreShared                 none # per-shader L1 data cache config  {<nsets>:<bsize>:<assoc>,<rep>:<wr>:<alloc>:<wr_alloc>,<mshr>:<N>:<merge>,<mq> | none}
-gmem_skip_L1D                          0 # global memory access skip L1D cache (implements -Xptxas -dlcm=cg, default=no skip)
-gpgpu_perfect_mem                      0 # enable perfect memory mode (no cache miss)
-n_regfile_gating_group                    4 # group of lanes that should be read/written together)
-gpgpu_clock_gated_reg_file                    0 # enable clock gated reg file for power calculations
-gpgpu_clock_gated_lanes                    0 # enable clock gated lanes for power calculations
-gpgpu_shader_registers                32768 # Number of registers per shader core. Limits number of concurrent CTAs. (default 8192)
-gpgpu_shader_cta                       8 # Maximum number of concurrent CTAs in shader (default 8)
-gpgpu_num_cta_barriers                   16 # Maximum number of named barriers per CTA (default 16)
-gpgpu_n_clusters                      15 # number of processing clusters
-gpgpu_n_cores_per_cluster                    1 # number of simd cores per cluster
-gpgpu_n_cluster_ejection_buffer_size                    8 # number of packets in ejection buffer
-gpgpu_n_ldst_response_buffer_size                    2 # number of response packets in ld/st unit ejection buffer
-gpgpu_shmem_size                   16384 # Size of shared memory per shader core (default 16kB)
-gpgpu_shmem_size                   49152 # Size of shared memory per shader core (default 16kB)
-gpgpu_shmem_size_PrefL1                16384 # Size of shared memory per shader core (default 16kB)
-gpgpu_shmem_size_PrefShared                16384 # Size of shared memory per shader core (default 16kB)
-gpgpu_shmem_num_banks                   32 # Number of banks in the shared memory in each shader core (default 16)
-gpgpu_shmem_limited_broadcast                    0 # Limit shared memory to do one broadcast per cycle (default on)
-gpgpu_shmem_warp_parts                    1 # Number of portions a warp is divided into for shared memory bank conflict check 
-gpgpu_warpdistro_shader                   -1 # Specify which shader core to collect the warp size distribution from
-gpgpu_warp_issue_shader                    0 # Specify which shader core to collect the warp issue distribution from
-gpgpu_local_mem_map                    1 # Mapping from local memory space address to simulated GPU physical address space (default = enabled)
-gpgpu_num_reg_banks                   16 # Number of register banks (default = 8)
-gpgpu_reg_bank_use_warp_id                    0 # Use warp ID in mapping registers to banks (default = off)
-gpgpu_operand_collector_num_units_sp                    6 # number of collector units (default = 4)
-gpgpu_operand_collector_num_units_sfu                    8 # number of collector units (default = 4)
-gpgpu_operand_collector_num_units_mem                    2 # number of collector units (default = 2)
-gpgpu_operand_collector_num_units_gen                    0 # number of collector units (default = 0)
-gpgpu_operand_collector_num_in_ports_sp                    2 # number of collector unit in ports (default = 1)
-gpgpu_operand_collector_num_in_ports_sfu                    1 # number of collector unit in ports (default = 1)
-gpgpu_operand_collector_num_in_ports_mem                    1 # number of collector unit in ports (default = 1)
-gpgpu_operand_collector_num_in_ports_gen                    0 # number of collector unit in ports (default = 0)
-gpgpu_operand_collector_num_out_ports_sp                    2 # number of collector unit in ports (default = 1)
-gpgpu_operand_collector_num_out_ports_sfu                    1 # number of collector unit in ports (default = 1)
-gpgpu_operand_collector_num_out_ports_mem                    1 # number of collector unit in ports (default = 1)
-gpgpu_operand_collector_num_out_ports_gen                    0 # number of collector unit in ports (default = 0)
-gpgpu_coalesce_arch                   13 # Coalescing arch (default = 13, anything else is off for now)
-gpgpu_num_sched_per_core                    2 # Number of warp schedulers per core
-gpgpu_max_insn_issue_per_warp                    1 # Max number of instructions that can be issued per warp in one cycle by scheduler
-gpgpu_simt_core_sim_order                    1 # Select the simulation order of cores in a cluster (0=Fix, 1=Round-Robin)
-gpgpu_pipeline_widths        2,1,1,2,1,1,2 # Pipeline widths ID_OC_SP,ID_OC_SFU,ID_OC_MEM,OC_EX_SP,OC_EX_SFU,OC_EX_MEM,EX_WB
-gpgpu_num_sp_units                     2 # Number of SP units (default=1)
-gpgpu_num_sfu_units                    1 # Number of SF units (default=1)
-gpgpu_num_mem_units                    1 # Number if ldst units (default=1) WARNING: not hooked up to anything
-gpgpu_scheduler                      lrr # Scheduler configuration: < lrr | gto | two_level_active > If two_level_active:<num_active_warps>:<inner_prioritization>:<outer_prioritization>For complete list of prioritization values see shader.h enum scheduler_prioritization_typeDefault: gto
-gpgpu_dram_scheduler                    1 # 0 = fifo, 1 = FR-FCFS (defaul)
-gpgpu_dram_partition_queues              8:8:8:8 # i2$:$2d:d2$:$2i
-l2_ideal                               0 # Use a ideal L2 cache that always hit
-gpgpu_cache:dl2     64:128:8,L:B:m:W:L,A:32:4,4:0,32 # unified banked L2 data cache config  {<nsets>:<bsize>:<assoc>,<rep>:<wr>:<alloc>:<wr_alloc>,<mshr>:<N>:<merge>,<mq>}
-gpgpu_cache:dl2_texture_only                    0 # L2 cache used for texture only
-gpgpu_n_mem                            6 # number of memory modules (e.g. memory controllers) in gpu
-gpgpu_n_sub_partition_per_mchannel                    2 # number of memory subpartition in each memory module
-gpgpu_n_mem_per_ctrlr                    2 # number of memory chips per memory controller
-gpgpu_memlatency_stat                   14 # track and display latency statistics 0x2 enables MC, 0x4 enables queue logs
-gpgpu_frfcfs_dram_sched_queue_size                   16 # 0 = unlimited (default); # entries per chip
-gpgpu_dram_return_queue_size                  116 # 0 = unlimited (default); # entries per chip
-gpgpu_dram_buswidth                    4 # default = 4 bytes (8 bytes per cycle at DDR)
-gpgpu_dram_burst_length                    8 # Burst length of each DRAM request (default = 4 data bus cycle)
-dram_data_command_freq_ratio                    4 # Frequency ratio between DRAM data bus and command bus (default = 2 times, i.e. DDR)
-gpgpu_dram_timing_opt nbk=16:CCD=2:RRD=6:RCD=12:RAS=28:RP=12:RC=40: CL=12:WL=4:CDLR=5:WR=12:nbkgrp=4:CCDL=3:RTPL=2 # DRAM timing parameters = {nbk:tCCD:tRRD:tRCD:tRAS:tRP:tRC:CL:WL:tCDLR:tWR:nbkgrp:tCCDL:tRTPL}
-rop_latency                          120 # ROP queue latency (default 85)
-dram_latency                         100 # DRAM latency (default 30)
-gpgpu_mem_addr_mapping dramid@8;00000000.00000000.00000000.00000000.0000RRRR.RRRRRRRR.BBBCCCCB.CCSSSSSS # mapping memory address to dram model {dramid@<start bit>;<memory address map>}
-gpgpu_mem_addr_test                    0 # run sweep test to check address mapping for aliased address
-gpgpu_mem_address_mask                    1 # 0 = old addressing mask, 1 = new addressing mask, 2 = new add. mask + flipped bank sel and chip sel bits
-gpuwattch_xml_file  gpuwattch_gtx480.xml # GPUWattch XML file
-power_simulation_enabled                    0 # Turn on power simulator (1=On, 0=Off)
-power_per_cycle_dump                    0 # Dump detailed power output each cycle
-power_trace_enabled                    0 # produce a file for the power trace (1=On, 0=Off)
-power_trace_zlevel                     6 # Compression level of the power trace output log (0=no comp, 9=highest)
-steady_power_levels_enabled                    0 # produce a file for the steady power levels (1=On, 0=Off)
-steady_state_definition                  8:4 # allowed deviation:number of samples
-gpgpu_max_cycle                        0 # terminates gpu simulation early (0 = no limit)
-gpgpu_max_insn                         0 # terminates gpu simulation early (0 = no limit)
-gpgpu_max_cta                          0 # terminates gpu simulation early (0 = no limit)
-gpgpu_runtime_stat                   500 # display runtime statistics such as dram utilization {<freq>:<flag>}
-liveness_message_freq                    1 # Minimum number of seconds between simulation liveness messages (0 = always print)
-gpgpu_flush_l1_cache                    0 # Flush L1 cache at the end of each kernel call
-gpgpu_flush_l2_cache                    0 # Flush L2 cache at the end of each kernel call
-gpgpu_deadlock_detect                    1 # Stop the simulation at deadlock (1=on (default), 0=off)
-gpgpu_ptx_instruction_classification                    0 # if enabled will classify ptx instruction types per kernel (Max 255 kernels now)
-gpgpu_ptx_sim_mode                     0 # Select between Performance (default) or Functional simulation (1)
-gpgpu_clock_domains 700.0:700.0:700.0:924.0 # Clock Domain Frequencies in MhZ {<Core Clock>:<ICNT Clock>:<L2 Clock>:<DRAM Clock>}
-gpgpu_max_concurrent_kernel                    8 # maximum kernels that can run concurrently on GPU
-gpgpu_cflog_interval                    0 # Interval between each snapshot in control flow logger
-visualizer_enabled                     0 # Turn on visualizer output (1=On, 0=Off)
-visualizer_outputfile                 NULL # Specifies the output log file for visualizer
-visualizer_zlevel                      6 # Compression level of the visualizer output log (0=no comp, 9=highest)
-trace_enabled                          0 # Turn on traces
-trace_components                    none # comma seperated list of traces to enable. Complete list found in trace_streams.tup. Default none
-trace_sampling_core                    0 # The core which is printed using CORE_DPRINTF. Default 0
-trace_sampling_memory_partition                   -1 # The memory partition which is printed using MEMPART_DPRINTF. Default -1 (i.e. all)
-enable_ptx_file_line_stats                    1 # Turn on PTX source line statistic profiling. (1 = On)
-ptx_line_stats_filename gpgpu_inst_stats.txt # Output file for PTX source line statistics.
-save_embedded_ptx                      0 # saves ptx files embedded in binary as <n>.ptx
-keep                                   0 # keep intermediate files created by GPGPU-Sim when interfacing with external programs
-gpgpu_ptx_save_converted_ptxplus                    0 # Saved converted ptxplus to a file
-ptx_opcode_latency_int         4,13,4,5,145 # Opcode latencies for integers <ADD,MAX,MUL,MAD,DIV>Default 1,1,19,25,145
-ptx_opcode_latency_fp          4,13,4,5,39 # Opcode latencies for single precision floating points <ADD,MAX,MUL,MAD,DIV>Default 1,1,1,1,30
-ptx_opcode_latency_dp         8,19,8,8,330 # Opcode latencies for double precision floating points <ADD,MAX,MUL,MAD,DIV>Default 8,8,8,8,335
-ptx_opcode_initiation_int            1,2,2,1,8 # Opcode initiation intervals for integers <ADD,MAX,MUL,MAD,DIV>Default 1,1,4,4,32
-ptx_opcode_initiation_fp            1,2,1,1,4 # Opcode initiation intervals for single precision floating points <ADD,MAX,MUL,MAD,DIV>Default 1,1,1,1,5
-ptx_opcode_initiation_dp         8,16,8,8,130 # Opcode initiation intervals for double precision floating points <ADD,MAX,MUL,MAD,DIV>Default 8,8,8,8,130
DRAM Timing Options:
nbk                                    16 # number of banks
CCD                                     2 # column to column delay
RRD                                     6 # minimal delay between activation of rows in different banks
RCD                                    12 # row to column delay
RAS                                    28 # time needed to activate row
RP                                     12 # time needed to precharge (deactivate) row
RC                                     40 # row cycle time
CDLR                                    5 # switching from write to read (changes tWTR)
WR                                     12 # last data-in to row precharge
CL                                     12 # CAS latency
WL                                      4 # Write latency
nbkgrp                                  4 # number of bank groups
CCDL                                    3 # column to column delay between accesses to different bank groups
RTPL                                    2 # read to precharge delay between accesses to different bank groups
Total number of memory sub partition = 12
addr_dec_mask[CHIP]  = 0000000000000000 	high:64 low:0
addr_dec_mask[BK]    = 000000000000e100 	high:16 low:8
addr_dec_mask[ROW]   = 000000000fff0000 	high:28 low:16
addr_dec_mask[COL]   = 0000000000001eff 	high:13 low:0
addr_dec_mask[BURST] = 000000000000003f 	high:6 low:0
sub_partition_id_mask = 0000000000000100
GPGPU-Sim uArch: clock freqs: 700000000.000000:700000000.000000:700000000.000000:924000000.000000
GPGPU-Sim uArch: clock periods: 0.00000000142857142857:0.00000000142857142857:0.00000000142857142857:0.00000000108225108225
*** Initializing Memory Statistics ***
GPGPU-Sim uArch: interconnect node map (shaderID+MemID to icntID)
GPGPU-Sim uArch: Memory nodes ID start from index: 15
GPGPU-Sim uArch:    0   1   2   3   4
GPGPU-Sim uArch:    5   6   7   8   9
GPGPU-Sim uArch:   10  11  12  13  14
GPGPU-Sim uArch:   15  16  17  18  19
GPGPU-Sim uArch:   20  21  22  23  24
GPGPU-Sim uArch:   25  26
GPGPU-Sim uArch: interconnect node reverse map (icntID to shaderID+MemID)
GPGPU-Sim uArch: Memory nodes start from ID: 15
GPGPU-Sim uArch:    0   1   2   3   4
GPGPU-Sim uArch:    5   6   7   8   9
GPGPU-Sim uArch:   10  11  12  13  14
GPGPU-Sim uArch:   15  16  17  18  19
GPGPU-Sim uArch:   20  21  22  23  24
GPGPU-Sim uArch:   25  26
2bc880a935f4074ba9e1a2d386c7af85  /sciclone/data10/hwang07/adwait/applications/benchmarks/CUDA/LPS/gpgpu_ptx_sim__LPS
GPGPU-Sim uArch: performance model initialization complete.
GPGPU-Sim PTX: __cudaRegisterFatBinary, fat_cubin_handle = 1, filename=laplace3d.cu
self exe links to: /sciclone/data10/hwang07/adwait/applications/benchmarks/CUDA/LPS/gpgpu_ptx_sim__LPS
Running md5sum using "md5sum /sciclone/data10/hwang07/adwait/applications/benchmarks/CUDA/LPS/gpgpu_ptx_sim__LPS "
Parsing file _cuobjdump_complete_output_bga96m
######### cuobjdump parser ########
## Adding new section ELF
Adding arch: sm_20
Adding identifier: laplace3d.cu
## Adding new section PTX
Adding ptx filename: _cuobjdump_1.ptx
Adding arch: sm_20
Adding identifier: laplace3d.cu
Done parsing!!!
GPGPU-Sim PTX: __cudaRegisterFunction _Z13GPU_laplace3diiiiPfS_ : hostFun 0x0x405cf4, fat_cubin_handle = 1
GPGPU-Sim PTX: allocating shared region for "__cuda___cuda_local_var_32996_33_non_const_u132" from 0x0 to 0x990 (shared memory space)
GPGPU-Sim PTX: instruction assembly for function '_Z13GPU_laplace3diiiiPfS_'...   done.
GPGPU-Sim PTX: finding reconvergence points for '_Z13GPU_laplace3diiiiPfS_'...
GPGPU-Sim PTX: Finding dominators for '_Z13GPU_laplace3diiiiPfS_'...
GPGPU-Sim PTX: Finding immediate dominators for '_Z13GPU_laplace3diiiiPfS_'...
GPGPU-Sim PTX: Finding postdominators for '_Z13GPU_laplace3diiiiPfS_'...
GPGPU-Sim PTX: Finding immediate postdominators for '_Z13GPU_laplace3diiiiPfS_'...
GPGPU-Sim PTX: pre-decoding instructions for '_Z13GPU_laplace3diiiiPfS_'...
GPGPU-Sim PTX: reconvergence points for _Z13GPU_laplace3diiiiPfS_...
GPGPU-Sim PTX:  1 (potential) branch divergence @  PC=0x060 (_1.ptx:82) @!%p1 bra $Lt_0_14338;
GPGPU-Sim PTX:    immediate post dominator      @  PC=0x230 (_1.ptx:154) add.s32 %r57, %r37, %r12;
GPGPU-Sim PTX:  2 (potential) branch divergence @  PC=0x080 (_1.ptx:86) @%p2 bra $Lt_0_14850;
GPGPU-Sim PTX:    immediate post dominator      @  PC=0x120 (_1.ptx:113) add.s32 %r30, %r16, 1;
GPGPU-Sim PTX:  3 (potential) branch divergence @  PC=0x0a0 (_1.ptx:92) bra.uni $Lt_0_14594;
GPGPU-Sim PTX:    immediate post dominator      @  PC=0x120 (_1.ptx:113) add.s32 %r30, %r16, 1;
GPGPU-Sim PTX:  4 (potential) branch divergence @  PC=0x200 (_1.ptx:145) bra.uni $Lt_0_14082;
GPGPU-Sim PTX:    immediate post dominator      @  PC=0x230 (_1.ptx:154) add.s32 %r57, %r37, %r12;
GPGPU-Sim PTX:  5 (potential) branch divergence @  PC=0x290 (_1.ptx:166) @%p5 bra $Lt_0_15106;
GPGPU-Sim PTX:    immediate post dominator      @  PC=0x308 (_1.ptx:183) mov.u64 %rd1, __cuda___cuda_local_var_32996_33_non_const_u132;
GPGPU-Sim PTX:  6 (potential) branch divergence @  PC=0x320 (_1.ptx:186) @!%p6 bra $Lt_0_15618;
GPGPU-Sim PTX:    immediate post dominator      @  PC=0x380 (_1.ptx:200) ld.param.s32 %r73, [__cudaparm__Z13GPU_laplace3diiiiPfS__NZ];
GPGPU-Sim PTX:  7 (potential) branch divergence @  PC=0x398 (_1.ptx:203) @%p7 bra $Lt_0_16130;
GPGPU-Sim PTX:    immediate post dominator      @  PC=0x6d8 (_1.ptx:335) exit;
GPGPU-Sim PTX:  8 (potential) branch divergence @  PC=0x408 (_1.ptx:219) @%p8 bra $Lt_0_17410;
GPGPU-Sim PTX:    immediate post dominator      @  PC=0x4a0 (_1.ptx:245) @!%p6 bra $Lt_0_18434;
GPGPU-Sim PTX:  9 (potential) branch divergence @  PC=0x468 (_1.ptx:235) @%p9 bra $Lt_0_17410;
GPGPU-Sim PTX:    immediate post dominator      @  PC=0x4a0 (_1.ptx:245) @!%p6 bra $Lt_0_18434;
GPGPU-Sim PTX: 10 (potential) branch divergence @  PC=0x4a0 (_1.ptx:245) @!%p6 bra $Lt_0_18434;
GPGPU-Sim PTX:    immediate post dominator      @  PC=0x548 (_1.ptx:273) bar.sync 0;
GPGPU-Sim PTX: 11 (potential) branch divergence @  PC=0x510 (_1.ptx:262) @%p10 bra $Lt_0_18434;
GPGPU-Sim PTX:    immediate post dominator      @  PC=0x548 (_1.ptx:273) bar.sync 0;
GPGPU-Sim PTX: 12 (potential) branch divergence @  PC=0x560 (_1.ptx:276) @%p11 bra $Lt_0_18946;
GPGPU-Sim PTX:    immediate post dominator      @  PC=0x6b8 (_1.ptx:329) bar.sync 0;
GPGPU-Sim PTX: 13 (potential) branch divergence @  PC=0x578 (_1.ptx:280) @%p12 bra $Lt_0_20738;
GPGPU-Sim PTX:    immediate post dominator      @  PC=0x688 (_1.ptx:321) ld.param.u64 %rd35, [__cudaparm__Z13GPU_laplace3diiiiPfS__d_u2];
GPGPU-Sim PTX: 14 (potential) branch divergence @  PC=0x588 (_1.ptx:282) @%p13 bra $Lt_0_20738;
GPGPU-Sim PTX:    immediate post dominator      @  PC=0x688 (_1.ptx:321) ld.param.u64 %rd35, [__cudaparm__Z13GPU_laplace3diiiiPfS__d_u2];
GPGPU-Sim PTX: 15 (potential) branch divergence @  PC=0x5a0 (_1.ptx:285) @%p14 bra $Lt_0_20738;
GPGPU-Sim PTX:    immediate post dominator      @  PC=0x688 (_1.ptx:321) ld.param.u64 %rd35, [__cudaparm__Z13GPU_laplace3diiiiPfS__d_u2];
GPGPU-Sim PTX: 16 (potential) branch divergence @  PC=0x5b0 (_1.ptx:287) @%p15 bra $Lt_0_20738;
GPGPU-Sim PTX:    immediate post dominator      @  PC=0x688 (_1.ptx:321) ld.param.u64 %rd35, [__cudaparm__Z13GPU_laplace3diiiiPfS__d_u2];
GPGPU-Sim PTX: 17 (potential) branch divergence @  PC=0x5c8 (_1.ptx:290) @%p16 bra $Lt_0_20738;
GPGPU-Sim PTX:    immediate post dominator      @  PC=0x688 (_1.ptx:321) ld.param.u64 %rd35, [__cudaparm__Z13GPU_laplace3diiiiPfS__d_u2];
GPGPU-Sim PTX: 18 (potential) branch divergence @  PC=0x5d8 (_1.ptx:292) @%p17 bra $L_0_12546;
GPGPU-Sim PTX:    immediate post dominator      @  PC=0x688 (_1.ptx:321) ld.param.u64 %rd35, [__cudaparm__Z13GPU_laplace3diiiiPfS__d_u2];
GPGPU-Sim PTX: 19 (potential) branch divergence @  PC=0x600 (_1.ptx:300) bra.uni $L_0_12290;
GPGPU-Sim PTX:    immediate post dominator      @  PC=0x688 (_1.ptx:321) ld.param.u64 %rd35, [__cudaparm__Z13GPU_laplace3diiiiPfS__d_u2];
GPGPU-Sim PTX: 20 (potential) branch divergence @  PC=0x6d0 (_1.ptx:332) @%p18 bra $Lt_0_16642;
GPGPU-Sim PTX:    immediate post dominator      @  PC=0x6d8 (_1.ptx:335) exit;
GPGPU-Sim PTX: ... end of reconvergence points for _Z13GPU_laplace3diiiiPfS_
GPGPU-Sim PTX: ... done pre-decoding instructions for '_Z13GPU_laplace3diiiiPfS_'.
GPGPU-Sim PTX: finished parsing EMBEDDED .ptx file _1.ptx
Adding _cuobjdump_1.ptx with cubin handle 1
GPGPU-Sim PTX: extracting embedded .ptx to temporary file "_ptx_cJnxYr"
Running: cat _ptx_cJnxYr | sed 's/.version 1.5/.version 1.4/' | sed 's/, texmode_independent//' | sed 's/\(\.extern \.const\[1\] .b8 \w\+\)\[\]/\1\[1\]/' | sed 's/const\[.\]/const\[0\]/g' > _ptx2_rkhlgx
GPGPU-Sim PTX: generating ptxinfo using "$CUDA_INSTALL_PATH/bin/ptxas --gpu-name=sm_20 -v _ptx2_rkhlgx --output-file  /dev/null 2> _ptx_cJnxYrinfo"
GPGPU-Sim PTX: Kernel '_Z13GPU_laplace3diiiiPfS_' : regs=17, lmem=0, smem=2448, cmem=64
GPGPU-Sim PTX: removing ptxinfo using "rm -f _ptx_cJnxYr _ptx2_rkhlgx _ptx_cJnxYrinfo"
GPGPU-Sim PTX: loading globals with explicit initializers... 
GPGPU-Sim PTX: finished loading globals (0 bytes total).
GPGPU-Sim PTX: loading constants with explicit initializers...  done.

Grid dimensions: 100 x 100 x 100
GPGPU-Sim PTX: cudaMallocPitch (width = 400)
GPGPU-Sim PTX: cudaMallocPitch (width = 400)
GPGPU-Sim: synchronize waiting for inactive GPU simulation
GPGPU-Sim API: Stream Manager State
GPGPU-Sim: detected inactive GPU simulation thread

Copy u1 to device: 149.449005 (ms) 

 dimGrid  = 4 25 1 
 dimBlock = 32 4 1 
GPGPU-Sim: synchronize waiting for inactive GPU simulation
GPGPU-Sim API: Stream Manager State
GPGPU-Sim: detected inactive GPU simulation thread

GPGPU-Sim PTX: cudaLaunch for 0x0x405cf4 (mode=performance simulation) on stream 0
GPGPU-Sim PTX: pushing kernel '_Z13GPU_laplace3diiiiPfS_' to stream 0, gridDim= (4,25,1) blockDim = (32,4,1) 
kernel '_Z13GPU_laplace3diiiiPfS_' transfer to GPU hardware scheduler
GPGPU-Sim uArch: Shader 1 bind to kernel 1 '_Z13GPU_laplace3diiiiPfS_'
GPGPU-Sim uArch: CTA/core = 8, limited by: cta_limit
GPGPU-Sim uArch: core:  1, cta: 0 initialized @(1,0)
GPGPU-Sim uArch: Shader 2 bind to kernel 1 '_Z13GPU_laplace3diiiiPfS_'
GPGPU-Sim uArch: core:  2, cta: 0 initialized @(1,0)
GPGPU-Sim uArch: Shader 3 bind to kernel 1 '_Z13GPU_laplace3diiiiPfS_'
GPGPU-Sim uArch: core:  3, cta: 0 initialized @(1,0)
GPGPU-Sim uArch: Shader 4 bind to kernel 1 '_Z13GPU_laplace3diiiiPfS_'
GPGPU-Sim uArch: core:  4, cta: 0 initialized @(1,0)
GPGPU-Sim uArch: Shader 5 bind to kernel 1 '_Z13GPU_laplace3diiiiPfS_'
GPGPU-Sim uArch: core:  5, cta: 0 initialized @(1,0)
GPGPU-Sim uArch: Shader 6 bind to kernel 1 '_Z13GPU_laplace3diiiiPfS_'
GPGPU-Sim uArch: core:  6, cta: 0 initialized @(1,0)
GPGPU-Sim uArch: Shader 7 bind to kernel 1 '_Z13GPU_laplace3diiiiPfS_'
GPGPU-Sim uArch: core:  7, cta: 0 initialized @(1,0)
GPGPU-Sim uArch: Shader 8 bind to kernel 1 '_Z13GPU_laplace3diiiiPfS_'
GPGPU-Sim uArch: core:  8, cta: 0 initialized @(1,0)
GPGPU-Sim uArch: Shader 9 bind to kernel 1 '_Z13GPU_laplace3diiiiPfS_'
GPGPU-Sim uArch: core:  9, cta: 0 initialized @(1,0)
GPGPU-Sim uArch: Shader 10 bind to kernel 1 '_Z13GPU_laplace3diiiiPfS_'
GPGPU-Sim uArch: core: 10, cta: 0 initialized @(1,0)
GPGPU-Sim uArch: Shader 11 bind to kernel 1 '_Z13GPU_laplace3diiiiPfS_'
GPGPU-Sim uArch: core: 11, cta: 0 initialized @(1,0)
GPGPU-Sim uArch: Shader 12 bind to kernel 1 '_Z13GPU_laplace3diiiiPfS_'
GPGPU-Sim uArch: core: 12, cta: 0 initialized @(1,0)
GPGPU-Sim uArch: Shader 13 bind to kernel 1 '_Z13GPU_laplace3diiiiPfS_'
GPGPU-Sim uArch: core: 13, cta: 0 initialized @(1,0)
GPGPU-Sim uArch: Shader 14 bind to kernel 1 '_Z13GPU_laplace3diiiiPfS_'
GPGPU-Sim uArch: core: 14, cta: 0 initialized @(1,0)
GPGPU-Sim uArch: Shader 0 bind to kernel 1 '_Z13GPU_laplace3diiiiPfS_'
GPGPU-Sim uArch: core:  0, cta: 0 initialized @(1,0)
GPGPU-Sim uArch: core:  1, cta: 1 initialized @(2,0)
GPGPU-Sim uArch: core:  2, cta: 1 initialized @(2,0)
GPGPU-Sim uArch: core:  3, cta: 1 initialized @(2,0)
GPGPU-Sim uArch: core:  4, cta: 1 initialized @(2,0)
GPGPU-Sim uArch: core:  5, cta: 1 initialized @(2,0)
GPGPU-Sim uArch: core:  6, cta: 1 initialized @(2,0)
GPGPU-Sim uArch: core:  7, cta: 1 initialized @(2,0)
GPGPU-Sim uArch: core:  8, cta: 1 initialized @(2,0)
GPGPU-Sim uArch: core:  9, cta: 1 initialized @(2,0)
GPGPU-Sim uArch: core: 10, cta: 1 initialized @(2,0)
GPGPU-Sim uArch: core: 11, cta: 1 initialized @(2,0)
GPGPU-Sim uArch: core: 12, cta: 1 initialized @(2,0)
GPGPU-Sim uArch: core: 13, cta: 1 initialized @(2,0)
GPGPU-Sim uArch: core: 14, cta: 1 initialized @(2,0)
GPGPU-Sim uArch: core:  0, cta: 1 initialized @(2,0)
GPGPU-Sim uArch: core:  1, cta: 2 initialized @(3,0)
GPGPU-Sim uArch: core:  2, cta: 2 initialized @(3,0)
GPGPU-Sim uArch: core:  3, cta: 2 initialized @(3,0)
GPGPU-Sim uArch: core:  4, cta: 2 initialized @(3,0)
GPGPU-Sim uArch: core:  5, cta: 2 initialized @(3,0)
GPGPU-Sim uArch: core:  6, cta: 2 initialized @(3,0)
GPGPU-Sim uArch: core:  7, cta: 2 initialized @(3,0)
GPGPU-Sim uArch: core:  8, cta: 2 initialized @(3,0)
GPGPU-Sim uArch: core:  9, cta: 2 initialized @(3,0)
GPGPU-Sim uArch: core: 10, cta: 2 initialized @(3,0)
GPGPU-Sim uArch: core: 11, cta: 2 initialized @(3,0)
GPGPU-Sim uArch: core: 12, cta: 2 initialized @(3,0)
GPGPU-Sim uArch: core: 13, cta: 2 initialized @(3,0)
GPGPU-Sim uArch: core: 14, cta: 2 initialized @(3,0)
GPGPU-Sim uArch: core:  0, cta: 2 initialized @(3,0)
GPGPU-Sim uArch: core:  1, cta: 3 initialized @(4,0)
GPGPU-Sim uArch: core:  2, cta: 3 initialized @(4,0)
GPGPU-Sim uArch: core:  3, cta: 3 initialized @(4,0)
GPGPU-Sim uArch: core:  4, cta: 3 initialized @(4,0)
GPGPU-Sim uArch: core:  5, cta: 3 initialized @(4,0)
GPGPU-Sim uArch: core:  6, cta: 3 initialized @(4,0)
GPGPU-Sim uArch: core:  7, cta: 3 initialized @(4,0)
GPGPU-Sim uArch: core:  8, cta: 3 initialized @(4,0)
GPGPU-Sim uArch: core:  9, cta: 3 initialized @(4,0)
GPGPU-Sim uArch: core: 10, cta: 3 initialized @(4,0)
GPGPU-Sim uArch: core: 11, cta: 3 initialized @(4,0)
GPGPU-Sim uArch: core: 12, cta: 3 initialized @(4,0)
GPGPU-Sim uArch: core: 13, cta: 3 initialized @(4,0)
GPGPU-Sim uArch: core: 14, cta: 3 initialized @(4,0)
GPGPU-Sim uArch: core:  0, cta: 3 initialized @(4,0)
GPGPU-Sim uArch: core:  1, cta: 4 initialized @(5,0)
GPGPU-Sim uArch: core:  2, cta: 4 initialized @(5,0)
GPGPU-Sim uArch: core:  3, cta: 4 initialized @(5,0)
GPGPU-Sim uArch: core:  4, cta: 4 initialized @(5,0)
GPGPU-Sim uArch: core:  5, cta: 4 initialized @(5,0)
GPGPU-Sim uArch: core:  6, cta: 4 initialized @(5,0)
GPGPU-Sim uArch: core:  7, cta: 4 initialized @(5,0)
GPGPU-Sim uArch: core:  8, cta: 4 initialized @(5,0)
GPGPU-Sim uArch: core:  9, cta: 4 initialized @(5,0)
GPGPU-Sim uArch: core: 10, cta: 4 initialized @(5,0)
GPGPU-Sim uArch: core: 11, cta: 4 initialized @(5,0)
GPGPU-Sim uArch: core: 12, cta: 4 initialized @(5,0)
GPGPU-Sim uArch: core: 13, cta: 4 initialized @(5,0)
GPGPU-Sim uArch: core: 14, cta: 4 initialized @(5,0)
GPGPU-Sim uArch: core:  0, cta: 4 initialized @(5,0)
GPGPU-Sim uArch: core:  1, cta: 5 initialized @(6,0)
GPGPU-Sim uArch: core:  2, cta: 5 initialized @(6,0)
GPGPU-Sim uArch: core:  3, cta: 5 initialized @(6,0)
GPGPU-Sim uArch: core:  4, cta: 5 initialized @(6,0)
GPGPU-Sim uArch: core:  5, cta: 5 initialized @(6,0)
GPGPU-Sim uArch: core:  6, cta: 5 initialized @(6,0)
GPGPU-Sim uArch: core:  7, cta: 5 initialized @(6,0)
GPGPU-Sim uArch: core:  8, cta: 5 initialized @(6,0)
GPGPU-Sim uArch: core:  9, cta: 5 initialized @(6,0)
GPGPU-Sim uArch: core: 10, cta: 5 initialized @(6,0)
GPGPU-Sim uArch: core: 11, cta: 5 initialized @(6,0)
GPGPU-Sim uArch: core: 12, cta: 5 initialized @(6,0)
GPGPU-Sim uArch: core: 13, cta: 5 initialized @(6,0)
GPGPU-Sim uArch: core: 14, cta: 5 initialized @(6,0)
GPGPU-Sim uArch: core:  0, cta: 5 initialized @(6,0)
GPGPU-Sim uArch: core:  1, cta: 6 initialized @(7,0)
GPGPU-Sim uArch: core:  2, cta: 6 initialized @(7,0)
GPGPU-Sim uArch: core:  3, cta: 6 initialized @(7,0)
GPGPU-Sim uArch: core:  4, cta: 6 initialized @(7,0)
GPGPU-Sim uArch: core:  5, cta: 6 initialized @(7,0)
GPGPU-Sim uArch: core:  6, cta: 6 initialized @(7,0)
GPGPU-Sim uArch: core:  7, cta: 6 initialized @(7,0)
GPGPU-Sim uArch: core:  8, cta: 6 initialized @(7,0)
GPGPU-Sim uArch: core:  9, cta: 6 initialized @(7,0)
GPGPU-Sim uArch: core: 10, cta: 6 initialized @(7,0)
GPGPU-Sim PTX: 100000 instructions simulated : ctaid=(0,13,0) tid=(31,3,0)
GPGPU-Sim uArch: cycles simulated: 500  inst.: 100164 (ipc=200.3) sim_rate=25041 (inst/sec) elapsed = 0:0:00:04 / Tue Mar 22 07:38:36 2016
GPGPU-Sim PTX: 200000 instructions simulated : ctaid=(3,10,0) tid=(19,2,0)
GPGPU-Sim PTX: 300000 instructions simulated : ctaid=(0,19,0) tid=(11,0,0)
GPGPU-Sim PTX: 400000 instructions simulated : ctaid=(1,11,0) tid=(11,1,0)
GPGPU-Sim uArch: cycles simulated: 1500  inst.: 414188 (ipc=276.1) sim_rate=37653 (inst/sec) elapsed = 0:0:00:11 / Tue Mar 22 07:38:43 2016
GPGPU-Sim PTX: 500000 instructions simulated : ctaid=(2,19,0) tid=(11,2,0)
GPGPU-Sim PTX: 600000 instructions simulated : ctaid=(0,24,0) tid=(31,0,0)
GPGPU-Sim PTX: 700000 instructions simulated : ctaid=(2,19,0) tid=(15,1,0)
GPGPU-Sim uArch: cycles simulated: 2000  inst.: 675736 (ipc=337.9) sim_rate=56311 (inst/sec) elapsed = 0:0:00:12 / Tue Mar 22 07:38:44 2016
GPGPU-Sim PTX: 800000 instructions simulated : ctaid=(0,18,0) tid=(3,3,0)
GPGPU-Sim PTX: 900000 instructions simulated : ctaid=(1,18,0) tid=(27,1,0)
GPGPU-Sim PTX: 1000000 instructions simulated : ctaid=(1,20,0) tid=(14,3,0)
GPGPU-Sim PTX: 1100000 instructions simulated : ctaid=(1,9,0) tid=(16,1,0)
GPGPU-Sim PTX: 1200000 instructions simulated : ctaid=(2,6,0) tid=(11,0,0)
GPGPU-Sim uArch: cycles simulated: 3000  inst.: 1144512 (ipc=381.5) sim_rate=88039 (inst/sec) elapsed = 0:0:00:13 / Tue Mar 22 07:38:45 2016
GPGPU-Sim PTX: 1300000 instructions simulated : ctaid=(1,19,0) tid=(3,0,0)
GPGPU-Sim uArch: cycles simulated: 3500  inst.: 1248694 (ipc=356.8) sim_rate=89192 (inst/sec) elapsed = 0:0:00:14 / Tue Mar 22 07:38:46 2016
GPGPU-Sim PTX: 1400000 instructions simulated : ctaid=(1,7,0) tid=(16,0,0)
GPGPU-Sim PTX: 1500000 instructions simulated : ctaid=(1,23,0) tid=(19,0,0)
GPGPU-Sim uArch: cycles simulated: 4500  inst.: 1434188 (ipc=318.7) sim_rate=95612 (inst/sec) elapsed = 0:0:00:15 / Tue Mar 22 07:38:47 2016
GPGPU-Sim PTX: 1600000 instructions simulated : ctaid=(1,13,0) tid=(28,1,0)
GPGPU-Sim PTX: 1700000 instructions simulated : ctaid=(1,7,0) tid=(23,2,0)
GPGPU-Sim PTX: 1800000 instructions simulated : ctaid=(1,24,0) tid=(31,2,0)
GPGPU-Sim PTX: 1900000 instructions simulated : ctaid=(0,10,0) tid=(31,2,0)
GPGPU-Sim uArch: cycles simulated: 5500  inst.: 1766378 (ipc=321.2) sim_rate=110398 (inst/sec) elapsed = 0:0:00:16 / Tue Mar 22 07:38:48 2016
GPGPU-Sim PTX: 2000000 instructions simulated : ctaid=(2,21,0) tid=(22,1,0)
GPGPU-Sim PTX: 2100000 instructions simulated : ctaid=(1,19,0) tid=(26,0,0)
GPGPU-Sim uArch: cycles simulated: 7000  inst.: 1973480 (ipc=281.9) sim_rate=116087 (inst/sec) elapsed = 0:0:00:17 / Tue Mar 22 07:38:49 2016
GPGPU-Sim PTX: 2200000 instructions simulated : ctaid=(2,1,0) tid=(30,3,0)
GPGPU-Sim PTX: 2300000 instructions simulated : ctaid=(0,15,0) tid=(9,2,0)
GPGPU-Sim PTX: 2400000 instructions simulated : ctaid=(2,18,0) tid=(2,0,0)
GPGPU-Sim uArch: cycles simulated: 7500  inst.: 2209795 (ipc=294.6) sim_rate=122766 (inst/sec) elapsed = 0:0:00:18 / Tue Mar 22 07:38:50 2016
GPGPU-Sim PTX: 2500000 instructions simulated : ctaid=(1,8,0) tid=(28,2,0)
GPGPU-Sim PTX: 2600000 instructions simulated : ctaid=(3,7,0) tid=(2,1,0)
GPGPU-Sim PTX: 2700000 instructions simulated : ctaid=(1,11,0) tid=(6,2,0)
GPGPU-Sim uArch: cycles simulated: 8000  inst.: 2515641 (ipc=314.5) sim_rate=132402 (inst/sec) elapsed = 0:0:00:19 / Tue Mar 22 07:38:51 2016
GPGPU-Sim PTX: 2800000 instructions simulated : ctaid=(0,6,0) tid=(4,0,0)
GPGPU-Sim PTX: 2900000 instructions simulated : ctaid=(2,15,0) tid=(12,0,0)
GPGPU-Sim uArch: cycles simulated: 9000  inst.: 2705046 (ipc=300.6) sim_rate=135252 (inst/sec) elapsed = 0:0:00:20 / Tue Mar 22 07:38:52 2016
GPGPU-Sim PTX: 3000000 instructions simulated : ctaid=(2,24,0) tid=(18,2,0)
GPGPU-Sim PTX: 3100000 instructions simulated : ctaid=(2,10,0) tid=(2,2,0)
GPGPU-Sim PTX: 3200000 instructions simulated : ctaid=(1,2,0) tid=(7,2,0)
GPGPU-Sim PTX: 3300000 instructions simulated : ctaid=(2,11,0) tid=(28,3,0)
GPGPU-Sim PTX: 3400000 instructions simulated : ctaid=(2,2,0) tid=(6,0,0)
GPGPU-Sim PTX: 3500000 instructions simulated : ctaid=(0,11,0) tid=(7,1,0)
GPGPU-Sim uArch: cycles simulated: 10000  inst.: 3249206 (ipc=324.9) sim_rate=154724 (inst/sec) elapsed = 0:0:00:21 / Tue Mar 22 07:38:53 2016
GPGPU-Sim PTX: 3600000 instructions simulated : ctaid=(1,19,0) tid=(4,3,0)
GPGPU-Sim uArch: cycles simulated: 10500  inst.: 3327580 (ipc=316.9) sim_rate=151253 (inst/sec) elapsed = 0:0:00:22 / Tue Mar 22 07:38:54 2016
GPGPU-Sim PTX: 3700000 instructions simulated : ctaid=(1,9,0) tid=(8,0,0)
GPGPU-Sim PTX: 3800000 instructions simulated : ctaid=(1,7,0) tid=(9,2,0)
GPGPU-Sim PTX: 3900000 instructions simulated : ctaid=(2,15,0) tid=(22,3,0)
GPGPU-Sim PTX: 4000000 instructions simulated : ctaid=(3,2,0) tid=(18,2,0)
GPGPU-Sim PTX: 4100000 instructions simulated : ctaid=(1,5,0) tid=(21,3,0)
GPGPU-Sim uArch: cycles simulated: 11500  inst.: 3755572 (ipc=326.6) sim_rate=163285 (inst/sec) elapsed = 0:0:00:23 / Tue Mar 22 07:38:55 2016
GPGPU-Sim PTX: 4200000 instructions simulated : ctaid=(0,12,0) tid=(1,1,0)
GPGPU-Sim PTX: 4300000 instructions simulated : ctaid=(1,20,0) tid=(21,0,0)
GPGPU-Sim PTX: 4400000 instructions simulated : ctaid=(0,12,0) tid=(2,1,0)
GPGPU-Sim uArch: cycles simulated: 12000  inst.: 4021045 (ipc=335.1) sim_rate=167543 (inst/sec) elapsed = 0:0:00:24 / Tue Mar 22 07:38:56 2016
GPGPU-Sim PTX: 4500000 instructions simulated : ctaid=(1,22,0) tid=(5,3,0)
GPGPU-Sim PTX: 4600000 instructions simulated : ctaid=(0,24,0) tid=(1,0,0)
GPGPU-Sim PTX: 4700000 instructions simulated : ctaid=(0,11,0) tid=(29,0,0)
GPGPU-Sim PTX: 4800000 instructions simulated : ctaid=(0,0,0) tid=(23,2,0)
GPGPU-Sim uArch: cycles simulated: 13000  inst.: 4372560 (ipc=336.4) sim_rate=174902 (inst/sec) elapsed = 0:0:00:25 / Tue Mar 22 07:38:57 2016
GPGPU-Sim PTX: 4900000 instructions simulated : ctaid=(3,1,0) tid=(1,2,0)
GPGPU-Sim PTX: 5000000 instructions simulated : ctaid=(0,7,0) tid=(30,3,0)
GPGPU-Sim PTX: 5100000 instructions simulated : ctaid=(2,6,0) tid=(3,0,0)
GPGPU-Sim PTX: 5200000 instructions simulated : ctaid=(1,16,0) tid=(13,2,0)
GPGPU-Sim PTX: 5300000 instructions simulated : ctaid=(0,4,0) tid=(23,2,0)
GPGPU-Sim uArch: cycles simulated: 14000  inst.: 4865706 (ipc=347.6) sim_rate=187142 (inst/sec) elapsed = 0:0:00:26 / Tue Mar 22 07:38:58 2016
GPGPU-Sim PTX: 5400000 instructions simulated : ctaid=(2,4,0) tid=(11,2,0)
GPGPU-Sim PTX: 5500000 instructions simulated : ctaid=(1,12,0) tid=(21,0,0)
GPGPU-Sim PTX: 5600000 instructions simulated : ctaid=(1,16,0) tid=(21,2,0)
GPGPU-Sim PTX: 5700000 instructions simulated : ctaid=(2,17,0) tid=(10,3,0)
GPGPU-Sim PTX: 5800000 instructions simulated : ctaid=(2,23,0) tid=(31,3,0)
GPGPU-Sim PTX: 5900000 instructions simulated : ctaid=(2,1,0) tid=(22,2,0)
GPGPU-Sim uArch: cycles simulated: 15000  inst.: 5306572 (ipc=353.8) sim_rate=196539 (inst/sec) elapsed = 0:0:00:27 / Tue Mar 22 07:38:59 2016
GPGPU-Sim PTX: 6000000 instructions simulated : ctaid=(0,17,0) tid=(29,0,0)
GPGPU-Sim PTX: 6100000 instructions simulated : ctaid=(0,4,0) tid=(15,3,0)
GPGPU-Sim PTX: 6200000 instructions simulated : ctaid=(2,2,0) tid=(2,0,0)
GPGPU-Sim uArch: cycles simulated: 15500  inst.: 5581320 (ipc=360.1) sim_rate=199332 (inst/sec) elapsed = 0:0:00:28 / Tue Mar 22 07:39:00 2016
GPGPU-Sim PTX: 6300000 instructions simulated : ctaid=(3,22,0) tid=(1,0,0)
GPGPU-Sim PTX: 6400000 instructions simulated : ctaid=(2,10,0) tid=(3,0,0)
GPGPU-Sim PTX: 6500000 instructions simulated : ctaid=(2,12,0) tid=(16,3,0)
GPGPU-Sim uArch: cycles simulated: 16500  inst.: 5904771 (ipc=357.9) sim_rate=203612 (inst/sec) elapsed = 0:0:00:29 / Tue Mar 22 07:39:01 2016
GPGPU-Sim PTX: 6600000 instructions simulated : ctaid=(0,23,0) tid=(11,0,0)
GPGPU-Sim PTX: 6700000 instructions simulated : ctaid=(0,8,0) tid=(21,0,0)
GPGPU-Sim PTX: 6800000 instructions simulated : ctaid=(1,17,0) tid=(15,0,0)
GPGPU-Sim PTX: 6900000 instructions simulated : ctaid=(1,14,0) tid=(13,3,0)
GPGPU-Sim uArch: cycles simulated: 17000  inst.: 6214435 (ipc=365.6) sim_rate=207147 (inst/sec) elapsed = 0:0:00:30 / Tue Mar 22 07:39:02 2016
GPGPU-Sim PTX: 7000000 instructions simulated : ctaid=(0,9,0) tid=(6,2,0)
GPGPU-Sim PTX: 7100000 instructions simulated : ctaid=(3,15,0) tid=(27,0,0)
GPGPU-Sim PTX: 7200000 instructions simulated : ctaid=(2,24,0) tid=(0,0,0)
GPGPU-Sim uArch: cycles simulated: 18000  inst.: 6550368 (ipc=363.9) sim_rate=211302 (inst/sec) elapsed = 0:0:00:31 / Tue Mar 22 07:39:03 2016
GPGPU-Sim PTX: 7300000 instructions simulated : ctaid=(1,2,0) tid=(27,0,0)
GPGPU-Sim PTX: 7400000 instructions simulated : ctaid=(1,5,0) tid=(6,1,0)
GPGPU-Sim PTX: 7500000 instructions simulated : ctaid=(1,10,0) tid=(31,3,0)
GPGPU-Sim PTX: 7600000 instructions simulated : ctaid=(2,24,0) tid=(15,1,0)
GPGPU-Sim PTX: 7700000 instructions simulated : ctaid=(3,9,0) tid=(19,3,0)
GPGPU-Sim PTX: 7800000 instructions simulated : ctaid=(1,12,0) tid=(13,0,0)
GPGPU-Sim PTX: 7900000 instructions simulated : ctaid=(2,10,0) tid=(15,2,0)
GPGPU-Sim uArch: cycles simulated: 19000  inst.: 7092505 (ipc=373.3) sim_rate=221640 (inst/sec) elapsed = 0:0:00:32 / Tue Mar 22 07:39:04 2016
GPGPU-Sim PTX: 8000000 instructions simulated : ctaid=(1,6,0) tid=(12,1,0)
GPGPU-Sim uArch: cycles simulated: 19500  inst.: 7236032 (ipc=371.1) sim_rate=219273 (inst/sec) elapsed = 0:0:00:33 / Tue Mar 22 07:39:05 2016
GPGPU-Sim PTX: 8100000 instructions simulated : ctaid=(1,3,0) tid=(10,2,0)
GPGPU-Sim PTX: 8200000 instructions simulated : ctaid=(3,14,0) tid=(0,1,0)
GPGPU-Sim PTX: 8300000 instructions simulated : ctaid=(1,22,0) tid=(29,2,0)
GPGPU-Sim PTX: 8400000 instructions simulated : ctaid=(0,10,0) tid=(27,0,0)
GPGPU-Sim PTX: 8500000 instructions simulated : ctaid=(2,23,0) tid=(23,0,0)
GPGPU-Sim PTX: 8600000 instructions simulated : ctaid=(2,15,0) tid=(13,0,0)
GPGPU-Sim uArch: cycles simulated: 20500  inst.: 7769408 (ipc=379.0) sim_rate=228512 (inst/sec) elapsed = 0:0:00:34 / Tue Mar 22 07:39:06 2016
GPGPU-Sim PTX: 8700000 instructions simulated : ctaid=(0,4,0) tid=(13,0,0)
GPGPU-Sim PTX: 8800000 instructions simulated : ctaid=(1,23,0) tid=(28,3,0)
GPGPU-Sim PTX: 8900000 instructions simulated : ctaid=(2,23,0) tid=(3,0,0)
GPGPU-Sim PTX: 9000000 instructions simulated : ctaid=(2,6,0) tid=(0,1,0)
GPGPU-Sim uArch: cycles simulated: 21500  inst.: 8120015 (ipc=377.7) sim_rate=232000 (inst/sec) elapsed = 0:0:00:35 / Tue Mar 22 07:39:07 2016
GPGPU-Sim PTX: 9100000 instructions simulated : ctaid=(2,1,0) tid=(11,3,0)
GPGPU-Sim PTX: 9200000 instructions simulated : ctaid=(1,0,0) tid=(16,1,0)
GPGPU-Sim PTX: 9300000 instructions simulated : ctaid=(2,15,0) tid=(28,1,0)
GPGPU-Sim uArch: cycles simulated: 22000  inst.: 8421421 (ipc=382.8) sim_rate=233928 (inst/sec) elapsed = 0:0:00:36 / Tue Mar 22 07:39:08 2016
GPGPU-Sim PTX: 9400000 instructions simulated : ctaid=(0,23,0) tid=(31,0,0)
GPGPU-Sim PTX: 9500000 instructions simulated : ctaid=(3,18,0) tid=(12,1,0)
GPGPU-Sim PTX: 9600000 instructions simulated : ctaid=(1,0,0) tid=(4,2,0)
GPGPU-Sim PTX: 9700000 instructions simulated : ctaid=(3,6,0) tid=(0,0,0)
GPGPU-Sim PTX: 9800000 instructions simulated : ctaid=(2,17,0) tid=(24,2,0)
GPGPU-Sim uArch: cycles simulated: 23000  inst.: 8792974 (ipc=382.3) sim_rate=237647 (inst/sec) elapsed = 0:0:00:37 / Tue Mar 22 07:39:09 2016
GPGPU-Sim PTX: 9900000 instructions simulated : ctaid=(1,11,0) tid=(30,0,0)
GPGPU-Sim PTX: 10000000 instructions simulated : ctaid=(0,8,0) tid=(20,2,0)
GPGPU-Sim PTX: 10100000 instructions simulated : ctaid=(2,16,0) tid=(20,1,0)
GPGPU-Sim PTX: 10200000 instructions simulated : ctaid=(0,11,0) tid=(12,3,0)
GPGPU-Sim PTX: 10300000 instructions simulated : ctaid=(1,15,0) tid=(3,2,0)
GPGPU-Sim PTX: 10400000 instructions simulated : ctaid=(0,21,0) tid=(20,1,0)
GPGPU-Sim uArch: cycles simulated: 24000  inst.: 9325956 (ipc=388.6) sim_rate=245419 (inst/sec) elapsed = 0:0:00:38 / Tue Mar 22 07:39:10 2016
GPGPU-Sim PTX: 10500000 instructions simulated : ctaid=(1,24,0) tid=(14,2,0)
GPGPU-Sim uArch: cycles simulated: 24500  inst.: 9458881 (ipc=386.1) sim_rate=242535 (inst/sec) elapsed = 0:0:00:39 / Tue Mar 22 07:39:11 2016
GPGPU-Sim PTX: 10600000 instructions simulated : ctaid=(0,8,0) tid=(24,0,0)
GPGPU-Sim PTX: 10700000 instructions simulated : ctaid=(2,12,0) tid=(25,1,0)
GPGPU-Sim PTX: 10800000 instructions simulated : ctaid=(2,4,0) tid=(16,1,0)
GPGPU-Sim PTX: 10900000 instructions simulated : ctaid=(1,9,0) tid=(29,0,0)
GPGPU-Sim PTX: 11000000 instructions simulated : ctaid=(0,21,0) tid=(22,2,0)
GPGPU-Sim PTX: 11100000 instructions simulated : ctaid=(0,19,0) tid=(27,1,0)
GPGPU-Sim uArch: cycles simulated: 25500  inst.: 9984215 (ipc=391.5) sim_rate=249605 (inst/sec) elapsed = 0:0:00:40 / Tue Mar 22 07:39:12 2016
GPGPU-Sim PTX: 11200000 instructions simulated : ctaid=(2,11,0) tid=(14,2,0)
GPGPU-Sim PTX: 11300000 instructions simulated : ctaid=(1,21,0) tid=(3,1,0)
GPGPU-Sim PTX: 11400000 instructions simulated : ctaid=(1,10,0) tid=(7,1,0)
GPGPU-Sim PTX: 11500000 instructions simulated : ctaid=(1,18,0) tid=(0,2,0)
GPGPU-Sim uArch: cycles simulated: 26500  inst.: 10336149 (ipc=390.0) sim_rate=252101 (inst/sec) elapsed = 0:0:00:41 / Tue Mar 22 07:39:13 2016
GPGPU-Sim PTX: 11600000 instructions simulated : ctaid=(1,13,0) tid=(21,0,0)
GPGPU-Sim PTX: 11700000 instructions simulated : ctaid=(2,3,0) tid=(26,3,0)
GPGPU-Sim PTX: 11800000 instructions simulated : ctaid=(1,5,0) tid=(13,0,0)
GPGPU-Sim uArch: cycles simulated: 27000  inst.: 10618961 (ipc=393.3) sim_rate=252832 (inst/sec) elapsed = 0:0:00:42 / Tue Mar 22 07:39:14 2016
GPGPU-Sim PTX: 11900000 instructions simulated : ctaid=(1,20,0) tid=(26,1,0)
GPGPU-Sim PTX: 12000000 instructions simulated : ctaid=(0,2,0) tid=(4,3,0)
GPGPU-Sim PTX: 12100000 instructions simulated : ctaid=(0,5,0) tid=(22,1,0)
GPGPU-Sim PTX: 12200000 instructions simulated : ctaid=(0,22,0) tid=(30,1,0)
GPGPU-Sim uArch: cycles simulated: 28000  inst.: 10987299 (ipc=392.4) sim_rate=255518 (inst/sec) elapsed = 0:0:00:43 / Tue Mar 22 07:39:15 2016
GPGPU-Sim PTX: 12300000 instructions simulated : ctaid=(1,1,0) tid=(23,3,0)
GPGPU-Sim PTX: 12400000 instructions simulated : ctaid=(2,10,0) tid=(22,1,0)
GPGPU-Sim PTX: 12500000 instructions simulated : ctaid=(2,4,0) tid=(1,2,0)
GPGPU-Sim PTX: 12600000 instructions simulated : ctaid=(2,11,0) tid=(19,0,0)
GPGPU-Sim PTX: 12700000 instructions simulated : ctaid=(3,21,0) tid=(13,3,0)
GPGPU-Sim PTX: 12800000 instructions simulated : ctaid=(0,9,0) tid=(13,3,0)
GPGPU-Sim uArch: cycles simulated: 29000  inst.: 11518218 (ipc=397.2) sim_rate=261777 (inst/sec) elapsed = 0:0:00:44 / Tue Mar 22 07:39:16 2016
GPGPU-Sim PTX: 12900000 instructions simulated : ctaid=(1,1,0) tid=(17,2,0)
GPGPU-Sim PTX: 13000000 instructions simulated : ctaid=(3,18,0) tid=(0,0,0)
GPGPU-Sim uArch: cycles simulated: 29500  inst.: 11697652 (ipc=396.5) sim_rate=259947 (inst/sec) elapsed = 0:0:00:45 / Tue Mar 22 07:39:17 2016
GPGPU-Sim PTX: 13100000 instructions simulated : ctaid=(0,20,0) tid=(29,1,0)
GPGPU-Sim PTX: 13200000 instructions simulated : ctaid=(2,13,0) tid=(4,1,0)
GPGPU-Sim PTX: 13300000 instructions simulated : ctaid=(1,9,0) tid=(19,3,0)
GPGPU-Sim PTX: 13400000 instructions simulated : ctaid=(1,1,0) tid=(12,3,0)
GPGPU-Sim PTX: 13500000 instructions simulated : ctaid=(2,17,0) tid=(12,0,0)
GPGPU-Sim PTX: 13600000 instructions simulated : ctaid=(0,10,0) tid=(19,1,0)
GPGPU-Sim uArch: cycles simulated: 30500  inst.: 12213596 (ipc=400.4) sim_rate=265512 (inst/sec) elapsed = 0:0:00:46 / Tue Mar 22 07:39:18 2016
GPGPU-Sim PTX: 13700000 instructions simulated : ctaid=(1,17,0) tid=(18,2,0)
GPGPU-Sim PTX: 13800000 instructions simulated : ctaid=(2,5,0) tid=(13,0,0)
GPGPU-Sim uArch: cycles simulated: 31000  inst.: 12413568 (ipc=400.4) sim_rate=264118 (inst/sec) elapsed = 0:0:00:47 / Tue Mar 22 07:39:19 2016
GPGPU-Sim PTX: 13900000 instructions simulated : ctaid=(0,19,0) tid=(29,3,0)
GPGPU-Sim PTX: 14000000 instructions simulated : ctaid=(0,21,0) tid=(21,2,0)
GPGPU-Sim PTX: 14100000 instructions simulated : ctaid=(1,15,0) tid=(11,1,0)
GPGPU-Sim PTX: 14200000 instructions simulated : ctaid=(3,12,0) tid=(3,3,0)
GPGPU-Sim PTX: 14300000 instructions simulated : ctaid=(1,9,0) tid=(4,1,0)
GPGPU-Sim PTX: 14400000 instructions simulated : ctaid=(1,22,0) tid=(24,1,0)
GPGPU-Sim uArch: cycles simulated: 32000  inst.: 12894727 (ipc=403.0) sim_rate=268640 (inst/sec) elapsed = 0:0:00:48 / Tue Mar 22 07:39:20 2016
GPGPU-Sim PTX: 14500000 instructions simulated : ctaid=(0,2,0) tid=(30,0,0)
GPGPU-Sim PTX: 14600000 instructions simulated : ctaid=(3,4,0) tid=(23,2,0)
GPGPU-Sim PTX: 14700000 instructions simulated : ctaid=(0,23,0) tid=(20,0,0)
GPGPU-Sim uArch: cycles simulated: 32500  inst.: 13163852 (ipc=405.0) sim_rate=268650 (inst/sec) elapsed = 0:0:00:49 / Tue Mar 22 07:39:21 2016
GPGPU-Sim PTX: 14800000 instructions simulated : ctaid=(1,15,0) tid=(12,1,0)
GPGPU-Sim PTX: 14900000 instructions simulated : ctaid=(2,14,0) tid=(18,0,0)
GPGPU-Sim PTX: 15000000 instructions simulated : ctaid=(0,8,0) tid=(26,0,0)
GPGPU-Sim PTX: 15100000 instructions simulated : ctaid=(1,10,0) tid=(19,2,0)
GPGPU-Sim uArch: cycles simulated: 33500  inst.: 13544718 (ipc=404.3) sim_rate=270894 (inst/sec) elapsed = 0:0:00:50 / Tue Mar 22 07:39:22 2016
GPGPU-Sim PTX: 15200000 instructions simulated : ctaid=(0,20,0) tid=(3,0,0)
GPGPU-Sim PTX: 15300000 instructions simulated : ctaid=(1,1,0) tid=(19,2,0)
GPGPU-Sim PTX: 15400000 instructions simulated : ctaid=(1,2,0) tid=(1,0,0)
GPGPU-Sim PTX: 15500000 instructions simulated : ctaid=(0,10,0) tid=(27,3,0)
GPGPU-Sim uArch: cycles simulated: 34000  inst.: 13847647 (ipc=407.3) sim_rate=271522 (inst/sec) elapsed = 0:0:00:51 / Tue Mar 22 07:39:23 2016
GPGPU-Sim PTX: 15600000 instructions simulated : ctaid=(0,15,0) tid=(5,1,0)
GPGPU-Sim PTX: 15700000 instructions simulated : ctaid=(2,14,0) tid=(1,0,0)
GPGPU-Sim PTX: 15800000 instructions simulated : ctaid=(1,12,0) tid=(31,1,0)
GPGPU-Sim PTX: 15900000 instructions simulated : ctaid=(1,2,0) tid=(27,0,0)
GPGPU-Sim uArch: cycles simulated: 35000  inst.: 14254894 (ipc=407.3) sim_rate=274132 (inst/sec) elapsed = 0:0:00:52 / Tue Mar 22 07:39:24 2016
GPGPU-Sim PTX: 16000000 instructions simulated : ctaid=(2,14,0) tid=(4,1,0)
GPGPU-Sim PTX: 16100000 instructions simulated : ctaid=(2,2,0) tid=(29,1,0)
GPGPU-Sim PTX: 16200000 instructions simulated : ctaid=(1,10,0) tid=(3,1,0)
GPGPU-Sim uArch: cycles simulated: 35500  inst.: 14539894 (ipc=409.6) sim_rate=274337 (inst/sec) elapsed = 0:0:00:53 / Tue Mar 22 07:39:25 2016
GPGPU-Sim PTX: 16300000 instructions simulated : ctaid=(2,23,0) tid=(30,1,0)
GPGPU-Sim PTX: 16400000 instructions simulated : ctaid=(1,20,0) tid=(22,1,0)
GPGPU-Sim PTX: 16500000 instructions simulated : ctaid=(1,14,0) tid=(11,0,0)
GPGPU-Sim PTX: 16600000 instructions simulated : ctaid=(0,5,0) tid=(30,2,0)
GPGPU-Sim PTX: 16700000 instructions simulated : ctaid=(0,16,0) tid=(16,3,0)
GPGPU-Sim uArch: cycles simulated: 36500  inst.: 14981225 (ipc=410.4) sim_rate=277430 (inst/sec) elapsed = 0:0:00:54 / Tue Mar 22 07:39:26 2016
GPGPU-Sim PTX: 16800000 instructions simulated : ctaid=(1,9,0) tid=(14,0,0)
GPGPU-Sim PTX: 16900000 instructions simulated : ctaid=(2,15,0) tid=(16,1,0)
GPGPU-Sim PTX: 17000000 instructions simulated : ctaid=(0,23,0) tid=(23,0,0)
GPGPU-Sim PTX: 17100000 instructions simulated : ctaid=(0,2,0) tid=(20,3,0)
GPGPU-Sim uArch: cycles simulated: 37000  inst.: 15266823 (ipc=412.6) sim_rate=277578 (inst/sec) elapsed = 0:0:00:55 / Tue Mar 22 07:39:27 2016
GPGPU-Sim PTX: 17200000 instructions simulated : ctaid=(1,19,0) tid=(22,0,0)
GPGPU-Sim PTX: 17300000 instructions simulated : ctaid=(2,6,0) tid=(17,2,0)
GPGPU-Sim uArch: cycles simulated: 37500  inst.: 15517188 (ipc=413.8) sim_rate=277092 (inst/sec) elapsed = 0:0:00:56 / Tue Mar 22 07:39:28 2016
GPGPU-Sim PTX: 17400000 instructions simulated : ctaid=(3,21,0) tid=(18,1,0)
GPGPU-Sim PTX: 17500000 instructions simulated : ctaid=(2,3,0) tid=(2,2,0)
GPGPU-Sim PTX: 17600000 instructions simulated : ctaid=(1,6,0) tid=(2,2,0)
GPGPU-Sim PTX: 17700000 instructions simulated : ctaid=(1,7,0) tid=(1,2,0)
GPGPU-Sim PTX: 17800000 instructions simulated : ctaid=(0,4,0) tid=(30,1,0)
GPGPU-Sim PTX: 17900000 instructions simulated : ctaid=(2,18,0) tid=(8,2,0)
GPGPU-Sim uArch: cycles simulated: 38500  inst.: 16015739 (ipc=416.0) sim_rate=280977 (inst/sec) elapsed = 0:0:00:57 / Tue Mar 22 07:39:29 2016
GPGPU-Sim PTX: 18000000 instructions simulated : ctaid=(3,13,0) tid=(26,0,0)
GPGPU-Sim PTX: 18100000 instructions simulated : ctaid=(1,17,0) tid=(5,1,0)
GPGPU-Sim PTX: 18200000 instructions simulated : ctaid=(0,21,0) tid=(0,1,0)
GPGPU-Sim uArch: cycles simulated: 39000  inst.: 16271016 (ipc=417.2) sim_rate=280534 (inst/sec) elapsed = 0:0:00:58 / Tue Mar 22 07:39:30 2016
GPGPU-Sim PTX: 18300000 instructions simulated : ctaid=(0,12,0) tid=(17,1,0)
GPGPU-Sim PTX: 18400000 instructions simulated : ctaid=(0,22,0) tid=(19,2,0)
GPGPU-Sim uArch: cycles simulated: 39500  inst.: 16461741 (ipc=416.8) sim_rate=279012 (inst/sec) elapsed = 0:0:00:59 / Tue Mar 22 07:39:31 2016
GPGPU-Sim PTX: 18500000 instructions simulated : ctaid=(1,8,0) tid=(15,0,0)
GPGPU-Sim PTX: 18600000 instructions simulated : ctaid=(2,10,0) tid=(8,2,0)
GPGPU-Sim PTX: 18700000 instructions simulated : ctaid=(2,16,0) tid=(17,3,0)
GPGPU-Sim PTX: 18800000 instructions simulated : ctaid=(3,3,0) tid=(21,1,0)
GPGPU-Sim PTX: 18900000 instructions simulated : ctaid=(0,20,0) tid=(11,3,0)
GPGPU-Sim PTX: 19000000 instructions simulated : ctaid=(2,3,0) tid=(6,3,0)
GPGPU-Sim uArch: cycles simulated: 40500  inst.: 17021749 (ipc=420.3) sim_rate=283695 (inst/sec) elapsed = 0:0:01:00 / Tue Mar 22 07:39:32 2016
GPGPU-Sim PTX: 19100000 instructions simulated : ctaid=(0,16,0) tid=(28,0,0)
GPGPU-Sim PTX: 19200000 instructions simulated : ctaid=(2,11,0) tid=(0,2,0)
GPGPU-Sim uArch: cycles simulated: 41000  inst.: 17208312 (ipc=419.7) sim_rate=282103 (inst/sec) elapsed = 0:0:01:01 / Tue Mar 22 07:39:33 2016
GPGPU-Sim PTX: 19300000 instructions simulated : ctaid=(3,9,0) tid=(4,2,0)
GPGPU-Sim PTX: 19400000 instructions simulated : ctaid=(0,17,0) tid=(9,1,0)
GPGPU-Sim PTX: 19500000 instructions simulated : ctaid=(2,16,0) tid=(1,1,0)
GPGPU-Sim uArch: cycles simulated: 41500  inst.: 17453871 (ipc=420.6) sim_rate=281514 (inst/sec) elapsed = 0:0:01:02 / Tue Mar 22 07:39:34 2016
GPGPU-Sim PTX: 19600000 instructions simulated : ctaid=(2,15,0) tid=(31,3,0)
GPGPU-Sim PTX: 19700000 instructions simulated : ctaid=(1,9,0) tid=(18,0,0)
GPGPU-Sim PTX: 19800000 instructions simulated : ctaid=(0,4,0) tid=(2,0,0)
GPGPU-Sim uArch: cycles simulated: 42000  inst.: 17743003 (ipc=422.5) sim_rate=281634 (inst/sec) elapsed = 0:0:01:03 / Tue Mar 22 07:39:35 2016
GPGPU-Sim PTX: 19900000 instructions simulated : ctaid=(1,20,0) tid=(19,1,0)
GPGPU-Sim PTX: 20000000 instructions simulated : ctaid=(1,8,0) tid=(24,2,0)
GPGPU-Sim PTX: 20100000 instructions simulated : ctaid=(2,3,0) tid=(3,2,0)
GPGPU-Sim PTX: 20200000 instructions simulated : ctaid=(1,21,0) tid=(28,0,0)
GPGPU-Sim PTX: 20300000 instructions simulated : ctaid=(1,13,0) tid=(18,2,0)
GPGPU-Sim uArch: cycles simulated: 43000  inst.: 18179162 (ipc=422.8) sim_rate=284049 (inst/sec) elapsed = 0:0:01:04 / Tue Mar 22 07:39:36 2016
GPGPU-Sim PTX: 20400000 instructions simulated : ctaid=(1,24,0) tid=(9,3,0)
GPGPU-Sim PTX: 20500000 instructions simulated : ctaid=(1,21,0) tid=(24,0,0)
GPGPU-Sim PTX: 20600000 instructions simulated : ctaid=(1,3,0) tid=(0,1,0)
GPGPU-Sim uArch: cycles simulated: 43500  inst.: 18455581 (ipc=424.3) sim_rate=283932 (inst/sec) elapsed = 0:0:01:05 / Tue Mar 22 07:39:37 2016
GPGPU-Sim PTX: 20700000 instructions simulated : ctaid=(0,23,0) tid=(18,1,0)
GPGPU-Sim PTX: 20800000 instructions simulated : ctaid=(1,8,0) tid=(31,0,0)
GPGPU-Sim PTX: 20900000 instructions simulated : ctaid=(3,1,0) tid=(15,0,0)
GPGPU-Sim uArch: cycles simulated: 44000  inst.: 18709337 (ipc=425.2) sim_rate=283474 (inst/sec) elapsed = 0:0:01:06 / Tue Mar 22 07:39:38 2016
GPGPU-Sim PTX: 21000000 instructions simulated : ctaid=(1,9,0) tid=(8,2,0)
GPGPU-Sim PTX: 21100000 instructions simulated : ctaid=(3,2,0) tid=(21,1,0)
GPGPU-Sim PTX: 21200000 instructions simulated : ctaid=(1,19,0) tid=(1,3,0)
GPGPU-Sim PTX: 21300000 instructions simulated : ctaid=(1,15,0) tid=(22,1,0)
GPGPU-Sim PTX: 21400000 instructions simulated : ctaid=(2,0,0) tid=(13,0,0)
GPGPU-Sim PTX: 21500000 instructions simulated : ctaid=(1,6,0) tid=(1,0,0)
GPGPU-Sim uArch: cycles simulated: 45000  inst.: 19179192 (ipc=426.2) sim_rate=286256 (inst/sec) elapsed = 0:0:01:07 / Tue Mar 22 07:39:39 2016
GPGPU-Sim PTX: 21600000 instructions simulated : ctaid=(2,0,0) tid=(1,1,0)
GPGPU-Sim PTX: 21700000 instructions simulated : ctaid=(1,1,0) tid=(13,1,0)
GPGPU-Sim PTX: 21800000 instructions simulated : ctaid=(2,15,0) tid=(19,1,0)
GPGPU-Sim uArch: cycles simulated: 45500  inst.: 19459993 (ipc=427.7) sim_rate=286176 (inst/sec) elapsed = 0:0:01:08 / Tue Mar 22 07:39:40 2016
GPGPU-Sim PTX: 21900000 instructions simulated : ctaid=(3,18,0) tid=(2,2,0)
GPGPU-Sim PTX: 22000000 instructions simulated : ctaid=(1,10,0) tid=(16,3,0)
GPGPU-Sim uArch: cycles simulated: 46000  inst.: 19668904 (ipc=427.6) sim_rate=285056 (inst/sec) elapsed = 0:0:01:09 / Tue Mar 22 07:39:41 2016
GPGPU-Sim PTX: 22100000 instructions simulated : ctaid=(1,23,0) tid=(14,1,0)
GPGPU-Sim PTX: 22200000 instructions simulated : ctaid=(0,22,0) tid=(22,0,0)
GPGPU-Sim PTX: 22300000 instructions simulated : ctaid=(1,8,0) tid=(20,0,0)
GPGPU-Sim PTX: 22400000 instructions simulated : ctaid=(1,3,0) tid=(10,2,0)
GPGPU-Sim PTX: 22500000 instructions simulated : ctaid=(2,5,0) tid=(15,2,0)
GPGPU-Sim PTX: 22600000 instructions simulated : ctaid=(1,13,0) tid=(14,0,0)
GPGPU-Sim uArch: cycles simulated: 47000  inst.: 20197421 (ipc=429.7) sim_rate=288534 (inst/sec) elapsed = 0:0:01:10 / Tue Mar 22 07:39:42 2016
GPGPU-Sim PTX: 22700000 instructions simulated : ctaid=(1,5,0) tid=(0,2,0)
GPGPU-Sim PTX: 22800000 instructions simulated : ctaid=(2,1,0) tid=(0,0,0)
GPGPU-Sim uArch: cycles simulated: 47500  inst.: 20413573 (ipc=429.8) sim_rate=287515 (inst/sec) elapsed = 0:0:01:11 / Tue Mar 22 07:39:43 2016
GPGPU-Sim PTX: 22900000 instructions simulated : ctaid=(2,22,0) tid=(28,2,0)
GPGPU-Sim PTX: 23000000 instructions simulated : ctaid=(2,22,0) tid=(23,2,0)
GPGPU-Sim PTX: 23100000 instructions simulated : ctaid=(0,12,0) tid=(28,2,0)
GPGPU-Sim uArch: cycles simulated: 48000  inst.: 20643604 (ipc=430.1) sim_rate=286716 (inst/sec) elapsed = 0:0:01:12 / Tue Mar 22 07:39:44 2016
GPGPU-Sim PTX: 23200000 instructions simulated : ctaid=(2,5,0) tid=(7,2,0)
GPGPU-Sim PTX: 23300000 instructions simulated : ctaid=(1,20,0) tid=(19,2,0)
GPGPU-Sim PTX: 23400000 instructions simulated : ctaid=(2,18,0) tid=(9,3,0)
GPGPU-Sim uArch: cycles simulated: 48500  inst.: 20926149 (ipc=431.5) sim_rate=286659 (inst/sec) elapsed = 0:0:01:13 / Tue Mar 22 07:39:45 2016
GPGPU-Sim PTX: 23500000 instructions simulated : ctaid=(2,20,0) tid=(5,2,0)
GPGPU-Sim PTX: 23600000 instructions simulated : ctaid=(0,20,0) tid=(6,0,0)
GPGPU-Sim PTX: 23700000 instructions simulated : ctaid=(2,19,0) tid=(18,2,0)
GPGPU-Sim PTX: 23800000 instructions simulated : ctaid=(1,10,0) tid=(10,0,0)
GPGPU-Sim PTX: 23900000 instructions simulated : ctaid=(1,12,0) tid=(30,0,0)
GPGPU-Sim uArch: cycles simulated: 49500  inst.: 21328245 (ipc=430.9) sim_rate=288219 (inst/sec) elapsed = 0:0:01:14 / Tue Mar 22 07:39:46 2016
GPGPU-Sim PTX: 24000000 instructions simulated : ctaid=(2,8,0) tid=(26,2,0)
GPGPU-Sim PTX: 24100000 instructions simulated : ctaid=(2,11,0) tid=(4,2,0)
GPGPU-Sim PTX: 24200000 instructions simulated : ctaid=(0,18,0) tid=(30,1,0)
GPGPU-Sim uArch: cycles simulated: 50000  inst.: 21595951 (ipc=431.9) sim_rate=287946 (inst/sec) elapsed = 0:0:01:15 / Tue Mar 22 07:39:47 2016
GPGPU-Sim PTX: 24300000 instructions simulated : ctaid=(0,6,0) tid=(9,0,0)
GPGPU-Sim PTX: 24400000 instructions simulated : ctaid=(0,10,0) tid=(22,1,0)
GPGPU-Sim PTX: 24500000 instructions simulated : ctaid=(1,23,0) tid=(17,0,0)
GPGPU-Sim uArch: cycles simulated: 50500  inst.: 21864924 (ipc=433.0) sim_rate=287696 (inst/sec) elapsed = 0:0:01:16 / Tue Mar 22 07:39:48 2016
GPGPU-Sim PTX: 24600000 instructions simulated : ctaid=(0,1,0) tid=(28,1,0)
GPGPU-Sim PTX: 24700000 instructions simulated : ctaid=(2,0,0) tid=(26,0,0)
GPGPU-Sim PTX: 24800000 instructions simulated : ctaid=(1,14,0) tid=(1,1,0)
GPGPU-Sim PTX: 24900000 instructions simulated : ctaid=(1,9,0) tid=(16,3,0)
GPGPU-Sim PTX: 25000000 instructions simulated : ctaid=(0,12,0) tid=(9,1,0)
GPGPU-Sim uArch: cycles simulated: 51500  inst.: 22311111 (ipc=433.2) sim_rate=289754 (inst/sec) elapsed = 0:0:01:17 / Tue Mar 22 07:39:49 2016
GPGPU-Sim PTX: 25100000 instructions simulated : ctaid=(1,4,0) tid=(31,0,0)
GPGPU-Sim PTX: 25200000 instructions simulated : ctaid=(2,7,0) tid=(6,1,0)
GPGPU-Sim PTX: 25300000 instructions simulated : ctaid=(0,5,0) tid=(0,2,0)
GPGPU-Sim uArch: cycles simulated: 52000  inst.: 22602982 (ipc=434.7) sim_rate=289781 (inst/sec) elapsed = 0:0:01:18 / Tue Mar 22 07:39:50 2016
GPGPU-Sim PTX: 25400000 instructions simulated : ctaid=(1,0,0) tid=(17,1,0)
GPGPU-Sim PTX: 25500000 instructions simulated : ctaid=(1,24,0) tid=(19,1,0)
GPGPU-Sim PTX: 25600000 instructions simulated : ctaid=(1,8,0) tid=(8,1,0)
GPGPU-Sim PTX: 25700000 instructions simulated : ctaid=(1,10,0) tid=(16,1,0)
GPGPU-Sim PTX: 25800000 instructions simulated : ctaid=(2,10,0) tid=(0,3,0)
GPGPU-Sim uArch: cycles simulated: 53000  inst.: 23012222 (ipc=434.2) sim_rate=291293 (inst/sec) elapsed = 0:0:01:19 / Tue Mar 22 07:39:51 2016
GPGPU-Sim PTX: 25900000 instructions simulated : ctaid=(0,7,0) tid=(21,3,0)
GPGPU-Sim PTX: 26000000 instructions simulated : ctaid=(2,13,0) tid=(29,1,0)
GPGPU-Sim PTX: 26100000 instructions simulated : ctaid=(1,19,0) tid=(31,3,0)
GPGPU-Sim uArch: cycles simulated: 53500  inst.: 23304917 (ipc=435.6) sim_rate=291311 (inst/sec) elapsed = 0:0:01:20 / Tue Mar 22 07:39:52 2016
GPGPU-Sim PTX: 26200000 instructions simulated : ctaid=(1,22,0) tid=(21,0,0)
GPGPU-Sim PTX: 26300000 instructions simulated : ctaid=(0,11,0) tid=(26,3,0)
GPGPU-Sim uArch: cycles simulated: 54000  inst.: 23504990 (ipc=435.3) sim_rate=290185 (inst/sec) elapsed = 0:0:01:21 / Tue Mar 22 07:39:53 2016
GPGPU-Sim PTX: 26400000 instructions simulated : ctaid=(0,16,0) tid=(20,1,0)
GPGPU-Sim PTX: 26500000 instructions simulated : ctaid=(1,18,0) tid=(16,2,0)
GPGPU-Sim PTX: 26600000 instructions simulated : ctaid=(2,20,0) tid=(4,0,0)
GPGPU-Sim PTX: 26700000 instructions simulated : ctaid=(0,10,0) tid=(6,1,0)
GPGPU-Sim PTX: 26800000 instructions simulated : ctaid=(0,13,0) tid=(25,0,0)
GPGPU-Sim PTX: 26900000 instructions simulated : ctaid=(2,1,0) tid=(26,3,0)
GPGPU-Sim uArch: cycles simulated: 55000  inst.: 24020055 (ipc=436.7) sim_rate=292927 (inst/sec) elapsed = 0:0:01:22 / Tue Mar 22 07:39:54 2016
GPGPU-Sim PTX: 27000000 instructions simulated : ctaid=(2,20,0) tid=(22,2,0)
GPGPU-Sim PTX: 27100000 instructions simulated : ctaid=(1,21,0) tid=(24,1,0)
GPGPU-Sim PTX: 27200000 instructions simulated : ctaid=(0,14,0) tid=(26,3,0)
GPGPU-Sim uArch: cycles simulated: 55500  inst.: 24260172 (ipc=437.1) sim_rate=292291 (inst/sec) elapsed = 0:0:01:23 / Tue Mar 22 07:39:55 2016
GPGPU-Sim PTX: 27300000 instructions simulated : ctaid=(0,6,0) tid=(0,1,0)
GPGPU-Sim PTX: 27400000 instructions simulated : ctaid=(0,10,0) tid=(31,2,0)
GPGPU-Sim uArch: cycles simulated: 56000  inst.: 24477780 (ipc=437.1) sim_rate=291402 (inst/sec) elapsed = 0:0:01:24 / Tue Mar 22 07:39:56 2016
GPGPU-Sim PTX: 27500000 instructions simulated : ctaid=(2,19,0) tid=(12,3,0)
GPGPU-Sim PTX: 27600000 instructions simulated : ctaid=(2,6,0) tid=(7,2,0)
GPGPU-Sim PTX: 27700000 instructions simulated : ctaid=(0,18,0) tid=(1,2,0)
GPGPU-Sim uArch: cycles simulated: 56500  inst.: 24759913 (ipc=438.2) sim_rate=291293 (inst/sec) elapsed = 0:0:01:25 / Tue Mar 22 07:39:57 2016
GPGPU-Sim PTX: 27800000 instructions simulated : ctaid=(0,6,0) tid=(12,1,0)
GPGPU-Sim PTX: 27900000 instructions simulated : ctaid=(1,10,0) tid=(16,1,0)
GPGPU-Sim PTX: 28000000 instructions simulated : ctaid=(0,18,0) tid=(6,0,0)
GPGPU-Sim PTX: 28100000 instructions simulated : ctaid=(0,17,0) tid=(12,1,0)
GPGPU-Sim PTX: 28200000 instructions simulated : ctaid=(0,22,0) tid=(12,1,0)
GPGPU-Sim PTX: 28300000 instructions simulated : ctaid=(3,7,0) tid=(23,3,0)
GPGPU-Sim uArch: cycles simulated: 57500  inst.: 25226805 (ipc=438.7) sim_rate=293334 (inst/sec) elapsed = 0:0:01:26 / Tue Mar 22 07:39:58 2016
GPGPU-Sim PTX: 28400000 instructions simulated : ctaid=(1,7,0) tid=(5,2,0)
GPGPU-Sim PTX: 28500000 instructions simulated : ctaid=(0,9,0) tid=(20,1,0)
GPGPU-Sim PTX: 28600000 instructions simulated : ctaid=(3,23,0) tid=(21,0,0)
GPGPU-Sim uArch: cycles simulated: 58000  inst.: 25492666 (ipc=439.5) sim_rate=293019 (inst/sec) elapsed = 0:0:01:27 / Tue Mar 22 07:39:59 2016
GPGPU-Sim PTX: 28700000 instructions simulated : ctaid=(0,5,0) tid=(21,1,0)
GPGPU-Sim PTX: 28800000 instructions simulated : ctaid=(0,22,0) tid=(26,0,0)
GPGPU-Sim PTX: 28900000 instructions simulated : ctaid=(0,15,0) tid=(19,1,0)
GPGPU-Sim uArch: cycles simulated: 58500  inst.: 25784289 (ipc=440.8) sim_rate=293003 (inst/sec) elapsed = 0:0:01:28 / Tue Mar 22 07:40:00 2016
GPGPU-Sim PTX: 29000000 instructions simulated : ctaid=(0,17,0) tid=(1,3,0)
GPGPU-Sim PTX: 29100000 instructions simulated : ctaid=(2,19,0) tid=(16,1,0)
GPGPU-Sim PTX: 29200000 instructions simulated : ctaid=(2,7,0) tid=(2,3,0)
GPGPU-Sim PTX: 29300000 instructions simulated : ctaid=(0,1,0) tid=(5,1,0)
GPGPU-Sim PTX: 29400000 instructions simulated : ctaid=(2,18,0) tid=(9,0,0)
GPGPU-Sim uArch: cycles simulated: 59500  inst.: 26240947 (ipc=441.0) sim_rate=294842 (inst/sec) elapsed = 0:0:01:29 / Tue Mar 22 07:40:01 2016
GPGPU-Sim PTX: 29500000 instructions simulated : ctaid=(0,13,0) tid=(14,2,0)
GPGPU-Sim PTX: 29600000 instructions simulated : ctaid=(3,11,0) tid=(23,0,0)
GPGPU-Sim PTX: 29700000 instructions simulated : ctaid=(0,13,0) tid=(17,2,0)
GPGPU-Sim uArch: cycles simulated: 60000  inst.: 26539109 (ipc=442.3) sim_rate=294878 (inst/sec) elapsed = 0:0:01:30 / Tue Mar 22 07:40:02 2016
GPGPU-Sim PTX: 29800000 instructions simulated : ctaid=(3,22,0) tid=(3,2,0)
GPGPU-Sim PTX: 29900000 instructions simulated : ctaid=(0,6,0) tid=(8,0,0)
GPGPU-Sim uArch: cycles simulated: 60500  inst.: 26707495 (ipc=441.4) sim_rate=293488 (inst/sec) elapsed = 0:0:01:31 / Tue Mar 22 07:40:03 2016
GPGPU-Sim PTX: 30000000 instructions simulated : ctaid=(2,13,0) tid=(13,1,0)
GPGPU-Sim PTX: 30100000 instructions simulated : ctaid=(0,14,0) tid=(0,3,0)
GPGPU-Sim PTX: 30200000 instructions simulated : ctaid=(2,20,0) tid=(29,3,0)
GPGPU-Sim PTX: 30300000 instructions simulated : ctaid=(1,11,0) tid=(25,1,0)
GPGPU-Sim PTX: 30400000 instructions simulated : ctaid=(1,10,0) tid=(25,1,0)
GPGPU-Sim PTX: 30500000 instructions simulated : ctaid=(1,0,0) tid=(28,3,0)
GPGPU-Sim uArch: cycles simulated: 61500  inst.: 27261775 (ipc=443.3) sim_rate=296323 (inst/sec) elapsed = 0:0:01:32 / Tue Mar 22 07:40:04 2016
GPGPU-Sim PTX: 30600000 instructions simulated : ctaid=(0,20,0) tid=(8,1,0)
GPGPU-Sim PTX: 30700000 instructions simulated : ctaid=(3,16,0) tid=(0,0,0)
GPGPU-Sim uArch: cycles simulated: 62000  inst.: 27432923 (ipc=442.5) sim_rate=294977 (inst/sec) elapsed = 0:0:01:33 / Tue Mar 22 07:40:05 2016
GPGPU-Sim PTX: 30800000 instructions simulated : ctaid=(0,4,0) tid=(9,3,0)
GPGPU-Sim PTX: 30900000 instructions simulated : ctaid=(1,0,0) tid=(23,1,0)
GPGPU-Sim PTX: 31000000 instructions simulated : ctaid=(0,15,0) tid=(17,2,0)
GPGPU-Sim uArch: cycles simulated: 62500  inst.: 27663740 (ipc=442.6) sim_rate=294295 (inst/sec) elapsed = 0:0:01:34 / Tue Mar 22 07:40:06 2016
GPGPU-Sim PTX: 31100000 instructions simulated : ctaid=(2,24,0) tid=(21,0,0)
GPGPU-Sim PTX: 31200000 instructions simulated : ctaid=(0,6,0) tid=(18,3,0)
GPGPU-Sim PTX: 31300000 instructions simulated : ctaid=(0,17,0) tid=(9,3,0)
GPGPU-Sim PTX: 31400000 instructions simulated : ctaid=(0,24,0) tid=(17,2,0)
GPGPU-Sim PTX: 31500000 instructions simulated : ctaid=(0,20,0) tid=(9,1,0)
GPGPU-Sim PTX: 31600000 instructions simulated : ctaid=(0,4,0) tid=(25,1,0)
GPGPU-Sim uArch: cycles simulated: 63500  inst.: 28167216 (ipc=443.6) sim_rate=296497 (inst/sec) elapsed = 0:0:01:35 / Tue Mar 22 07:40:07 2016
GPGPU-Sim PTX: 31700000 instructions simulated : ctaid=(1,9,0) tid=(10,2,0)
GPGPU-Sim PTX: 31800000 instructions simulated : ctaid=(3,18,0) tid=(20,1,0)
GPGPU-Sim uArch: cycles simulated: 64000  inst.: 28358848 (ipc=443.1) sim_rate=295404 (inst/sec) elapsed = 0:0:01:36 / Tue Mar 22 07:40:08 2016
GPGPU-Sim PTX: 31900000 instructions simulated : ctaid=(2,13,0) tid=(17,2,0)
GPGPU-Sim PTX: 32000000 instructions simulated : ctaid=(2,20,0) tid=(13,2,0)
GPGPU-Sim PTX: 32100000 instructions simulated : ctaid=(0,10,0) tid=(3,0,0)
GPGPU-Sim PTX: 32200000 instructions simulated : ctaid=(0,13,0) tid=(20,3,0)
GPGPU-Sim PTX: 32300000 instructions simulated : ctaid=(1,7,0) tid=(19,1,0)
GPGPU-Sim PTX: 32400000 instructions simulated : ctaid=(1,22,0) tid=(12,0,0)
GPGPU-Sim uArch: cycles simulated: 65000  inst.: 28900150 (ipc=444.6) sim_rate=297939 (inst/sec) elapsed = 0:0:01:37 / Tue Mar 22 07:40:09 2016
GPGPU-Sim PTX: 32500000 instructions simulated : ctaid=(2,14,0) tid=(0,3,0)
GPGPU-Sim PTX: 32600000 instructions simulated : ctaid=(2,14,0) tid=(13,1,0)
GPGPU-Sim uArch: cycles simulated: 65500  inst.: 29062164 (ipc=443.7) sim_rate=296552 (inst/sec) elapsed = 0:0:01:38 / Tue Mar 22 07:40:10 2016
GPGPU-Sim PTX: 32700000 instructions simulated : ctaid=(2,7,0) tid=(22,2,0)
GPGPU-Sim PTX: 32800000 instructions simulated : ctaid=(2,9,0) tid=(4,2,0)
GPGPU-Sim PTX: 32900000 instructions simulated : ctaid=(2,1,0) tid=(10,2,0)
GPGPU-Sim uArch: cycles simulated: 66000  inst.: 29348848 (ipc=444.7) sim_rate=296453 (inst/sec) elapsed = 0:0:01:39 / Tue Mar 22 07:40:11 2016
GPGPU-Sim PTX: 33000000 instructions simulated : ctaid=(0,15,0) tid=(14,0,0)
GPGPU-Sim PTX: 33100000 instructions simulated : ctaid=(0,16,0) tid=(4,3,0)
GPGPU-Sim PTX: 33200000 instructions simulated : ctaid=(0,4,0) tid=(22,0,0)
GPGPU-Sim PTX: 33300000 instructions simulated : ctaid=(2,6,0) tid=(25,0,0)
GPGPU-Sim PTX: 33400000 instructions simulated : ctaid=(1,13,0) tid=(18,1,0)
GPGPU-Sim uArch: cycles simulated: 67000  inst.: 29784971 (ipc=444.6) sim_rate=297849 (inst/sec) elapsed = 0:0:01:40 / Tue Mar 22 07:40:12 2016
GPGPU-Sim PTX: 33500000 instructions simulated : ctaid=(1,7,0) tid=(10,0,0)
GPGPU-Sim PTX: 33600000 instructions simulated : ctaid=(2,14,0) tid=(13,0,0)
GPGPU-Sim PTX: 33700000 instructions simulated : ctaid=(1,8,0) tid=(13,2,0)
GPGPU-Sim uArch: cycles simulated: 67500  inst.: 30056004 (ipc=445.3) sim_rate=297584 (inst/sec) elapsed = 0:0:01:41 / Tue Mar 22 07:40:13 2016
GPGPU-Sim PTX: 33800000 instructions simulated : ctaid=(0,22,0) tid=(22,2,0)
GPGPU-Sim PTX: 33900000 instructions simulated : ctaid=(2,0,0) tid=(17,2,0)
GPGPU-Sim PTX: 34000000 instructions simulated : ctaid=(2,8,0) tid=(17,2,0)
GPGPU-Sim uArch: cycles simulated: 68000  inst.: 30342793 (ipc=446.2) sim_rate=297478 (inst/sec) elapsed = 0:0:01:42 / Tue Mar 22 07:40:14 2016
GPGPU-Sim PTX: 34100000 instructions simulated : ctaid=(2,6,0) tid=(16,3,0)
GPGPU-Sim PTX: 34200000 instructions simulated : ctaid=(0,11,0) tid=(21,3,0)
GPGPU-Sim PTX: 34300000 instructions simulated : ctaid=(1,23,0) tid=(2,2,0)
GPGPU-Sim PTX: 34400000 instructions simulated : ctaid=(1,24,0) tid=(20,0,0)
GPGPU-Sim PTX: 34500000 instructions simulated : ctaid=(2,19,0) tid=(22,2,0)
GPGPU-Sim uArch: cycles simulated: 69000  inst.: 30772478 (ipc=446.0) sim_rate=298761 (inst/sec) elapsed = 0:0:01:43 / Tue Mar 22 07:40:15 2016
GPGPU-Sim PTX: 34600000 instructions simulated : ctaid=(3,20,0) tid=(28,0,0)
GPGPU-Sim PTX: 34700000 instructions simulated : ctaid=(2,5,0) tid=(27,1,0)
GPGPU-Sim PTX: 34800000 instructions simulated : ctaid=(2,0,0) tid=(28,2,0)
GPGPU-Sim uArch: cycles simulated: 69500  inst.: 31066779 (ipc=447.0) sim_rate=298719 (inst/sec) elapsed = 0:0:01:44 / Tue Mar 22 07:40:16 2016
GPGPU-Sim PTX: 34900000 instructions simulated : ctaid=(1,0,0) tid=(25,0,0)
GPGPU-Sim PTX: 35000000 instructions simulated : ctaid=(1,10,0) tid=(14,3,0)
GPGPU-Sim PTX: 35100000 instructions simulated : ctaid=(0,20,0) tid=(6,1,0)
GPGPU-Sim PTX: 35200000 instructions simulated : ctaid=(3,11,0) tid=(1,1,0)
GPGPU-Sim PTX: 35300000 instructions simulated : ctaid=(3,14,0) tid=(0,0,0)
GPGPU-Sim uArch: cycles simulated: 70500  inst.: 31497470 (ipc=446.8) sim_rate=299975 (inst/sec) elapsed = 0:0:01:45 / Tue Mar 22 07:40:17 2016
GPGPU-Sim PTX: 35400000 instructions simulated : ctaid=(2,14,0) tid=(4,1,0)
GPGPU-Sim PTX: 35500000 instructions simulated : ctaid=(2,2,0) tid=(18,1,0)
GPGPU-Sim PTX: 35600000 instructions simulated : ctaid=(0,7,0) tid=(7,2,0)
GPGPU-Sim uArch: cycles simulated: 71000  inst.: 31784087 (ipc=447.7) sim_rate=299849 (inst/sec) elapsed = 0:0:01:46 / Tue Mar 22 07:40:18 2016
GPGPU-Sim PTX: 35700000 instructions simulated : ctaid=(3,20,0) tid=(28,0,0)
GPGPU-Sim PTX: 35800000 instructions simulated : ctaid=(2,0,0) tid=(6,0,0)
GPGPU-Sim PTX: 35900000 instructions simulated : ctaid=(1,24,0) tid=(25,1,0)
GPGPU-Sim uArch: cycles simulated: 71500  inst.: 32011773 (ipc=447.7) sim_rate=299175 (inst/sec) elapsed = 0:0:01:47 / Tue Mar 22 07:40:19 2016
GPGPU-Sim PTX: 36000000 instructions simulated : ctaid=(1,7,0) tid=(13,0,0)
GPGPU-Sim PTX: 36100000 instructions simulated : ctaid=(0,13,0) tid=(20,1,0)
GPGPU-Sim PTX: 36200000 instructions simulated : ctaid=(1,3,0) tid=(1,1,0)
GPGPU-Sim PTX: 36300000 instructions simulated : ctaid=(3,9,0) tid=(6,2,0)
GPGPU-Sim PTX: 36400000 instructions simulated : ctaid=(2,13,0) tid=(25,2,0)
GPGPU-Sim PTX: 36500000 instructions simulated : ctaid=(0,18,0) tid=(9,1,0)
GPGPU-Sim uArch: cycles simulated: 72500  inst.: 32529419 (ipc=448.7) sim_rate=301198 (inst/sec) elapsed = 0:0:01:48 / Tue Mar 22 07:40:20 2016
GPGPU-Sim PTX: 36600000 instructions simulated : ctaid=(2,9,0) tid=(11,1,0)
GPGPU-Sim PTX: 36700000 instructions simulated : ctaid=(2,19,0) tid=(0,2,0)
GPGPU-Sim uArch: cycles simulated: 73000  inst.: 32774845 (ipc=449.0) sim_rate=300686 (inst/sec) elapsed = 0:0:01:49 / Tue Mar 22 07:40:21 2016
GPGPU-Sim PTX: 36800000 instructions simulated : ctaid=(2,13,0) tid=(23,1,0)
GPGPU-Sim PTX: 36900000 instructions simulated : ctaid=(2,16,0) tid=(12,0,0)
GPGPU-Sim PTX: 37000000 instructions simulated : ctaid=(2,7,0) tid=(31,1,0)
GPGPU-Sim uArch: cycles simulated: 73500  inst.: 32990501 (ipc=448.9) sim_rate=299913 (inst/sec) elapsed = 0:0:01:50 / Tue Mar 22 07:40:22 2016
GPGPU-Sim PTX: 37100000 instructions simulated : ctaid=(1,4,0) tid=(18,0,0)
GPGPU-Sim PTX: 37200000 instructions simulated : ctaid=(1,1,0) tid=(1,2,0)
GPGPU-Sim PTX: 37300000 instructions simulated : ctaid=(2,22,0) tid=(21,2,0)
GPGPU-Sim PTX: 37400000 instructions simulated : ctaid=(2,8,0) tid=(26,3,0)
GPGPU-Sim PTX: 37500000 instructions simulated : ctaid=(1,23,0) tid=(7,3,0)
GPGPU-Sim PTX: 37600000 instructions simulated : ctaid=(0,18,0) tid=(16,3,0)
GPGPU-Sim uArch: cycles simulated: 74500  inst.: 33535717 (ipc=450.1) sim_rate=302123 (inst/sec) elapsed = 0:0:01:51 / Tue Mar 22 07:40:23 2016
GPGPU-Sim PTX: 37700000 instructions simulated : ctaid=(2,2,0) tid=(13,1,0)
GPGPU-Sim PTX: 37800000 instructions simulated : ctaid=(0,14,0) tid=(24,0,0)
GPGPU-Sim uArch: cycles simulated: 75000  inst.: 33719931 (ipc=449.6) sim_rate=301070 (inst/sec) elapsed = 0:0:01:52 / Tue Mar 22 07:40:24 2016
GPGPU-Sim PTX: 37900000 instructions simulated : ctaid=(3,13,0) tid=(2,0,0)
GPGPU-Sim PTX: 38000000 instructions simulated : ctaid=(0,17,0) tid=(25,0,0)
GPGPU-Sim PTX: 38100000 instructions simulated : ctaid=(2,24,0) tid=(30,0,0)
GPGPU-Sim uArch: cycles simulated: 75500  inst.: 34000092 (ipc=450.3) sim_rate=300885 (inst/sec) elapsed = 0:0:01:53 / Tue Mar 22 07:40:25 2016
GPGPU-Sim PTX: 38200000 instructions simulated : ctaid=(1,4,0) tid=(15,0,0)
GPGPU-Sim PTX: 38300000 instructions simulated : ctaid=(1,12,0) tid=(1,2,0)
GPGPU-Sim PTX: 38400000 instructions simulated : ctaid=(0,5,0) tid=(1,2,0)
GPGPU-Sim PTX: 38500000 instructions simulated : ctaid=(0,8,0) tid=(31,3,0)
GPGPU-Sim PTX: 38600000 instructions simulated : ctaid=(0,14,0) tid=(18,1,0)
GPGPU-Sim uArch: cycles simulated: 76500  inst.: 34455293 (ipc=450.4) sim_rate=302239 (inst/sec) elapsed = 0:0:01:54 / Tue Mar 22 07:40:26 2016
GPGPU-Sim PTX: 38700000 instructions simulated : ctaid=(2,13,0) tid=(16,1,0)
GPGPU-Sim PTX: 38800000 instructions simulated : ctaid=(2,18,0) tid=(20,2,0)
GPGPU-Sim PTX: 38900000 instructions simulated : ctaid=(2,18,0) tid=(21,2,0)
GPGPU-Sim uArch: cycles simulated: 77000  inst.: 34727446 (ipc=451.0) sim_rate=301977 (inst/sec) elapsed = 0:0:01:55 / Tue Mar 22 07:40:27 2016
GPGPU-Sim PTX: 39000000 instructions simulated : ctaid=(0,23,0) tid=(21,1,0)
GPGPU-Sim PTX: 39100000 instructions simulated : ctaid=(0,3,0) tid=(1,3,0)
GPGPU-Sim PTX: 39200000 instructions simulated : ctaid=(1,4,0) tid=(26,0,0)
GPGPU-Sim PTX: 39300000 instructions simulated : ctaid=(0,5,0) tid=(4,3,0)
GPGPU-Sim PTX: 39400000 instructions simulated : ctaid=(1,14,0) tid=(22,1,0)
GPGPU-Sim uArch: cycles simulated: 78000  inst.: 35169066 (ipc=450.9) sim_rate=303181 (inst/sec) elapsed = 0:0:01:56 / Tue Mar 22 07:40:28 2016
GPGPU-Sim PTX: 39500000 instructions simulated : ctaid=(1,6,0) tid=(11,0,0)
GPGPU-Sim PTX: 39600000 instructions simulated : ctaid=(0,18,0) tid=(9,3,0)
GPGPU-Sim PTX: 39700000 instructions simulated : ctaid=(2,19,0) tid=(14,1,0)
GPGPU-Sim uArch: cycles simulated: 78500  inst.: 35429574 (ipc=451.3) sim_rate=302816 (inst/sec) elapsed = 0:0:01:57 / Tue Mar 22 07:40:29 2016
GPGPU-Sim PTX: 39800000 instructions simulated : ctaid=(1,10,0) tid=(21,1,0)
GPGPU-Sim PTX: 39900000 instructions simulated : ctaid=(2,0,0) tid=(29,1,0)
GPGPU-Sim PTX: 40000000 instructions simulated : ctaid=(3,0,0) tid=(1,3,0)
GPGPU-Sim PTX: 40100000 instructions simulated : ctaid=(2,2,0) tid=(10,2,0)
GPGPU-Sim uArch: cycles simulated: 79000  inst.: 35729472 (ipc=452.3) sim_rate=302792 (inst/sec) elapsed = 0:0:01:58 / Tue Mar 22 07:40:30 2016
GPGPU-Sim PTX: 40200000 instructions simulated : ctaid=(0,9,0) tid=(18,3,0)
GPGPU-Sim PTX: 40300000 instructions simulated : ctaid=(2,20,0) tid=(8,2,0)
GPGPU-Sim PTX: 40400000 instructions simulated : ctaid=(2,11,0) tid=(6,0,0)
GPGPU-Sim PTX: 40500000 instructions simulated : ctaid=(1,11,0) tid=(9,1,0)
GPGPU-Sim uArch: cycles simulated: 80000  inst.: 36152663 (ipc=451.9) sim_rate=303803 (inst/sec) elapsed = 0:0:01:59 / Tue Mar 22 07:40:31 2016
GPGPU-Sim PTX: 40600000 instructions simulated : ctaid=(2,0,0) tid=(18,1,0)
GPGPU-Sim PTX: 40700000 instructions simulated : ctaid=(1,5,0) tid=(4,0,0)
GPGPU-Sim PTX: 40800000 instructions simulated : ctaid=(0,13,0) tid=(16,0,0)
GPGPU-Sim PTX: 40900000 instructions simulated : ctaid=(1,19,0) tid=(29,2,0)
GPGPU-Sim uArch: cycles simulated: 80500  inst.: 36455252 (ipc=452.9) sim_rate=303793 (inst/sec) elapsed = 0:0:02:00 / Tue Mar 22 07:40:32 2016
GPGPU-Sim PTX: 41000000 instructions simulated : ctaid=(1,22,0) tid=(8,2,0)
GPGPU-Sim PTX: 41100000 instructions simulated : ctaid=(2,24,0) tid=(7,2,0)
GPGPU-Sim uArch: cycles simulated: 81000  inst.: 36670532 (ipc=452.7) sim_rate=303062 (inst/sec) elapsed = 0:0:02:01 / Tue Mar 22 07:40:33 2016
GPGPU-Sim PTX: 41200000 instructions simulated : ctaid=(2,10,0) tid=(17,3,0)
GPGPU-Sim PTX: 41300000 instructions simulated : ctaid=(3,11,0) tid=(2,0,0)
GPGPU-Sim PTX: 41400000 instructions simulated : ctaid=(1,5,0) tid=(9,0,0)
GPGPU-Sim PTX: 41500000 instructions simulated : ctaid=(0,0,0) tid=(16,0,0)
GPGPU-Sim PTX: 41600000 instructions simulated : ctaid=(1,11,0) tid=(10,0,0)
GPGPU-Sim PTX: 41700000 instructions simulated : ctaid=(0,7,0) tid=(7,2,0)
GPGPU-Sim uArch: cycles simulated: 82000  inst.: 37205836 (ipc=453.7) sim_rate=304965 (inst/sec) elapsed = 0:0:02:02 / Tue Mar 22 07:40:34 2016
GPGPU-Sim PTX: 41800000 instructions simulated : ctaid=(1,10,0) tid=(5,0,0)
GPGPU-Sim PTX: 41900000 instructions simulated : ctaid=(1,23,0) tid=(17,0,0)
GPGPU-Sim PTX: 42000000 instructions simulated : ctaid=(0,20,0) tid=(0,1,0)
GPGPU-Sim uArch: cycles simulated: 82500  inst.: 37426890 (ipc=453.7) sim_rate=304283 (inst/sec) elapsed = 0:0:02:03 / Tue Mar 22 07:40:35 2016
GPGPU-Sim PTX: 42100000 instructions simulated : ctaid=(2,1,0) tid=(25,3,0)
GPGPU-Sim PTX: 42200000 instructions simulated : ctaid=(0,11,0) tid=(29,3,0)
GPGPU-Sim uArch: cycles simulated: 83000  inst.: 37653944 (ipc=453.7) sim_rate=303660 (inst/sec) elapsed = 0:0:02:04 / Tue Mar 22 07:40:36 2016
GPGPU-Sim PTX: 42300000 instructions simulated : ctaid=(2,21,0) tid=(22,1,0)
GPGPU-Sim PTX: 42400000 instructions simulated : ctaid=(1,6,0) tid=(18,3,0)
GPGPU-Sim PTX: 42500000 instructions simulated : ctaid=(1,21,0) tid=(29,3,0)
GPGPU-Sim PTX: 42600000 instructions simulated : ctaid=(0,21,0) tid=(13,3,0)
GPGPU-Sim PTX: 42700000 instructions simulated : ctaid=(0,8,0) tid=(28,0,0)
GPGPU-Sim PTX: 42800000 instructions simulated : ctaid=(2,5,0) tid=(5,2,0)
GPGPU-Sim uArch: cycles simulated: 84000  inst.: 38194205 (ipc=454.7) sim_rate=305553 (inst/sec) elapsed = 0:0:02:05 / Tue Mar 22 07:40:37 2016
GPGPU-Sim PTX: 42900000 instructions simulated : ctaid=(3,17,0) tid=(2,0,0)
GPGPU-Sim PTX: 43000000 instructions simulated : ctaid=(0,0,0) tid=(31,1,0)
GPGPU-Sim PTX: 43100000 instructions simulated : ctaid=(2,14,0) tid=(26,3,0)
GPGPU-Sim uArch: cycles simulated: 84500  inst.: 38416784 (ipc=454.6) sim_rate=304895 (inst/sec) elapsed = 0:0:02:06 / Tue Mar 22 07:40:38 2016
GPGPU-Sim PTX: 43200000 instructions simulated : ctaid=(2,2,0) tid=(25,0,0)
GPGPU-Sim PTX: 43300000 instructions simulated : ctaid=(1,22,0) tid=(18,0,0)
GPGPU-Sim PTX: 43400000 instructions simulated : ctaid=(2,8,0) tid=(6,1,0)
[...]
maxmrqlatency = 702 
maxdqlatency = 0 
maxmflatency = 1400 
averagemflatency = 270 
max_icnt2mem_latency = 493 
max_icnt2sh_latency = 152756 
mrq_lat_table:44720 	3534 	3944 	9391 	21670 	21293 	13988 	4497 	786 	41 	0 	0 	0 	0 	0 	0 	0 	0 	0 	0 	0 	0 	0 	0 	0 	0 	0 	0 	0 	0 	0 	0 	
dq_lat_table:0 	0 	0 	0 	0 	0 	0 	0 	0 	0 	0 	0 	0 	0 	0 	0 	0 	0 	0 	0 	0 	0 	0 	0 	0 	0 	0 	0 	0 	0 	0 	0 	
mf_lat_table:0 	0 	0 	0 	0 	0 	0 	80604 	91365 	5417 	147 	0 	0 	0 	0 	0 	0 	0 	0 	0 	0 	0 	0 	0 	0 	0 	0 	0 	0 	0 	0 	0 	
icnt2mem_lat_table:0 	0 	0 	107236 	49842 	16066 	3194 	1068 	337 	0 	0 	0 	0 	0 	0 	0 	0 	0 	0 	0 	0 	0 	0 	0 	
icnt2sh_lat_table:0 	0 	0 	20949 	61117 	28293 	924 	0 	0 	0 	0 	0 	1156 	2996 	6852 	14564 	30946 	9736 	0 	0 	0 	0 	0 	0 	
mf_lat_pw_table:0 	0 	0 	0 	0 	0 	0 	177 	122 	4 	0 	0 	0 	0 	0 	0 	0 	0 	0 	0 	0 	0 	0 	0 	0 	0 	0 	0 	0 	0 	0 	0 	
maximum concurrent accesses to same row:
dram[0]:        33        27        32        26        26        23        32        32        66        79        52        30        35        38        27        53 
dram[1]:        29        42        25        25        20        29        32        32        67        78        34        33        28        39        23        52 
dram[2]:        26        44        19        45        17        26        32        37        69        69        41        37        26        44        21        37 
dram[3]:        26        56        17        32        18        28        32        36        73        73        49        45        27        44        24        50 
dram[4]:        26        47        21        45        26        26        32        32        74        70        32        49        29        50        19        41 
dram[5]:        29        33        25        30        28        30        32        41        77        66        42        35        31        35        42        37 
maximum service time to same row:
dram[0]:     11488     11050     14272     14156     15347     15647     17078     17295     12575     12781     11640     11975     11978     11299     12277     12392 
dram[1]:     11698     12372     14247     14315     15381     15805     17040     17280     12545     12825     11865     11852     11992     11327     12222     12437 
dram[2]:     12034     12310     14154     14079     15474     15754     16467     17180     12640     12821     11666     12006     11889     11324     12139     12477 
dram[3]:     11803     12418     14132     14079     15493     15411     17102     17384     12532     12810     11604     11891     11844     11297     12238     12390 
dram[4]:     10849     12254     14121     14615     15670     15285     17168     17026     12484     12928     11633     11681     11944     11384     12195     12494 
dram[5]:     10516     12546     14169     14238     15050     14811     17336     17139     12652     12684     12046     11507     11724     11372     11991     12435 
average row accesses per activate:
dram[0]:  2.903890  2.901376  2.914747  3.110024  3.090244  3.196517  3.118072  3.104762  3.372500  3.591029  3.189781  3.334184  3.131707  3.207071  3.057831  2.983645 
dram[1]:  2.860986  3.050602  2.930716  3.247449  2.795154  3.069378  3.023202  3.300254  3.411168  3.689373  3.151442  3.333333  2.985882  3.275064  2.985849  3.155941 
dram[2]:  2.974359  3.377005  2.822870  3.302325  2.960465  3.150246  2.910314  3.413158  3.169014  3.652291  3.032258  3.325641  2.912644  3.248731  2.864253  3.314286 
dram[3]:  3.014218  3.036058  2.995294  3.213568  2.767896  3.126829  2.871681  3.273869  3.098624  3.838983  3.055556  3.422572  2.856502  3.351706  2.960373  3.156716 
dram[4]:  2.917620  3.147132  3.028436  3.122549  2.967667  3.309091  3.073460  3.318766  3.216667  3.774373  3.030023  3.278481  2.908467  3.248101  3.004695  3.210127 
dram[5]:  2.976581  3.175439  2.976415  3.180000  3.044917  3.161290  3.176471  3.263819  3.249400  3.571429  3.412987  3.127711  3.120098  3.050119  3.104623  2.997625 
average row locality = 123864/39496 = 3.136115
number of total memory accesses made:
dram[0]:         0         0         0         0         0         0         0         0         0         0         0         0         0         0         0         0 
dram[1]:         0         0         0         0         0         0         0         0         0         0         0         0         0         0         0         0 
dram[2]:         0         0         0         0         0         0         0         0         0         0         0         0         0         0         0         0 
dram[3]:         0         0         0         0         0         0         0         0         0         0         0         0         0         0         0         0 
dram[4]:         0         0         0         0         0         0         0         0         0         0         0         0         0         0         0         0 
dram[5]:         0         0         0         0         0         0         0         0         0         0         0         0         0         0         0         0 
total accesses: 0
min_bank_accesses = 0!
min_chip_accesses = 0!
number of total read accesses:
dram[0]:       643       642       640       640       650       650       672       672       672       672       654       654       640       641       640       640 
dram[1]:       642       640       640       640       650       650       672       672       672       672       654       654       640       640       640       640 
dram[2]:       642       640       640       640       650       652       672       672       672       672       654       654       640       640       640       640 
dram[3]:       642       640       640       640       650       652       672       672       672       672       654       654       640       640       640       640 
dram[4]:       642       640       640       640       650       652       672       672       672       672       654       652       640       640       640       640 
dram[5]:       642       640       640       640       650       652       672       672       672       672       654       652       640       640       640       640 
total reads: 62516
bank skew: 672/640 = 1.05
chip skew: 10422/10418 = 1.00
number of total write accesses:
dram[0]:       626       623       625       632       617       635       622       632       677       689       657       653       644       629       629       637 
dram[1]:       634       626       629       633       619       633       631       625       672       682       657       646       629       634       626       635 
dram[2]:       634       623       619       638       623       627       626       625       678       683       662       643       627       640       626       636 
dram[3]:       630       623       633       639       626       630       626       631       679       687       666       650       634       637       630       629 
dram[4]:       633       622       638       634       635       622       625       619       679       683       658       643       631       643       640       628 
dram[5]:       629       627       622       632       638       622       624       627       683       678       660       646       633       638       636       622 
total reads: 61348
bank skew: 689/617 = 1.12
chip skew: 10250/10210 = 1.00
average mf latency per bank:
dram[0]:        378       371       375       379       376       382       402       390       382       407       390       389       401       379       399       368
dram[1]:        372       386       377       384       369       391       392       410       391       417       380       401       380       392       384       382
dram[2]:        378       389       375       384       373       399       381       411       390       433       371       415       373       412       368       391
dram[3]:        363       394       361       378       364       387       382       398       391       410       381       410       367       411       360       389
dram[4]:        353       393       372       394       373       401       383       404       397       409       370       403       368       404       352       396
dram[5]:        362       377       367       383       369       395       392       407       393       411       378       396       372       404       367       381
maximum mf latency per bank:
dram[0]:        839       797       771       712       797       781       613       608       951      1162       929       862       883       776       807       639
dram[1]:        820       777       751       712       572       710       624       707      1070      1286       953      1113       825       935       701       731
dram[2]:        702       809       656       681       617       680       541       862      1178      1400      1037      1138       709       979       614       712
dram[3]:        685       826       635       697       523       676       641       788      1108      1261      1110       924       728       881       657       900
dram[4]:        721       817       677       775       693       712       628       752      1213      1183      1033      1057       689       830       604       834
dram[5]:        694       694       628       754       607       803       782       767      1007      1182      1050       885       890       894       653       677

Number of Memory Banks Accessed per Memory Operation per Warp (from 0):
0	0	0	0	0	0	0	0	0	0	0	0	0	0	0	0	0	0	0	0	0	0	0	0	0	0	0	0	0	0	0	0	0	0	0	0	0	0	0	0	0	0	0	0	0	0	0	0	0	0	0	0	0	0	0	0	0	0	0	0	0	0	0	0	0	0	0	0	0	0	0	0	0	0	0	0	0	0	0	0	0	0	0	0	0	0	0	0	0	0	0	0	0	0	0	0	
Average # of Memory Banks Accessed per Memory Operation per Warp=-nan

position of mrq chosen
0	0	0	0	0	0	0	0	0	0	0	0	0	0	0	0	

average position of mrq chosen = -nan
Memory Partition 0: 
Cache L2_bank_000:
MSHR contents

Cache L2_bank_001:
MSHR contents

In Dram Latency Queue (total = 0): 
DRAM[0]: 16 bks, busW=4 BL=8 CL=12, tRRD=2 tCCD=6, tRCD=12 tRAS=28 tRP=12 tRC=40
n_cmd=201638 n_nop=151939 n_act=6594 n_pre=6578 n_req=20649 n_rd=20844 n_write=15683 bw_util=0.3623
n_activity=182824 dram_eff=0.3996
bk0: 1286a 170002i bk1: 1284a 169839i bk2: 1280a 169227i bk3: 1280a 170398i bk4: 1300a 169645i bk5: 1300a 170005i bk6: 1344a 169406i bk7: 1344a 168326i bk8: 1344a 169268i bk9: 1344a 168941i bk10: 1308a 169307i bk11: 1308a 168804i bk12: 1280a 169981i bk13: 1282a 169490i bk14: 1280a 169137i bk15: 1280a 169334i 
dram_util_bins: 0 0 0 0 0 0 0 0 0 0
dram_eff_bins: 0 0 0 0 0 0 0 0 0 0
mrqq: max=16 avg=4.11962
Memory Partition 1: 
Cache L2_bank_002:
MSHR contents

Cache L2_bank_003:
MSHR contents

In Dram Latency Queue (total = 0): 
DRAM[1]: 16 bks, busW=4 BL=8 CL=12, tRRD=2 tCCD=6, tRCD=12 tRAS=28 tRP=12 tRC=40
n_cmd=201638 n_nop=151978 n_act=6591 n_pre=6575 n_req=20629 n_rd=20836 n_write=15658 bw_util=0.362
n_activity=181970 dram_eff=0.4011
bk0: 1284a 169335i bk1: 1280a 169627i bk2: 1280a 168674i bk3: 1280a 170540i bk4: 1300a 168345i bk5: 1300a 169481i bk6: 1344a 168790i bk7: 1344a 169372i bk8: 1344a 169845i bk9: 1344a 169977i bk10: 1308a 168643i bk11: 1308a 169019i bk12: 1280a 168955i bk13: 1280a 170247i bk14: 1280a 168832i bk15: 1280a 170001i 
dram_util_bins: 0 0 0 0 0 0 0 0 0 0
dram_eff_bins: 0 0 0 0 0 0 0 0 0 0
mrqq: max=16 avg=4.26013
Memory Partition 2: 
Cache L2_bank_004:
MSHR contents

Cache L2_bank_005:
MSHR contents
MSHR: tag=0x8079e000, atomic=0 1 entries : 0x7fc15904a550 :  mf: uid=2281259, sid09:w16, part=2, addr=0x8079e000, load , size=128, unknown  status = IN_PARTITION_DRAM (152754), 

In Dram Latency Queue (total = 0): 
DRAM[2]: 16 bks, busW=4 BL=8 CL=12, tRRD=2 tCCD=6, tRCD=12 tRAS=28 tRP=12 tRC=40
n_cmd=201638 n_nop=151993 n_act=6575 n_pre=6559 n_req=20630 n_rd=20840 n_write=15671 bw_util=0.3621
n_activity=182241 dram_eff=0.4007
bk0: 1284a 169724i bk1: 1280a 170771i bk2: 1280a 169070i bk3: 1280a 169897i bk4: 1300a 169326i bk5: 1304a 169460i bk6: 1344a 169137i bk7: 1344a 170029i bk8: 1344a 168328i bk9: 1344a 170003i bk10: 1308a 169394i bk11: 1308a 169465i bk12: 1280a 169004i bk13: 1280a 169979i bk14: 1280a 168780i bk15: 1280a 169923i 
dram_util_bins: 0 0 0 0 0 0 0 0 0 0
dram_eff_bins: 0 0 0 0 0 0 0 0 0 0
mrqq: max=16 avg=4.11732
Memory Partition 3: 
Cache L2_bank_006:
MSHR contents

Cache L2_bank_007:
MSHR contents

In Dram Latency Queue (total = 0): 
DRAM[3]: 16 bks, busW=4 BL=8 CL=12, tRRD=2 tCCD=6, tRCD=12 tRAS=28 tRP=12 tRC=40
n_cmd=201638 n_nop=151812 n_act=6643 n_pre=6627 n_req=20670 n_rd=20840 n_write=15716 bw_util=0.3626
n_activity=182382 dram_eff=0.4009
bk0: 1284a 170740i bk1: 1280a 169952i bk2: 1280a 169672i bk3: 1280a 169303i bk4: 1300a 168753i bk5: 1304a 169389i bk6: 1344a 168074i bk7: 1344a 168616i bk8: 1344a 168430i bk9: 1344a 169771i bk10: 1308a 168883i bk11: 1308a 169263i bk12: 1280a 168833i bk13: 1280a 170399i bk14: 1280a 169523i bk15: 1280a 170276i 
dram_util_bins: 0 0 0 0 0 0 0 0 0 0
dram_eff_bins: 0 0 0 0 0 0 0 0 0 0
mrqq: max=16 avg=4.04388
Memory Partition 4: 
Cache L2_bank_008:
MSHR contents

Cache L2_bank_009:
MSHR contents

In Dram Latency Queue (total = 0): 
DRAM[4]: 16 bks, busW=4 BL=8 CL=12, tRRD=2 tCCD=6, tRCD=12 tRAS=28 tRP=12 tRC=40
n_cmd=201638 n_nop=152018 n_act=6557 n_pre=6541 n_req=20651 n_rd=20836 n_write=15686 bw_util=0.3623
n_activity=181847 dram_eff=0.4017
bk0: 1284a 169781i bk1: 1280a 170049i bk2: 1280a 169120i bk3: 1280a 169609i bk4: 1300a 169033i bk5: 1304a 170250i bk6: 1344a 168223i bk7: 1344a 168992i bk8: 1344a 169467i bk9: 1344a 170129i bk10: 1308a 168712i bk11: 1304a 169816i bk12: 1280a 169413i bk13: 1280a 169609i bk14: 1280a 169855i bk15: 1280a 169709i 
dram_util_bins: 0 0 0 0 0 0 0 0 0 0
dram_eff_bins: 0 0 0 0 0 0 0 0 0 0
mrqq: max=16 avg=4.22066
Memory Partition 5: 
Cache L2_bank_010:
MSHR contents

Cache L2_bank_011:
MSHR contents

In Dram Latency Queue (total = 0): 
DRAM[5]: 16 bks, busW=4 BL=8 CL=12, tRRD=2 tCCD=6, tRCD=12 tRAS=28 tRP=12 tRC=40
n_cmd=201638 n_nop=152086 n_act=6536 n_pre=6520 n_req=20635 n_rd=20836 n_write=15660 bw_util=0.362
n_activity=182203 dram_eff=0.4006
bk0: 1284a 168908i bk1: 1280a 170425i bk2: 1280a 169873i bk3: 1280a 170004i bk4: 1300a 169119i bk5: 1304a 168904i bk6: 1344a 168904i bk7: 1344a 168993i bk8: 1344a 168991i bk9: 1344a 170105i bk10: 1308a 168777i bk11: 1304a 168476i bk12: 1280a 169850i bk13: 1280a 169005i bk14: 1280a 169488i bk15: 1280a 169586i 
dram_util_bins: 0 0 0 0 0 0 0 0 0 0
dram_eff_bins: 0 0 0 0 0 0 0 0 0 0
mrqq: max=16 avg=4.15085

========= L2 cache stats =========
L2_cache_bank[0]: Access = 14845, Miss = 5211, Miss_rate = 0.351, Pending_hits = 2852, Reservation_fails = 529
L2_cache_bank[1]: Access = 14821, Miss = 5211, Miss_rate = 0.352, Pending_hits = 3018, Reservation_fails = 443
L2_cache_bank[2]: Access = 14825, Miss = 5210, Miss_rate = 0.351, Pending_hits = 2784, Reservation_fails = 695
L2_cache_bank[3]: Access = 14784, Miss = 5208, Miss_rate = 0.352, Pending_hits = 3092, Reservation_fails = 369
L2_cache_bank[4]: Access = 14835, Miss = 5210, Miss_rate = 0.351, Pending_hits = 2727, Reservation_fails = 564
L2_cache_bank[5]: Access = 14791, Miss = 5210, Miss_rate = 0.352, Pending_hits = 3135, Reservation_fails = 1080
L2_cache_bank[6]: Access = 14836, Miss = 5210, Miss_rate = 0.351, Pending_hits = 2694, Reservation_fails = 275
L2_cache_bank[7]: Access = 14787, Miss = 5210, Miss_rate = 0.352, Pending_hits = 3193, Reservation_fails = 535
L2_cache_bank[8]: Access = 14817, Miss = 5210, Miss_rate = 0.352, Pending_hits = 2843, Reservation_fails = 365
L2_cache_bank[9]: Access = 14779, Miss = 5208, Miss_rate = 0.352, Pending_hits = 3088, Reservation_fails = 445
L2_cache_bank[10]: Access = 14828, Miss = 5210, Miss_rate = 0.351, Pending_hits = 2902, Reservation_fails = 197
L2_cache_bank[11]: Access = 14795, Miss = 5208, Miss_rate = 0.352, Pending_hits = 2961, Reservation_fails = 371
L2_total_cache_accesses = 177743
L2_total_cache_misses = 62516
L2_total_cache_miss_rate = 0.3517
L2_total_cache_pending_hits = 35289
L2_total_cache_reservation_fails = 5868
L2_total_cache_breakdown:
	L2_cache_stats_breakdown[GLOBAL_ACC_R][HIT] = 60785
	L2_cache_stats_breakdown[GLOBAL_ACC_R][HIT_RESERVED] = 19233
	L2_cache_stats_breakdown[GLOBAL_ACC_R][MISS] = 31250
	L2_cache_stats_breakdown[GLOBAL_ACC_R][RESERVATION_FAIL] = 4414
	L2_cache_stats_breakdown[CONST_ACC_R][HIT] = 11
	L2_cache_stats_breakdown[CONST_ACC_R][HIT_RESERVED] = 3
	L2_cache_stats_breakdown[CONST_ACC_R][MISS] = 1
	L2_cache_stats_breakdown[CONST_ACC_R][RESERVATION_FAIL] = 107
	L2_cache_stats_breakdown[GLOBAL_ACC_W][HIT] = 18988
	L2_cache_stats_breakdown[GLOBAL_ACC_W][HIT_RESERVED] = 16011
	L2_cache_stats_breakdown[GLOBAL_ACC_W][MISS] = 31251
	L2_cache_stats_breakdown[GLOBAL_ACC_W][RESERVATION_FAIL] = 181
	L2_cache_stats_breakdown[INST_ACC_R][HIT] = 154
	L2_cache_stats_breakdown[INST_ACC_R][HIT_RESERVED] = 42
	L2_cache_stats_breakdown[INST_ACC_R][MISS] = 14
	L2_cache_stats_breakdown[INST_ACC_R][RESERVATION_FAIL] = 1166
L2_cache_data_port_util = 0.174
L2_cache_fill_port_util = 0.136

icnt_total_pkts_mem_to_simt=623685
icnt_total_pkts_simt_to_mem=337743
LD_mem_lat_dist  0 0 0 0 0 0 0 0 0 0 0 0 0 0 0 0 0 0 0 0 0 0 0 0 0 0 0
ST_mem_lat_dist  0 0 0 0 0 0 0 0 0 0 0 0 0 0 0 0 0 0 0 0 0 0 0 0 0 0 0
----------------------------Interconnect-DETAILS--------------------------------
Class 0:
Packet latency average = 17.8742
	minimum = 6
	maximum = 383
Network latency average = 14.1898
	minimum = 6
	maximum = 372
Slowest packet = 5803
Flit latency average = 12.6286
	minimum = 6
	maximum = 372
Slowest flit = 17152
Fragmentation average = 0.00840539
	minimum = 0
	maximum = 323
Injected packet rate average = 0.0861901
	minimum = 0.0669102 (at node 13)
	maximum = 0.0971805 (at node 15)
Accepted packet rate average = 0.0861901
	minimum = 0.0669102 (at node 13)
	maximum = 0.0971805 (at node 15)
Injected flit rate average = 0.233105
	minimum = 0.124518 (at node 13)
	maximum = 0.34111 (at node 15)
Accepted flit rate average= 0.233105
	minimum = 0.184005 (at node 24)
	maximum = 0.298926 (at node 7)
Injected packet length average = 2.70455
Accepted packet length average = 2.70455
Total in-flight flits = 0 (0 measured)
====== Overall Traffic Statistics ======
====== Traffic class 0 ======
Packet latency average = 17.8742 (1 samples)
	minimum = 6 (1 samples)
	maximum = 383 (1 samples)
Network latency average = 14.1898 (1 samples)
	minimum = 6 (1 samples)
	maximum = 372 (1 samples)
Flit latency average = 12.6286 (1 samples)
	minimum = 6 (1 samples)
	maximum = 372 (1 samples)
Fragmentation average = 0.00840539 (1 samples)
	minimum = 0 (1 samples)
	maximum = 323 (1 samples)
Injected packet rate average = 0.0861901 (1 samples)
	minimum = 0.0669102 (1 samples)
	maximum = 0.0971805 (1 samples)
Accepted packet rate average = 0.0861901 (1 samples)
	minimum = 0.0669102 (1 samples)
	maximum = 0.0971805 (1 samples)
Injected flit rate average = 0.233105 (1 samples)
	minimum = 0.124518 (1 samples)
	maximum = 0.34111 (1 samples)
Accepted flit rate average = 0.233105 (1 samples)
	minimum = 0.184005 (1 samples)
	maximum = 0.298926 (1 samples)
Injected packet size average = 2.70455 (1 samples)
Accepted packet size average = 2.70455 (1 samples)
Hops average = 1 (1 samples)
----------------------------END-of-Interconnect-DETAILS-------------------------
GPGPU-Sim API: Stream Manager State


gpgpu_simulation_time = 0 days, 0 hrs, 3 min, 38 sec (218 sec)
gpgpu_simulation_rate = 333540 (inst/sec)
gpgpu_simulation_rate = 700 (cycle/sec)
GPGPU-Sim: detected inactive GPU simulation thread

1x GPU_laplace3d: 215598.359375 (ms) 

Copy u2 to host: 69.297997 (ms) 

1x Gold_laplace3d: 17.792000 (ms) 
 

 rms error = 0.000000 
CUDA_SAFE_CALL( cudaFree(d_u1) );
CUDA_SAFE_CALL( cudaFree(d_u2) );
free(h_u1);
free(h_u2);
free(h_u3);

Press ENTER to exit...
