

        *** GPGPU-Sim Simulator Version 3.2.2  [build 0] ***


GPGPU-Sim PTX: simulation mode 0 (can change with PTX_SIM_MODE_FUNC environment variable:
               1=functional simulation only, 0=detailed performance simulator)
GPGPU-Sim: Configuration options:

-network_mode                           1 # Interconnection network mode
-inter_config_file   config_fermi_islip.icnt # Interconnection network config file
-gpgpu_ptx_use_cuobjdump                    1 # Use cuobjdump to extract ptx and sass from binaries
-gpgpu_experimental_lib_support                    0 # Try to extract code from cuda libraries [Broken because of unknown cudaGetExportTable]
-gpgpu_ptx_convert_to_ptxplus                    0 # Convert SASS (native ISA) to ptxplus and run ptxplus
-gpgpu_ptx_force_max_capability                   20 # Force maximum compute capability
-gpgpu_ptx_inst_debug_to_file                    0 # Dump executed instructions' debug information to file
-gpgpu_ptx_inst_debug_file       inst_debug.txt # Executed instructions' debug output file
-gpgpu_ptx_inst_debug_thread_uid                    1 # Thread UID for executed instructions' debug output
-gpgpu_simd_model                       1 # 1 = post-dominator
-gpgpu_shader_core_pipeline              1536:32 # shader core pipeline config, i.e., {<nthread>:<warpsize>}
-gpgpu_tex_cache:l1  4:128:24,L:R:m:N:L,F:128:4,128:2 # per-shader L1 texture cache  (READ-ONLY) config  {<nsets>:<bsize>:<assoc>,<rep>:<wr>:<alloc>:<wr_alloc>,<mshr>:<N>:<merge>,<mq>:<rf>}
-gpgpu_const_cache:l1 64:64:2,L:R:f:N:L,A:2:32,4 # per-shader L1 constant memory cache  (READ-ONLY) config  {<nsets>:<bsize>:<assoc>,<rep>:<wr>:<alloc>:<wr_alloc>,<mshr>:<N>:<merge>,<mq>} 
-gpgpu_cache:il1     4:128:4,L:R:f:N:L,A:2:32,4 # shader L1 instruction cache config  {<nsets>:<bsize>:<assoc>,<rep>:<wr>:<alloc>:<wr_alloc>,<mshr>:<N>:<merge>,<mq>} 
-gpgpu_cache:dl1     32:128:4,L:L:m:N:H,A:32:8,8:2,0,1:0:1:1:0:1,1:4:8:16:32:64,/sciclone/data10/hwang07/GPU_RESEARCH/swl/swl_outputs/RESULTS/swl2/ # per-shader L1 data cache config  {<nsets>:<bsize>:<assoc>,<rep>:<wr>:<alloc>:<wr_alloc>,<mshr>:<N>:<merge>,<mq> | none}
-gpgpu_cache:dl1PrefL1                 none # per-shader L1 data cache config  {<nsets>:<bsize>:<assoc>,<rep>:<wr>:<alloc>:<wr_alloc>,<mshr>:<N>:<merge>,<mq> | none}
-gpgpu_cache:dl1PreShared                 none # per-shader L1 data cache config  {<nsets>:<bsize>:<assoc>,<rep>:<wr>:<alloc>:<wr_alloc>,<mshr>:<N>:<merge>,<mq> | none}
-gmem_skip_L1D                          0 # global memory access skip L1D cache (implements -Xptxas -dlcm=cg, default=no skip)
-gpgpu_perfect_mem                      0 # enable perfect memory mode (no cache miss)
-n_regfile_gating_group                    4 # group of lanes that should be read/written together)
-gpgpu_clock_gated_reg_file                    0 # enable clock gated reg file for power calculations
-gpgpu_clock_gated_lanes                    0 # enable clock gated lanes for power calculations
-gpgpu_shader_registers                32768 # Number of registers per shader core. Limits number of concurrent CTAs. (default 8192)
-gpgpu_shader_cta                       8 # Maximum number of concurrent CTAs in shader (default 8)
-gpgpu_num_cta_barriers                   16 # Maximum number of named barriers per CTA (default 16)
-gpgpu_n_clusters                      15 # number of processing clusters
-gpgpu_n_cores_per_cluster                    1 # number of simd cores per cluster
-gpgpu_n_cluster_ejection_buffer_size                    8 # number of packets in ejection buffer
-gpgpu_n_ldst_response_buffer_size                    2 # number of response packets in ld/st unit ejection buffer
-gpgpu_shmem_size                   16384 # Size of shared memory per shader core (default 16kB)
-gpgpu_shmem_size                   49152 # Size of shared memory per shader core (default 16kB)
-gpgpu_shmem_size_PrefL1                16384 # Size of shared memory per shader core (default 16kB)
-gpgpu_shmem_size_PrefShared                16384 # Size of shared memory per shader core (default 16kB)
-gpgpu_shmem_num_banks                   32 # Number of banks in the shared memory in each shader core (default 16)
-gpgpu_shmem_limited_broadcast                    0 # Limit shared memory to do one broadcast per cycle (default on)
-gpgpu_shmem_warp_parts                    1 # Number of portions a warp is divided into for shared memory bank conflict check 
-gpgpu_warpdistro_shader                   -1 # Specify which shader core to collect the warp size distribution from
-gpgpu_warp_issue_shader                    0 # Specify which shader core to collect the warp issue distribution from
-gpgpu_local_mem_map                    1 # Mapping from local memory space address to simulated GPU physical address space (default = enabled)
-gpgpu_num_reg_banks                   16 # Number of register banks (default = 8)
-gpgpu_reg_bank_use_warp_id                    0 # Use warp ID in mapping registers to banks (default = off)
-gpgpu_operand_collector_num_units_sp                    6 # number of collector units (default = 4)
-gpgpu_operand_collector_num_units_sfu                    8 # number of collector units (default = 4)
-gpgpu_operand_collector_num_units_mem                    2 # number of collector units (default = 2)
-gpgpu_operand_collector_num_units_gen                    0 # number of collector units (default = 0)
-gpgpu_operand_collector_num_in_ports_sp                    2 # number of collector unit in ports (default = 1)
-gpgpu_operand_collector_num_in_ports_sfu                    1 # number of collector unit in ports (default = 1)
-gpgpu_operand_collector_num_in_ports_mem                    1 # number of collector unit in ports (default = 1)
-gpgpu_operand_collector_num_in_ports_gen                    0 # number of collector unit in ports (default = 0)
-gpgpu_operand_collector_num_out_ports_sp                    2 # number of collector unit in ports (default = 1)
-gpgpu_operand_collector_num_out_ports_sfu                    1 # number of collector unit in ports (default = 1)
-gpgpu_operand_collector_num_out_ports_mem                    1 # number of collector unit in ports (default = 1)
-gpgpu_operand_collector_num_out_ports_gen                    0 # number of collector unit in ports (default = 0)
-gpgpu_coalesce_arch                   13 # Coalescing arch (default = 13, anything else is off for now)
-gpgpu_num_sched_per_core                    2 # Number of warp schedulers per core
-gpgpu_max_insn_issue_per_warp                    1 # Max number of instructions that can be issued per warp in one cycle by scheduler
-gpgpu_simt_core_sim_order                    1 # Select the simulation order of cores in a cluster (0=Fix, 1=Round-Robin)
-gpgpu_pipeline_widths        2,1,1,2,1,1,2 # Pipeline widths ID_OC_SP,ID_OC_SFU,ID_OC_MEM,OC_EX_SP,OC_EX_SFU,OC_EX_MEM,EX_WB
-gpgpu_num_sp_units                     2 # Number of SP units (default=1)
-gpgpu_num_sfu_units                    1 # Number of SF units (default=1)
-gpgpu_num_mem_units                    1 # Number if ldst units (default=1) WARNING: not hooked up to anything
-gpgpu_scheduler        warp_limiting:2:2 # Scheduler configuration: < lrr | gto | two_level_active > If two_level_active:<num_active_warps>:<inner_prioritization>:<outer_prioritization>For complete list of prioritization values see shader.h enum scheduler_prioritization_typeDefault: gto
-gpgpu_dram_scheduler                    1 # 0 = fifo, 1 = FR-FCFS (defaul)
-gpgpu_dram_partition_queues              8:8:8:8 # i2$:$2d:d2$:$2i
-l2_ideal                               0 # Use a ideal L2 cache that always hit
-gpgpu_cache:dl2     64:128:8,L:B:m:W:L,A:32:4,4:0,32 # unified banked L2 data cache config  {<nsets>:<bsize>:<assoc>,<rep>:<wr>:<alloc>:<wr_alloc>,<mshr>:<N>:<merge>,<mq>}
-gpgpu_cache:dl2_texture_only                    0 # L2 cache used for texture only
-gpgpu_n_mem                            6 # number of memory modules (e.g. memory controllers) in gpu
-gpgpu_n_sub_partition_per_mchannel                    2 # number of memory subpartition in each memory module
-gpgpu_n_mem_per_ctrlr                    2 # number of memory chips per memory controller
-gpgpu_memlatency_stat                   14 # track and display latency statistics 0x2 enables MC, 0x4 enables queue logs
-gpgpu_frfcfs_dram_sched_queue_size                   16 # 0 = unlimited (default); # entries per chip
-gpgpu_dram_return_queue_size                  116 # 0 = unlimited (default); # entries per chip
-gpgpu_dram_buswidth                    4 # default = 4 bytes (8 bytes per cycle at DDR)
-gpgpu_dram_burst_length                    8 # Burst length of each DRAM request (default = 4 data bus cycle)
-dram_data_command_freq_ratio                    4 # Frequency ratio between DRAM data bus and command bus (default = 2 times, i.e. DDR)
-gpgpu_dram_timing_opt nbk=16:CCD=2:RRD=6:RCD=12:RAS=28:RP=12:RC=40: CL=12:WL=4:CDLR=5:WR=12:nbkgrp=4:CCDL=3:RTPL=2 # DRAM timing parameters = {nbk:tCCD:tRRD:tRCD:tRAS:tRP:tRC:CL:WL:tCDLR:tWR:nbkgrp:tCCDL:tRTPL}
-rop_latency                          120 # ROP queue latency (default 85)
-dram_latency                         100 # DRAM latency (default 30)
-gpgpu_mem_addr_mapping dramid@8;00000000.00000000.00000000.00000000.0000RRRR.RRRRRRRR.BBBCCCCB.CCSSSSSS # mapping memory address to dram model {dramid@<start bit>;<memory address map>}
-gpgpu_mem_addr_test                    0 # run sweep test to check address mapping for aliased address
-gpgpu_mem_address_mask                    1 # 0 = old addressing mask, 1 = new addressing mask, 2 = new add. mask + flipped bank sel and chip sel bits
-gpuwattch_xml_file  gpuwattch_gtx480.xml # GPUWattch XML file
-power_simulation_enabled                    0 # Turn on power simulator (1=On, 0=Off)
-power_per_cycle_dump                    0 # Dump detailed power output each cycle
-power_trace_enabled                    0 # produce a file for the power trace (1=On, 0=Off)
-power_trace_zlevel                     6 # Compression level of the power trace output log (0=no comp, 9=highest)
-steady_power_levels_enabled                    0 # produce a file for the steady power levels (1=On, 0=Off)
-steady_state_definition                  8:4 # allowed deviation:number of samples
-gpgpu_max_cycle                        0 # terminates gpu simulation early (0 = no limit)
-gpgpu_max_insn                         0 # terminates gpu simulation early (0 = no limit)
-gpgpu_max_cta                          0 # terminates gpu simulation early (0 = no limit)
-gpgpu_runtime_stat                   500 # display runtime statistics such as dram utilization {<freq>:<flag>}
-liveness_message_freq                    1 # Minimum number of seconds between simulation liveness messages (0 = always print)
-gpgpu_flush_l1_cache                    0 # Flush L1 cache at the end of each kernel call
-gpgpu_flush_l2_cache                    0 # Flush L2 cache at the end of each kernel call
-gpgpu_deadlock_detect                    1 # Stop the simulation at deadlock (1=on (default), 0=off)
-gpgpu_ptx_instruction_classification                    0 # if enabled will classify ptx instruction types per kernel (Max 255 kernels now)
-gpgpu_ptx_sim_mode                     0 # Select between Performance (default) or Functional simulation (1)
-gpgpu_clock_domains 700.0:700.0:700.0:924.0 # Clock Domain Frequencies in MhZ {<Core Clock>:<ICNT Clock>:<L2 Clock>:<DRAM Clock>}
-gpgpu_max_concurrent_kernel                    8 # maximum kernels that can run concurrently on GPU
-gpgpu_cflog_interval                    0 # Interval between each snapshot in control flow logger
-visualizer_enabled                     0 # Turn on visualizer output (1=On, 0=Off)
-visualizer_outputfile                 NULL # Specifies the output log file for visualizer
-visualizer_zlevel                      6 # Compression level of the visualizer output log (0=no comp, 9=highest)
-trace_enabled                          0 # Turn on traces
-trace_components                    none # comma seperated list of traces to enable. Complete list found in trace_streams.tup. Default none
-trace_sampling_core                    0 # The core which is printed using CORE_DPRINTF. Default 0
-trace_sampling_memory_partition                   -1 # The memory partition which is printed using MEMPART_DPRINTF. Default -1 (i.e. all)
-enable_ptx_file_line_stats                    1 # Turn on PTX source line statistic profiling. (1 = On)
-ptx_line_stats_filename gpgpu_inst_stats.txt # Output file for PTX source line statistics.
-save_embedded_ptx                      0 # saves ptx files embedded in binary as <n>.ptx
-keep                                   0 # keep intermediate files created by GPGPU-Sim when interfacing with external programs
-gpgpu_ptx_save_converted_ptxplus                    0 # Saved converted ptxplus to a file
-ptx_opcode_latency_int         4,13,4,5,145 # Opcode latencies for integers <ADD,MAX,MUL,MAD,DIV>Default 1,1,19,25,145
-ptx_opcode_latency_fp          4,13,4,5,39 # Opcode latencies for single precision floating points <ADD,MAX,MUL,MAD,DIV>Default 1,1,1,1,30
-ptx_opcode_latency_dp         8,19,8,8,330 # Opcode latencies for double precision floating points <ADD,MAX,MUL,MAD,DIV>Default 8,8,8,8,335
-ptx_opcode_initiation_int            1,2,2,1,8 # Opcode initiation intervals for integers <ADD,MAX,MUL,MAD,DIV>Default 1,1,4,4,32
-ptx_opcode_initiation_fp            1,2,1,1,4 # Opcode initiation intervals for single precision floating points <ADD,MAX,MUL,MAD,DIV>Default 1,1,1,1,5
-ptx_opcode_initiation_dp         8,16,8,8,130 # Opcode initiation intervals for double precision floating points <ADD,MAX,MUL,MAD,DIV>Default 8,8,8,8,130
DRAM Timing Options:
nbk                                    16 # number of banks
CCD                                     2 # column to column delay
RRD                                     6 # minimal delay between activation of rows in different banks
RCD                                    12 # row to column delay
RAS                                    28 # time needed to activate row
RP                                     12 # time needed to precharge (deactivate) row
RC                                     40 # row cycle time
CDLR                                    5 # switching from write to read (changes tWTR)
WR                                     12 # last data-in to row precharge
CL                                     12 # CAS latency
WL                                      4 # Write latency
nbkgrp                                  4 # number of bank groups
CCDL                                    3 # column to column delay between accesses to different bank groups
RTPL                                    2 # read to precharge delay between accesses to different bank groups
Total number of memory sub partition = 12
addr_dec_mask[CHIP]  = 0000000000000000 	high:64 low:0
addr_dec_mask[BK]    = 000000000000e100 	high:16 low:8
addr_dec_mask[ROW]   = 000000000fff0000 	high:28 low:16
addr_dec_mask[COL]   = 0000000000001eff 	high:13 low:0
addr_dec_mask[BURST] = 000000000000003f 	high:6 low:0
sub_partition_id_mask = 0000000000000100
GPGPU-Sim uArch: clock freqs: 700000000.000000:700000000.000000:700000000.000000:924000000.000000
GPGPU-Sim uArch: clock periods: 0.00000000142857142857:0.00000000142857142857:0.00000000142857142857:0.00000000108225108225
*** Initializing Memory Statistics ***
GPGPU-Sim uArch: interconnect node map (shaderID+MemID to icntID)
GPGPU-Sim uArch: Memory nodes ID start from index: 15
GPGPU-Sim uArch:    0   1   2   3   4
GPGPU-Sim uArch:    5   6   7   8   9
GPGPU-Sim uArch:   10  11  12  13  14
GPGPU-Sim uArch:   15  16  17  18  19
GPGPU-Sim uArch:   20  21  22  23  24
GPGPU-Sim uArch:   25  26
GPGPU-Sim uArch: interconnect node reverse map (icntID to shaderID+MemID)
GPGPU-Sim uArch: Memory nodes start from ID: 15
GPGPU-Sim uArch:    0   1   2   3   4
GPGPU-Sim uArch:    5   6   7   8   9
GPGPU-Sim uArch:   10  11  12  13  14
GPGPU-Sim uArch:   15  16  17  18  19
GPGPU-Sim uArch:   20  21  22  23  24
GPGPU-Sim uArch:   25  26
67265a35928c1e7333fb90cd2f70e437  /sciclone/data10/hwang07/adwait/applications/benchmarks/CUDA/STO/gpgpu_ptx_sim__STO
GPGPU-Sim uArch: performance model initialization complete.
GPGPU-Sim PTX: __cudaRegisterFatBinary, fat_cubin_handle = 1, filename=storeGPU.cu
self exe links to: /sciclone/data10/hwang07/adwait/applications/benchmarks/CUDA/STO/gpgpu_ptx_sim__STO
Running md5sum using "md5sum /sciclone/data10/hwang07/adwait/applications/benchmarks/CUDA/STO/gpgpu_ptx_sim__STO "
Parsing file _cuobjdump_complete_output_sz9R3T
######### cuobjdump parser ########
## Adding new section ELF
Adding arch: sm_20
Adding identifier: main.cu
## Adding new section PTX
Adding ptx filename: _cuobjdump_1.ptx
Adding arch: sm_20
Adding identifier: main.cu
## Adding new section ELF
Adding arch: sm_20
Adding identifier: storeGPU.cu
## Adding new section PTX
Adding ptx filename: _cuobjdump_2.ptx
Adding arch: sm_20
Adding identifier: storeGPU.cu
Done parsing!!!
GPGPU-Sim PTX: __cudaRegisterFunction _Z12sha1_overlapPhiiiiS_ : hostFun 0x0x40dfd2, fat_cubin_handle = 1
GPGPU-Sim PTX: allocating stack frame region for .param "__cudaretf__Z14macroRFunctioniPj" from 0x0 to 0x8
GPGPU-Sim PTX: allocating stack frame region for .param "__cudaparmf1__Z14macroRFunctioniPj" from 0x8 to 0xc
GPGPU-Sim PTX: allocating stack frame region for .param "__cudaparmf2__Z14macroRFunctioniPj" from 0xc to 0x14
GPGPU-Sim PTX: instruction assembly for function '_Z14macroRFunctioniPj'...   done.
GPGPU-Sim PTX: finding reconvergence points for '_Z14macroRFunctioniPj'...
GPGPU-Sim PTX: Finding dominators for '_Z14macroRFunctioniPj'...
GPGPU-Sim PTX: Finding immediate dominators for '_Z14macroRFunctioniPj'...
GPGPU-Sim PTX: Finding postdominators for '_Z14macroRFunctioniPj'...
GPGPU-Sim PTX: Finding immediate postdominators for '_Z14macroRFunctioniPj'...
GPGPU-Sim PTX: pre-decoding instructions for '_Z14macroRFunctioniPj'...
GPGPU-Sim PTX: reconvergence points for _Z14macroRFunctioniPj...
GPGPU-Sim PTX: ... end of reconvergence points for _Z14macroRFunctioniPj
GPGPU-Sim PTX: ... done pre-decoding instructions for '_Z14macroRFunctioniPj'.
GPGPU-Sim PTX: allocating shared region for "__cuda___cuda_local_var_34843_40_non_const_sharedMemory32" from 0x0 to 0x3f80 (shared memory space)
GPGPU-Sim PTX: instruction assembly for function '_Z3md5PhiiiS_'...   done.
GPGPU-Sim PTX: finding reconvergence points for '_Z3md5PhiiiS_'...
GPGPU-Sim PTX: Finding dominators for '_Z3md5PhiiiS_'...
GPGPU-Sim PTX: Finding immediate dominators for '_Z3md5PhiiiS_'...
GPGPU-Sim PTX: Finding postdominators for '_Z3md5PhiiiS_'...
GPGPU-Sim PTX: Finding immediate postdominators for '_Z3md5PhiiiS_'...
GPGPU-Sim PTX: pre-decoding instructions for '_Z3md5PhiiiS_'...
GPGPU-Sim PTX: reconvergence points for _Z3md5PhiiiS_...
GPGPU-Sim PTX:  1 (potential) branch divergence @  PC=0x190 (_1.ptx:127) @%p1 bra $Lt_1_4866;
GPGPU-Sim PTX:    immediate post dominator      @  PC=0x21f0 (_1.ptx:1283) exit;
GPGPU-Sim PTX:  2 (potential) branch divergence @  PC=0x198 (_1.ptx:128) bra.uni $LBB20__Z3md5PhiiiS_;
GPGPU-Sim PTX:    immediate post dominator      @  PC=0x21f0 (_1.ptx:1283) exit;
GPGPU-Sim PTX:  3 (potential) branch divergence @  PC=0x1f0 (_1.ptx:141) @%p3 bra $Lt_1_5634;
GPGPU-Sim PTX:    immediate post dominator      @  PC=0x290 (_1.ptx:167) shr.s32 %r23, %r15, 31;
GPGPU-Sim PTX:  4 (potential) branch divergence @  PC=0x200 (_1.ptx:143) @!%p2 bra $Lt_1_5378;
GPGPU-Sim PTX:    immediate post dominator      @  PC=0x290 (_1.ptx:167) shr.s32 %r23, %r15, 31;
GPGPU-Sim PTX:  5 (potential) branch divergence @  PC=0x278 (_1.ptx:161) @%p4 bra $Lt_1_6402;
GPGPU-Sim PTX:    immediate post dominator      @  PC=0x280 (_1.ptx:162) bra.uni $Lt_1_5378;
GPGPU-Sim PTX:  6 (potential) branch divergence @  PC=0x280 (_1.ptx:162) bra.uni $Lt_1_5378;
GPGPU-Sim PTX:    immediate post dominator      @  PC=0x290 (_1.ptx:167) shr.s32 %r23, %r15, 31;
GPGPU-Sim PTX:  7 (potential) branch divergence @  PC=0x2d0 (_1.ptx:175) @%p5 bra $Lt_1_8706;
GPGPU-Sim PTX:    immediate post dominator      @  PC=0x2198 (_1.ptx:1270) mul.lo.s32 %r234, %r5, 4;
GPGPU-Sim PTX:  8 (potential) branch divergence @  PC=0x4e8 (_1.ptx:257) @%p6 bra $Lt_1_7938;
GPGPU-Sim PTX:    immediate post dominator      @  PC=0x560 (_1.ptx:281) ld.shared.u8 %r69, [%rd20+0];
GPGPU-Sim PTX:  9 (potential) branch divergence @  PC=0x520 (_1.ptx:267) bra.uni $Lt_1_7682;
GPGPU-Sim PTX:    immediate post dominator      @  PC=0x560 (_1.ptx:281) ld.shared.u8 %r69, [%rd20+0];
GPGPU-Sim PTX: 10 (potential) branch divergence @  PC=0x2180 (_1.ptx:1264) @%p7 bra $Lt_1_7426;
GPGPU-Sim PTX:    immediate post dominator      @  PC=0x2188 (_1.ptx:1265) bra.uni $Lt_1_6914;
GPGPU-Sim PTX: 11 (potential) branch divergence @  PC=0x2188 (_1.ptx:1265) bra.uni $Lt_1_6914;
GPGPU-Sim PTX:    immediate post dominator      @  PC=0x2198 (_1.ptx:1270) mul.lo.s32 %r234, %r5, 4;
GPGPU-Sim PTX: ... end of reconvergence points for _Z3md5PhiiiS_
GPGPU-Sim PTX: ... done pre-decoding instructions for '_Z3md5PhiiiS_'.
GPGPU-Sim PTX: allocating shared region for "__cuda___cuda_local_var_34878_40_non_const_sharedMemory16320" from 0x0 to 0x3f80 (shared memory space)
GPGPU-Sim PTX: instruction assembly for function '_Z11md5_overlapPhiiiiS_'...   done.
GPGPU-Sim PTX: finding reconvergence points for '_Z11md5_overlapPhiiiiS_'...
GPGPU-Sim PTX: Finding dominators for '_Z11md5_overlapPhiiiiS_'...
GPGPU-Sim PTX: Finding immediate dominators for '_Z11md5_overlapPhiiiiS_'...
GPGPU-Sim PTX: Finding postdominators for '_Z11md5_overlapPhiiiiS_'...
GPGPU-Sim PTX: Finding immediate postdominators for '_Z11md5_overlapPhiiiiS_'...
GPGPU-Sim PTX: pre-decoding instructions for '_Z11md5_overlapPhiiiiS_'...
GPGPU-Sim PTX: reconvergence points for _Z11md5_overlapPhiiiiS_...
GPGPU-Sim PTX:  1 (potential) branch divergence @  PC=0x2230 (_1.ptx:1308) @%p1 bra $Lt_2_5634;
GPGPU-Sim PTX:    immediate post dominator      @  PC=0x43e8 (_1.ptx:2510) exit;
GPGPU-Sim PTX:  2 (potential) branch divergence @  PC=0x2238 (_1.ptx:1309) bra.uni $LBB23__Z11md5_overlapPhiiiiS_;
GPGPU-Sim PTX:    immediate post dominator      @  PC=0x43e8 (_1.ptx:2510) exit;
GPGPU-Sim PTX:  3 (potential) branch divergence @  PC=0x22b0 (_1.ptx:1326) @%p3 bra $Lt_2_9730;
GPGPU-Sim PTX:    immediate post dominator      @  PC=0x4390 (_1.ptx:2497) mul.lo.s32 %r260, %r5, 4;
GPGPU-Sim PTX:  4 (potential) branch divergence @  PC=0x2440 (_1.ptx:1378) @%p4 bra $Lt_2_7170;
GPGPU-Sim PTX:    immediate post dominator      @  PC=0x2768 (_1.ptx:1510) ld.shared.u8 %r95, [%rd15+0];
GPGPU-Sim PTX:  5 (potential) branch divergence @  PC=0x2488 (_1.ptx:1387) @%p5 bra $Lt_2_9986;
GPGPU-Sim PTX:    immediate post dominator      @  PC=0x2520 (_1.ptx:1411) mov.s32 %r62, 13;
GPGPU-Sim PTX:  6 (potential) branch divergence @  PC=0x2500 (_1.ptx:1405) @%p6 bra $Lt_2_7938;
GPGPU-Sim PTX:    immediate post dominator      @  PC=0x2508 (_1.ptx:1406) mov.s32 %r61, %r52;
GPGPU-Sim PTX:  7 (potential) branch divergence @  PC=0x2510 (_1.ptx:1407) bra.uni $Lt_2_7426;
GPGPU-Sim PTX:    immediate post dominator      @  PC=0x2520 (_1.ptx:1411) mov.s32 %r62, 13;
GPGPU-Sim PTX:  8 (potential) branch divergence @  PC=0x2540 (_1.ptx:1415) @%p7 bra $Lt_2_8450;
GPGPU-Sim PTX:    immediate post dominator      @  PC=0x25e0 (_1.ptx:1440) mov.u32 %r72, 128;
GPGPU-Sim PTX:  9 (potential) branch divergence @  PC=0x25d8 (_1.ptx:1437) @%p8 bra $Lt_2_8962;
GPGPU-Sim PTX:    immediate post dominator      @  PC=0x25e0 (_1.ptx:1440) mov.u32 %r72, 128;
GPGPU-Sim PTX: 10 (potential) branch divergence @  PC=0x2640 (_1.ptx:1454) bra.uni $Lt_2_6914;
GPGPU-Sim PTX:    immediate post dominator      @  PC=0x2768 (_1.ptx:1510) ld.shared.u8 %r95, [%rd15+0];
GPGPU-Sim PTX: 11 (potential) branch divergence @  PC=0x4378 (_1.ptx:2491) @%p9 bra $Lt_2_6658;
GPGPU-Sim PTX:    immediate post dominator      @  PC=0x4380 (_1.ptx:2492) bra.uni $Lt_2_6146;
GPGPU-Sim PTX: 12 (potential) branch divergence @  PC=0x4380 (_1.ptx:2492) bra.uni $Lt_2_6146;
GPGPU-Sim PTX:    immediate post dominator      @  PC=0x4390 (_1.ptx:2497) mul.lo.s32 %r260, %r5, 4;
GPGPU-Sim PTX: ... end of reconvergence points for _Z11md5_overlapPhiiiiS_
GPGPU-Sim PTX: ... done pre-decoding instructions for '_Z11md5_overlapPhiiiiS_'.
GPGPU-Sim PTX: allocating shared region for "__cuda___cuda_local_var_35732_40_non_const_sharedMemory32608" from 0x0 to 0x3f80 (shared memory space)
GPGPU-Sim PTX: instruction assembly for function '_Z4sha1PhiiiS_'...   done.
GPGPU-Sim PTX: finding reconvergence points for '_Z4sha1PhiiiS_'...
GPGPU-Sim PTX: Finding dominators for '_Z4sha1PhiiiS_'...
GPGPU-Sim PTX: Finding immediate dominators for '_Z4sha1PhiiiS_'...
GPGPU-Sim PTX: Finding postdominators for '_Z4sha1PhiiiS_'...
GPGPU-Sim PTX: Finding immediate postdominators for '_Z4sha1PhiiiS_'...
GPGPU-Sim PTX: pre-decoding instructions for '_Z4sha1PhiiiS_'...
GPGPU-Sim PTX: reconvergence points for _Z4sha1PhiiiS_...
GPGPU-Sim PTX:  1 (potential) branch divergence @  PC=0x4428 (_1.ptx:2534) @%p1 bra $Lt_3_4866;
GPGPU-Sim PTX:    immediate post dominator      @  PC=0x9018 (_1.ptx:5165) exit;
GPGPU-Sim PTX:  2 (potential) branch divergence @  PC=0x4430 (_1.ptx:2535) bra.uni $LBB20__Z4sha1PhiiiS_;
GPGPU-Sim PTX:    immediate post dominator      @  PC=0x9018 (_1.ptx:5165) exit;
GPGPU-Sim PTX:  3 (potential) branch divergence @  PC=0x4488 (_1.ptx:2548) @%p3 bra $Lt_3_5634;
GPGPU-Sim PTX:    immediate post dominator      @  PC=0x4528 (_1.ptx:2574) shr.u32 %r23, %r15, 6;
GPGPU-Sim PTX:  4 (potential) branch divergence @  PC=0x4498 (_1.ptx:2550) @!%p2 bra $Lt_3_5378;
GPGPU-Sim PTX:    immediate post dominator      @  PC=0x4528 (_1.ptx:2574) shr.u32 %r23, %r15, 6;
GPGPU-Sim PTX:  5 (potential) branch divergence @  PC=0x4510 (_1.ptx:2568) @%p4 bra $Lt_3_6402;
GPGPU-Sim PTX:    immediate post dominator      @  PC=0x4518 (_1.ptx:2569) bra.uni $Lt_3_5378;
GPGPU-Sim PTX:  6 (potential) branch divergence @  PC=0x4518 (_1.ptx:2569) bra.uni $Lt_3_5378;
GPGPU-Sim PTX:    immediate post dominator      @  PC=0x4528 (_1.ptx:2574) shr.u32 %r23, %r15, 6;
GPGPU-Sim PTX:  7 (potential) branch divergence @  PC=0x4548 (_1.ptx:2578) @%p5 bra $Lt_3_8706;
GPGPU-Sim PTX:    immediate post dominator      @  PC=0x8fc0 (_1.ptx:5152) mul.lo.s32 %r748, %r5, 4;
GPGPU-Sim PTX:  8 (potential) branch divergence @  PC=0x4730 (_1.ptx:2654) @%p6 bra $Lt_3_7938;
GPGPU-Sim PTX:    immediate post dominator      @  PC=0x4820 (_1.ptx:2693) ld.shared.u8 %r69, [%rd21+3];
GPGPU-Sim PTX:  9 (potential) branch divergence @  PC=0x47e0 (_1.ptx:2679) bra.uni $Lt_3_7682;
GPGPU-Sim PTX:    immediate post dominator      @  PC=0x4820 (_1.ptx:2693) ld.shared.u8 %r69, [%rd21+3];
GPGPU-Sim PTX: 10 (potential) branch divergence @  PC=0x8fa8 (_1.ptx:5146) @%p7 bra $Lt_3_7426;
GPGPU-Sim PTX:    immediate post dominator      @  PC=0x8fb0 (_1.ptx:5147) bra.uni $Lt_3_6914;
GPGPU-Sim PTX: 11 (potential) branch divergence @  PC=0x8fb0 (_1.ptx:5147) bra.uni $Lt_3_6914;
GPGPU-Sim PTX:    immediate post dominator      @  PC=0x8fc0 (_1.ptx:5152) mul.lo.s32 %r748, %r5, 4;
GPGPU-Sim PTX: ... end of reconvergence points for _Z4sha1PhiiiS_
GPGPU-Sim PTX: ... done pre-decoding instructions for '_Z4sha1PhiiiS_'.
GPGPU-Sim PTX: allocating shared region for "__cuda___cuda_local_var_35764_40_non_const_sharedMemory48896" from 0x0 to 0x3f80 (shared memory space)
GPGPU-Sim PTX: instruction assembly for function '_Z12sha1_overlapPhiiiiS_'...   done.
GPGPU-Sim PTX: finding reconvergence points for '_Z12sha1_overlapPhiiiiS_'...
GPGPU-Sim PTX: Finding dominators for '_Z12sha1_overlapPhiiiiS_'...
GPGPU-Sim PTX: Finding immediate dominators for '_Z12sha1_overlapPhiiiiS_'...
GPGPU-Sim PTX: Finding postdominators for '_Z12sha1_overlapPhiiiiS_'...
GPGPU-Sim PTX: Finding immediate postdominators for '_Z12sha1_overlapPhiiiiS_'...
GPGPU-Sim PTX: pre-decoding instructions for '_Z12sha1_overlapPhiiiiS_'...
GPGPU-Sim PTX: reconvergence points for _Z12sha1_overlapPhiiiiS_...
GPGPU-Sim PTX:  1 (potential) branch divergence @  PC=0x9058 (_1.ptx:5190) @%p1 bra $Lt_4_5634;
GPGPU-Sim PTX:    immediate post dominator      @  PC=0xde28 (_1.ptx:7884) exit;
GPGPU-Sim PTX:  2 (potential) branch divergence @  PC=0x9060 (_1.ptx:5191) bra.uni $LBB23__Z12sha1_overlapPhiiiiS_;
GPGPU-Sim PTX:    immediate post dominator      @  PC=0xde28 (_1.ptx:7884) exit;
GPGPU-Sim PTX:  3 (potential) branch divergence @  PC=0x90b8 (_1.ptx:5204) @%p3 bra $Lt_4_9730;
GPGPU-Sim PTX:    immediate post dominator      @  PC=0xddd0 (_1.ptx:7871) mul.lo.s32 %r783, %r5, 4;
GPGPU-Sim PTX:  4 (potential) branch divergence @  PC=0x9288 (_1.ptx:5264) @%p4 bra $Lt_4_7170;
GPGPU-Sim PTX:    immediate post dominator      @  PC=0x9628 (_1.ptx:5411) ld.shared.u8 %r101, [%rd15+3];
GPGPU-Sim PTX:  5 (potential) branch divergence @  PC=0x92d0 (_1.ptx:5273) @%p5 bra $Lt_4_9986;
GPGPU-Sim PTX:    immediate post dominator      @  PC=0x9368 (_1.ptx:5297) mov.s32 %r59, 13;
GPGPU-Sim PTX:  6 (potential) branch divergence @  PC=0x9348 (_1.ptx:5291) @%p6 bra $Lt_4_7938;
GPGPU-Sim PTX:    immediate post dominator      @  PC=0x9350 (_1.ptx:5292) mov.s32 %r58, %r49;
GPGPU-Sim PTX:  7 (potential) branch divergence @  PC=0x9358 (_1.ptx:5293) bra.uni $Lt_4_7426;
GPGPU-Sim PTX:    immediate post dominator      @  PC=0x9368 (_1.ptx:5297) mov.s32 %r59, 13;
GPGPU-Sim PTX:  8 (potential) branch divergence @  PC=0x9388 (_1.ptx:5301) @%p7 bra $Lt_4_8450;
GPGPU-Sim PTX:    immediate post dominator      @  PC=0x9428 (_1.ptx:5326) mov.u32 %r69, 128;
GPGPU-Sim PTX:  9 (potential) branch divergence @  PC=0x9420 (_1.ptx:5323) @%p8 bra $Lt_4_8962;
GPGPU-Sim PTX:    immediate post dominator      @  PC=0x9428 (_1.ptx:5326) mov.u32 %r69, 128;
GPGPU-Sim PTX: 10 (potential) branch divergence @  PC=0x9500 (_1.ptx:5355) bra.uni $Lt_4_6914;
GPGPU-Sim PTX:    immediate post dominator      @  PC=0x9628 (_1.ptx:5411) ld.shared.u8 %r101, [%rd15+3];
GPGPU-Sim PTX: 11 (potential) branch divergence @  PC=0xddb8 (_1.ptx:7865) @%p9 bra $Lt_4_6658;
GPGPU-Sim PTX:    immediate post dominator      @  PC=0xddc0 (_1.ptx:7866) bra.uni $Lt_4_6146;
GPGPU-Sim PTX: 12 (potential) branch divergence @  PC=0xddc0 (_1.ptx:7866) bra.uni $Lt_4_6146;
GPGPU-Sim PTX:    immediate post dominator      @  PC=0xddd0 (_1.ptx:7871) mul.lo.s32 %r783, %r5, 4;
GPGPU-Sim PTX: ... end of reconvergence points for _Z12sha1_overlapPhiiiiS_
GPGPU-Sim PTX: ... done pre-decoding instructions for '_Z12sha1_overlapPhiiiiS_'.
GPGPU-Sim PTX: allocating global region for "md5_padding" from 0x100 to 0x140 (global memory space)
GPGPU-Sim PTX: allocating global region for "sha1_padding" from 0x140 to 0x180 (global memory space)
GPGPU-Sim PTX: finished parsing EMBEDDED .ptx file _1.ptx
Adding _cuobjdump_2.ptx with cubin handle 1
GPGPU-Sim PTX: extracting embedded .ptx to temporary file "_ptx_WMCBGU"
Running: cat _ptx_WMCBGU | sed 's/.version 1.5/.version 1.4/' | sed 's/, texmode_independent//' | sed 's/\(\.extern \.const\[1\] .b8 \w\+\)\[\]/\1\[1\]/' | sed 's/const\[.\]/const\[0\]/g' > _ptx2_gP6Ve3
GPGPU-Sim PTX: generating ptxinfo using "$CUDA_INSTALL_PATH/bin/ptxas --gpu-name=sm_20 -v _ptx2_gP6Ve3 --output-file  /dev/null 2> _ptx_WMCBGUinfo"
GPGPU-Sim PTX: Kernel '_Z12sha1_overlapPhiiiiS_' : regs=47, lmem=0, smem=16256, cmem=80
GPGPU-Sim PTX: Kernel '_Z4sha1PhiiiS_' : regs=45, lmem=0, smem=16256, cmem=80
GPGPU-Sim PTX: Kernel '_Z11md5_overlapPhiiiiS_' : regs=42, lmem=0, smem=16256, cmem=80
GPGPU-Sim PTX: Kernel '_Z3md5PhiiiS_' : regs=42, lmem=0, smem=16256, cmem=80
GPGPU-Sim PTX: removing ptxinfo using "rm -f _ptx_WMCBGU _ptx2_gP6Ve3 _ptx_WMCBGUinfo"
GPGPU-Sim PTX: loading globals with explicit initializers... 
GPGPU-Sim PTX:     initializing 'md5_padding' ...  wrote 64 bytes
GPGPU-Sim PTX:     initializing 'sha1_padding' ...  wrote 64 bytes
GPGPU-Sim PTX: finished loading globals (128 bytes total).
GPGPU-Sim PTX: loading constants with explicit initializers...  done.
GPGPU-Sim PTX: __cudaRegisterFunction _Z4sha1PhiiiS_ : hostFun 0x0x40de87, fat_cubin_handle = 1
GPGPU-Sim PTX: __cudaRegisterFunction _Z11md5_overlapPhiiiiS_ : hostFun 0x0x40dd5c, fat_cubin_handle = 1
GPGPU-Sim PTX: __cudaRegisterFunction _Z3md5PhiiiS_ : hostFun 0x0x40dc11, fat_cubin_handle = 1
GPGPU-Sim PTX: __cudaRegisterVar: hostVar = 0x668920; deviceAddress = md5_padding; deviceName = md5_padding
GPGPU-Sim PTX: __cudaRegisterVar: Registering const memory space of 64 bytes
GPGPU-Sim PTX registering global md5_padding hostVar to name mapping
GPGPU-Sim PTX: __cudaRegisterVar: hostVar = 0x668960; deviceAddress = sha1_padding; deviceName = sha1_padding
GPGPU-Sim PTX: __cudaRegisterVar: Registering const memory space of 64 bytes
GPGPU-Sim PTX registering global sha1_padding hostVar to name mapping
GPGPU-Sim PTX: __cudaRegisterFatBinary, fat_cubin_handle = 2, filename=main.cu
Shared Memory Enabled
Pinned Memory Enabled
Reduced Hash Size Enabled
Running SHA1 Overlap Test..
SHA1 Overlap Test


== GPU Execution Context ==
Threads       : 128
Blocks        : 384
Total Threads : 49152
Total size    : 196656
Chunk Size    : 52
Padding       : 0


GPGPU-Sim PTX: cudaLaunch for 0x0x40dfd2 (mode=performance simulation) on stream 0
GPGPU-Sim PTX: pushing kernel '_Z12sha1_overlapPhiiiiS_' to stream 0, gridDim= (384,1,1) blockDim = (128,1,1) 
kernel '_Z12sha1_overlapPhiiiiS_' transfer to GPU hardware scheduler
GPGPU-Sim uArch: Shader 1 bind to kernel 1 '_Z12sha1_overlapPhiiiiS_'
GPGPU-Sim uArch: CTA/core = 3, limited by: shmem
GPGPU-Sim uArch: core:  1, cta: 0 initialized @(1,0)
GPGPU-Sim uArch: Shader 2 bind to kernel 1 '_Z12sha1_overlapPhiiiiS_'
GPGPU-Sim uArch: core:  2, cta: 0 initialized @(1,0)
GPGPU-Sim uArch: Shader 3 bind to kernel 1 '_Z12sha1_overlapPhiiiiS_'
GPGPU-Sim uArch: core:  3, cta: 0 initialized @(1,0)
GPGPU-Sim uArch: Shader 4 bind to kernel 1 '_Z12sha1_overlapPhiiiiS_'
GPGPU-Sim uArch: core:  4, cta: 0 initialized @(1,0)
GPGPU-Sim uArch: Shader 5 bind to kernel 1 '_Z12sha1_overlapPhiiiiS_'
GPGPU-Sim uArch: core:  5, cta: 0 initialized @(1,0)
GPGPU-Sim uArch: Shader 6 bind to kernel 1 '_Z12sha1_overlapPhiiiiS_'
GPGPU-Sim uArch: core:  6, cta: 0 initialized @(1,0)
GPGPU-Sim uArch: Shader 7 bind to kernel 1 '_Z12sha1_overlapPhiiiiS_'
GPGPU-Sim uArch: core:  7, cta: 0 initialized @(1,0)
GPGPU-Sim uArch: Shader 8 bind to kernel 1 '_Z12sha1_overlapPhiiiiS_'
GPGPU-Sim uArch: core:  8, cta: 0 initialized @(1,0)
GPGPU-Sim uArch: Shader 9 bind to kernel 1 '_Z12sha1_overlapPhiiiiS_'
GPGPU-Sim uArch: core:  9, cta: 0 initialized @(1,0)
GPGPU-Sim uArch: Shader 10 bind to kernel 1 '_Z12sha1_overlapPhiiiiS_'
GPGPU-Sim uArch: core: 10, cta: 0 initialized @(1,0)
GPGPU-Sim uArch: Shader 11 bind to kernel 1 '_Z12sha1_overlapPhiiiiS_'
GPGPU-Sim uArch: core: 11, cta: 0 initialized @(1,0)
GPGPU-Sim uArch: Shader 12 bind to kernel 1 '_Z12sha1_overlapPhiiiiS_'
GPGPU-Sim uArch: core: 12, cta: 0 initialized @(1,0)
GPGPU-Sim uArch: Shader 13 bind to kernel 1 '_Z12sha1_overlapPhiiiiS_'
GPGPU-Sim uArch: core: 13, cta: 0 initialized @(1,0)
GPGPU-Sim uArch: Shader 14 bind to kernel 1 '_Z12sha1_overlapPhiiiiS_'
GPGPU-Sim uArch: core: 14, cta: 0 initialized @(1,0)
GPGPU-Sim uArch: Shader 0 bind to kernel 1 '_Z12sha1_overlapPhiiiiS_'
GPGPU-Sim uArch: core:  0, cta: 0 initialized @(1,0)
GPGPU-Sim uArch: core:  1, cta: 1 initialized @(2,0)
GPGPU-Sim uArch: core:  2, cta: 1 initialized @(2,0)
GPGPU-Sim uArch: core:  3, cta: 1 initialized @(2,0)
GPGPU-Sim uArch: core:  4, cta: 1 initialized @(2,0)
GPGPU-Sim uArch: core:  5, cta: 1 initialized @(2,0)
GPGPU-Sim uArch: core:  6, cta: 1 initialized @(2,0)
GPGPU-Sim uArch: core:  7, cta: 1 initialized @(2,0)
GPGPU-Sim uArch: core:  8, cta: 1 initialized @(2,0)
GPGPU-Sim uArch: core:  9, cta: 1 initialized @(2,0)
GPGPU-Sim uArch: core: 10, cta: 1 initialized @(2,0)
GPGPU-Sim uArch: core: 11, cta: 1 initialized @(2,0)
GPGPU-Sim uArch: core: 12, cta: 1 initialized @(2,0)
GPGPU-Sim uArch: core: 13, cta: 1 initialized @(2,0)
GPGPU-Sim uArch: core: 14, cta: 1 initialized @(2,0)
GPGPU-Sim uArch: core:  0, cta: 1 initialized @(2,0)
GPGPU-Sim uArch: core:  1, cta: 2 initialized @(3,0)
GPGPU-Sim uArch: core:  2, cta: 2 initialized @(3,0)
GPGPU-Sim uArch: core:  3, cta: 2 initialized @(3,0)
GPGPU-Sim uArch: core:  4, cta: 2 initialized @(3,0)
GPGPU-Sim uArch: core:  5, cta: 2 initialized @(3,0)
GPGPU-Sim uArch: core:  6, cta: 2 initialized @(3,0)
GPGPU-Sim uArch: core:  7, cta: 2 initialized @(3,0)
GPGPU-Sim uArch: core:  8, cta: 2 initialized @(3,0)
GPGPU-Sim uArch: core:  9, cta: 2 initialized @(3,0)
GPGPU-Sim uArch: core: 10, cta: 2 initialized @(3,0)
GPGPU-Sim uArch: core: 11, cta: 2 initialized @(3,0)
GPGPU-Sim uArch: core: 12, cta: 2 initialized @(3,0)
GPGPU-Sim uArch: core: 13, cta: 2 initialized @(3,0)
GPGPU-Sim uArch: core: 14, cta: 2 initialized @(3,0)
GPGPU-Sim uArch: core:  0, cta: 2 initialized @(3,0)
GPGPU-Sim uArch: cycles simulated: 500  inst.: 9600 (ipc=19.2) sim_rate=800 (inst/sec) elapsed = 0:0:00:12 / Tue Mar 22 12:44:20 2016
GPGPU-Sim PTX: 100000 instructions simulated : ctaid=(6,0,0) tid=(31,0,0)
GPGPU-Sim PTX: 200000 instructions simulated : ctaid=(11,0,0) tid=(127,0,0)
GPGPU-Sim uArch: cycles simulated: 3000  inst.: 195840 (ipc=65.3) sim_rate=11520 (inst/sec) elapsed = 0:0:00:17 / Tue Mar 22 12:44:25 2016
GPGPU-Sim PTX: 300000 instructions simulated : ctaid=(5,0,0) tid=(63,0,0)
GPGPU-Sim PTX: 400000 instructions simulated : ctaid=(11,0,0) tid=(95,0,0)
GPGPU-Sim PTX: 500000 instructions simulated : ctaid=(3,0,0) tid=(127,0,0)
GPGPU-Sim PTX: 600000 instructions simulated : ctaid=(14,0,0) tid=(127,0,0)
GPGPU-Sim uArch: cycles simulated: 6000  inst.: 603712 (ipc=100.6) sim_rate=33539 (inst/sec) elapsed = 0:0:00:18 / Tue Mar 22 12:44:26 2016
GPGPU-Sim PTX: 700000 instructions simulated : ctaid=(9,0,0) tid=(31,0,0)
GPGPU-Sim PTX: 800000 instructions simulated : ctaid=(14,0,0) tid=(95,0,0)
GPGPU-Sim uArch: cycles simulated: 9000  inst.: 855808 (ipc=95.1) sim_rate=45042 (inst/sec) elapsed = 0:0:00:19 / Tue Mar 22 12:44:27 2016
GPGPU-Sim PTX: 900000 instructions simulated : ctaid=(11,0,0) tid=(95,0,0)
GPGPU-Sim PTX: 1000000 instructions simulated : ctaid=(7,0,0) tid=(63,0,0)
GPGPU-Sim PTX: 1100000 instructions simulated : ctaid=(8,0,0) tid=(127,0,0)
GPGPU-Sim uArch: cycles simulated: 12000  inst.: 1127040 (ipc=93.9) sim_rate=56352 (inst/sec) elapsed = 0:0:00:20 / Tue Mar 22 12:44:28 2016
GPGPU-Sim PTX: 1200000 instructions simulated : ctaid=(7,0,0) tid=(127,0,0)
GPGPU-Sim PTX: 1300000 instructions simulated : ctaid=(4,0,0) tid=(95,0,0)
GPGPU-Sim PTX: 1400000 instructions simulated : ctaid=(14,0,0) tid=(95,0,0)
GPGPU-Sim uArch: cycles simulated: 15500  inst.: 1434240 (ipc=92.5) sim_rate=68297 (inst/sec) elapsed = 0:0:00:21 / Tue Mar 22 12:44:29 2016
GPGPU-Sim PTX: 1500000 instructions simulated : ctaid=(11,0,0) tid=(127,0,0)
GPGPU-Sim PTX: 1600000 instructions simulated : ctaid=(0,0,0) tid=(95,0,0)
GPGPU-Sim PTX: 1700000 instructions simulated : ctaid=(7,0,0) tid=(127,0,0)
GPGPU-Sim uArch: cycles simulated: 19000  inst.: 1745440 (ipc=91.9) sim_rate=79338 (inst/sec) elapsed = 0:0:00:22 / Tue Mar 22 12:44:30 2016
GPGPU-Sim PTX: 1800000 instructions simulated : ctaid=(10,0,0) tid=(127,0,0)
GPGPU-Sim PTX: 1900000 instructions simulated : ctaid=(10,0,0) tid=(31,0,0)
GPGPU-Sim uArch: cycles simulated: 21500  inst.: 1985888 (ipc=92.4) sim_rate=86342 (inst/sec) elapsed = 0:0:00:23 / Tue Mar 22 12:44:31 2016
GPGPU-Sim PTX: 2000000 instructions simulated : ctaid=(7,0,0) tid=(95,0,0)
GPGPU-Sim PTX: 2100000 instructions simulated : ctaid=(12,0,0) tid=(63,0,0)
GPGPU-Sim PTX: 2200000 instructions simulated : ctaid=(3,0,0) tid=(63,0,0)
GPGPU-Sim PTX: 2300000 instructions simulated : ctaid=(13,0,0) tid=(127,0,0)
GPGPU-Sim uArch: cycles simulated: 25000  inst.: 2294400 (ipc=91.8) sim_rate=95600 (inst/sec) elapsed = 0:0:00:24 / Tue Mar 22 12:44:32 2016
GPGPU-Sim PTX: 2400000 instructions simulated : ctaid=(7,0,0) tid=(95,0,0)
GPGPU-Sim PTX: 2500000 instructions simulated : ctaid=(3,0,0) tid=(95,0,0)
GPGPU-Sim uArch: cycles simulated: 28000  inst.: 2570528 (ipc=91.8) sim_rate=102821 (inst/sec) elapsed = 0:0:00:25 / Tue Mar 22 12:44:33 2016
GPGPU-Sim PTX: 2600000 instructions simulated : ctaid=(5,0,0) tid=(63,0,0)
GPGPU-Sim PTX: 2700000 instructions simulated : ctaid=(10,0,0) tid=(31,0,0)
GPGPU-Sim PTX: 2800000 instructions simulated : ctaid=(0,0,0) tid=(63,0,0)
GPGPU-Sim uArch: cycles simulated: 31500  inst.: 2878080 (ipc=91.4) sim_rate=110695 (inst/sec) elapsed = 0:0:00:26 / Tue Mar 22 12:44:34 2016
GPGPU-Sim PTX: 2900000 instructions simulated : ctaid=(12,0,0) tid=(127,0,0)
GPGPU-Sim PTX: 3000000 instructions simulated : ctaid=(13,0,0) tid=(127,0,0)
GPGPU-Sim PTX: 3100000 instructions simulated : ctaid=(12,0,0) tid=(31,0,0)
GPGPU-Sim uArch: cycles simulated: 35000  inst.: 3185280 (ipc=91.0) sim_rate=117973 (inst/sec) elapsed = 0:0:00:27 / Tue Mar 22 12:44:35 2016
GPGPU-Sim PTX: 3200000 instructions simulated : ctaid=(6,0,0) tid=(63,0,0)
GPGPU-Sim PTX: 3300000 instructions simulated : ctaid=(12,0,0) tid=(127,0,0)
GPGPU-Sim PTX: 3400000 instructions simulated : ctaid=(1,0,0) tid=(63,0,0)
GPGPU-Sim uArch: cycles simulated: 38000  inst.: 3454528 (ipc=90.9) sim_rate=123376 (inst/sec) elapsed = 0:0:00:28 / Tue Mar 22 12:44:36 2016
GPGPU-Sim PTX: 3500000 instructions simulated : ctaid=(13,0,0) tid=(127,0,0)
GPGPU-Sim PTX: 3600000 instructions simulated : ctaid=(3,0,0) tid=(31,0,0)
GPGPU-Sim PTX: 3700000 instructions simulated : ctaid=(7,0,0) tid=(63,0,0)
GPGPU-Sim uArch: cycles simulated: 41500  inst.: 3763200 (ipc=90.7) sim_rate=129765 (inst/sec) elapsed = 0:0:00:29 / Tue Mar 22 12:44:37 2016
GPGPU-Sim PTX: 3800000 instructions simulated : ctaid=(8,0,0) tid=(31,0,0)
GPGPU-Sim PTX: 3900000 instructions simulated : ctaid=(0,0,0) tid=(63,0,0)
GPGPU-Sim uArch: cycles simulated: 44000  inst.: 3984000 (ipc=90.5) sim_rate=132800 (inst/sec) elapsed = 0:0:00:30 / Tue Mar 22 12:44:38 2016
GPGPU-Sim PTX: 4000000 instructions simulated : ctaid=(5,0,0) tid=(127,0,0)
GPGPU-Sim PTX: 4100000 instructions simulated : ctaid=(5,0,0) tid=(127,0,0)
GPGPU-Sim PTX: 4200000 instructions simulated : ctaid=(5,0,0) tid=(127,0,0)
GPGPU-Sim uArch: cycles simulated: 47000  inst.: 4255072 (ipc=90.5) sim_rate=137260 (inst/sec) elapsed = 0:0:00:31 / Tue Mar 22 12:44:39 2016
GPGPU-Sim PTX: 4300000 instructions simulated : ctaid=(14,0,0) tid=(31,0,0)
GPGPU-Sim PTX: 4400000 instructions simulated : ctaid=(9,0,0) tid=(95,0,0)
GPGPU-Sim PTX: 4500000 instructions simulated : ctaid=(5,0,0) tid=(95,0,0)
GPGPU-Sim uArch: cycles simulated: 50500  inst.: 4567680 (ipc=90.4) sim_rate=142740 (inst/sec) elapsed = 0:0:00:32 / Tue Mar 22 12:44:40 2016
GPGPU-Sim PTX: 4600000 instructions simulated : ctaid=(12,0,0) tid=(127,0,0)
GPGPU-Sim PTX: 4700000 instructions simulated : ctaid=(0,0,0) tid=(31,0,0)
GPGPU-Sim PTX: 4800000 instructions simulated : ctaid=(14,0,0) tid=(31,0,0)
GPGPU-Sim uArch: cycles simulated: 53500  inst.: 4830208 (ipc=90.3) sim_rate=146369 (inst/sec) elapsed = 0:0:00:33 / Tue Mar 22 12:44:41 2016
GPGPU-Sim PTX: 4900000 instructions simulated : ctaid=(13,0,0) tid=(127,0,0)
GPGPU-Sim uArch: Shader 4 finished CTA #0 (54793,0), 2 CTAs running
GPGPU-Sim uArch: core:  4, cta: 0 initialized @(54794,0)
GPGPU-Sim uArch: Shader 5 finished CTA #0 (54803,0), 2 CTAs running
GPGPU-Sim uArch: core:  5, cta: 0 initialized @(54804,0)
GPGPU-Sim uArch: Shader 6 finished CTA #0 (54810,0), 2 CTAs running
GPGPU-Sim uArch: core:  6, cta: 0 initialized @(54811,0)
GPGPU-Sim uArch: Shader 10 finished CTA #0 (54847,0), 2 CTAs running
GPGPU-Sim uArch: core: 10, cta: 0 initialized @(54848,0)
GPGPU-Sim uArch: Shader 3 finished CTA #0 (54848,0), 2 CTAs running
GPGPU-Sim uArch: core:  3, cta: 0 initialized @(54849,0)
GPGPU-Sim uArch: Shader 12 finished CTA #0 (54849,0), 2 CTAs running
GPGPU-Sim uArch: core: 12, cta: 0 initialized @(54850,0)
GPGPU-Sim uArch: Shader 11 finished CTA #0 (54857,0), 2 CTAs running
GPGPU-Sim uArch: core: 11, cta: 0 initialized @(54858,0)
GPGPU-Sim uArch: Shader 2 finished CTA #0 (54869,0), 2 CTAs running
GPGPU-Sim uArch: core:  2, cta: 0 initialized @(54870,0)
GPGPU-Sim uArch: Shader 1 finished CTA #0 (54871,0), 2 CTAs running
GPGPU-Sim uArch: core:  1, cta: 0 initialized @(54872,0)
GPGPU-Sim uArch: Shader 0 finished CTA #0 (54872,0), 2 CTAs running
GPGPU-Sim uArch: core:  0, cta: 0 initialized @(54873,0)
GPGPU-Sim uArch: Shader 9 finished CTA #0 (54884,0), 2 CTAs running
GPGPU-Sim uArch: core:  9, cta: 0 initialized @(54885,0)
GPGPU-Sim uArch: Shader 7 finished CTA #0 (54892,0), 2 CTAs running
GPGPU-Sim uArch: core:  7, cta: 0 initialized @(54893,0)
GPGPU-Sim uArch: Shader 8 finished CTA #0 (54905,0), 2 CTAs running
GPGPU-Sim uArch: core:  8, cta: 0 initialized @(54906,0)
GPGPU-Sim uArch: Shader 13 finished CTA #0 (54907,0), 2 CTAs running
GPGPU-Sim uArch: core: 13, cta: 0 initialized @(54908,0)
GPGPU-Sim uArch: Shader 14 finished CTA #0 (54939,0), 2 CTAs running
GPGPU-Sim uArch: core: 14, cta: 0 initialized @(54940,0)
GPGPU-Sim uArch: cycles simulated: 55000  inst.: 4953792 (ipc=90.1) sim_rate=145699 (inst/sec) elapsed = 0:0:00:34 / Tue Mar 22 12:44:42 2016
GPGPU-Sim PTX: 5000000 instructions simulated : ctaid=(25,0,0) tid=(127,0,0)
GPGPU-Sim PTX: 5100000 instructions simulated : ctaid=(21,0,0) tid=(31,0,0)
GPGPU-Sim PTX: 5200000 instructions simulated : ctaid=(27,0,0) tid=(31,0,0)
GPGPU-Sim PTX: 5300000 instructions simulated : ctaid=(21,0,0) tid=(63,0,0)
GPGPU-Sim PTX: 5400000 instructions simulated : ctaid=(21,0,0) tid=(95,0,0)
GPGPU-Sim uArch: cycles simulated: 57500  inst.: 5397152 (ipc=93.9) sim_rate=154204 (inst/sec) elapsed = 0:0:00:35 / Tue Mar 22 12:44:43 2016
GPGPU-Sim PTX: 5500000 instructions simulated : ctaid=(25,0,0) tid=(95,0,0)
GPGPU-Sim PTX: 5600000 instructions simulated : ctaid=(18,0,0) tid=(31,0,0)
GPGPU-Sim PTX: 5700000 instructions simulated : ctaid=(23,0,0) tid=(127,0,0)
GPGPU-Sim uArch: cycles simulated: 60000  inst.: 5703360 (ipc=95.1) sim_rate=158426 (inst/sec) elapsed = 0:0:00:36 / Tue Mar 22 12:44:44 2016
GPGPU-Sim PTX: 5800000 instructions simulated : ctaid=(22,0,0) tid=(63,0,0)
GPGPU-Sim PTX: 5900000 instructions simulated : ctaid=(25,0,0) tid=(63,0,0)
GPGPU-Sim PTX: 6000000 instructions simulated : ctaid=(15,0,0) tid=(95,0,0)
GPGPU-Sim uArch: cycles simulated: 62500  inst.: 6039136 (ipc=96.6) sim_rate=163219 (inst/sec) elapsed = 0:0:00:37 / Tue Mar 22 12:44:45 2016
GPGPU-Sim PTX: 6100000 instructions simulated : ctaid=(17,0,0) tid=(31,0,0)
GPGPU-Sim PTX: 6200000 instructions simulated : ctaid=(23,0,0) tid=(95,0,0)
GPGPU-Sim PTX: 6300000 instructions simulated : ctaid=(28,0,0) tid=(95,0,0)
GPGPU-Sim PTX: 6400000 instructions simulated : ctaid=(18,0,0) tid=(95,0,0)
GPGPU-Sim uArch: cycles simulated: 65500  inst.: 6439168 (ipc=98.3) sim_rate=169451 (inst/sec) elapsed = 0:0:00:38 / Tue Mar 22 12:44:46 2016
GPGPU-Sim PTX: 6500000 instructions simulated : ctaid=(25,0,0) tid=(127,0,0)
GPGPU-Sim PTX: 6600000 instructions simulated : ctaid=(24,0,0) tid=(95,0,0)
GPGPU-Sim PTX: 6700000 instructions simulated : ctaid=(28,0,0) tid=(63,0,0)
GPGPU-Sim uArch: cycles simulated: 68000  inst.: 6776960 (ipc=99.7) sim_rate=173768 (inst/sec) elapsed = 0:0:00:39 / Tue Mar 22 12:44:47 2016
GPGPU-Sim PTX: 6800000 instructions simulated : ctaid=(29,0,0) tid=(95,0,0)
GPGPU-Sim PTX: 6900000 instructions simulated : ctaid=(22,0,0) tid=(127,0,0)
GPGPU-Sim PTX: 7000000 instructions simulated : ctaid=(24,0,0) tid=(95,0,0)
GPGPU-Sim PTX: 7100000 instructions simulated : ctaid=(27,0,0) tid=(63,0,0)
GPGPU-Sim uArch: cycles simulated: 70500  inst.: 7113696 (ipc=100.9) sim_rate=177842 (inst/sec) elapsed = 0:0:00:40 / Tue Mar 22 12:44:48 2016
GPGPU-Sim PTX: 7200000 instructions simulated : ctaid=(19,0,0) tid=(31,0,0)
GPGPU-Sim PTX: 7300000 instructions simulated : ctaid=(16,0,0) tid=(31,0,0)
GPGPU-Sim PTX: 7400000 instructions simulated : ctaid=(28,0,0) tid=(31,0,0)
GPGPU-Sim PTX: 7500000 instructions simulated : ctaid=(15,0,0) tid=(63,0,0)
GPGPU-Sim uArch: cycles simulated: 73500  inst.: 7518272 (ipc=102.3) sim_rate=183372 (inst/sec) elapsed = 0:0:00:41 / Tue Mar 22 12:44:49 2016
GPGPU-Sim PTX: 7600000 instructions simulated : ctaid=(20,0,0) tid=(127,0,0)
GPGPU-Sim PTX: 7700000 instructions simulated : ctaid=(20,0,0) tid=(63,0,0)
GPGPU-Sim PTX: 7800000 instructions simulated : ctaid=(21,0,0) tid=(63,0,0)
GPGPU-Sim uArch: cycles simulated: 76000  inst.: 7852832 (ipc=103.3) sim_rate=186972 (inst/sec) elapsed = 0:0:00:42 / Tue Mar 22 12:44:50 2016
GPGPU-Sim PTX: 7900000 instructions simulated : ctaid=(18,0,0) tid=(95,0,0)
GPGPU-Sim PTX: 8000000 instructions simulated : ctaid=(29,0,0) tid=(31,0,0)
GPGPU-Sim PTX: 8100000 instructions simulated : ctaid=(16,0,0) tid=(63,0,0)
GPGPU-Sim PTX: 8200000 instructions simulated : ctaid=(21,0,0) tid=(95,0,0)
GPGPU-Sim uArch: cycles simulated: 79000  inst.: 8254528 (ipc=104.5) sim_rate=191965 (inst/sec) elapsed = 0:0:00:43 / Tue Mar 22 12:44:51 2016
GPGPU-Sim PTX: 8300000 instructions simulated : ctaid=(15,0,0) tid=(31,0,0)
GPGPU-Sim PTX: 8400000 instructions simulated : ctaid=(21,0,0) tid=(95,0,0)
GPGPU-Sim PTX: 8500000 instructions simulated : ctaid=(23,0,0) tid=(95,0,0)
GPGPU-Sim PTX: 8600000 instructions simulated : ctaid=(25,0,0) tid=(31,0,0)
GPGPU-Sim uArch: cycles simulated: 81500  inst.: 8589472 (ipc=105.4) sim_rate=195215 (inst/sec) elapsed = 0:0:00:44 / Tue Mar 22 12:44:52 2016
GPGPU-Sim PTX: 8700000 instructions simulated : ctaid=(19,0,0) tid=(31,0,0)
GPGPU-Sim PTX: 8800000 instructions simulated : ctaid=(21,0,0) tid=(127,0,0)
GPGPU-Sim uArch: cycles simulated: 83500  inst.: 8858464 (ipc=106.1) sim_rate=196854 (inst/sec) elapsed = 0:0:00:45 / Tue Mar 22 12:44:53 2016
GPGPU-Sim PTX: 8900000 instructions simulated : ctaid=(16,0,0) tid=(95,0,0)
GPGPU-Sim PTX: 9000000 instructions simulated : ctaid=(25,0,0) tid=(63,0,0)
GPGPU-Sim PTX: 9100000 instructions simulated : ctaid=(18,0,0) tid=(31,0,0)
GPGPU-Sim PTX: 9200000 instructions simulated : ctaid=(17,0,0) tid=(31,0,0)
GPGPU-Sim uArch: cycles simulated: 86500  inst.: 9263264 (ipc=107.1) sim_rate=201375 (inst/sec) elapsed = 0:0:00:46 / Tue Mar 22 12:44:54 2016
GPGPU-Sim PTX: 9300000 instructions simulated : ctaid=(16,0,0) tid=(31,0,0)
GPGPU-Sim PTX: 9400000 instructions simulated : ctaid=(26,0,0) tid=(95,0,0)
GPGPU-Sim PTX: 9500000 instructions simulated : ctaid=(17,0,0) tid=(31,0,0)
GPGPU-Sim PTX: 9600000 instructions simulated : ctaid=(17,0,0) tid=(63,0,0)
GPGPU-Sim uArch: cycles simulated: 89000  inst.: 9599808 (ipc=107.9) sim_rate=204251 (inst/sec) elapsed = 0:0:00:47 / Tue Mar 22 12:44:55 2016
GPGPU-Sim PTX: 9700000 instructions simulated : ctaid=(25,0,0) tid=(95,0,0)
GPGPU-Sim PTX: 9800000 instructions simulated : ctaid=(27,0,0) tid=(63,0,0)
GPGPU-Sim uArch: Shader 4 finished CTA #1 (90927,0), 2 CTAs running
GPGPU-Sim uArch: core:  4, cta: 1 initialized @(90928,0)
GPGPU-Sim uArch: Shader 5 finished CTA #1 (90955,0), 2 CTAs running
GPGPU-Sim uArch: core:  5, cta: 1 initialized @(90956,0)
GPGPU-Sim uArch: Shader 1 finished CTA #1 (91013,0), 2 CTAs running
GPGPU-Sim uArch: core:  1, cta: 1 initialized @(91014,0)
GPGPU-Sim uArch: Shader 6 finished CTA #1 (91031,0), 2 CTAs running
GPGPU-Sim uArch: core:  6, cta: 1 initialized @(91032,0)
GPGPU-Sim uArch: Shader 10 finished CTA #1 (91055,0), 2 CTAs running
GPGPU-Sim uArch: core: 10, cta: 1 initialized @(91056,0)
GPGPU-Sim uArch: Shader 7 finished CTA #1 (91082,0), 2 CTAs running
GPGPU-Sim uArch: core:  7, cta: 1 initialized @(91083,0)
GPGPU-Sim uArch: Shader 11 finished CTA #1 (91083,0), 2 CTAs running
GPGPU-Sim uArch: core: 11, cta: 1 initialized @(91084,0)
GPGPU-Sim uArch: Shader 12 finished CTA #1 (91091,0), 2 CTAs running
GPGPU-Sim uArch: core: 12, cta: 1 initialized @(91092,0)
GPGPU-Sim uArch: Shader 2 finished CTA #1 (91106,0), 2 CTAs running
GPGPU-Sim uArch: core:  2, cta: 1 initialized @(91107,0)
GPGPU-Sim uArch: Shader 13 finished CTA #1 (91109,0), 2 CTAs running
GPGPU-Sim uArch: core: 13, cta: 1 initialized @(91110,0)
GPGPU-Sim uArch: Shader 3 finished CTA #1 (91127,0), 2 CTAs running
GPGPU-Sim uArch: core:  3, cta: 1 initialized @(91128,0)
GPGPU-Sim uArch: Shader 8 finished CTA #1 (91133,0), 2 CTAs running
GPGPU-Sim uArch: core:  8, cta: 1 initialized @(91134,0)
GPGPU-Sim uArch: Shader 0 finished CTA #1 (91137,0), 2 CTAs running
GPGPU-Sim uArch: core:  0, cta: 1 initialized @(91138,0)
GPGPU-Sim uArch: Shader 14 finished CTA #1 (91175,0), 2 CTAs running
GPGPU-Sim uArch: core: 14, cta: 1 initialized @(91176,0)
GPGPU-Sim uArch: Shader 9 finished CTA #1 (91193,0), 2 CTAs running
GPGPU-Sim uArch: core:  9, cta: 1 initialized @(91194,0)
GPGPU-Sim PTX: 9900000 instructions simulated : ctaid=(44,0,0) tid=(31,0,0)
GPGPU-Sim uArch: cycles simulated: 91500  inst.: 9908960 (ipc=108.3) sim_rate=206436 (inst/sec) elapsed = 0:0:00:48 / Tue Mar 22 12:44:56 2016
GPGPU-Sim PTX: 10000000 instructions simulated : ctaid=(42,0,0) tid=(63,0,0)
GPGPU-Sim PTX: 10100000 instructions simulated : ctaid=(44,0,0) tid=(63,0,0)
GPGPU-Sim uArch: cycles simulated: 93000  inst.: 10126720 (ipc=108.9) sim_rate=206667 (inst/sec) elapsed = 0:0:00:49 / Tue Mar 22 12:44:57 2016
GPGPU-Sim PTX: 10200000 instructions simulated : ctaid=(30,0,0) tid=(95,0,0)
GPGPU-Sim PTX: 10300000 instructions simulated : ctaid=(43,0,0) tid=(63,0,0)
GPGPU-Sim PTX: 10400000 instructions simulated : ctaid=(35,0,0) tid=(95,0,0)
GPGPU-Sim uArch: cycles simulated: 95000  inst.: 10456864 (ipc=110.1) sim_rate=209137 (inst/sec) elapsed = 0:0:00:50 / Tue Mar 22 12:44:58 2016
GPGPU-Sim PTX: 10500000 instructions simulated : ctaid=(41,0,0) tid=(63,0,0)
GPGPU-Sim PTX: 10600000 instructions simulated : ctaid=(39,0,0) tid=(31,0,0)
GPGPU-Sim PTX: 10700000 instructions simulated : ctaid=(38,0,0) tid=(31,0,0)
GPGPU-Sim PTX: 10800000 instructions simulated : ctaid=(35,0,0) tid=(95,0,0)
GPGPU-Sim uArch: cycles simulated: 98000  inst.: 10858624 (ipc=110.8) sim_rate=212914 (inst/sec) elapsed = 0:0:00:51 / Tue Mar 22 12:44:59 2016
GPGPU-Sim PTX: 10900000 instructions simulated : ctaid=(42,0,0) tid=(63,0,0)
GPGPU-Sim PTX: 11000000 instructions simulated : ctaid=(36,0,0) tid=(63,0,0)
GPGPU-Sim PTX: 11100000 instructions simulated : ctaid=(38,0,0) tid=(95,0,0)
GPGPU-Sim PTX: 11200000 instructions simulated : ctaid=(32,0,0) tid=(95,0,0)
GPGPU-Sim uArch: cycles simulated: 100500  inst.: 11188960 (ipc=111.3) sim_rate=215172 (inst/sec) elapsed = 0:0:00:52 / Tue Mar 22 12:45:00 2016
GPGPU-Sim PTX: 11300000 instructions simulated : ctaid=(44,0,0) tid=(95,0,0)
GPGPU-Sim PTX: 11400000 instructions simulated : ctaid=(41,0,0) tid=(63,0,0)
GPGPU-Sim PTX: 11500000 instructions simulated : ctaid=(33,0,0) tid=(31,0,0)
GPGPU-Sim uArch: cycles simulated: 103000  inst.: 11526912 (ipc=111.9) sim_rate=217488 (inst/sec) elapsed = 0:0:00:53 / Tue Mar 22 12:45:01 2016
GPGPU-Sim PTX: 11600000 instructions simulated : ctaid=(34,0,0) tid=(127,0,0)
GPGPU-Sim PTX: 11700000 instructions simulated : ctaid=(41,0,0) tid=(63,0,0)
GPGPU-Sim PTX: 11800000 instructions simulated : ctaid=(41,0,0) tid=(31,0,0)
GPGPU-Sim uArch: cycles simulated: 105500  inst.: 11864160 (ipc=112.5) sim_rate=219706 (inst/sec) elapsed = 0:0:00:54 / Tue Mar 22 12:45:02 2016
GPGPU-Sim PTX: 11900000 instructions simulated : ctaid=(43,0,0) tid=(63,0,0)
GPGPU-Sim PTX: 12000000 instructions simulated : ctaid=(35,0,0) tid=(127,0,0)
GPGPU-Sim PTX: 12100000 instructions simulated : ctaid=(44,0,0) tid=(31,0,0)
GPGPU-Sim PTX: 12200000 instructions simulated : ctaid=(41,0,0) tid=(95,0,0)
GPGPU-Sim uArch: cycles simulated: 108500  inst.: 12271360 (ipc=113.1) sim_rate=223115 (inst/sec) elapsed = 0:0:00:55 / Tue Mar 22 12:45:03 2016
GPGPU-Sim PTX: 12300000 instructions simulated : ctaid=(38,0,0) tid=(63,0,0)
GPGPU-Sim PTX: 12400000 instructions simulated : ctaid=(34,0,0) tid=(127,0,0)
GPGPU-Sim PTX: 12500000 instructions simulated : ctaid=(36,0,0) tid=(63,0,0)
GPGPU-Sim PTX: 12600000 instructions simulated : ctaid=(42,0,0) tid=(31,0,0)
GPGPU-Sim uArch: cycles simulated: 111000  inst.: 12606304 (ipc=113.6) sim_rate=225112 (inst/sec) elapsed = 0:0:00:56 / Tue Mar 22 12:45:04 2016
GPGPU-Sim PTX: 12700000 instructions simulated : ctaid=(35,0,0) tid=(63,0,0)
GPGPU-Sim PTX: 12800000 instructions simulated : ctaid=(34,0,0) tid=(127,0,0)
GPGPU-Sim PTX: 12900000 instructions simulated : ctaid=(42,0,0) tid=(95,0,0)
GPGPU-Sim PTX: 13000000 instructions simulated : ctaid=(42,0,0) tid=(95,0,0)
GPGPU-Sim uArch: cycles simulated: 114000  inst.: 13007648 (ipc=114.1) sim_rate=228204 (inst/sec) elapsed = 0:0:00:57 / Tue Mar 22 12:45:05 2016
GPGPU-Sim PTX: 13100000 instructions simulated : ctaid=(35,0,0) tid=(127,0,0)
GPGPU-Sim PTX: 13200000 instructions simulated : ctaid=(44,0,0) tid=(31,0,0)
GPGPU-Sim PTX: 13300000 instructions simulated : ctaid=(38,0,0) tid=(63,0,0)
GPGPU-Sim uArch: cycles simulated: 116500  inst.: 13342944 (ipc=114.5) sim_rate=230050 (inst/sec) elapsed = 0:0:00:58 / Tue Mar 22 12:45:06 2016
GPGPU-Sim PTX: 13400000 instructions simulated : ctaid=(33,0,0) tid=(95,0,0)
GPGPU-Sim PTX: 13500000 instructions simulated : ctaid=(32,0,0) tid=(31,0,0)
GPGPU-Sim PTX: 13600000 instructions simulated : ctaid=(36,0,0) tid=(127,0,0)
GPGPU-Sim uArch: cycles simulated: 118500  inst.: 13606912 (ipc=114.8) sim_rate=230625 (inst/sec) elapsed = 0:0:00:59 / Tue Mar 22 12:45:07 2016
GPGPU-Sim PTX: 13700000 instructions simulated : ctaid=(40,0,0) tid=(31,0,0)
GPGPU-Sim PTX: 13800000 instructions simulated : ctaid=(37,0,0) tid=(31,0,0)
GPGPU-Sim PTX: 13900000 instructions simulated : ctaid=(35,0,0) tid=(31,0,0)
GPGPU-Sim PTX: 14000000 instructions simulated : ctaid=(35,0,0) tid=(31,0,0)
GPGPU-Sim uArch: cycles simulated: 121500  inst.: 14011840 (ipc=115.3) sim_rate=233530 (inst/sec) elapsed = 0:0:01:00 / Tue Mar 22 12:45:08 2016
GPGPU-Sim PTX: 14100000 instructions simulated : ctaid=(39,0,0) tid=(31,0,0)
GPGPU-Sim PTX: 14200000 instructions simulated : ctaid=(43,0,0) tid=(63,0,0)
GPGPU-Sim PTX: 14300000 instructions simulated : ctaid=(31,0,0) tid=(127,0,0)
GPGPU-Sim uArch: cycles simulated: 124000  inst.: 14348736 (ipc=115.7) sim_rate=235225 (inst/sec) elapsed = 0:0:01:01 / Tue Mar 22 12:45:09 2016
GPGPU-Sim PTX: 14400000 instructions simulated : ctaid=(35,0,0) tid=(127,0,0)
GPGPU-Sim PTX: 14500000 instructions simulated : ctaid=(39,0,0) tid=(95,0,0)
GPGPU-Sim PTX: 14600000 instructions simulated : ctaid=(33,0,0) tid=(95,0,0)
GPGPU-Sim PTX: 14700000 instructions simulated : ctaid=(35,0,0) tid=(31,0,0)
GPGPU-Sim uArch: cycles simulated: 127000  inst.: 14734240 (ipc=116.0) sim_rate=237649 (inst/sec) elapsed = 0:0:01:02 / Tue Mar 22 12:45:10 2016
GPGPU-Sim uArch: Shader 4 finished CTA #2 (127103,0), 2 CTAs running
GPGPU-Sim uArch: core:  4, cta: 2 initialized @(127104,0)
GPGPU-Sim uArch: Shader 1 finished CTA #2 (127118,0), 2 CTAs running
GPGPU-Sim uArch: core:  1, cta: 2 initialized @(127119,0)
GPGPU-Sim uArch: Shader 5 finished CTA #2 (127168,0), 2 CTAs running
GPGPU-Sim uArch: core:  5, cta: 2 initialized @(127169,0)
GPGPU-Sim uArch: Shader 6 finished CTA #2 (127192,0), 2 CTAs running
GPGPU-Sim uArch: core:  6, cta: 2 initialized @(127193,0)
GPGPU-Sim uArch: Shader 10 finished CTA #2 (127230,0), 2 CTAs running
GPGPU-Sim uArch: core: 10, cta: 2 initialized @(127231,0)
GPGPU-Sim uArch: Shader 12 finished CTA #2 (127260,0), 2 CTAs running
GPGPU-Sim uArch: core: 12, cta: 2 initialized @(127261,0)
GPGPU-Sim uArch: Shader 7 finished CTA #2 (127262,0), 2 CTAs running
GPGPU-Sim uArch: core:  7, cta: 2 initialized @(127263,0)
GPGPU-Sim uArch: Shader 3 finished CTA #2 (127279,0), 2 CTAs running
GPGPU-Sim uArch: core:  3, cta: 2 initialized @(127280,0)
GPGPU-Sim uArch: Shader 11 finished CTA #2 (127280,0), 2 CTAs running
GPGPU-Sim uArch: core: 11, cta: 2 initialized @(127281,0)
GPGPU-Sim uArch: Shader 2 finished CTA #2 (127289,0), 2 CTAs running
GPGPU-Sim uArch: core:  2, cta: 2 initialized @(127290,0)
GPGPU-Sim uArch: Shader 13 finished CTA #2 (127301,0), 2 CTAs running
GPGPU-Sim uArch: core: 13, cta: 2 initialized @(127302,0)
GPGPU-Sim uArch: Shader 0 finished CTA #2 (127306,0), 2 CTAs running
GPGPU-Sim uArch: core:  0, cta: 2 initialized @(127307,0)
GPGPU-Sim uArch: Shader 8 finished CTA #2 (127359,0), 2 CTAs running
GPGPU-Sim uArch: core:  8, cta: 2 initialized @(127360,0)
GPGPU-Sim uArch: Shader 9 finished CTA #2 (127366,0), 2 CTAs running
GPGPU-Sim uArch: core:  9, cta: 2 initialized @(127367,0)
GPGPU-Sim uArch: Shader 14 finished CTA #2 (127385,0), 2 CTAs running
GPGPU-Sim uArch: core: 14, cta: 2 initialized @(127386,0)
GPGPU-Sim PTX: 14800000 instructions simulated : ctaid=(56,0,0) tid=(95,0,0)
GPGPU-Sim uArch: cycles simulated: 127500  inst.: 14785312 (ipc=116.0) sim_rate=234687 (inst/sec) elapsed = 0:0:01:03 / Tue Mar 22 12:45:11 2016
GPGPU-Sim PTX: 14900000 instructions simulated : ctaid=(56,0,0) tid=(63,0,0)
GPGPU-Sim PTX: 15000000 instructions simulated : ctaid=(55,0,0) tid=(95,0,0)
GPGPU-Sim PTX: 15100000 instructions simulated : ctaid=(48,0,0) tid=(31,0,0)
GPGPU-Sim PTX: 15200000 instructions simulated : ctaid=(55,0,0) tid=(95,0,0)
GPGPU-Sim uArch: cycles simulated: 130000  inst.: 15222176 (ipc=117.1) sim_rate=237846 (inst/sec) elapsed = 0:0:01:04 / Tue Mar 22 12:45:12 2016
GPGPU-Sim PTX: 15300000 instructions simulated : ctaid=(54,0,0) tid=(63,0,0)
GPGPU-Sim PTX: 15400000 instructions simulated : ctaid=(56,0,0) tid=(63,0,0)
GPGPU-Sim PTX: 15500000 instructions simulated : ctaid=(53,0,0) tid=(31,0,0)
GPGPU-Sim uArch: cycles simulated: 132500  inst.: 15534912 (ipc=117.2) sim_rate=238998 (inst/sec) elapsed = 0:0:01:05 / Tue Mar 22 12:45:13 2016
GPGPU-Sim PTX: 15600000 instructions simulated : ctaid=(52,0,0) tid=(95,0,0)
GPGPU-Sim PTX: 15700000 instructions simulated : ctaid=(56,0,0) tid=(127,0,0)
GPGPU-Sim PTX: 15800000 instructions simulated : ctaid=(50,0,0) tid=(127,0,0)
GPGPU-Sim PTX: 15900000 instructions simulated : ctaid=(53,0,0) tid=(63,0,0)
GPGPU-Sim uArch: cycles simulated: 135000  inst.: 15868544 (ipc=117.5) sim_rate=240432 (inst/sec) elapsed = 0:0:01:06 / Tue Mar 22 12:45:14 2016
GPGPU-Sim PTX: 16000000 instructions simulated : ctaid=(48,0,0) tid=(31,0,0)
GPGPU-Sim PTX: 16100000 instructions simulated : ctaid=(56,0,0) tid=(95,0,0)
GPGPU-Sim PTX: 16200000 instructions simulated : ctaid=(45,0,0) tid=(95,0,0)
GPGPU-Sim PTX: 16300000 instructions simulated : ctaid=(59,0,0) tid=(31,0,0)
GPGPU-Sim uArch: cycles simulated: 138000  inst.: 16269984 (ipc=117.9) sim_rate=242835 (inst/sec) elapsed = 0:0:01:07 / Tue Mar 22 12:45:15 2016
GPGPU-Sim PTX: 16400000 instructions simulated : ctaid=(52,0,0) tid=(31,0,0)
GPGPU-Sim PTX: 16500000 instructions simulated : ctaid=(51,0,0) tid=(31,0,0)
GPGPU-Sim PTX: 16600000 instructions simulated : ctaid=(51,0,0) tid=(63,0,0)
GPGPU-Sim uArch: cycles simulated: 140500  inst.: 16606752 (ipc=118.2) sim_rate=244216 (inst/sec) elapsed = 0:0:01:08 / Tue Mar 22 12:45:16 2016
GPGPU-Sim PTX: 16700000 instructions simulated : ctaid=(47,0,0) tid=(63,0,0)
GPGPU-Sim PTX: 16800000 instructions simulated : ctaid=(47,0,0) tid=(63,0,0)
GPGPU-Sim PTX: 16900000 instructions simulated : ctaid=(56,0,0) tid=(63,0,0)
GPGPU-Sim uArch: cycles simulated: 143000  inst.: 16943648 (ipc=118.5) sim_rate=245560 (inst/sec) elapsed = 0:0:01:09 / Tue Mar 22 12:45:17 2016
GPGPU-Sim PTX: 17000000 instructions simulated : ctaid=(53,0,0) tid=(63,0,0)
GPGPU-Sim PTX: 17100000 instructions simulated : ctaid=(49,0,0) tid=(95,0,0)
GPGPU-Sim PTX: 17200000 instructions simulated : ctaid=(49,0,0) tid=(63,0,0)
GPGPU-Sim PTX: 17300000 instructions simulated : ctaid=(57,0,0) tid=(31,0,0)
GPGPU-Sim uArch: cycles simulated: 145500  inst.: 17283136 (ipc=118.8) sim_rate=246901 (inst/sec) elapsed = 0:0:01:10 / Tue Mar 22 12:45:18 2016
GPGPU-Sim PTX: 17400000 instructions simulated : ctaid=(59,0,0) tid=(31,0,0)
GPGPU-Sim PTX: 17500000 instructions simulated : ctaid=(46,0,0) tid=(95,0,0)
GPGPU-Sim PTX: 17600000 instructions simulated : ctaid=(49,0,0) tid=(31,0,0)
GPGPU-Sim PTX: 17700000 instructions simulated : ctaid=(54,0,0) tid=(63,0,0)
GPGPU-Sim uArch: cycles simulated: 148500  inst.: 17683616 (ipc=119.1) sim_rate=249065 (inst/sec) elapsed = 0:0:01:11 / Tue Mar 22 12:45:19 2016
GPGPU-Sim PTX: 17800000 instructions simulated : ctaid=(55,0,0) tid=(95,0,0)
GPGPU-Sim PTX: 17900000 instructions simulated : ctaid=(47,0,0) tid=(31,0,0)
GPGPU-Sim PTX: 18000000 instructions simulated : ctaid=(48,0,0) tid=(127,0,0)
GPGPU-Sim uArch: cycles simulated: 151000  inst.: 18020192 (ipc=119.3) sim_rate=250280 (inst/sec) elapsed = 0:0:01:12 / Tue Mar 22 12:45:20 2016
GPGPU-Sim PTX: 18100000 instructions simulated : ctaid=(58,0,0) tid=(127,0,0)
GPGPU-Sim PTX: 18200000 instructions simulated : ctaid=(45,0,0) tid=(127,0,0)
GPGPU-Sim PTX: 18300000 instructions simulated : ctaid=(59,0,0) tid=(127,0,0)
GPGPU-Sim uArch: cycles simulated: 153500  inst.: 18354016 (ipc=119.6) sim_rate=251424 (inst/sec) elapsed = 0:0:01:13 / Tue Mar 22 12:45:21 2016
GPGPU-Sim PTX: 18400000 instructions simulated : ctaid=(57,0,0) tid=(31,0,0)
GPGPU-Sim PTX: 18500000 instructions simulated : ctaid=(45,0,0) tid=(95,0,0)
GPGPU-Sim PTX: 18600000 instructions simulated : ctaid=(51,0,0) tid=(63,0,0)
GPGPU-Sim uArch: cycles simulated: 155500  inst.: 18619328 (ipc=119.7) sim_rate=251612 (inst/sec) elapsed = 0:0:01:14 / Tue Mar 22 12:45:22 2016
GPGPU-Sim PTX: 18700000 instructions simulated : ctaid=(52,0,0) tid=(95,0,0)
GPGPU-Sim PTX: 18800000 instructions simulated : ctaid=(56,0,0) tid=(31,0,0)
GPGPU-Sim PTX: 18900000 instructions simulated : ctaid=(58,0,0) tid=(95,0,0)
GPGPU-Sim uArch: cycles simulated: 158000  inst.: 18956512 (ipc=120.0) sim_rate=252753 (inst/sec) elapsed = 0:0:01:15 / Tue Mar 22 12:45:23 2016
GPGPU-Sim PTX: 19000000 instructions simulated : ctaid=(51,0,0) tid=(127,0,0)
GPGPU-Sim PTX: 19100000 instructions simulated : ctaid=(52,0,0) tid=(95,0,0)
GPGPU-Sim PTX: 19200000 instructions simulated : ctaid=(52,0,0) tid=(95,0,0)
GPGPU-Sim PTX: 19300000 instructions simulated : ctaid=(57,0,0) tid=(127,0,0)
GPGPU-Sim uArch: cycles simulated: 161000  inst.: 19358080 (ipc=120.2) sim_rate=254711 (inst/sec) elapsed = 0:0:01:16 / Tue Mar 22 12:45:24 2016
GPGPU-Sim PTX: 19400000 instructions simulated : ctaid=(53,0,0) tid=(31,0,0)
GPGPU-Sim PTX: 19500000 instructions simulated : ctaid=(49,0,0) tid=(127,0,0)
GPGPU-Sim PTX: 19600000 instructions simulated : ctaid=(57,0,0) tid=(63,0,0)
GPGPU-Sim uArch: Shader 1 finished CTA #0 (163426,0), 2 CTAs running
GPGPU-Sim PTX: 19700000 instructions simulated : ctaid=(67,0,0) tid=(31,0,0)
GPGPU-Sim uArch: core:  1, cta: 0 initialized @(163427,0)
GPGPU-Sim uArch: Shader 3 finished CTA #0 (163428,0), 2 CTAs running
GPGPU-Sim uArch: core:  3, cta: 0 initialized @(163429,0)
GPGPU-Sim uArch: Shader 4 finished CTA #0 (163433,0), 2 CTAs running
GPGPU-Sim uArch: core:  4, cta: 0 initialized @(163434,0)
GPGPU-Sim uArch: Shader 6 finished CTA #0 (163467,0), 2 CTAs running
GPGPU-Sim uArch: core:  6, cta: 0 initialized @(163468,0)
GPGPU-Sim uArch: cycles simulated: 163500  inst.: 19665952 (ipc=120.3) sim_rate=255401 (inst/sec) elapsed = 0:0:01:17 / Tue Mar 22 12:45:25 2016
GPGPU-Sim uArch: Shader 0 finished CTA #0 (163519,0), 2 CTAs running
GPGPU-Sim uArch: core:  0, cta: 0 initialized @(163520,0)
GPGPU-Sim uArch: Shader 10 finished CTA #0 (163531,0), 2 CTAs running
GPGPU-Sim uArch: core: 10, cta: 0 initialized @(163532,0)
GPGPU-Sim uArch: Shader 7 finished CTA #0 (163547,0), 2 CTAs running
GPGPU-Sim uArch: core:  7, cta: 0 initialized @(163548,0)
GPGPU-Sim uArch: Shader 5 finished CTA #0 (163559,0), 2 CTAs running
GPGPU-Sim uArch: Shader 12 finished CTA #0 (163559,0), 2 CTAs running
GPGPU-Sim uArch: core: 12, cta: 0 initialized @(163560,0)
GPGPU-Sim uArch: core:  5, cta: 0 initialized @(163560,0)
GPGPU-Sim uArch: Shader 8 finished CTA #0 (163577,0), 2 CTAs running
GPGPU-Sim uArch: core:  8, cta: 0 initialized @(163578,0)
GPGPU-Sim uArch: Shader 2 finished CTA #0 (163582,0), 2 CTAs running
GPGPU-Sim uArch: core:  2, cta: 0 initialized @(163583,0)
GPGPU-Sim uArch: Shader 9 finished CTA #0 (163617,0), 2 CTAs running
GPGPU-Sim uArch: core:  9, cta: 0 initialized @(163618,0)
GPGPU-Sim uArch: Shader 14 finished CTA #0 (163624,0), 2 CTAs running
GPGPU-Sim uArch: core: 14, cta: 0 initialized @(163625,0)
GPGPU-Sim uArch: Shader 11 finished CTA #0 (163628,0), 2 CTAs running
GPGPU-Sim uArch: core: 11, cta: 0 initialized @(163629,0)
GPGPU-Sim uArch: Shader 13 finished CTA #0 (163636,0), 2 CTAs running
GPGPU-Sim uArch: core: 13, cta: 0 initialized @(163637,0)
GPGPU-Sim uArch: cycles simulated: 164000  inst.: 19737376 (ipc=120.3) sim_rate=253043 (inst/sec) elapsed = 0:0:01:18 / Tue Mar 22 12:45:26 2016
GPGPU-Sim PTX: 19800000 instructions simulated : ctaid=(70,0,0) tid=(63,0,0)
GPGPU-Sim PTX: 19900000 instructions simulated : ctaid=(63,0,0) tid=(31,0,0)
GPGPU-Sim PTX: 20000000 instructions simulated : ctaid=(72,0,0) tid=(95,0,0)
GPGPU-Sim PTX: 20100000 instructions simulated : ctaid=(61,0,0) tid=(127,0,0)
GPGPU-Sim uArch: cycles simulated: 166500  inst.: 20152480 (ipc=121.0) sim_rate=255094 (inst/sec) elapsed = 0:0:01:19 / Tue Mar 22 12:45:27 2016
GPGPU-Sim PTX: 20200000 instructions simulated : ctaid=(67,0,0) tid=(63,0,0)
GPGPU-Sim PTX: 20300000 instructions simulated : ctaid=(72,0,0) tid=(31,0,0)
GPGPU-Sim PTX: 20400000 instructions simulated : ctaid=(70,0,0) tid=(95,0,0)
GPGPU-Sim PTX: 20500000 instructions simulated : ctaid=(61,0,0) tid=(63,0,0)
GPGPU-Sim uArch: cycles simulated: 169000  inst.: 20488256 (ipc=121.2) sim_rate=256103 (inst/sec) elapsed = 0:0:01:20 / Tue Mar 22 12:45:28 2016
GPGPU-Sim PTX: 20600000 instructions simulated : ctaid=(69,0,0) tid=(95,0,0)
GPGPU-Sim PTX: 20700000 instructions simulated : ctaid=(63,0,0) tid=(63,0,0)
GPGPU-Sim PTX: 20800000 instructions simulated : ctaid=(63,0,0) tid=(31,0,0)
GPGPU-Sim uArch: cycles simulated: 171500  inst.: 20816288 (ipc=121.4) sim_rate=256991 (inst/sec) elapsed = 0:0:01:21 / Tue Mar 22 12:45:29 2016
GPGPU-Sim PTX: 20900000 instructions simulated : ctaid=(68,0,0) tid=(127,0,0)
GPGPU-Sim PTX: 21000000 instructions simulated : ctaid=(74,0,0) tid=(63,0,0)
GPGPU-Sim PTX: 21100000 instructions simulated : ctaid=(73,0,0) tid=(31,0,0)
GPGPU-Sim uArch: cycles simulated: 174000  inst.: 21149632 (ipc=121.5) sim_rate=257922 (inst/sec) elapsed = 0:0:01:22 / Tue Mar 22 12:45:30 2016
GPGPU-Sim PTX: 21200000 instructions simulated : ctaid=(63,0,0) tid=(95,0,0)
GPGPU-Sim PTX: 21300000 instructions simulated : ctaid=(67,0,0) tid=(127,0,0)
GPGPU-Sim PTX: 21400000 instructions simulated : ctaid=(60,0,0) tid=(63,0,0)
GPGPU-Sim PTX: 21500000 instructions simulated : ctaid=(63,0,0) tid=(95,0,0)
GPGPU-Sim uArch: cycles simulated: 176500  inst.: 21485824 (ipc=121.7) sim_rate=258865 (inst/sec) elapsed = 0:0:01:23 / Tue Mar 22 12:45:31 2016
GPGPU-Sim PTX: 21600000 instructions simulated : ctaid=(64,0,0) tid=(31,0,0)
GPGPU-Sim PTX: 21700000 instructions simulated : ctaid=(60,0,0) tid=(95,0,0)
GPGPU-Sim PTX: 21800000 instructions simulated : ctaid=(60,0,0) tid=(31,0,0)
GPGPU-Sim uArch: cycles simulated: 179000  inst.: 21824192 (ipc=121.9) sim_rate=259811 (inst/sec) elapsed = 0:0:01:24 / Tue Mar 22 12:45:32 2016
GPGPU-Sim PTX: 21900000 instructions simulated : ctaid=(72,0,0) tid=(127,0,0)
GPGPU-Sim PTX: 22000000 instructions simulated : ctaid=(61,0,0) tid=(31,0,0)
GPGPU-Sim PTX: 22100000 instructions simulated : ctaid=(62,0,0) tid=(31,0,0)
GPGPU-Sim PTX: 22200000 instructions simulated : ctaid=(66,0,0) tid=(31,0,0)
GPGPU-Sim uArch: cycles simulated: 181500  inst.: 22164448 (ipc=122.1) sim_rate=260758 (inst/sec) elapsed = 0:0:01:25 / Tue Mar 22 12:45:33 2016
GPGPU-Sim PTX: 22300000 instructions simulated : ctaid=(70,0,0) tid=(127,0,0)
GPGPU-Sim PTX: 22400000 instructions simulated : ctaid=(61,0,0) tid=(63,0,0)
GPGPU-Sim PTX: 22500000 instructions simulated : ctaid=(65,0,0) tid=(63,0,0)
GPGPU-Sim PTX: 22600000 instructions simulated : ctaid=(69,0,0) tid=(31,0,0)
GPGPU-Sim uArch: cycles simulated: 184500  inst.: 22564160 (ipc=122.3) sim_rate=262373 (inst/sec) elapsed = 0:0:01:26 / Tue Mar 22 12:45:34 2016
GPGPU-Sim PTX: 22700000 instructions simulated : ctaid=(72,0,0) tid=(127,0,0)
GPGPU-Sim PTX: 22800000 instructions simulated : ctaid=(71,0,0) tid=(95,0,0)
GPGPU-Sim PTX: 22900000 instructions simulated : ctaid=(69,0,0) tid=(127,0,0)
GPGPU-Sim uArch: cycles simulated: 187000  inst.: 22900384 (ipc=122.5) sim_rate=263222 (inst/sec) elapsed = 0:0:01:27 / Tue Mar 22 12:45:35 2016
GPGPU-Sim PTX: 23000000 instructions simulated : ctaid=(74,0,0) tid=(127,0,0)
GPGPU-Sim PTX: 23100000 instructions simulated : ctaid=(64,0,0) tid=(31,0,0)
GPGPU-Sim PTX: 23200000 instructions simulated : ctaid=(67,0,0) tid=(31,0,0)
GPGPU-Sim uArch: cycles simulated: 189500  inst.: 23234624 (ipc=122.6) sim_rate=264029 (inst/sec) elapsed = 0:0:01:28 / Tue Mar 22 12:45:36 2016
GPGPU-Sim PTX: 23300000 instructions simulated : ctaid=(69,0,0) tid=(63,0,0)
GPGPU-Sim PTX: 23400000 instructions simulated : ctaid=(70,0,0) tid=(95,0,0)
GPGPU-Sim PTX: 23500000 instructions simulated : ctaid=(63,0,0) tid=(127,0,0)
GPGPU-Sim uArch: cycles simulated: 191500  inst.: 23502464 (ipc=122.7) sim_rate=264072 (inst/sec) elapsed = 0:0:01:29 / Tue Mar 22 12:45:37 2016
GPGPU-Sim PTX: 23600000 instructions simulated : ctaid=(61,0,0) tid=(127,0,0)
GPGPU-Sim PTX: 23700000 instructions simulated : ctaid=(60,0,0) tid=(95,0,0)
GPGPU-Sim PTX: 23800000 instructions simulated : ctaid=(62,0,0) tid=(63,0,0)
GPGPU-Sim uArch: cycles simulated: 194000  inst.: 23838880 (ipc=122.9) sim_rate=264876 (inst/sec) elapsed = 0:0:01:30 / Tue Mar 22 12:45:38 2016
GPGPU-Sim PTX: 23900000 instructions simulated : ctaid=(68,0,0) tid=(31,0,0)
GPGPU-Sim PTX: 24000000 instructions simulated : ctaid=(61,0,0) tid=(31,0,0)
GPGPU-Sim PTX: 24100000 instructions simulated : ctaid=(74,0,0) tid=(95,0,0)
GPGPU-Sim PTX: 24200000 instructions simulated : ctaid=(66,0,0) tid=(127,0,0)
GPGPU-Sim uArch: cycles simulated: 197000  inst.: 24241088 (ipc=123.1) sim_rate=266385 (inst/sec) elapsed = 0:0:01:31 / Tue Mar 22 12:45:39 2016
GPGPU-Sim PTX: 24300000 instructions simulated : ctaid=(72,0,0) tid=(31,0,0)
GPGPU-Sim PTX: 24400000 instructions simulated : ctaid=(64,0,0) tid=(63,0,0)
GPGPU-Sim PTX: 24500000 instructions simulated : ctaid=(60,0,0) tid=(95,0,0)
GPGPU-Sim PTX: 24600000 instructions simulated : ctaid=(63,0,0) tid=(63,0,0)
GPGPU-Sim uArch: cycles simulated: 199500  inst.: 24558656 (ipc=123.1) sim_rate=266941 (inst/sec) elapsed = 0:0:01:32 / Tue Mar 22 12:45:40 2016
GPGPU-Sim uArch: Shader 4 finished CTA #1 (199522,0), 2 CTAs running
GPGPU-Sim uArch: core:  4, cta: 1 initialized @(199523,0)
GPGPU-Sim uArch: Shader 1 finished CTA #1 (199605,0), 2 CTAs running
GPGPU-Sim uArch: core:  1, cta: 1 initialized @(199606,0)
GPGPU-Sim uArch: Shader 6 finished CTA #1 (199666,0), 2 CTAs running
GPGPU-Sim uArch: core:  6, cta: 1 initialized @(199667,0)
GPGPU-Sim uArch: Shader 3 finished CTA #1 (199669,0), 2 CTAs running
GPGPU-Sim uArch: core:  3, cta: 1 initialized @(199670,0)
GPGPU-Sim uArch: Shader 0 finished CTA #1 (199698,0), 2 CTAs running
GPGPU-Sim uArch: core:  0, cta: 1 initialized @(199699,0)
GPGPU-Sim uArch: Shader 10 finished CTA #1 (199717,0), 2 CTAs running
GPGPU-Sim uArch: core: 10, cta: 1 initialized @(199718,0)
GPGPU-Sim uArch: Shader 2 finished CTA #1 (199719,0), 2 CTAs running
GPGPU-Sim uArch: core:  2, cta: 1 initialized @(199720,0)
GPGPU-Sim uArch: Shader 5 finished CTA #1 (199739,0), 2 CTAs running
GPGPU-Sim uArch: core:  5, cta: 1 initialized @(199740,0)
GPGPU-Sim uArch: Shader 7 finished CTA #1 (199777,0), 2 CTAs running
GPGPU-Sim uArch: core:  7, cta: 1 initialized @(199778,0)
GPGPU-Sim uArch: Shader 13 finished CTA #1 (199783,0), 2 CTAs running
GPGPU-Sim uArch: core: 13, cta: 1 initialized @(199784,0)
GPGPU-Sim uArch: Shader 8 finished CTA #1 (199786,0), 2 CTAs running
GPGPU-Sim uArch: core:  8, cta: 1 initialized @(199787,0)
GPGPU-Sim uArch: Shader 11 finished CTA #1 (199806,0), 2 CTAs running
GPGPU-Sim uArch: core: 11, cta: 1 initialized @(199807,0)
GPGPU-Sim uArch: Shader 12 finished CTA #1 (199810,0), 2 CTAs running
GPGPU-Sim uArch: core: 12, cta: 1 initialized @(199811,0)
GPGPU-Sim uArch: Shader 9 finished CTA #1 (199836,0), 2 CTAs running
GPGPU-Sim uArch: core:  9, cta: 1 initialized @(199837,0)
GPGPU-Sim uArch: Shader 14 finished CTA #1 (199878,0), 2 CTAs running
GPGPU-Sim uArch: core: 14, cta: 1 initialized @(199879,0)
GPGPU-Sim uArch: cycles simulated: 200000  inst.: 24609216 (ipc=123.0) sim_rate=264615 (inst/sec) elapsed = 0:0:01:33 / Tue Mar 22 12:45:41 2016
GPGPU-Sim PTX: 24700000 instructions simulated : ctaid=(75,0,0) tid=(127,0,0)
GPGPU-Sim PTX: 24800000 instructions simulated : ctaid=(87,0,0) tid=(63,0,0)
GPGPU-Sim PTX: 24900000 instructions simulated : ctaid=(83,0,0) tid=(63,0,0)
GPGPU-Sim PTX: 25000000 instructions simulated : ctaid=(82,0,0) tid=(31,0,0)
GPGPU-Sim PTX: 25100000 instructions simulated : ctaid=(75,0,0) tid=(127,0,0)
GPGPU-Sim uArch: cycles simulated: 202500  inst.: 25045440 (ipc=123.7) sim_rate=266440 (inst/sec) elapsed = 0:0:01:34 / Tue Mar 22 12:45:42 2016
GPGPU-Sim PTX: 25200000 instructions simulated : ctaid=(79,0,0) tid=(31,0,0)
GPGPU-Sim PTX: 25300000 instructions simulated : ctaid=(87,0,0) tid=(31,0,0)
GPGPU-Sim uArch: cycles simulated: 204500  inst.: 25295168 (ipc=123.7) sim_rate=266264 (inst/sec) elapsed = 0:0:01:35 / Tue Mar 22 12:45:43 2016
GPGPU-Sim PTX: 25400000 instructions simulated : ctaid=(87,0,0) tid=(63,0,0)
GPGPU-Sim PTX: 25500000 instructions simulated : ctaid=(75,0,0) tid=(95,0,0)
GPGPU-Sim PTX: 25600000 instructions simulated : ctaid=(81,0,0) tid=(63,0,0)
GPGPU-Sim PTX: 25700000 instructions simulated : ctaid=(87,0,0) tid=(63,0,0)
GPGPU-Sim uArch: cycles simulated: 207500  inst.: 25695040 (ipc=123.8) sim_rate=267656 (inst/sec) elapsed = 0:0:01:36 / Tue Mar 22 12:45:44 2016
GPGPU-Sim PTX: 25800000 instructions simulated : ctaid=(76,0,0) tid=(63,0,0)
GPGPU-Sim PTX: 25900000 instructions simulated : ctaid=(88,0,0) tid=(31,0,0)
GPGPU-Sim PTX: 26000000 instructions simulated : ctaid=(87,0,0) tid=(31,0,0)
GPGPU-Sim uArch: cycles simulated: 210000  inst.: 26028064 (ipc=123.9) sim_rate=268330 (inst/sec) elapsed = 0:0:01:37 / Tue Mar 22 12:45:45 2016
GPGPU-Sim PTX: 26100000 instructions simulated : ctaid=(81,0,0) tid=(63,0,0)
GPGPU-Sim PTX: 26200000 instructions simulated : ctaid=(85,0,0) tid=(31,0,0)
GPGPU-Sim PTX: 26300000 instructions simulated : ctaid=(75,0,0) tid=(127,0,0)
GPGPU-Sim PTX: 26400000 instructions simulated : ctaid=(75,0,0) tid=(63,0,0)
GPGPU-Sim uArch: cycles simulated: 212500  inst.: 26364224 (ipc=124.1) sim_rate=269022 (inst/sec) elapsed = 0:0:01:38 / Tue Mar 22 12:45:46 2016
GPGPU-Sim PTX: 26500000 instructions simulated : ctaid=(85,0,0) tid=(31,0,0)
GPGPU-Sim PTX: 26600000 instructions simulated : ctaid=(89,0,0) tid=(63,0,0)
GPGPU-Sim PTX: 26700000 instructions simulated : ctaid=(89,0,0) tid=(63,0,0)
GPGPU-Sim uArch: cycles simulated: 215000  inst.: 26701920 (ipc=124.2) sim_rate=269716 (inst/sec) elapsed = 0:0:01:39 / Tue Mar 22 12:45:47 2016
GPGPU-Sim PTX: 26800000 instructions simulated : ctaid=(75,0,0) tid=(31,0,0)
GPGPU-Sim PTX: 26900000 instructions simulated : ctaid=(81,0,0) tid=(63,0,0)
GPGPU-Sim PTX: 27000000 instructions simulated : ctaid=(88,0,0) tid=(95,0,0)
GPGPU-Sim uArch: cycles simulated: 217500  inst.: 27041760 (ipc=124.3) sim_rate=270417 (inst/sec) elapsed = 0:0:01:40 / Tue Mar 22 12:45:48 2016
GPGPU-Sim PTX: 27100000 instructions simulated : ctaid=(75,0,0) tid=(127,0,0)
GPGPU-Sim PTX: 27200000 instructions simulated : ctaid=(77,0,0) tid=(127,0,0)
GPGPU-Sim PTX: 27300000 instructions simulated : ctaid=(83,0,0) tid=(127,0,0)
GPGPU-Sim PTX: 27400000 instructions simulated : ctaid=(83,0,0) tid=(127,0,0)
GPGPU-Sim uArch: cycles simulated: 220000  inst.: 27375520 (ipc=124.4) sim_rate=271044 (inst/sec) elapsed = 0:0:01:41 / Tue Mar 22 12:45:49 2016
GPGPU-Sim PTX: 27500000 instructions simulated : ctaid=(86,0,0) tid=(31,0,0)
GPGPU-Sim PTX: 27600000 instructions simulated : ctaid=(79,0,0) tid=(63,0,0)
[...]
traffic_breakdown_memtocore[INST_ACC_R] = 8146944 {136:59904,}
maxmrqlatency = 121 
maxdqlatency = 0 
maxmflatency = 436 
averagemflatency = 213 
max_icnt2mem_latency = 217 
max_icnt2sh_latency = 960059 
mrq_lat_table:2851 	189 	212 	2767 	2181 	854 	320 	0 	0 	0 	0 	0 	0 	0 	0 	0 	0 	0 	0 	0 	0 	0 	0 	0 	0 	0 	0 	0 	0 	0 	0 	0 	
dq_lat_table:0 	0 	0 	0 	0 	0 	0 	0 	0 	0 	0 	0 	0 	0 	0 	0 	0 	0 	0 	0 	0 	0 	0 	0 	0 	0 	0 	0 	0 	0 	0 	0 	
mf_lat_table:0 	0 	0 	0 	0 	0 	0 	18937 	7574 	0 	0 	0 	0 	0 	0 	0 	0 	0 	0 	0 	0 	0 	0 	0 	0 	0 	0 	0 	0 	0 	0 	0 	
icnt2mem_lat_table:0 	0 	0 	63499 	5326 	14519 	3033 	38 	0 	0 	0 	0 	0 	0 	0 	0 	0 	0 	0 	0 	0 	0 	0 	0 	
icnt2sh_lat_table:0 	0 	0 	1012 	922 	1 	0 	0 	0 	0 	0 	0 	0 	0 	0 	960 	1920 	2880 	6720 	12096 	0 	0 	0 	0 	
mf_lat_pw_table:0 	0 	0 	0 	0 	0 	0 	169 	14 	0 	0 	0 	0 	0 	0 	0 	0 	0 	0 	0 	0 	0 	0 	0 	0 	0 	0 	0 	0 	0 	0 	0 	
maximum concurrent accesses to same row:
dram[0]:         7         8         6         5        10        10         0         0         0         0         0         0         0         0         0         0 
dram[1]:         8         8         6         4        10        10         0         0         0         0         0         0         0         0         0         0 
dram[2]:         8         8         6         4        10        12         0         0         0         0         0         0         0         0         0         0 
dram[3]:         8         8         6         4        10        12         0         0         0         0         0         0         0         0         0         0 
dram[4]:         8         8         6         4        10        12         0         0         0         0         0         0         0         0         0         0 
dram[5]:         7         8         6         4        10        12         0         0         0         0         0         0         0         0         0         0 
maximum service time to same row:
dram[0]:    343593    339728    528246    559384    811731    812075     92551     92537    310054    310049    527451    563004     54444     54428    126982    126950 
dram[1]:    343374    339102    527561    558910    811975    812072     92549     92544    310056    310057    527449    563006     54450     54475    127001    126985 
dram[2]:    342691    338360    526837    558191    811939    812072     92499     92590    310010    310179    527760    563138     54421     54450    126974    126962 
dram[3]:    342027    337878    560907    557638    812047    812116     92501     92591    310018    310181    562307    563141     54438     54456    126922    127038 
dram[4]:    341384    337153    560191    556900    812035    812062     92529     92616    310032    310103    562610    563318     54415     54432    126897    127013 
dram[5]:    340036    336406    560103    556438    812144    812125     92531     92622    310035    310101    562860    563325     54462     54475    126978    127062 
average row accesses per activate:
dram[0]: 42.250000 84.000000 83.000000 82.500000 60.000000 60.000000 32.000000 32.000000 32.000000 32.000000 32.000000 32.000000 72.000000 72.000000 160.000000 160.000000 
dram[1]: 84.000000 84.000000 83.000000 82.000000 60.000000 60.000000 32.000000 32.000000 32.000000 32.000000 32.000000 32.000000 72.000000 72.000000 160.000000 160.000000 
dram[2]: 84.000000 84.000000 83.000000 82.000000 60.000000 61.000000 32.000000 32.000000 32.000000 32.000000 32.000000 32.000000 72.000000 71.000000 160.000000 160.000000 
dram[3]: 84.000000 84.000000 83.000000 82.000000 60.000000 56.000000 32.000000 32.000000 32.000000 32.000000 32.000000 32.000000 72.000000 80.000000 160.000000 160.000000 
dram[4]: 84.000000 84.000000 83.000000 82.000000 60.000000 56.000000 32.000000 32.000000 32.000000 32.000000 32.000000 32.000000 72.000000 80.000000 160.000000 160.000000 
dram[5]: 83.500000 84.000000 83.000000 82.000000 60.000000 56.000000 32.000000 32.000000 32.000000 32.000000 32.000000 32.000000 72.000000 80.000000 160.000000 160.000000 
average row locality = 9374/134 = 69.955223
number of total memory accesses made:
dram[0]:         0         0         0         0         0         0         0         0         0         0         0         0         0         0         0         0 
dram[1]:         0         0         0         0         0         0         0         0         0         0         0         0         0         0         0         0 
dram[2]:         0         0         0         0         0         0         0         0         0         0         0         0         0         0         0         0 
dram[3]:         0         0         0         0         0         0         0         0         0         0         0         0         0         0         0         0 
dram[4]:         0         0         0         0         0         0         0         0         0         0         0         0         0         0         0         0 
dram[5]:         0         0         0         0         0         0         0         0         0         0         0         0         0         0         0         0 
total accesses: 0
min_bank_accesses = 0!
min_chip_accesses = 0!
number of total read accesses:
dram[0]:        41        40        38        37        32        32        32        32        32        32        32        32        32        32        32        32 
dram[1]:        40        40        38        36        32        32        32        32        32        32        32        32        32        32        32        32 
dram[2]:        40        40        38        36        32        34        32        32        32        32        32        32        32        31        32        32 
dram[3]:        40        40        38        36        32        32        32        32        32        32        32        32        32        32        32        32 
dram[4]:        40        40        38        36        32        32        32        32        32        32        32        32        32        32        32        32 
dram[5]:        39        40        38        36        32        32        32        32        32        32        32        32        32        32        32        32 
total reads: 3230
bank skew: 41/31 = 1.32
chip skew: 540/537 = 1.01
number of total write accesses:
dram[0]:       128       128       128       128        88        88         0         0         0         0         0         0        40        40       128       128 
dram[1]:       128       128       128       128        88        88         0         0         0         0         0         0        40        40       128       128 
dram[2]:       128       128       128       128        88        88         0         0         0         0         0         0        40        40       128       128 
dram[3]:       128       128       128       128        88        80         0         0         0         0         0         0        40        48       128       128 
dram[4]:       128       128       128       128        88        80         0         0         0         0         0         0        40        48       128       128 
dram[5]:       128       128       128       128        88        80         0         0         0         0         0         0        40        48       128       128 
total reads: 6144
min_bank_accesses = 0!
chip skew: 1024/1024 = 1.00
average mf latency per bank:
dram[0]:        656       616       626       619       614       618       335       334       333       334       336       338       638       636       720       709
dram[1]:        655       653       659       658       638       632       268       268       267       267       266       266       619       627       713       699
dram[2]:        614       619       625       624       612       603       333       333       333       334       333       333       616       660       688       667
dram[3]:        640       637       650       653       637       631       267       265       267       266       266       267       576       621       706       697
dram[4]:        609       606       615       620       617       609       335       334       338       335       340       341       581       607       676       669
dram[5]:        655       653       648       661       639       626       266       266       266       266       266       266       608       636       725       706
maximum mf latency per bank:
dram[0]:        357       331       328       323       320       347       286       274       272       281       281       272       421       420       382       386
dram[1]:        385       363       366       345       341       341       295       290       281       286       272       281       436       420       407       400
dram[2]:        331       353       348       330       325       323       272       274       273       272       272       272       420       408       403       380
dram[3]:        358       369       347       344       337       363       281       281       278       281       274       281       347       413       405       392
dram[4]:        324       322       325       323       354       345       273       273       277       281       272       280       341       396       389       368
dram[5]:        369       359       339       352       349       366       281       278       281       272       274       279       397       426       396       357

Number of Memory Banks Accessed per Memory Operation per Warp (from 0):
0	0	0	0	0	0	0	0	0	0	0	0	0	0	0	0	0	0	0	0	0	0	0	0	0	0	0	0	0	0	0	0	0	0	0	0	0	0	0	0	0	0	0	0	0	0	0	0	0	0	0	0	0	0	0	0	0	0	0	0	0	0	0	0	0	0	0	0	0	0	0	0	0	0	0	0	0	0	0	0	0	0	0	0	0	0	0	0	0	0	0	0	0	0	0	0	
Average # of Memory Banks Accessed per Memory Operation per Warp=-nan

position of mrq chosen
0	0	0	0	0	0	0	0	0	0	0	0	0	0	0	0	

average position of mrq chosen = -nan
Memory Partition 0: 
Cache L2_bank_000:
MSHR contents

Cache L2_bank_001:
MSHR contents

In Dram Latency Queue (total = 0): 
DRAM[0]: 16 bks, busW=4 BL=8 CL=12, tRRD=2 tCCD=6, tRCD=12 tRAS=28 tRP=12 tRC=40
n_cmd=1267278 n_nop=1265142 n_act=24 n_pre=8 n_req=1564 n_rd=1080 n_write=1024 bw_util=0.003321
n_activity=13119 dram_eff=0.3208
bk0: 82a 1265997i bk1: 80a 1266018i bk2: 76a 1266120i bk3: 74a 1266124i bk4: 64a 1266404i bk5: 64a 1266371i bk6: 64a 1267113i bk7: 64a 1267108i bk8: 64a 1267127i bk9: 64a 1267107i bk10: 64a 1267130i bk11: 64a 1267119i bk12: 64a 1266745i bk13: 64a 1266737i bk14: 64a 1266015i bk15: 64a 1265946i 
dram_util_bins: 0 0 0 0 0 0 0 0 0 0
dram_eff_bins: 0 0 0 0 0 0 0 0 0 0
mrqq: max=16 avg=0.0256629
Memory Partition 1: 
Cache L2_bank_002:
MSHR contents

Cache L2_bank_003:
MSHR contents

In Dram Latency Queue (total = 0): 
DRAM[1]: 16 bks, busW=4 BL=8 CL=12, tRRD=2 tCCD=6, tRCD=12 tRAS=28 tRP=12 tRC=40
n_cmd=1267278 n_nop=1265150 n_act=22 n_pre=6 n_req=1562 n_rd=1076 n_write=1024 bw_util=0.003314
n_activity=12614 dram_eff=0.333
bk0: 80a 1266028i bk1: 80a 1265993i bk2: 76a 1266080i bk3: 72a 1266096i bk4: 64a 1266447i bk5: 64a 1266445i bk6: 64a 1267096i bk7: 64a 1267060i bk8: 64a 1267103i bk9: 64a 1267087i bk10: 64a 1267107i bk11: 64a 1267105i bk12: 64a 1266659i bk13: 64a 1266665i bk14: 64a 1266055i bk15: 64a 1265964i 
dram_util_bins: 0 0 0 0 0 0 0 0 0 0
dram_eff_bins: 0 0 0 0 0 0 0 0 0 0
mrqq: max=16 avg=0.0270375
Memory Partition 2: 
Cache L2_bank_004:
MSHR contents

Cache L2_bank_005:
MSHR contents

In Dram Latency Queue (total = 0): 
DRAM[2]: 16 bks, busW=4 BL=8 CL=12, tRRD=2 tCCD=6, tRCD=12 tRAS=28 tRP=12 tRC=40
n_cmd=1267278 n_nop=1265148 n_act=22 n_pre=6 n_req=1563 n_rd=1078 n_write=1024 bw_util=0.003317
n_activity=13208 dram_eff=0.3183
bk0: 80a 1266050i bk1: 80a 1265960i bk2: 76a 1266046i bk3: 72a 1266068i bk4: 64a 1266460i bk5: 68a 1266446i bk6: 64a 1267124i bk7: 64a 1267115i bk8: 64a 1267130i bk9: 64a 1267131i bk10: 64a 1267129i bk11: 64a 1267126i bk12: 64a 1266676i bk13: 62a 1266686i bk14: 64a 1266013i bk15: 64a 1265960i 
dram_util_bins: 0 0 0 0 0 0 0 0 0 0
dram_eff_bins: 0 0 0 0 0 0 0 0 0 0
mrqq: max=16 avg=0.0276869
Memory Partition 3: 
Cache L2_bank_006:
MSHR contents

Cache L2_bank_007:
MSHR contents

In Dram Latency Queue (total = 0): 
DRAM[3]: 16 bks, busW=4 BL=8 CL=12, tRRD=2 tCCD=6, tRCD=12 tRAS=28 tRP=12 tRC=40
n_cmd=1267278 n_nop=1265150 n_act=22 n_pre=6 n_req=1562 n_rd=1076 n_write=1024 bw_util=0.003314
n_activity=12847 dram_eff=0.3269
bk0: 80a 1266100i bk1: 80a 1266068i bk2: 76a 1266122i bk3: 72a 1266141i bk4: 64a 1266444i bk5: 64a 1266473i bk6: 64a 1267100i bk7: 64a 1267105i bk8: 64a 1267102i bk9: 64a 1267105i bk10: 64a 1267103i bk11: 64a 1267099i bk12: 64a 1266715i bk13: 64a 1266602i bk14: 64a 1265994i bk15: 64a 1265969i 
dram_util_bins: 0 0 0 0 0 0 0 0 0 0
dram_eff_bins: 0 0 0 0 0 0 0 0 0 0
mrqq: max=16 avg=0.0250253
Memory Partition 4: 
Cache L2_bank_008:
MSHR contents

Cache L2_bank_009:
MSHR contents

In Dram Latency Queue (total = 0): 
DRAM[4]: 16 bks, busW=4 BL=8 CL=12, tRRD=2 tCCD=6, tRCD=12 tRAS=28 tRP=12 tRC=40
n_cmd=1267278 n_nop=1265150 n_act=22 n_pre=6 n_req=1562 n_rd=1076 n_write=1024 bw_util=0.003314
n_activity=13254 dram_eff=0.3169
bk0: 80a 1266080i bk1: 80a 1266093i bk2: 76a 1266130i bk3: 72a 1266143i bk4: 64a 1266436i bk5: 64a 1266467i bk6: 64a 1267126i bk7: 64a 1267116i bk8: 64a 1267119i bk9: 64a 1267125i bk10: 64a 1267129i bk11: 64a 1267131i bk12: 64a 1266699i bk13: 64a 1266639i bk14: 64a 1265936i bk15: 64a 1265945i 
dram_util_bins: 0 0 0 0 0 0 0 0 0 0
dram_eff_bins: 0 0 0 0 0 0 0 0 0 0
mrqq: max=16 avg=0.0253741
Memory Partition 5: 
Cache L2_bank_010:
MSHR contents

Cache L2_bank_011:
MSHR contents

In Dram Latency Queue (total = 0): 
DRAM[5]: 16 bks, busW=4 BL=8 CL=12, tRRD=2 tCCD=6, tRCD=12 tRAS=28 tRP=12 tRC=40
n_cmd=1267278 n_nop=1265152 n_act=22 n_pre=6 n_req=1561 n_rd=1074 n_write=1024 bw_util=0.003311
n_activity=12794 dram_eff=0.328
bk0: 78a 1266043i bk1: 80a 1266066i bk2: 76a 1266127i bk3: 72a 1266141i bk4: 64a 1266412i bk5: 64a 1266442i bk6: 64a 1267105i bk7: 64a 1267097i bk8: 64a 1267100i bk9: 64a 1267097i bk10: 64a 1267105i bk11: 64a 1267106i bk12: 64a 1266721i bk13: 64a 1266613i bk14: 64a 1265984i bk15: 64a 1265985i 
dram_util_bins: 0 0 0 0 0 0 0 0 0 0
dram_eff_bins: 0 0 0 0 0 0 0 0 0 0
mrqq: max=16 avg=0.0266295

========= L2 cache stats =========
L2_cache_bank[0]: Access = 7631, Miss = 271, Miss_rate = 0.036, Pending_hits = 433, Reservation_fails = 1476
L2_cache_bank[1]: Access = 7232, Miss = 269, Miss_rate = 0.037, Pending_hits = 429, Reservation_fails = 1386
L2_cache_bank[2]: Access = 7552, Miss = 270, Miss_rate = 0.036, Pending_hits = 426, Reservation_fails = 1501
L2_cache_bank[3]: Access = 6784, Miss = 268, Miss_rate = 0.040, Pending_hits = 420, Reservation_fails = 1331
L2_cache_bank[4]: Access = 7616, Miss = 270, Miss_rate = 0.035, Pending_hits = 428, Reservation_fails = 1507
L2_cache_bank[5]: Access = 6848, Miss = 269, Miss_rate = 0.039, Pending_hits = 424, Reservation_fails = 1319
L2_cache_bank[6]: Access = 7552, Miss = 270, Miss_rate = 0.036, Pending_hits = 426, Reservation_fails = 1378
L2_cache_bank[7]: Access = 6784, Miss = 268, Miss_rate = 0.040, Pending_hits = 420, Reservation_fails = 1305
L2_cache_bank[8]: Access = 7616, Miss = 270, Miss_rate = 0.035, Pending_hits = 433, Reservation_fails = 1382
L2_cache_bank[9]: Access = 6848, Miss = 268, Miss_rate = 0.039, Pending_hits = 428, Reservation_fails = 1235
L2_cache_bank[10]: Access = 7168, Miss = 269, Miss_rate = 0.038, Pending_hits = 423, Reservation_fails = 1346
L2_cache_bank[11]: Access = 6784, Miss = 268, Miss_rate = 0.040, Pending_hits = 420, Reservation_fails = 1160
L2_total_cache_accesses = 86415
L2_total_cache_misses = 3230
L2_total_cache_miss_rate = 0.0374
L2_total_cache_pending_hits = 5110
L2_total_cache_reservation_fails = 16326
L2_total_cache_breakdown:
	L2_cache_stats_breakdown[GLOBAL_ACC_R][HIT] = 352
	L2_cache_stats_breakdown[GLOBAL_ACC_R][HIT_RESERVED] = 31
	L2_cache_stats_breakdown[GLOBAL_ACC_R][MISS] = 1537
	L2_cache_stats_breakdown[CONST_ACC_R][HIT] = 11
	L2_cache_stats_breakdown[CONST_ACC_R][HIT_RESERVED] = 3
	L2_cache_stats_breakdown[CONST_ACC_R][MISS] = 1
	L2_cache_stats_breakdown[CONST_ACC_R][RESERVATION_FAIL] = 109
	L2_cache_stats_breakdown[GLOBAL_ACC_W][HIT] = 18432
	L2_cache_stats_breakdown[GLOBAL_ACC_W][HIT_RESERVED] = 4608
	L2_cache_stats_breakdown[GLOBAL_ACC_W][MISS] = 1536
	L2_cache_stats_breakdown[GLOBAL_ACC_W][RESERVATION_FAIL] = 1799
	L2_cache_stats_breakdown[INST_ACC_R][HIT] = 59280
	L2_cache_stats_breakdown[INST_ACC_R][HIT_RESERVED] = 468
	L2_cache_stats_breakdown[INST_ACC_R][MISS] = 156
	L2_cache_stats_breakdown[INST_ACC_R][RESERVATION_FAIL] = 14418
L2_cache_data_port_util = 0.022
L2_cache_fill_port_util = 0.001

icnt_total_pkts_mem_to_simt=333741
icnt_total_pkts_simt_to_mem=110991
LD_mem_lat_dist  0 0 0 0 0 0 0 0 0 0 0 0 0 0 0 0 0 0 0 0 0 0 0 0 0 0 0
ST_mem_lat_dist  0 0 0 0 0 0 0 0 0 0 0 0 0 0 0 0 0 0 0 0 0 0 0 0 0 0 0
----------------------------Interconnect-DETAILS--------------------------------
Class 0:
Packet latency average = 11.0525
	minimum = 6
	maximum = 128
Network latency average = 9.37562
	minimum = 6
	maximum = 115
Slowest packet = 12567
Flit latency average = 7.34787
	minimum = 6
	maximum = 114
Slowest flit = 33651
Fragmentation average = 0
	minimum = 0
	maximum = 0
Injected packet rate average = 0.00666741
	minimum = 0.00586005 (at node 7)
	maximum = 0.00794846 (at node 15)
Accepted packet rate average = 0.00666741
	minimum = 0.00586005 (at node 7)
	maximum = 0.00794846 (at node 15)
Injected flit rate average = 0.0171568
	minimum = 0.00752661 (at node 7)
	maximum = 0.0311783 (at node 15)
Accepted flit rate average= 0.0171568
	minimum = 0.00919943 (at node 18)
	maximum = 0.0235371 (at node 0)
Injected packet length average = 2.57323
Accepted packet length average = 2.57323
Total in-flight flits = 0 (0 measured)
====== Overall Traffic Statistics ======
====== Traffic class 0 ======
Packet latency average = 11.0525 (1 samples)
	minimum = 6 (1 samples)
	maximum = 128 (1 samples)
Network latency average = 9.37562 (1 samples)
	minimum = 6 (1 samples)
	maximum = 115 (1 samples)
Flit latency average = 7.34787 (1 samples)
	minimum = 6 (1 samples)
	maximum = 114 (1 samples)
Fragmentation average = 0 (1 samples)
	minimum = 0 (1 samples)
	maximum = 0 (1 samples)
Injected packet rate average = 0.00666741 (1 samples)
	minimum = 0.00586005 (1 samples)
	maximum = 0.00794846 (1 samples)
Accepted packet rate average = 0.00666741 (1 samples)
	minimum = 0.00586005 (1 samples)
	maximum = 0.00794846 (1 samples)
Injected flit rate average = 0.0171568 (1 samples)
	minimum = 0.00752661 (1 samples)
	maximum = 0.0311783 (1 samples)
Accepted flit rate average = 0.0171568 (1 samples)
	minimum = 0.00919943 (1 samples)
	maximum = 0.0235371 (1 samples)
Injected packet size average = 2.57323 (1 samples)
Accepted packet size average = 2.57323 (1 samples)
Hops average = 1 (1 samples)
----------------------------END-of-Interconnect-DETAILS-------------------------
GPGPU-Sim API: Stream Manager State


gpgpu_simulation_time = 0 days, 0 hrs, 6 min, 36 sec (396 sec)
gpgpu_simulation_rate = 317502 (inst/sec)
gpgpu_simulation_rate = 2424 (cycle/sec)
GPGPU-Sim: detected inactive GPU simulation thread

== GPU Timing ==
GPU init                 : 0.008000
Host input buffer alloc  : 0.004000
-----
Host output buffer alloc : 0.003000
GPU memory alloc         : 0.002000
Data copy in             : 6.757000
Kernel execution         : 384899.812500
Data copy out            : 6.859000
Last hasing stage        : 0.000000
GPU Proc. Time (gpu init and input alloc are not included):  384913.437500 

== CPU Execution Context ==
Threads       : 128
Blocks        : 384
Total Threads : 49152
Total Size    : 196656
Chunk Size    : 52
Padding       : 0

CPU Processing time(ms):    29.665001 

Output size: 196608
Test PASSED
CPU GPU
FD FD
DD DD
2 2
F9 F9
