

        *** GPGPU-Sim Simulator Version 3.2.2  [build 0] ***


GPGPU-Sim PTX: simulation mode 0 (can change with PTX_SIM_MODE_FUNC environment variable:
               1=functional simulation only, 0=detailed performance simulator)
GPGPU-Sim: Configuration options:

-network_mode                           1 # Interconnection network mode
-inter_config_file   config_fermi_islip.icnt # Interconnection network config file
-gpgpu_ptx_use_cuobjdump                    1 # Use cuobjdump to extract ptx and sass from binaries
-gpgpu_experimental_lib_support                    0 # Try to extract code from cuda libraries [Broken because of unknown cudaGetExportTable]
-gpgpu_ptx_convert_to_ptxplus                    0 # Convert SASS (native ISA) to ptxplus and run ptxplus
-gpgpu_ptx_force_max_capability                   20 # Force maximum compute capability
-gpgpu_ptx_inst_debug_to_file                    0 # Dump executed instructions' debug information to file
-gpgpu_ptx_inst_debug_file       inst_debug.txt # Executed instructions' debug output file
-gpgpu_ptx_inst_debug_thread_uid                    1 # Thread UID for executed instructions' debug output
-gpgpu_simd_model                       1 # 1 = post-dominator
-gpgpu_shader_core_pipeline              1536:32 # shader core pipeline config, i.e., {<nthread>:<warpsize>}
-gpgpu_tex_cache:l1  4:128:24,L:R:m:N:L,F:128:4,128:2 # per-shader L1 texture cache  (READ-ONLY) config  {<nsets>:<bsize>:<assoc>,<rep>:<wr>:<alloc>:<wr_alloc>,<mshr>:<N>:<merge>,<mq>:<rf>}
-gpgpu_const_cache:l1 64:64:2,L:R:f:N:L,A:2:32,4 # per-shader L1 constant memory cache  (READ-ONLY) config  {<nsets>:<bsize>:<assoc>,<rep>:<wr>:<alloc>:<wr_alloc>,<mshr>:<N>:<merge>,<mq>} 
-gpgpu_cache:il1     4:128:4,L:R:f:N:L,A:2:32,4 # shader L1 instruction cache config  {<nsets>:<bsize>:<assoc>,<rep>:<wr>:<alloc>:<wr_alloc>,<mshr>:<N>:<merge>,<mq>} 
-gpgpu_cache:dl1     32:128:4,L:L:m:N:H,A:32:8,8:2,0,1:0:1:1:0:1,1:4:8:16:32:64,/sciclone/data10/hwang07/GPU_RESEARCH/swl/swl_outputs/RESULTS/gto/ # per-shader L1 data cache config  {<nsets>:<bsize>:<assoc>,<rep>:<wr>:<alloc>:<wr_alloc>,<mshr>:<N>:<merge>,<mq> | none}
-gpgpu_cache:dl1PrefL1                 none # per-shader L1 data cache config  {<nsets>:<bsize>:<assoc>,<rep>:<wr>:<alloc>:<wr_alloc>,<mshr>:<N>:<merge>,<mq> | none}
-gpgpu_cache:dl1PreShared                 none # per-shader L1 data cache config  {<nsets>:<bsize>:<assoc>,<rep>:<wr>:<alloc>:<wr_alloc>,<mshr>:<N>:<merge>,<mq> | none}
-gmem_skip_L1D                          0 # global memory access skip L1D cache (implements -Xptxas -dlcm=cg, default=no skip)
-gpgpu_perfect_mem                      0 # enable perfect memory mode (no cache miss)
-n_regfile_gating_group                    4 # group of lanes that should be read/written together)
-gpgpu_clock_gated_reg_file                    0 # enable clock gated reg file for power calculations
-gpgpu_clock_gated_lanes                    0 # enable clock gated lanes for power calculations
-gpgpu_shader_registers                32768 # Number of registers per shader core. Limits number of concurrent CTAs. (default 8192)
-gpgpu_shader_cta                       8 # Maximum number of concurrent CTAs in shader (default 8)
-gpgpu_num_cta_barriers                   16 # Maximum number of named barriers per CTA (default 16)
-gpgpu_n_clusters                      15 # number of processing clusters
-gpgpu_n_cores_per_cluster                    1 # number of simd cores per cluster
-gpgpu_n_cluster_ejection_buffer_size                    8 # number of packets in ejection buffer
-gpgpu_n_ldst_response_buffer_size                    2 # number of response packets in ld/st unit ejection buffer
-gpgpu_shmem_size                   16384 # Size of shared memory per shader core (default 16kB)
-gpgpu_shmem_size                   49152 # Size of shared memory per shader core (default 16kB)
-gpgpu_shmem_size_PrefL1                16384 # Size of shared memory per shader core (default 16kB)
-gpgpu_shmem_size_PrefShared                16384 # Size of shared memory per shader core (default 16kB)
-gpgpu_shmem_num_banks                   32 # Number of banks in the shared memory in each shader core (default 16)
-gpgpu_shmem_limited_broadcast                    0 # Limit shared memory to do one broadcast per cycle (default on)
-gpgpu_shmem_warp_parts                    1 # Number of portions a warp is divided into for shared memory bank conflict check 
-gpgpu_warpdistro_shader                   -1 # Specify which shader core to collect the warp size distribution from
-gpgpu_warp_issue_shader                    0 # Specify which shader core to collect the warp issue distribution from
-gpgpu_local_mem_map                    1 # Mapping from local memory space address to simulated GPU physical address space (default = enabled)
-gpgpu_num_reg_banks                   16 # Number of register banks (default = 8)
-gpgpu_reg_bank_use_warp_id                    0 # Use warp ID in mapping registers to banks (default = off)
-gpgpu_operand_collector_num_units_sp                    6 # number of collector units (default = 4)
-gpgpu_operand_collector_num_units_sfu                    8 # number of collector units (default = 4)
-gpgpu_operand_collector_num_units_mem                    2 # number of collector units (default = 2)
-gpgpu_operand_collector_num_units_gen                    0 # number of collector units (default = 0)
-gpgpu_operand_collector_num_in_ports_sp                    2 # number of collector unit in ports (default = 1)
-gpgpu_operand_collector_num_in_ports_sfu                    1 # number of collector unit in ports (default = 1)
-gpgpu_operand_collector_num_in_ports_mem                    1 # number of collector unit in ports (default = 1)
-gpgpu_operand_collector_num_in_ports_gen                    0 # number of collector unit in ports (default = 0)
-gpgpu_operand_collector_num_out_ports_sp                    2 # number of collector unit in ports (default = 1)
-gpgpu_operand_collector_num_out_ports_sfu                    1 # number of collector unit in ports (default = 1)
-gpgpu_operand_collector_num_out_ports_mem                    1 # number of collector unit in ports (default = 1)
-gpgpu_operand_collector_num_out_ports_gen                    0 # number of collector unit in ports (default = 0)
-gpgpu_coalesce_arch                   13 # Coalescing arch (default = 13, anything else is off for now)
-gpgpu_num_sched_per_core                    2 # Number of warp schedulers per core
-gpgpu_max_insn_issue_per_warp                    1 # Max number of instructions that can be issued per warp in one cycle by scheduler
-gpgpu_simt_core_sim_order                    1 # Select the simulation order of cores in a cluster (0=Fix, 1=Round-Robin)
-gpgpu_pipeline_widths        2,1,1,2,1,1,2 # Pipeline widths ID_OC_SP,ID_OC_SFU,ID_OC_MEM,OC_EX_SP,OC_EX_SFU,OC_EX_MEM,EX_WB
-gpgpu_num_sp_units                     2 # Number of SP units (default=1)
-gpgpu_num_sfu_units                    1 # Number of SF units (default=1)
-gpgpu_num_mem_units                    1 # Number if ldst units (default=1) WARNING: not hooked up to anything
-gpgpu_scheduler                      gto # Scheduler configuration: < lrr | gto | two_level_active > If two_level_active:<num_active_warps>:<inner_prioritization>:<outer_prioritization>For complete list of prioritization values see shader.h enum scheduler_prioritization_typeDefault: gto
-gpgpu_dram_scheduler                    1 # 0 = fifo, 1 = FR-FCFS (defaul)
-gpgpu_dram_partition_queues              8:8:8:8 # i2$:$2d:d2$:$2i
-l2_ideal                               0 # Use a ideal L2 cache that always hit
-gpgpu_cache:dl2     64:128:8,L:B:m:W:L,A:32:4,4:0,32 # unified banked L2 data cache config  {<nsets>:<bsize>:<assoc>,<rep>:<wr>:<alloc>:<wr_alloc>,<mshr>:<N>:<merge>,<mq>}
-gpgpu_cache:dl2_texture_only                    0 # L2 cache used for texture only
-gpgpu_n_mem                            6 # number of memory modules (e.g. memory controllers) in gpu
-gpgpu_n_sub_partition_per_mchannel                    2 # number of memory subpartition in each memory module
-gpgpu_n_mem_per_ctrlr                    2 # number of memory chips per memory controller
-gpgpu_memlatency_stat                   14 # track and display latency statistics 0x2 enables MC, 0x4 enables queue logs
-gpgpu_frfcfs_dram_sched_queue_size                   16 # 0 = unlimited (default); # entries per chip
-gpgpu_dram_return_queue_size                  116 # 0 = unlimited (default); # entries per chip
-gpgpu_dram_buswidth                    4 # default = 4 bytes (8 bytes per cycle at DDR)
-gpgpu_dram_burst_length                    8 # Burst length of each DRAM request (default = 4 data bus cycle)
-dram_data_command_freq_ratio                    4 # Frequency ratio between DRAM data bus and command bus (default = 2 times, i.e. DDR)
-gpgpu_dram_timing_opt nbk=16:CCD=2:RRD=6:RCD=12:RAS=28:RP=12:RC=40: CL=12:WL=4:CDLR=5:WR=12:nbkgrp=4:CCDL=3:RTPL=2 # DRAM timing parameters = {nbk:tCCD:tRRD:tRCD:tRAS:tRP:tRC:CL:WL:tCDLR:tWR:nbkgrp:tCCDL:tRTPL}
-rop_latency                          120 # ROP queue latency (default 85)
-dram_latency                         100 # DRAM latency (default 30)
-gpgpu_mem_addr_mapping dramid@8;00000000.00000000.00000000.00000000.0000RRRR.RRRRRRRR.BBBCCCCB.CCSSSSSS # mapping memory address to dram model {dramid@<start bit>;<memory address map>}
-gpgpu_mem_addr_test                    0 # run sweep test to check address mapping for aliased address
-gpgpu_mem_address_mask                    1 # 0 = old addressing mask, 1 = new addressing mask, 2 = new add. mask + flipped bank sel and chip sel bits
-gpuwattch_xml_file  gpuwattch_gtx480.xml # GPUWattch XML file
-power_simulation_enabled                    0 # Turn on power simulator (1=On, 0=Off)
-power_per_cycle_dump                    0 # Dump detailed power output each cycle
-power_trace_enabled                    0 # produce a file for the power trace (1=On, 0=Off)
-power_trace_zlevel                     6 # Compression level of the power trace output log (0=no comp, 9=highest)
-steady_power_levels_enabled                    0 # produce a file for the steady power levels (1=On, 0=Off)
-steady_state_definition                  8:4 # allowed deviation:number of samples
-gpgpu_max_cycle                        0 # terminates gpu simulation early (0 = no limit)
-gpgpu_max_insn                         0 # terminates gpu simulation early (0 = no limit)
-gpgpu_max_cta                          0 # terminates gpu simulation early (0 = no limit)
-gpgpu_runtime_stat                   500 # display runtime statistics such as dram utilization {<freq>:<flag>}
-liveness_message_freq                    1 # Minimum number of seconds between simulation liveness messages (0 = always print)
-gpgpu_flush_l1_cache                    0 # Flush L1 cache at the end of each kernel call
-gpgpu_flush_l2_cache                    0 # Flush L2 cache at the end of each kernel call
-gpgpu_deadlock_detect                    1 # Stop the simulation at deadlock (1=on (default), 0=off)
-gpgpu_ptx_instruction_classification                    0 # if enabled will classify ptx instruction types per kernel (Max 255 kernels now)
-gpgpu_ptx_sim_mode                     0 # Select between Performance (default) or Functional simulation (1)
-gpgpu_clock_domains 700.0:700.0:700.0:924.0 # Clock Domain Frequencies in MhZ {<Core Clock>:<ICNT Clock>:<L2 Clock>:<DRAM Clock>}
-gpgpu_max_concurrent_kernel                    8 # maximum kernels that can run concurrently on GPU
-gpgpu_cflog_interval                    0 # Interval between each snapshot in control flow logger
-visualizer_enabled                     0 # Turn on visualizer output (1=On, 0=Off)
-visualizer_outputfile                 NULL # Specifies the output log file for visualizer
-visualizer_zlevel                      6 # Compression level of the visualizer output log (0=no comp, 9=highest)
-trace_enabled                          0 # Turn on traces
-trace_components                    none # comma seperated list of traces to enable. Complete list found in trace_streams.tup. Default none
-trace_sampling_core                    0 # The core which is printed using CORE_DPRINTF. Default 0
-trace_sampling_memory_partition                   -1 # The memory partition which is printed using MEMPART_DPRINTF. Default -1 (i.e. all)
-enable_ptx_file_line_stats                    1 # Turn on PTX source line statistic profiling. (1 = On)
-ptx_line_stats_filename gpgpu_inst_stats.txt # Output file for PTX source line statistics.
-save_embedded_ptx                      0 # saves ptx files embedded in binary as <n>.ptx
-keep                                   0 # keep intermediate files created by GPGPU-Sim when interfacing with external programs
-gpgpu_ptx_save_converted_ptxplus                    0 # Saved converted ptxplus to a file
-ptx_opcode_latency_int         4,13,4,5,145 # Opcode latencies for integers <ADD,MAX,MUL,MAD,DIV>Default 1,1,19,25,145
-ptx_opcode_latency_fp          4,13,4,5,39 # Opcode latencies for single precision floating points <ADD,MAX,MUL,MAD,DIV>Default 1,1,1,1,30
-ptx_opcode_latency_dp         8,19,8,8,330 # Opcode latencies for double precision floating points <ADD,MAX,MUL,MAD,DIV>Default 8,8,8,8,335
-ptx_opcode_initiation_int            1,2,2,1,8 # Opcode initiation intervals for integers <ADD,MAX,MUL,MAD,DIV>Default 1,1,4,4,32
-ptx_opcode_initiation_fp            1,2,1,1,4 # Opcode initiation intervals for single precision floating points <ADD,MAX,MUL,MAD,DIV>Default 1,1,1,1,5
-ptx_opcode_initiation_dp         8,16,8,8,130 # Opcode initiation intervals for double precision floating points <ADD,MAX,MUL,MAD,DIV>Default 8,8,8,8,130
DRAM Timing Options:
nbk                                    16 # number of banks
CCD                                     2 # column to column delay
RRD                                     6 # minimal delay between activation of rows in different banks
RCD                                    12 # row to column delay
RAS                                    28 # time needed to activate row
RP                                     12 # time needed to precharge (deactivate) row
RC                                     40 # row cycle time
CDLR                                    5 # switching from write to read (changes tWTR)
WR                                     12 # last data-in to row precharge
CL                                     12 # CAS latency
WL                                      4 # Write latency
nbkgrp                                  4 # number of bank groups
CCDL                                    3 # column to column delay between accesses to different bank groups
RTPL                                    2 # read to precharge delay between accesses to different bank groups
Total number of memory sub partition = 12
addr_dec_mask[CHIP]  = 0000000000000000 	high:64 low:0
addr_dec_mask[BK]    = 000000000000e100 	high:16 low:8
addr_dec_mask[ROW]   = 000000000fff0000 	high:28 low:16
addr_dec_mask[COL]   = 0000000000001eff 	high:13 low:0
addr_dec_mask[BURST] = 000000000000003f 	high:6 low:0
sub_partition_id_mask = 0000000000000100
GPGPU-Sim uArch: clock freqs: 700000000.000000:700000000.000000:700000000.000000:924000000.000000
GPGPU-Sim uArch: clock periods: 0.00000000142857142857:0.00000000142857142857:0.00000000142857142857:0.00000000108225108225
*** Initializing Memory Statistics ***
GPGPU-Sim uArch: interconnect node map (shaderID+MemID to icntID)
GPGPU-Sim uArch: Memory nodes ID start from index: 15
GPGPU-Sim uArch:    0   1   2   3   4
GPGPU-Sim uArch:    5   6   7   8   9
GPGPU-Sim uArch:   10  11  12  13  14
GPGPU-Sim uArch:   15  16  17  18  19
GPGPU-Sim uArch:   20  21  22  23  24
GPGPU-Sim uArch:   25  26
GPGPU-Sim uArch: interconnect node reverse map (icntID to shaderID+MemID)
GPGPU-Sim uArch: Memory nodes start from ID: 15
GPGPU-Sim uArch:    0   1   2   3   4
GPGPU-Sim uArch:    5   6   7   8   9
GPGPU-Sim uArch:   10  11  12  13  14
GPGPU-Sim uArch:   15  16  17  18  19
GPGPU-Sim uArch:   20  21  22  23  24
GPGPU-Sim uArch:   25  26
fee03cf41ebdf1b82274b5d7114068ac  /sciclone/data10/hwang07/adwait/applications/benchmarks/Mars/sample_apps/StringMatch/gpgpu_ptx_sim__StringMatch
GPGPU-Sim uArch: performance model initialization complete.
GPGPU-Sim PTX: __cudaRegisterFatBinary, fat_cubin_handle = 1, filename=MarsSort.cu
self exe links to: /sciclone/data10/hwang07/adwait/applications/benchmarks/Mars/sample_apps/StringMatch/gpgpu_ptx_sim__StringMatch
Running md5sum using "md5sum /sciclone/data10/hwang07/adwait/applications/benchmarks/Mars/sample_apps/StringMatch/gpgpu_ptx_sim__StringMatch "
Parsing file _cuobjdump_complete_output_J1G8Wu
######### cuobjdump parser ########
## Adding new section ELF
Adding arch: sm_20
Adding identifier: main.cu
## Adding new section PTX
Adding ptx filename: _cuobjdump_1.ptx
Adding arch: sm_20
Adding identifier: main.cu
## Adding new section ELF
Adding arch: sm_20
Adding identifier: MarsLib.cu
## Adding new section PTX
Adding ptx filename: _cuobjdump_2.ptx
Adding arch: sm_20
Adding identifier: MarsLib.cu
## Adding new section ELF
Adding arch: sm_20
Adding identifier: MarsScan.cu
## Adding new section PTX
Adding ptx filename: _cuobjdump_3.ptx
Adding arch: sm_20
Adding identifier: MarsScan.cu
## Adding new section ELF
Adding arch: sm_20
Adding identifier: MarsSort.cu
## Adding new section PTX
Adding ptx filename: _cuobjdump_4.ptx
Adding arch: sm_20
Adding identifier: MarsSort.cu
Done parsing!!!
GPGPU-Sim PTX: __cudaRegisterFunction _Z20writeBoundary_kerneliiPiS_S_ : hostFun 0x0x408deb, fat_cubin_handle = 1
GPGPU-Sim PTX: allocating stack frame region for .param "__cudaretf__Z7comparePKviS0_i" from 0x0 to 0x4
GPGPU-Sim PTX: allocating stack frame region for .param "__cudaparmf1__Z7comparePKviS0_i" from 0x4 to 0xc
GPGPU-Sim PTX: allocating stack frame region for .param "__cudaparmf2__Z7comparePKviS0_i" from 0xc to 0x10
GPGPU-Sim PTX: allocating stack frame region for .param "__cudaparmf3__Z7comparePKviS0_i" from 0x10 to 0x18
GPGPU-Sim PTX: allocating stack frame region for .param "__cudaparmf4__Z7comparePKviS0_i" from 0x18 to 0x1c
GPGPU-Sim PTX: allocating stack frame region for .param "__cudaretf__Z15getCompareValuePv4int4S0_" from 0x0 to 0x4
GPGPU-Sim PTX: allocating stack frame region for .param "__cudaparmf1__Z15getCompareValuePv4int4S0_" from 0x4 to 0xc
GPGPU-Sim PTX: allocating stack frame region for .param "__cudaparmf2__Z15getCompareValuePv4int4S0_" from 0xc to 0x1c
GPGPU-Sim PTX: allocating stack frame region for .param "__cudaparmf3__Z15getCompareValuePv4int4S0_" from 0x1c to 0x2c
GPGPU-Sim PTX: instruction assembly for function '_Z7comparePKviS0_i'...   done.
GPGPU-Sim PTX: finding reconvergence points for '_Z7comparePKviS0_i'...
GPGPU-Sim PTX: Finding dominators for '_Z7comparePKviS0_i'...
GPGPU-Sim PTX: Finding immediate dominators for '_Z7comparePKviS0_i'...
GPGPU-Sim PTX: Finding postdominators for '_Z7comparePKviS0_i'...
GPGPU-Sim PTX: Finding immediate postdominators for '_Z7comparePKviS0_i'...
GPGPU-Sim PTX: pre-decoding instructions for '_Z7comparePKviS0_i'...
GPGPU-Sim PTX: reconvergence points for _Z7comparePKviS0_i...
GPGPU-Sim PTX: ... end of reconvergence points for _Z7comparePKviS0_i
GPGPU-Sim PTX: ... done pre-decoding instructions for '_Z7comparePKviS0_i'.
GPGPU-Sim PTX: instruction assembly for function '_Z15getCompareValuePv4int4S0_'...   done.
GPGPU-Sim PTX: finding reconvergence points for '_Z15getCompareValuePv4int4S0_'...
GPGPU-Sim PTX: Finding dominators for '_Z15getCompareValuePv4int4S0_'...
GPGPU-Sim PTX: Finding immediate dominators for '_Z15getCompareValuePv4int4S0_'...
GPGPU-Sim PTX: Finding postdominators for '_Z15getCompareValuePv4int4S0_'...
GPGPU-Sim PTX: Finding immediate postdominators for '_Z15getCompareValuePv4int4S0_'...
GPGPU-Sim PTX: pre-decoding instructions for '_Z15getCompareValuePv4int4S0_'...
GPGPU-Sim PTX: reconvergence points for _Z15getCompareValuePv4int4S0_...
GPGPU-Sim PTX:  1 (potential) branch divergence @  PC=0x080 (_1.ptx:88) @%p2 bra $Lt_1_3074;
GPGPU-Sim PTX:    immediate post dominator      @  PC=0x0d0 (_1.ptx:104) mov.s32 %r15, %r12;
GPGPU-Sim PTX:  2 (potential) branch divergence @  PC=0x090 (_1.ptx:90) @%p3 bra $Lt_1_3586;
GPGPU-Sim PTX:    immediate post dominator      @  PC=0x0d0 (_1.ptx:104) mov.s32 %r15, %r12;
GPGPU-Sim PTX:  3 (potential) branch divergence @  PC=0x0a0 (_1.ptx:92) bra.uni $Lt_1_2818;
GPGPU-Sim PTX:    immediate post dominator      @  PC=0x0d0 (_1.ptx:104) mov.s32 %r15, %r12;
GPGPU-Sim PTX:  4 (potential) branch divergence @  PC=0x0c0 (_1.ptx:98) bra.uni $Lt_1_2818;
GPGPU-Sim PTX:    immediate post dominator      @  PC=0x0d0 (_1.ptx:104) mov.s32 %r15, %r12;
GPGPU-Sim PTX: ... end of reconvergence points for _Z15getCompareValuePv4int4S0_
GPGPU-Sim PTX: ... done pre-decoding instructions for '_Z15getCompareValuePv4int4S0_'.
GPGPU-Sim PTX: allocating shared region for "__cuda___cuda_local_var_45736_37_non_const_shared48" from 0x0 to 0x1000 (shared memory space)
GPGPU-Sim PTX: instruction assembly for function '_Z21partBitonicSortKernelPviP4int4jii'...   done.
GPGPU-Sim PTX: finding reconvergence points for '_Z21partBitonicSortKernelPviP4int4jii'...
GPGPU-Sim PTX: Finding dominators for '_Z21partBitonicSortKernelPviP4int4jii'...
GPGPU-Sim PTX: Finding immediate dominators for '_Z21partBitonicSortKernelPviP4int4jii'...
GPGPU-Sim PTX: Finding postdominators for '_Z21partBitonicSortKernelPviP4int4jii'...
GPGPU-Sim PTX: Finding immediate postdominators for '_Z21partBitonicSortKernelPviP4int4jii'...
GPGPU-Sim PTX: pre-decoding instructions for '_Z21partBitonicSortKernelPviP4int4jii'...
GPGPU-Sim PTX: reconvergence points for _Z21partBitonicSortKernelPviP4int4jii...
GPGPU-Sim PTX:  1 (potential) branch divergence @  PC=0x1b8 (_1.ptx:152) @%p1 bra $Lt_2_19202;
GPGPU-Sim PTX:    immediate post dominator      @  PC=0x4c8 (_1.ptx:286) ld.shared.v4.s32 {%r68,%r69,%r70,%r71}, [%rd4+0];
GPGPU-Sim PTX:  2 (potential) branch divergence @  PC=0x200 (_1.ptx:164) @%p2 bra $Lt_2_18178;
GPGPU-Sim PTX:    immediate post dominator      @  PC=0x318 (_1.ptx:212) bar.sync 0;
GPGPU-Sim PTX:  3 (potential) branch divergence @  PC=0x250 (_1.ptx:175) @%p4 bra $Lt_2_16386;
GPGPU-Sim PTX:    immediate post dominator      @  PC=0x2a0 (_1.ptx:191) and.b32 %r39, %r6, 256;
GPGPU-Sim PTX:  4 (potential) branch divergence @  PC=0x260 (_1.ptx:177) @%p5 bra $Lt_2_16898;
GPGPU-Sim PTX:    immediate post dominator      @  PC=0x2a0 (_1.ptx:191) and.b32 %r39, %r6, 256;
GPGPU-Sim PTX:  5 (potential) branch divergence @  PC=0x270 (_1.ptx:179) bra.uni $Lt_2_16130;
GPGPU-Sim PTX:    immediate post dominator      @  PC=0x2a0 (_1.ptx:191) and.b32 %r39, %r6, 256;
GPGPU-Sim PTX:  6 (potential) branch divergence @  PC=0x290 (_1.ptx:185) bra.uni $Lt_2_16130;
GPGPU-Sim PTX:    immediate post dominator      @  PC=0x2a0 (_1.ptx:191) and.b32 %r39, %r6, 256;
GPGPU-Sim PTX:  7 (potential) branch divergence @  PC=0x2b8 (_1.ptx:194) @%p6 bra $Lt_2_17410;
GPGPU-Sim PTX:    immediate post dominator      @  PC=0x318 (_1.ptx:212) bar.sync 0;
GPGPU-Sim PTX:  8 (potential) branch divergence @  PC=0x2d0 (_1.ptx:197) @%p7 bra $Lt_2_18178;
GPGPU-Sim PTX:    immediate post dominator      @  PC=0x318 (_1.ptx:212) bar.sync 0;
GPGPU-Sim PTX:  9 (potential) branch divergence @  PC=0x2e8 (_1.ptx:200) bra.uni $Lt_2_18178;
GPGPU-Sim PTX:    immediate post dominator      @  PC=0x318 (_1.ptx:212) bar.sync 0;
GPGPU-Sim PTX: 10 (potential) branch divergence @  PC=0x300 (_1.ptx:205) @%p8 bra $Lt_2_18178;
GPGPU-Sim PTX:    immediate post dominator      @  PC=0x318 (_1.ptx:212) bar.sync 0;
GPGPU-Sim PTX: 11 (potential) branch divergence @  PC=0x338 (_1.ptx:217) @%p9 bra $Lt_2_15362;
GPGPU-Sim PTX:    immediate post dominator      @  PC=0x340 (_1.ptx:218) bra.uni $Lt_2_14338;
GPGPU-Sim PTX: 12 (potential) branch divergence @  PC=0x340 (_1.ptx:218) bra.uni $Lt_2_14338;
GPGPU-Sim PTX:    immediate post dominator      @  PC=0x4c8 (_1.ptx:286) ld.shared.v4.s32 {%r68,%r69,%r70,%r71}, [%rd4+0];
GPGPU-Sim PTX: 13 (potential) branch divergence @  PC=0x388 (_1.ptx:231) @%p10 bra $Lt_2_22274;
GPGPU-Sim PTX:    immediate post dominator      @  PC=0x4a0 (_1.ptx:279) bar.sync 0;
GPGPU-Sim PTX: 14 (potential) branch divergence @  PC=0x3d8 (_1.ptx:242) @%p12 bra $Lt_2_20482;
GPGPU-Sim PTX:    immediate post dominator      @  PC=0x428 (_1.ptx:258) and.b32 %r63, %r6, 256;
GPGPU-Sim PTX: 15 (potential) branch divergence @  PC=0x3e8 (_1.ptx:244) @%p13 bra $Lt_2_20994;
GPGPU-Sim PTX:    immediate post dominator      @  PC=0x428 (_1.ptx:258) and.b32 %r63, %r6, 256;
GPGPU-Sim PTX: 16 (potential) branch divergence @  PC=0x3f8 (_1.ptx:246) bra.uni $Lt_2_20226;
GPGPU-Sim PTX:    immediate post dominator      @  PC=0x428 (_1.ptx:258) and.b32 %r63, %r6, 256;
GPGPU-Sim PTX: 17 (potential) branch divergence @  PC=0x418 (_1.ptx:252) bra.uni $Lt_2_20226;
GPGPU-Sim PTX:    immediate post dominator      @  PC=0x428 (_1.ptx:258) and.b32 %r63, %r6, 256;
GPGPU-Sim PTX: 18 (potential) branch divergence @  PC=0x440 (_1.ptx:261) @%p14 bra $Lt_2_21506;
GPGPU-Sim PTX:    immediate post dominator      @  PC=0x4a0 (_1.ptx:279) bar.sync 0;
GPGPU-Sim PTX: 19 (potential) branch divergence @  PC=0x458 (_1.ptx:264) @%p15 bra $Lt_2_22274;
GPGPU-Sim PTX:    immediate post dominator      @  PC=0x4a0 (_1.ptx:279) bar.sync 0;
GPGPU-Sim PTX: 20 (potential) branch divergence @  PC=0x470 (_1.ptx:267) bra.uni $Lt_2_22274;
GPGPU-Sim PTX:    immediate post dominator      @  PC=0x4a0 (_1.ptx:279) bar.sync 0;
GPGPU-Sim PTX: 21 (potential) branch divergence @  PC=0x488 (_1.ptx:272) @%p16 bra $Lt_2_22274;
GPGPU-Sim PTX:    immediate post dominator      @  PC=0x4a0 (_1.ptx:279) bar.sync 0;
GPGPU-Sim PTX: 22 (potential) branch divergence @  PC=0x4c0 (_1.ptx:284) @%p17 bra $Lt_2_19458;
GPGPU-Sim PTX:    immediate post dominator      @  PC=0x4c8 (_1.ptx:286) ld.shared.v4.s32 {%r68,%r69,%r70,%r71}, [%rd4+0];
GPGPU-Sim PTX: ... end of reconvergence points for _Z21partBitonicSortKernelPviP4int4jii
GPGPU-Sim PTX: ... done pre-decoding instructions for '_Z21partBitonicSortKernelPviP4int4jii'.
GPGPU-Sim PTX: allocating shared region for "__cuda___cuda_local_var_45819_37_non_const_shared4176" from 0x0 to 0x1000 (shared memory space)
GPGPU-Sim PTX: instruction assembly for function '_Z21unitBitonicSortKernelPviP4int4ji'...   done.
GPGPU-Sim PTX: finding reconvergence points for '_Z21unitBitonicSortKernelPviP4int4ji'...
GPGPU-Sim PTX: Finding dominators for '_Z21unitBitonicSortKernelPviP4int4ji'...
GPGPU-Sim PTX: Finding immediate dominators for '_Z21unitBitonicSortKernelPviP4int4ji'...
GPGPU-Sim PTX: Finding postdominators for '_Z21unitBitonicSortKernelPviP4int4ji'...
GPGPU-Sim PTX: Finding immediate postdominators for '_Z21unitBitonicSortKernelPviP4int4ji'...
GPGPU-Sim PTX: pre-decoding instructions for '_Z21unitBitonicSortKernelPviP4int4ji'...
GPGPU-Sim PTX: reconvergence points for _Z21unitBitonicSortKernelPviP4int4ji...
GPGPU-Sim PTX:  1 (potential) branch divergence @  PC=0x5a0 (_1.ptx:332) @%p1 bra $Lt_3_22274;
GPGPU-Sim PTX:    immediate post dominator      @  PC=0x940 (_1.ptx:492) ld.shared.v4.s32 {%r74,%r75,%r76,%r77}, [%rd4+0];
GPGPU-Sim PTX:  2 (potential) branch divergence @  PC=0x5d0 (_1.ptx:341) @%p2 bra $Lt_3_17666;
GPGPU-Sim PTX:    immediate post dominator      @  PC=0x750 (_1.ptx:407) shl.b32 %r17, %r17, 1;
GPGPU-Sim PTX:  3 (potential) branch divergence @  PC=0x610 (_1.ptx:351) @%p3 bra $Lt_3_20994;
GPGPU-Sim PTX:    immediate post dominator      @  PC=0x728 (_1.ptx:399) bar.sync 0;
GPGPU-Sim PTX:  4 (potential) branch divergence @  PC=0x660 (_1.ptx:362) @%p5 bra $Lt_3_19202;
GPGPU-Sim PTX:    immediate post dominator      @  PC=0x6b0 (_1.ptx:378) and.b32 %r40, %r17, %r6;
GPGPU-Sim PTX:  5 (potential) branch divergence @  PC=0x670 (_1.ptx:364) @%p6 bra $Lt_3_19714;
GPGPU-Sim PTX:    immediate post dominator      @  PC=0x6b0 (_1.ptx:378) and.b32 %r40, %r17, %r6;
GPGPU-Sim PTX:  6 (potential) branch divergence @  PC=0x680 (_1.ptx:366) bra.uni $Lt_3_18946;
GPGPU-Sim PTX:    immediate post dominator      @  PC=0x6b0 (_1.ptx:378) and.b32 %r40, %r17, %r6;
GPGPU-Sim PTX:  7 (potential) branch divergence @  PC=0x6a0 (_1.ptx:372) bra.uni $Lt_3_18946;
GPGPU-Sim PTX:    immediate post dominator      @  PC=0x6b0 (_1.ptx:378) and.b32 %r40, %r17, %r6;
GPGPU-Sim PTX:  8 (potential) branch divergence @  PC=0x6c8 (_1.ptx:381) @%p7 bra $Lt_3_20226;
GPGPU-Sim PTX:    immediate post dominator      @  PC=0x728 (_1.ptx:399) bar.sync 0;
GPGPU-Sim PTX:  9 (potential) branch divergence @  PC=0x6e0 (_1.ptx:384) @%p8 bra $Lt_3_20994;
GPGPU-Sim PTX:    immediate post dominator      @  PC=0x728 (_1.ptx:399) bar.sync 0;
GPGPU-Sim PTX: 10 (potential) branch divergence @  PC=0x6f8 (_1.ptx:387) bra.uni $Lt_3_20994;
GPGPU-Sim PTX:    immediate post dominator      @  PC=0x728 (_1.ptx:399) bar.sync 0;
GPGPU-Sim PTX: 11 (potential) branch divergence @  PC=0x710 (_1.ptx:392) @%p9 bra $Lt_3_20994;
GPGPU-Sim PTX:    immediate post dominator      @  PC=0x728 (_1.ptx:399) bar.sync 0;
GPGPU-Sim PTX: 12 (potential) branch divergence @  PC=0x748 (_1.ptx:404) @%p10 bra $Lt_3_18178;
GPGPU-Sim PTX:    immediate post dominator      @  PC=0x750 (_1.ptx:407) shl.b32 %r17, %r17, 1;
GPGPU-Sim PTX: 13 (potential) branch divergence @  PC=0x768 (_1.ptx:410) @%p11 bra $Lt_3_17410;
GPGPU-Sim PTX:    immediate post dominator      @  PC=0x770 (_1.ptx:411) bra.uni $Lt_3_16386;
GPGPU-Sim PTX: 14 (potential) branch divergence @  PC=0x770 (_1.ptx:411) bra.uni $Lt_3_16386;
GPGPU-Sim PTX:    immediate post dominator      @  PC=0x940 (_1.ptx:492) ld.shared.v4.s32 {%r74,%r75,%r76,%r77}, [%rd4+0];
GPGPU-Sim PTX: 15 (potential) branch divergence @  PC=0x7a0 (_1.ptx:421) @%p12 bra $Lt_3_22786;
GPGPU-Sim PTX:    immediate post dominator      @  PC=0x920 (_1.ptx:487) shl.b32 %r46, %r46, 1;
GPGPU-Sim PTX: 16 (potential) branch divergence @  PC=0x7e0 (_1.ptx:431) @%p13 bra $Lt_3_26114;
GPGPU-Sim PTX:    immediate post dominator      @  PC=0x8f8 (_1.ptx:479) bar.sync 0;
GPGPU-Sim PTX: 17 (potential) branch divergence @  PC=0x830 (_1.ptx:442) @%p15 bra $Lt_3_24322;
GPGPU-Sim PTX:    immediate post dominator      @  PC=0x880 (_1.ptx:458) and.b32 %r68, %r46, %r6;
GPGPU-Sim PTX: 18 (potential) branch divergence @  PC=0x840 (_1.ptx:444) @%p16 bra $Lt_3_24834;
GPGPU-Sim PTX:    immediate post dominator      @  PC=0x880 (_1.ptx:458) and.b32 %r68, %r46, %r6;
GPGPU-Sim PTX: 19 (potential) branch divergence @  PC=0x850 (_1.ptx:446) bra.uni $Lt_3_24066;
GPGPU-Sim PTX:    immediate post dominator      @  PC=0x880 (_1.ptx:458) and.b32 %r68, %r46, %r6;
GPGPU-Sim PTX: 20 (potential) branch divergence @  PC=0x870 (_1.ptx:452) bra.uni $Lt_3_24066;
GPGPU-Sim PTX:    immediate post dominator      @  PC=0x880 (_1.ptx:458) and.b32 %r68, %r46, %r6;
GPGPU-Sim PTX: 21 (potential) branch divergence @  PC=0x898 (_1.ptx:461) @%p17 bra $Lt_3_25346;
GPGPU-Sim PTX:    immediate post dominator      @  PC=0x8f8 (_1.ptx:479) bar.sync 0;
GPGPU-Sim PTX: 22 (potential) branch divergence @  PC=0x8b0 (_1.ptx:464) @%p18 bra $Lt_3_26114;
GPGPU-Sim PTX:    immediate post dominator      @  PC=0x8f8 (_1.ptx:479) bar.sync 0;
GPGPU-Sim PTX: 23 (potential) branch divergence @  PC=0x8c8 (_1.ptx:467) bra.uni $Lt_3_26114;
GPGPU-Sim PTX:    immediate post dominator      @  PC=0x8f8 (_1.ptx:479) bar.sync 0;
GPGPU-Sim PTX: 24 (potential) branch divergence @  PC=0x8e0 (_1.ptx:472) @%p19 bra $Lt_3_26114;
GPGPU-Sim PTX:    immediate post dominator      @  PC=0x8f8 (_1.ptx:479) bar.sync 0;
GPGPU-Sim PTX: 25 (potential) branch divergence @  PC=0x918 (_1.ptx:484) @%p20 bra $Lt_3_23298;
GPGPU-Sim PTX:    immediate post dominator      @  PC=0x920 (_1.ptx:487) shl.b32 %r46, %r46, 1;
GPGPU-Sim PTX: 26 (potential) branch divergence @  PC=0x938 (_1.ptx:490) @%p21 bra $Lt_3_22530;
GPGPU-Sim PTX:    immediate post dominator      @  PC=0x940 (_1.ptx:492) ld.shared.v4.s32 {%r74,%r75,%r76,%r77}, [%rd4+0];
GPGPU-Sim PTX: ... end of reconvergence points for _Z21unitBitonicSortKernelPviP4int4ji
GPGPU-Sim PTX: ... done pre-decoding instructions for '_Z21unitBitonicSortKernelPviP4int4ji'.
GPGPU-Sim PTX: instruction assembly for function '_Z13bitonicKernelPviP4int4jii'...   done.
GPGPU-Sim PTX: finding reconvergence points for '_Z13bitonicKernelPviP4int4jii'...
GPGPU-Sim PTX: Finding dominators for '_Z13bitonicKernelPviP4int4jii'...
GPGPU-Sim PTX: Finding immediate dominators for '_Z13bitonicKernelPviP4int4jii'...
GPGPU-Sim PTX: Finding postdominators for '_Z13bitonicKernelPviP4int4jii'...
GPGPU-Sim PTX: Finding immediate postdominators for '_Z13bitonicKernelPviP4int4jii'...
GPGPU-Sim PTX: pre-decoding instructions for '_Z13bitonicKernelPviP4int4jii'...
GPGPU-Sim PTX: reconvergence points for _Z13bitonicKernelPviP4int4jii...
GPGPU-Sim PTX:  1 (potential) branch divergence @  PC=0x9b8 (_1.ptx:524) @%p1 bra $Lt_4_12034;
GPGPU-Sim PTX:    immediate post dominator      @  PC=0xb80 (_1.ptx:602) exit;
GPGPU-Sim PTX:  2 (potential) branch divergence @  PC=0xa60 (_1.ptx:547) @%p4 bra $Lt_4_9218;
GPGPU-Sim PTX:    immediate post dominator      @  PC=0xb80 (_1.ptx:602) exit;
GPGPU-Sim PTX:  3 (potential) branch divergence @  PC=0xa78 (_1.ptx:551) @%p5 bra $Lt_4_9730;
GPGPU-Sim PTX:    immediate post dominator      @  PC=0xac8 (_1.ptx:567) mov.u32 %r32, 1;
GPGPU-Sim PTX:  4 (potential) branch divergence @  PC=0xa88 (_1.ptx:553) @%p6 bra $Lt_4_10242;
GPGPU-Sim PTX:    immediate post dominator      @  PC=0xac8 (_1.ptx:567) mov.u32 %r32, 1;
GPGPU-Sim PTX:  5 (potential) branch divergence @  PC=0xa98 (_1.ptx:555) bra.uni $Lt_4_9474;
GPGPU-Sim PTX:    immediate post dominator      @  PC=0xac8 (_1.ptx:567) mov.u32 %r32, 1;
GPGPU-Sim PTX:  6 (potential) branch divergence @  PC=0xab8 (_1.ptx:561) bra.uni $Lt_4_9474;
GPGPU-Sim PTX:    immediate post dominator      @  PC=0xac8 (_1.ptx:567) mov.u32 %r32, 1;
GPGPU-Sim PTX:  7 (potential) branch divergence @  PC=0xad8 (_1.ptx:569) @%p7 bra $Lt_4_12034;
GPGPU-Sim PTX:    immediate post dominator      @  PC=0xb80 (_1.ptx:602) exit;
GPGPU-Sim PTX:  8 (potential) branch divergence @  PC=0xaf0 (_1.ptx:572) bra.uni $Lt_4_12034;
GPGPU-Sim PTX:    immediate post dominator      @  PC=0xb80 (_1.ptx:602) exit;
GPGPU-Sim PTX:  9 (potential) branch divergence @  PC=0xb08 (_1.ptx:577) @%p8 bra $Lt_4_11266;
GPGPU-Sim PTX:    immediate post dominator      @  PC=0xb58 (_1.ptx:593) mov.u32 %r36, -1;
GPGPU-Sim PTX: 10 (potential) branch divergence @  PC=0xb18 (_1.ptx:579) @%p9 bra $Lt_4_11778;
GPGPU-Sim PTX:    immediate post dominator      @  PC=0xb58 (_1.ptx:593) mov.u32 %r36, -1;
GPGPU-Sim PTX: 11 (potential) branch divergence @  PC=0xb28 (_1.ptx:581) bra.uni $Lt_4_11010;
GPGPU-Sim PTX:    immediate post dominator      @  PC=0xb58 (_1.ptx:593) mov.u32 %r36, -1;
GPGPU-Sim PTX: 12 (potential) branch divergence @  PC=0xb48 (_1.ptx:587) bra.uni $Lt_4_11010;
GPGPU-Sim PTX:    immediate post dominator      @  PC=0xb58 (_1.ptx:593) mov.u32 %r36, -1;
GPGPU-Sim PTX: 13 (potential) branch divergence @  PC=0xb68 (_1.ptx:595) @%p10 bra $Lt_4_12034;
GPGPU-Sim PTX:    immediate post dominator      @  PC=0xb80 (_1.ptx:602) exit;
GPGPU-Sim PTX: ... end of reconvergence points for _Z13bitonicKernelPviP4int4jii
GPGPU-Sim PTX: ... done pre-decoding instructions for '_Z13bitonicKernelPviP4int4jii'.
GPGPU-Sim PTX: allocating shared region for "__cuda___cuda_local_var_45956_37_non_const_bs_cmpbuf8352" from 0x0 to 0x1000 (shared memory space)
GPGPU-Sim PTX: instruction assembly for function '_Z29bitonicSortSingleBlock_kernelPviP4int4iS1_'...   done.
GPGPU-Sim PTX: finding reconvergence points for '_Z29bitonicSortSingleBlock_kernelPviP4int4iS1_'...
GPGPU-Sim PTX: Finding dominators for '_Z29bitonicSortSingleBlock_kernelPviP4int4iS1_'...
GPGPU-Sim PTX: Finding immediate dominators for '_Z29bitonicSortSingleBlock_kernelPviP4int4iS1_'...
GPGPU-Sim PTX: Finding postdominators for '_Z29bitonicSortSingleBlock_kernelPviP4int4iS1_'...
GPGPU-Sim PTX: Finding immediate postdominators for '_Z29bitonicSortSingleBlock_kernelPviP4int4iS1_'...
GPGPU-Sim PTX: pre-decoding instructions for '_Z29bitonicSortSingleBlock_kernelPviP4int4iS1_'...
GPGPU-Sim PTX: reconvergence points for _Z29bitonicSortSingleBlock_kernelPviP4int4iS1_...
GPGPU-Sim PTX:  1 (potential) branch divergence @  PC=0xbe0 (_1.ptx:630) @%p1 bra $Lt_5_12290;
GPGPU-Sim PTX:    immediate post dominator      @  PC=0xc20 (_1.ptx:643) bar.sync 0;
GPGPU-Sim PTX:  2 (potential) branch divergence @  PC=0xc08 (_1.ptx:636) bra.uni $Lt_5_12034;
GPGPU-Sim PTX:    immediate post dominator      @  PC=0xc20 (_1.ptx:643) bar.sync 0;
GPGPU-Sim PTX:  3 (potential) branch divergence @  PC=0xc70 (_1.ptx:656) @%p2 bra $Lt_5_13314;
GPGPU-Sim PTX:    immediate post dominator      @  PC=0xec8 (_1.ptx:754) mul.lo.s32 %r12, %r12, 2;
GPGPU-Sim PTX:  4 (potential) branch divergence @  PC=0xc88 (_1.ptx:660) @%p3 bra $Lt_5_17666;
GPGPU-Sim PTX:    immediate post dominator      @  PC=0xe80 (_1.ptx:742) bar.sync 0;
GPGPU-Sim PTX:  5 (potential) branch divergence @  PC=0xcd0 (_1.ptx:669) @%p4 bra $Lt_5_14850;
GPGPU-Sim PTX:    immediate post dominator      @  PC=0xe80 (_1.ptx:742) bar.sync 0;
GPGPU-Sim PTX:  6 (potential) branch divergence @  PC=0xd20 (_1.ptx:680) @%p6 bra $Lt_5_15362;
GPGPU-Sim PTX:    immediate post dominator      @  PC=0xd70 (_1.ptx:696) mov.u32 %r35, 0;
GPGPU-Sim PTX:  7 (potential) branch divergence @  PC=0xd30 (_1.ptx:682) @%p7 bra $Lt_5_15874;
GPGPU-Sim PTX:    immediate post dominator      @  PC=0xd70 (_1.ptx:696) mov.u32 %r35, 0;
GPGPU-Sim PTX:  8 (potential) branch divergence @  PC=0xd40 (_1.ptx:684) bra.uni $Lt_5_15106;
GPGPU-Sim PTX:    immediate post dominator      @  PC=0xd70 (_1.ptx:696) mov.u32 %r35, 0;
GPGPU-Sim PTX:  9 (potential) branch divergence @  PC=0xd60 (_1.ptx:690) bra.uni $Lt_5_15106;
GPGPU-Sim PTX:    immediate post dominator      @  PC=0xd70 (_1.ptx:696) mov.u32 %r35, 0;
GPGPU-Sim PTX: 10 (potential) branch divergence @  PC=0xd80 (_1.ptx:698) @%p8 bra $Lt_5_17666;
GPGPU-Sim PTX:    immediate post dominator      @  PC=0xe80 (_1.ptx:742) bar.sync 0;
GPGPU-Sim PTX: 11 (potential) branch divergence @  PC=0xda8 (_1.ptx:703) bra.uni $Lt_5_17666;
GPGPU-Sim PTX:    immediate post dominator      @  PC=0xe80 (_1.ptx:742) bar.sync 0;
GPGPU-Sim PTX: 12 (potential) branch divergence @  PC=0xdf8 (_1.ptx:715) @%p9 bra $Lt_5_16898;
GPGPU-Sim PTX:    immediate post dominator      @  PC=0xe48 (_1.ptx:731) mov.u32 %r51, 0;
GPGPU-Sim PTX: 13 (potential) branch divergence @  PC=0xe08 (_1.ptx:717) @%p10 bra $Lt_5_17410;
GPGPU-Sim PTX:    immediate post dominator      @  PC=0xe48 (_1.ptx:731) mov.u32 %r51, 0;
GPGPU-Sim PTX: 14 (potential) branch divergence @  PC=0xe18 (_1.ptx:719) bra.uni $Lt_5_16642;
GPGPU-Sim PTX:    immediate post dominator      @  PC=0xe48 (_1.ptx:731) mov.u32 %r51, 0;
GPGPU-Sim PTX: 15 (potential) branch divergence @  PC=0xe38 (_1.ptx:725) bra.uni $Lt_5_16642;
GPGPU-Sim PTX:    immediate post dominator      @  PC=0xe48 (_1.ptx:731) mov.u32 %r51, 0;
GPGPU-Sim PTX: 16 (potential) branch divergence @  PC=0xe58 (_1.ptx:733) @%p11 bra $Lt_5_17666;
GPGPU-Sim PTX:    immediate post dominator      @  PC=0xe80 (_1.ptx:742) bar.sync 0;
GPGPU-Sim PTX: 17 (potential) branch divergence @  PC=0xec0 (_1.ptx:751) @%p12 bra $Lt_5_13826;
GPGPU-Sim PTX:    immediate post dominator      @  PC=0xec8 (_1.ptx:754) mul.lo.s32 %r12, %r12, 2;
GPGPU-Sim PTX: 18 (potential) branch divergence @  PC=0xee0 (_1.ptx:757) @%p13 bra $Lt_5_13058;
GPGPU-Sim PTX:    immediate post dominator      @  PC=0xee8 (_1.ptx:758) mov.s32 %r64, 256;
GPGPU-Sim PTX: 19 (potential) branch divergence @  PC=0xf00 (_1.ptx:761) @%p14 bra $Lt_5_18690;
GPGPU-Sim PTX:    immediate post dominator      @  PC=0xf40 (_1.ptx:772) exit;
GPGPU-Sim PTX: ... end of reconvergence points for _Z29bitonicSortSingleBlock_kernelPviP4int4iS1_
GPGPU-Sim PTX: ... done pre-decoding instructions for '_Z29bitonicSortSingleBlock_kernelPviP4int4iS1_'.
GPGPU-Sim PTX: allocating shared region for "__cuda___cuda_local_var_46031_40_non_const_bs_shared12496" from 0x0 to 0x1000 (shared memory space)
GPGPU-Sim PTX: allocating shared region for "__cuda_local_var_46028_30_non_const_bs_pStart" from 0x1000 to 0x1004 (shared memory space)
GPGPU-Sim PTX: allocating shared region for "__cuda_local_var_46029_30_non_const_bs_pEnd" from 0x1004 to 0x1008 (shared memory space)
GPGPU-Sim PTX: allocating shared region for "__cuda_local_var_46030_30_non_const_bs_numElement" from 0x1008 to 0x100c (shared memory space)
GPGPU-Sim PTX: instruction assembly for function '_Z32bitonicSortMultipleBlocks_kernelPviP4int4PiiiS1_'...   done.
GPGPU-Sim PTX: finding reconvergence points for '_Z32bitonicSortMultipleBlocks_kernelPviP4int4PiiiS1_'...
GPGPU-Sim PTX: Finding dominators for '_Z32bitonicSortMultipleBlocks_kernelPviP4int4PiiiS1_'...
GPGPU-Sim PTX: Finding immediate dominators for '_Z32bitonicSortMultipleBlocks_kernelPviP4int4PiiiS1_'...
GPGPU-Sim PTX: Finding postdominators for '_Z32bitonicSortMultipleBlocks_kernelPviP4int4PiiiS1_'...
GPGPU-Sim PTX: Finding immediate postdominators for '_Z32bitonicSortMultipleBlocks_kernelPviP4int4PiiiS1_'...
GPGPU-Sim PTX: pre-decoding instructions for '_Z32bitonicSortMultipleBlocks_kernelPviP4int4PiiiS1_'...
GPGPU-Sim PTX: reconvergence points for _Z32bitonicSortMultipleBlocks_kernelPviP4int4PiiiS1_...
GPGPU-Sim PTX:  1 (potential) branch divergence @  PC=0xf80 (_1.ptx:801) @%p1 bra $Lt_6_13570;
GPGPU-Sim PTX:    immediate post dominator      @  PC=0x13e8 (_1.ptx:983) exit;
GPGPU-Sim PTX:  2 (potential) branch divergence @  PC=0xf88 (_1.ptx:802) bra.uni $LBB34__Z32bitonicSortMultipleBlocks_kernelPviP4int4PiiiS1_;
GPGPU-Sim PTX:    immediate post dominator      @  PC=0x13e8 (_1.ptx:983) exit;
GPGPU-Sim PTX:  3 (potential) branch divergence @  PC=0xfc8 (_1.ptx:812) @%p2 bra $Lt_6_14082;
GPGPU-Sim PTX:    immediate post dominator      @  PC=0x1038 (_1.ptx:831) bar.sync 0;
GPGPU-Sim PTX:  4 (potential) branch divergence @  PC=0x1070 (_1.ptx:838) @%p3 bra $Lt_6_14850;
GPGPU-Sim PTX:    immediate post dominator      @  PC=0x10d0 (_1.ptx:855) bar.sync 0;
GPGPU-Sim PTX:  5 (potential) branch divergence @  PC=0x10b8 (_1.ptx:848) bra.uni $Lt_6_14594;
GPGPU-Sim PTX:    immediate post dominator      @  PC=0x10d0 (_1.ptx:855) bar.sync 0;
GPGPU-Sim PTX:  6 (potential) branch divergence @  PC=0x1120 (_1.ptx:868) @%p4 bra $Lt_6_15874;
GPGPU-Sim PTX:    immediate post dominator      @  PC=0x1378 (_1.ptx:966) mul.lo.s32 %r27, %r27, 2;
GPGPU-Sim PTX:  7 (potential) branch divergence @  PC=0x1138 (_1.ptx:872) @%p5 bra $Lt_6_20226;
GPGPU-Sim PTX:    immediate post dominator      @  PC=0x1330 (_1.ptx:954) bar.sync 0;
GPGPU-Sim PTX:  8 (potential) branch divergence @  PC=0x1180 (_1.ptx:881) @%p6 bra $Lt_6_17410;
GPGPU-Sim PTX:    immediate post dominator      @  PC=0x1330 (_1.ptx:954) bar.sync 0;
GPGPU-Sim PTX:  9 (potential) branch divergence @  PC=0x11d0 (_1.ptx:892) @%p8 bra $Lt_6_17922;
GPGPU-Sim PTX:    immediate post dominator      @  PC=0x1220 (_1.ptx:908) mov.u32 %r50, 0;
GPGPU-Sim PTX: 10 (potential) branch divergence @  PC=0x11e0 (_1.ptx:894) @%p9 bra $Lt_6_18434;
GPGPU-Sim PTX:    immediate post dominator      @  PC=0x1220 (_1.ptx:908) mov.u32 %r50, 0;
GPGPU-Sim PTX: 11 (potential) branch divergence @  PC=0x11f0 (_1.ptx:896) bra.uni $Lt_6_17666;
GPGPU-Sim PTX:    immediate post dominator      @  PC=0x1220 (_1.ptx:908) mov.u32 %r50, 0;
GPGPU-Sim PTX: 12 (potential) branch divergence @  PC=0x1210 (_1.ptx:902) bra.uni $Lt_6_17666;
GPGPU-Sim PTX:    immediate post dominator      @  PC=0x1220 (_1.ptx:908) mov.u32 %r50, 0;
GPGPU-Sim PTX: 13 (potential) branch divergence @  PC=0x1230 (_1.ptx:910) @%p10 bra $Lt_6_20226;
GPGPU-Sim PTX:    immediate post dominator      @  PC=0x1330 (_1.ptx:954) bar.sync 0;
GPGPU-Sim PTX: 14 (potential) branch divergence @  PC=0x1258 (_1.ptx:915) bra.uni $Lt_6_20226;
GPGPU-Sim PTX:    immediate post dominator      @  PC=0x1330 (_1.ptx:954) bar.sync 0;
GPGPU-Sim PTX: 15 (potential) branch divergence @  PC=0x12a8 (_1.ptx:927) @%p11 bra $Lt_6_19458;
GPGPU-Sim PTX:    immediate post dominator      @  PC=0x12f8 (_1.ptx:943) mov.u32 %r66, 0;
GPGPU-Sim PTX: 16 (potential) branch divergence @  PC=0x12b8 (_1.ptx:929) @%p12 bra $Lt_6_19970;
GPGPU-Sim PTX:    immediate post dominator      @  PC=0x12f8 (_1.ptx:943) mov.u32 %r66, 0;
GPGPU-Sim PTX: 17 (potential) branch divergence @  PC=0x12c8 (_1.ptx:931) bra.uni $Lt_6_19202;
GPGPU-Sim PTX:    immediate post dominator      @  PC=0x12f8 (_1.ptx:943) mov.u32 %r66, 0;
GPGPU-Sim PTX: 18 (potential) branch divergence @  PC=0x12e8 (_1.ptx:937) bra.uni $Lt_6_19202;
GPGPU-Sim PTX:    immediate post dominator      @  PC=0x12f8 (_1.ptx:943) mov.u32 %r66, 0;
GPGPU-Sim PTX: 19 (potential) branch divergence @  PC=0x1308 (_1.ptx:945) @%p13 bra $Lt_6_20226;
GPGPU-Sim PTX:    immediate post dominator      @  PC=0x1330 (_1.ptx:954) bar.sync 0;
GPGPU-Sim PTX: 20 (potential) branch divergence @  PC=0x1370 (_1.ptx:963) @%p14 bra $Lt_6_16386;
GPGPU-Sim PTX:    immediate post dominator      @  PC=0x1378 (_1.ptx:966) mul.lo.s32 %r27, %r27, 2;
GPGPU-Sim PTX: 21 (potential) branch divergence @  PC=0x1390 (_1.ptx:969) @%p15 bra $Lt_6_15618;
GPGPU-Sim PTX:    immediate post dominator      @  PC=0x1398 (_1.ptx:970) ld.shared.s32 %r79, [__cuda_local_var_46030_30_non_const_bs_numElement];
GPGPU-Sim PTX: 22 (potential) branch divergence @  PC=0x13a8 (_1.ptx:972) @%p16 bra $LBB34__Z32bitonicSortMultipleBlocks_kernelPviP4int4PiiiS1_;
GPGPU-Sim PTX:    immediate post dominator      @  PC=0x13e8 (_1.ptx:983) exit;
GPGPU-Sim PTX: ... end of reconvergence points for _Z32bitonicSortMultipleBlocks_kernelPviP4int4PiiiS1_
GPGPU-Sim PTX: ... done pre-decoding instructions for '_Z32bitonicSortMultipleBlocks_kernelPviP4int4PiiiS1_'.
GPGPU-Sim PTX: instruction assembly for function '_Z17initialize_kernelP4int4iiS_'...   done.
GPGPU-Sim PTX: finding reconvergence points for '_Z17initialize_kernelP4int4iiS_'...
GPGPU-Sim PTX: Finding dominators for '_Z17initialize_kernelP4int4iiS_'...
GPGPU-Sim PTX: Finding immediate dominators for '_Z17initialize_kernelP4int4iiS_'...
GPGPU-Sim PTX: Finding postdominators for '_Z17initialize_kernelP4int4iiS_'...
GPGPU-Sim PTX: Finding immediate postdominators for '_Z17initialize_kernelP4int4iiS_'...
GPGPU-Sim PTX: pre-decoding instructions for '_Z17initialize_kernelP4int4iiS_'...
GPGPU-Sim PTX: reconvergence points for _Z17initialize_kernelP4int4iiS_...
GPGPU-Sim PTX:  1 (potential) branch divergence @  PC=0x1478 (_1.ptx:1015) @%p1 bra $Lt_7_1026;
GPGPU-Sim PTX:    immediate post dominator      @  PC=0x14c8 (_1.ptx:1028) exit;
GPGPU-Sim PTX: ... end of reconvergence points for _Z17initialize_kernelP4int4iiS_
GPGPU-Sim PTX: ... done pre-decoding instructions for '_Z17initialize_kernelP4int4iiS_'.
GPGPU-Sim PTX: instruction assembly for function '_Z19getIntYArray_kernelP4int2iiPi'...   done.
GPGPU-Sim PTX: finding reconvergence points for '_Z19getIntYArray_kernelP4int2iiPi'...
GPGPU-Sim PTX: Finding dominators for '_Z19getIntYArray_kernelP4int2iiPi'...
GPGPU-Sim PTX: Finding immediate dominators for '_Z19getIntYArray_kernelP4int2iiPi'...
GPGPU-Sim PTX: Finding postdominators for '_Z19getIntYArray_kernelP4int2iiPi'...
GPGPU-Sim PTX: Finding immediate postdominators for '_Z19getIntYArray_kernelP4int2iiPi'...
GPGPU-Sim PTX: pre-decoding instructions for '_Z19getIntYArray_kernelP4int2iiPi'...
GPGPU-Sim PTX: reconvergence points for _Z19getIntYArray_kernelP4int2iiPi...
GPGPU-Sim PTX:  1 (potential) branch divergence @  PC=0x1558 (_1.ptx:1060) @%p1 bra $Lt_8_1026;
GPGPU-Sim PTX:    immediate post dominator      @  PC=0x15a8 (_1.ptx:1073) exit;
GPGPU-Sim PTX: ... end of reconvergence points for _Z19getIntYArray_kernelP4int2iiPi
GPGPU-Sim PTX: ... done pre-decoding instructions for '_Z19getIntYArray_kernelP4int2iiPi'.
GPGPU-Sim PTX: instruction assembly for function '_Z17getXYArray_kernelP4int4iiP4int2'...   done.
GPGPU-Sim PTX: finding reconvergence points for '_Z17getXYArray_kernelP4int4iiP4int2'...
GPGPU-Sim PTX: Finding dominators for '_Z17getXYArray_kernelP4int4iiP4int2'...
GPGPU-Sim PTX: Finding immediate dominators for '_Z17getXYArray_kernelP4int4iiP4int2'...
GPGPU-Sim PTX: Finding postdominators for '_Z17getXYArray_kernelP4int4iiP4int2'...
GPGPU-Sim PTX: Finding immediate postdominators for '_Z17getXYArray_kernelP4int4iiP4int2'...
GPGPU-Sim PTX: pre-decoding instructions for '_Z17getXYArray_kernelP4int4iiP4int2'...
GPGPU-Sim PTX: reconvergence points for _Z17getXYArray_kernelP4int4iiP4int2...
GPGPU-Sim PTX:  1 (potential) branch divergence @  PC=0x1638 (_1.ptx:1105) @%p1 bra $Lt_9_1026;
GPGPU-Sim PTX:    immediate post dominator      @  PC=0x1688 (_1.ptx:1119) exit;
GPGPU-Sim PTX: ... end of reconvergence points for _Z17getXYArray_kernelP4int4iiP4int2
GPGPU-Sim PTX: ... done pre-decoding instructions for '_Z17getXYArray_kernelP4int4iiP4int2'.
GPGPU-Sim PTX: instruction assembly for function '_Z17getZWArray_kernelP4int4iiP4int2'...   done.
GPGPU-Sim PTX: finding reconvergence points for '_Z17getZWArray_kernelP4int4iiP4int2'...
GPGPU-Sim PTX: Finding dominators for '_Z17getZWArray_kernelP4int4iiP4int2'...
GPGPU-Sim PTX: Finding immediate dominators for '_Z17getZWArray_kernelP4int4iiP4int2'...
GPGPU-Sim PTX: Finding postdominators for '_Z17getZWArray_kernelP4int4iiP4int2'...
GPGPU-Sim PTX: Finding immediate postdominators for '_Z17getZWArray_kernelP4int4iiP4int2'...
GPGPU-Sim PTX: pre-decoding instructions for '_Z17getZWArray_kernelP4int4iiP4int2'...
GPGPU-Sim PTX: reconvergence points for _Z17getZWArray_kernelP4int4iiP4int2...
GPGPU-Sim PTX:  1 (potential) branch divergence @  PC=0x1718 (_1.ptx:1151) @%p1 bra $Lt_10_1026;
GPGPU-Sim PTX:    immediate post dominator      @  PC=0x1768 (_1.ptx:1165) exit;
GPGPU-Sim PTX: ... end of reconvergence points for _Z17getZWArray_kernelP4int4iiP4int2
GPGPU-Sim PTX: ... done pre-decoding instructions for '_Z17getZWArray_kernelP4int4iiP4int2'.
GPGPU-Sim PTX: instruction assembly for function '_Z17setXYArray_kernelP4int4iiP4int2'...   done.
GPGPU-Sim PTX: finding reconvergence points for '_Z17setXYArray_kernelP4int4iiP4int2'...
GPGPU-Sim PTX: Finding dominators for '_Z17setXYArray_kernelP4int4iiP4int2'...
GPGPU-Sim PTX: Finding immediate dominators for '_Z17setXYArray_kernelP4int4iiP4int2'...
GPGPU-Sim PTX: Finding postdominators for '_Z17setXYArray_kernelP4int4iiP4int2'...
GPGPU-Sim PTX: Finding immediate postdominators for '_Z17setXYArray_kernelP4int4iiP4int2'...
GPGPU-Sim PTX: pre-decoding instructions for '_Z17setXYArray_kernelP4int4iiP4int2'...
GPGPU-Sim PTX: reconvergence points for _Z17setXYArray_kernelP4int4iiP4int2...
GPGPU-Sim PTX:  1 (potential) branch divergence @  PC=0x17f8 (_1.ptx:1197) @%p1 bra $Lt_11_1026;
GPGPU-Sim PTX:    immediate post dominator      @  PC=0x1850 (_1.ptx:1212) exit;
GPGPU-Sim PTX: ... end of reconvergence points for _Z17setXYArray_kernelP4int4iiP4int2
GPGPU-Sim PTX: ... done pre-decoding instructions for '_Z17setXYArray_kernelP4int4iiP4int2'.
GPGPU-Sim PTX: instruction assembly for function '_Z17setZWArray_kernelP4int4iiP4int2'...   done.
GPGPU-Sim PTX: finding reconvergence points for '_Z17setZWArray_kernelP4int4iiP4int2'...
GPGPU-Sim PTX: Finding dominators for '_Z17setZWArray_kernelP4int4iiP4int2'...
GPGPU-Sim PTX: Finding immediate dominators for '_Z17setZWArray_kernelP4int4iiP4int2'...
GPGPU-Sim PTX: Finding postdominators for '_Z17setZWArray_kernelP4int4iiP4int2'...
GPGPU-Sim PTX: Finding immediate postdominators for '_Z17setZWArray_kernelP4int4iiP4int2'...
GPGPU-Sim PTX: pre-decoding instructions for '_Z17setZWArray_kernelP4int4iiP4int2'...
GPGPU-Sim PTX: reconvergence points for _Z17setZWArray_kernelP4int4iiP4int2...
GPGPU-Sim PTX:  1 (potential) branch divergence @  PC=0x18e0 (_1.ptx:1244) @%p1 bra $Lt_12_1026;
GPGPU-Sim PTX:    immediate post dominator      @  PC=0x1940 (_1.ptx:1261) exit;
GPGPU-Sim PTX: ... end of reconvergence points for _Z17setZWArray_kernelP4int4iiP4int2
GPGPU-Sim PTX: ... done pre-decoding instructions for '_Z17setZWArray_kernelP4int4iiP4int2'.
GPGPU-Sim PTX: instruction assembly for function '_Z17copyChunks_kernelPviP4int2iPiS_'...   done.
GPGPU-Sim PTX: finding reconvergence points for '_Z17copyChunks_kernelPviP4int2iPiS_'...
GPGPU-Sim PTX: Finding dominators for '_Z17copyChunks_kernelPviP4int2iPiS_'...
GPGPU-Sim PTX: Finding immediate dominators for '_Z17copyChunks_kernelPviP4int2iPiS_'...
GPGPU-Sim PTX: Finding postdominators for '_Z17copyChunks_kernelPviP4int2iPiS_'...
GPGPU-Sim PTX: Finding immediate postdominators for '_Z17copyChunks_kernelPviP4int2iPiS_'...
GPGPU-Sim PTX: pre-decoding instructions for '_Z17copyChunks_kernelPviP4int2iPiS_'...
GPGPU-Sim PTX: reconvergence points for _Z17copyChunks_kernelPviP4int2iPiS_...
GPGPU-Sim PTX:  1 (potential) branch divergence @  PC=0x19d0 (_1.ptx:1295) @%p1 bra $Lt_13_2050;
GPGPU-Sim PTX:    immediate post dominator      @  PC=0x1ac8 (_1.ptx:1334) exit;
GPGPU-Sim PTX:  2 (potential) branch divergence @  PC=0x1a30 (_1.ptx:1309) @%p2 bra $Lt_13_2562;
GPGPU-Sim PTX:    immediate post dominator      @  PC=0x1ac0 (_1.ptx:1331) st.global.v2.s32 [%rd4+0], {%r19,%r18};
GPGPU-Sim PTX:  3 (potential) branch divergence @  PC=0x1ab8 (_1.ptx:1329) @%p3 bra $Lt_13_3074;
GPGPU-Sim PTX:    immediate post dominator      @  PC=0x1ac0 (_1.ptx:1331) st.global.v2.s32 [%rd4+0], {%r19,%r18};
GPGPU-Sim PTX: ... end of reconvergence points for _Z17copyChunks_kernelPviP4int2iPiS_
GPGPU-Sim PTX: ... done pre-decoding instructions for '_Z17copyChunks_kernelPviP4int2iPiS_'.
GPGPU-Sim PTX: instruction assembly for function '_Z23getChunkBoundary_kernelPviP4int4iPi'...   done.
GPGPU-Sim PTX: finding reconvergence points for '_Z23getChunkBoundary_kernelPviP4int4iPi'...
GPGPU-Sim PTX: Finding dominators for '_Z23getChunkBoundary_kernelPviP4int4iPi'...
GPGPU-Sim PTX: Finding immediate dominators for '_Z23getChunkBoundary_kernelPviP4int4iPi'...
GPGPU-Sim PTX: Finding postdominators for '_Z23getChunkBoundary_kernelPviP4int4iPi'...
GPGPU-Sim PTX: Finding immediate postdominators for '_Z23getChunkBoundary_kernelPviP4int4iPi'...
GPGPU-Sim PTX: pre-decoding instructions for '_Z23getChunkBoundary_kernelPviP4int4iPi'...
GPGPU-Sim PTX: reconvergence points for _Z23getChunkBoundary_kernelPviP4int4iPi...
GPGPU-Sim PTX:  1 (potential) branch divergence @  PC=0x1b58 (_1.ptx:1367) @%p1 bra $Lt_14_5122;
GPGPU-Sim PTX:    immediate post dominator      @  PC=0x1c88 (_1.ptx:1419) exit;
GPGPU-Sim PTX:  2 (potential) branch divergence @  PC=0x1b78 (_1.ptx:1371) @%p2 bra $Lt_14_5890;
GPGPU-Sim PTX:    immediate post dominator      @  PC=0x1c68 (_1.ptx:1413) ld.param.u64 %rd5, [__cudaparm__Z23getChunkBoundary_kernelPviP4int4iPi_d_startArray];
GPGPU-Sim PTX:  3 (potential) branch divergence @  PC=0x1b88 (_1.ptx:1373) bra.uni $Lt_14_5634;
GPGPU-Sim PTX:    immediate post dominator      @  PC=0x1c68 (_1.ptx:1413) ld.param.u64 %rd5, [__cudaparm__Z23getChunkBoundary_kernelPviP4int4iPi_d_startArray];
GPGPU-Sim PTX:  4 (potential) branch divergence @  PC=0x1c00 (_1.ptx:1392) @%p4 bra $Lt_14_6402;
GPGPU-Sim PTX:    immediate post dominator      @  PC=0x1c50 (_1.ptx:1408) mov.s32 %r31, 0;
GPGPU-Sim PTX:  5 (potential) branch divergence @  PC=0x1c10 (_1.ptx:1394) @%p5 bra $Lt_14_6914;
GPGPU-Sim PTX:    immediate post dominator      @  PC=0x1c50 (_1.ptx:1408) mov.s32 %r31, 0;
GPGPU-Sim PTX:  6 (potential) branch divergence @  PC=0x1c20 (_1.ptx:1396) bra.uni $Lt_14_6146;
GPGPU-Sim PTX:    immediate post dominator      @  PC=0x1c50 (_1.ptx:1408) mov.s32 %r31, 0;
GPGPU-Sim PTX:  7 (potential) branch divergence @  PC=0x1c40 (_1.ptx:1402) bra.uni $Lt_14_6146;
GPGPU-Sim PTX:    immediate post dominator      @  PC=0x1c50 (_1.ptx:1408) mov.s32 %r31, 0;
GPGPU-Sim PTX: ... end of reconvergence points for _Z23getChunkBoundary_kernelPviP4int4iPi
GPGPU-Sim PTX: ... done pre-decoding instructions for '_Z23getChunkBoundary_kernelPviP4int4iPi'.
GPGPU-Sim PTX: instruction assembly for function '_Z22setBoundaryInt2_kernelPiiiiP4int2'...   done.
GPGPU-Sim PTX: finding reconvergence points for '_Z22setBoundaryInt2_kernelPiiiiP4int2'...
GPGPU-Sim PTX: Finding dominators for '_Z22setBoundaryInt2_kernelPiiiiP4int2'...
GPGPU-Sim PTX: Finding immediate dominators for '_Z22setBoundaryInt2_kernelPiiiiP4int2'...
GPGPU-Sim PTX: Finding postdominators for '_Z22setBoundaryInt2_kernelPiiiiP4int2'...
GPGPU-Sim PTX: Finding immediate postdominators for '_Z22setBoundaryInt2_kernelPiiiiP4int2'...
GPGPU-Sim PTX: pre-decoding instructions for '_Z22setBoundaryInt2_kernelPiiiiP4int2'...
GPGPU-Sim PTX: reconvergence points for _Z22setBoundaryInt2_kernelPiiiiP4int2...
GPGPU-Sim PTX:  1 (potential) branch divergence @  PC=0x1d18 (_1.ptx:1452) @%p1 bra $Lt_15_1794;
GPGPU-Sim PTX:    immediate post dominator      @  PC=0x1d98 (_1.ptx:1475) exit;
GPGPU-Sim PTX:  2 (potential) branch divergence @  PC=0x1d50 (_1.ptx:1459) @%p2 bra $Lt_15_2562;
GPGPU-Sim PTX:    immediate post dominator      @  PC=0x1d70 (_1.ptx:1468) ld.param.u64 %rd5, [__cudaparm__Z22setBoundaryInt2_kernelPiiiiP4int2_d_boundaryRange];
GPGPU-Sim PTX:  3 (potential) branch divergence @  PC=0x1d60 (_1.ptx:1462) bra.uni $Lt_15_2306;
GPGPU-Sim PTX:    immediate post dominator      @  PC=0x1d70 (_1.ptx:1468) ld.param.u64 %rd5, [__cudaparm__Z22setBoundaryInt2_kernelPiiiiP4int2_d_boundaryRange];
GPGPU-Sim PTX: ... end of reconvergence points for _Z22setBoundaryInt2_kernelPiiiiP4int2
GPGPU-Sim PTX: ... done pre-decoding instructions for '_Z22setBoundaryInt2_kernelPiiiiP4int2'.
GPGPU-Sim PTX: instruction assembly for function '_Z20writeBoundary_kerneliiPiS_S_'...   done.
GPGPU-Sim PTX: finding reconvergence points for '_Z20writeBoundary_kerneliiPiS_S_'...
GPGPU-Sim PTX: Finding dominators for '_Z20writeBoundary_kerneliiPiS_S_'...
GPGPU-Sim PTX: Finding immediate dominators for '_Z20writeBoundary_kerneliiPiS_S_'...
GPGPU-Sim PTX: Finding postdominators for '_Z20writeBoundary_kerneliiPiS_S_'...
GPGPU-Sim PTX: Finding immediate postdominators for '_Z20writeBoundary_kerneliiPiS_S_'...
GPGPU-Sim PTX: pre-decoding instructions for '_Z20writeBoundary_kerneliiPiS_S_'...
GPGPU-Sim PTX: reconvergence points for _Z20writeBoundary_kerneliiPiS_S_...
GPGPU-Sim PTX:  1 (potential) branch divergence @  PC=0x1e28 (_1.ptx:1508) @%p1 bra $Lt_16_1794;
GPGPU-Sim PTX:    immediate post dominator      @  PC=0x1eb0 (_1.ptx:1529) exit;
GPGPU-Sim PTX:  2 (potential) branch divergence @  PC=0x1e68 (_1.ptx:1516) @%p2 bra $Lt_16_2306;
GPGPU-Sim PTX:    immediate post dominator      @  PC=0x1eb0 (_1.ptx:1529) exit;
GPGPU-Sim PTX: ... end of reconvergence points for _Z20writeBoundary_kerneliiPiS_S_
GPGPU-Sim PTX: ... done pre-decoding instructions for '_Z20writeBoundary_kerneliiPiS_S_'.
GPGPU-Sim PTX: finished parsing EMBEDDED .ptx file _1.ptx
Adding _cuobjdump_4.ptx with cubin handle 1
GPGPU-Sim PTX: extracting embedded .ptx to temporary file "_ptx_okytjy"
Running: cat _ptx_okytjy | sed 's/.version 1.5/.version 1.4/' | sed 's/, texmode_independent//' | sed 's/\(\.extern \.const\[1\] .b8 \w\+\)\[\]/\1\[1\]/' | sed 's/const\[.\]/const\[0\]/g' > _ptx2_78hs6D
GPGPU-Sim PTX: generating ptxinfo using "$CUDA_INSTALL_PATH/bin/ptxas --gpu-name=sm_20 -v _ptx2_78hs6D --output-file  /dev/null 2> _ptx_okytjyinfo"
GPGPU-Sim PTX: Kernel '_Z20writeBoundary_kerneliiPiS_S_' : regs=8, lmem=0, smem=0, cmem=64
GPGPU-Sim PTX: Kernel '_Z22setBoundaryInt2_kernelPiiiiP4int2' : regs=9, lmem=0, smem=0, cmem=64
GPGPU-Sim PTX: Kernel '_Z23getChunkBoundary_kernelPviP4int4iPi' : regs=8, lmem=0, smem=0, cmem=72
GPGPU-Sim PTX: Kernel '_Z17copyChunks_kernelPviP4int2iPiS_' : regs=12, lmem=0, smem=0, cmem=80
GPGPU-Sim PTX: Kernel '_Z17setZWArray_kernelP4int4iiP4int2' : regs=8, lmem=0, smem=0, cmem=56
GPGPU-Sim PTX: Kernel '_Z17setXYArray_kernelP4int4iiP4int2' : regs=10, lmem=0, smem=0, cmem=56
GPGPU-Sim PTX: Kernel '_Z17getZWArray_kernelP4int4iiP4int2' : regs=10, lmem=0, smem=0, cmem=56
GPGPU-Sim PTX: Kernel '_Z17getXYArray_kernelP4int4iiP4int2' : regs=10, lmem=0, smem=0, cmem=56
GPGPU-Sim PTX: Kernel '_Z19getIntYArray_kernelP4int2iiPi' : regs=8, lmem=0, smem=0, cmem=56
GPGPU-Sim PTX: Kernel '_Z17initialize_kernelP4int4iiS_' : regs=10, lmem=0, smem=0, cmem=64
GPGPU-Sim PTX: Kernel '_Z32bitonicSortMultipleBlocks_kernelPviP4int4PiiiS1_' : regs=23, lmem=0, smem=4108, cmem=80
GPGPU-Sim PTX: Kernel '_Z29bitonicSortSingleBlock_kernelPviP4int4iS1_' : regs=23, lmem=0, smem=4096, cmem=72
GPGPU-Sim PTX: Kernel '_Z13bitonicKernelPviP4int4jii' : regs=16, lmem=0, smem=0, cmem=68
GPGPU-Sim PTX: Kernel '_Z21unitBitonicSortKernelPviP4int4ji' : regs=18, lmem=0, smem=4096, cmem=64
GPGPU-Sim PTX: Kernel '_Z21partBitonicSortKernelPviP4int4jii' : regs=17, lmem=0, smem=4096, cmem=68
GPGPU-Sim PTX: removing ptxinfo using "rm -f _ptx_okytjy _ptx2_78hs6D _ptx_okytjyinfo"
GPGPU-Sim PTX: loading globals with explicit initializers... 
GPGPU-Sim PTX: finished loading globals (0 bytes total).
GPGPU-Sim PTX: loading constants with explicit initializers...  done.
GPGPU-Sim PTX: __cudaRegisterFunction _Z22setBoundaryInt2_kernelPiiiiP4int2 : hostFun 0x0x408cc9, fat_cubin_handle = 1
GPGPU-Sim PTX: __cudaRegisterFunction _Z23getChunkBoundary_kernelPviP4int4iPi : hostFun 0x0x408ba6, fat_cubin_handle = 1
GPGPU-Sim PTX: __cudaRegisterFunction _Z17copyChunks_kernelPviP4int2iPiS_ : hostFun 0x0x408a77, fat_cubin_handle = 1
GPGPU-Sim PTX: __cudaRegisterFunction _Z17setZWArray_kernelP4int4iiP4int2 : hostFun 0x0x408934, fat_cubin_handle = 1
GPGPU-Sim PTX: __cudaRegisterFunction _Z17setXYArray_kernelP4int4iiP4int2 : hostFun 0x0x408845, fat_cubin_handle = 1
GPGPU-Sim PTX: __cudaRegisterFunction _Z17getZWArray_kernelP4int4iiP4int2 : hostFun 0x0x408756, fat_cubin_handle = 1
GPGPU-Sim PTX: __cudaRegisterFunction _Z17getXYArray_kernelP4int4iiP4int2 : hostFun 0x0x408667, fat_cubin_handle = 1
GPGPU-Sim PTX: __cudaRegisterFunction _Z19getIntYArray_kernelP4int2iiPi : hostFun 0x0x408578, fat_cubin_handle = 1
GPGPU-Sim PTX: __cudaRegisterFunction _Z17initialize_kernelP4int4iiS_ : hostFun 0x0x40847f, fat_cubin_handle = 1
GPGPU-Sim PTX: __cudaRegisterFunction _Z32bitonicSortMultipleBlocks_kernelPviP4int4PiiiS1_ : hostFun 0x0x408365, fat_cubin_handle = 1
GPGPU-Sim PTX: __cudaRegisterFunction _Z29bitonicSortSingleBlock_kernelPviP4int4iS1_ : hostFun 0x0x4081f3, fat_cubin_handle = 1
GPGPU-Sim PTX: __cudaRegisterFunction _Z13bitonicKernelPviP4int4jii : hostFun 0x0x4080c6, fat_cubin_handle = 1
GPGPU-Sim PTX: __cudaRegisterFunction _Z21unitBitonicSortKernelPviP4int4ji : hostFun 0x0x407f79, fat_cubin_handle = 1
GPGPU-Sim PTX: __cudaRegisterFunction _Z21partBitonicSortKernelPviP4int4jii : hostFun 0x0x407e4c, fat_cubin_handle = 1
GPGPU-Sim PTX: __cudaRegisterFatBinary, fat_cubin_handle = 2, filename=MarsScan.cu
GPGPU-Sim PTX: __cudaRegisterFunction _Z7prescanILb0ELb1EEvPiPKiS0_iii : hostFun 0x0x4060ab, fat_cubin_handle = 2
GPGPU-Sim PTX: allocating stack frame region for .param "__cudaretf__Z8buildSumPi" from 0x0 to 0x4
GPGPU-Sim PTX: allocating stack frame region for .param "__cudaparmf1__Z8buildSumPi" from 0x4 to 0xc
GPGPU-Sim PTX: allocating stack frame region for .param "__cudaparmf1__Z16scanRootToLeavesPij" from 0x0 to 0x8
GPGPU-Sim PTX: allocating stack frame region for .param "__cudaparmf2__Z16scanRootToLeavesPij" from 0x8 to 0xc
GPGPU-Sim PTX: allocating stack frame region for .param "__cudaparmf1__Z22loadSharedChunkFromMemILb0EEvPiPKiiiRiS3_S3_S3_S3_S3_" from 0x0 to 0x8
GPGPU-Sim PTX: allocating stack frame region for .param "__cudaparmf2__Z22loadSharedChunkFromMemILb0EEvPiPKiiiRiS3_S3_S3_S3_S3_" from 0x8 to 0x10
GPGPU-Sim PTX: allocating stack frame region for .param "__cudaparmf3__Z22loadSharedChunkFromMemILb0EEvPiPKiiiRiS3_S3_S3_S3_S3_" from 0x10 to 0x14
GPGPU-Sim PTX: allocating stack frame region for .param "__cudaparmf4__Z22loadSharedChunkFromMemILb0EEvPiPKiiiRiS3_S3_S3_S3_S3_" from 0x14 to 0x18
GPGPU-Sim PTX: allocating stack frame region for .param "__cudaparmf5__Z22loadSharedChunkFromMemILb0EEvPiPKiiiRiS3_S3_S3_S3_S3_" from 0x18 to 0x20
GPGPU-Sim PTX: allocating stack frame region for .param "__cudaparmf6__Z22loadSharedChunkFromMemILb0EEvPiPKiiiRiS3_S3_S3_S3_S3_" from 0x20 to 0x28
GPGPU-Sim PTX: allocating stack frame region for .param "__cudaparmf7__Z22loadSharedChunkFromMemILb0EEvPiPKiiiRiS3_S3_S3_S3_S3_" from 0x28 to 0x30
GPGPU-Sim PTX: allocating stack frame region for .param "__cudaparmf8__Z22loadSharedChunkFromMemILb0EEvPiPKiiiRiS3_S3_S3_S3_S3_" from 0x30 to 0x38
GPGPU-Sim PTX: allocating stack frame region for .param "__cudaparmf9__Z22loadSharedChunkFromMemILb0EEvPiPKiiiRiS3_S3_S3_S3_S3_" from 0x38 to 0x40
GPGPU-Sim PTX: allocating stack frame region for .param "__cudaparmf10__Z22loadSharedChunkFromMemILb0EEvPiPKiiiRiS3_S3_S3_S3_S3_" from 0x40 to 0x48
GPGPU-Sim PTX: allocating stack frame region for .param "__cudaparmf1__Z12prescanBlockILb1EEvPiiS0_" from 0x0 to 0x8
GPGPU-Sim PTX: allocating stack frame region for .param "__cudaparmf2__Z12prescanBlockILb1EEvPiiS0_" from 0x8 to 0xc
GPGPU-Sim PTX: allocating stack frame region for .param "__cudaparmf3__Z12prescanBlockILb1EEvPiiS0_" from 0xc to 0x14
GPGPU-Sim PTX: allocating stack frame region for .param "__cudaparmf1__Z16clearLastElementILb1EEvPiS0_i" from 0x0 to 0x8
GPGPU-Sim PTX: allocating stack frame region for .param "__cudaparmf2__Z16clearLastElementILb1EEvPiS0_i" from 0x8 to 0x10
GPGPU-Sim PTX: allocating stack frame region for .param "__cudaparmf3__Z16clearLastElementILb1EEvPiS0_i" from 0x10 to 0x14
GPGPU-Sim PTX: allocating stack frame region for .param "__cudaparmf1__Z21storeSharedChunkToMemILb0EEvPiPKiiiiiiii" from 0x0 to 0x8
GPGPU-Sim PTX: allocating stack frame region for .param "__cudaparmf2__Z21storeSharedChunkToMemILb0EEvPiPKiiiiiiii" from 0x8 to 0x10
GPGPU-Sim PTX: allocating stack frame region for .param "__cudaparmf3__Z21storeSharedChunkToMemILb0EEvPiPKiiiiiiii" from 0x10 to 0x14
GPGPU-Sim PTX: allocating stack frame region for .param "__cudaparmf4__Z21storeSharedChunkToMemILb0EEvPiPKiiiiiiii" from 0x14 to 0x18
GPGPU-Sim PTX: allocating stack frame region for .param "__cudaparmf5__Z21storeSharedChunkToMemILb0EEvPiPKiiiiiiii" from 0x18 to 0x1c
GPGPU-Sim PTX: allocating stack frame region for .param "__cudaparmf6__Z21storeSharedChunkToMemILb0EEvPiPKiiiiiiii" from 0x1c to 0x20
GPGPU-Sim PTX: allocating stack frame region for .param "__cudaparmf7__Z21storeSharedChunkToMemILb0EEvPiPKiiiiiiii" from 0x20 to 0x24
GPGPU-Sim PTX: allocating stack frame region for .param "__cudaparmf8__Z21storeSharedChunkToMemILb0EEvPiPKiiiiiiii" from 0x24 to 0x28
GPGPU-Sim PTX: allocating stack frame region for .param "__cudaparmf9__Z21storeSharedChunkToMemILb0EEvPiPKiiiiiiii" from 0x28 to 0x2c
GPGPU-Sim PTX: allocating stack frame region for .param "__cudaparmf1__Z22loadSharedChunkFromMemILb1EEvPiPKiiiRiS3_S3_S3_S3_S3_" from 0x0 to 0x8
GPGPU-Sim PTX: allocating stack frame region for .param "__cudaparmf2__Z22loadSharedChunkFromMemILb1EEvPiPKiiiRiS3_S3_S3_S3_S3_" from 0x8 to 0x10
GPGPU-Sim PTX: allocating stack frame region for .param "__cudaparmf3__Z22loadSharedChunkFromMemILb1EEvPiPKiiiRiS3_S3_S3_S3_S3_" from 0x10 to 0x14
GPGPU-Sim PTX: allocating stack frame region for .param "__cudaparmf4__Z22loadSharedChunkFromMemILb1EEvPiPKiiiRiS3_S3_S3_S3_S3_" from 0x14 to 0x18
GPGPU-Sim PTX: allocating stack frame region for .param "__cudaparmf5__Z22loadSharedChunkFromMemILb1EEvPiPKiiiRiS3_S3_S3_S3_S3_" from 0x18 to 0x20
GPGPU-Sim PTX: allocating stack frame region for .param "__cudaparmf6__Z22loadSharedChunkFromMemILb1EEvPiPKiiiRiS3_S3_S3_S3_S3_" from 0x20 to 0x28
GPGPU-Sim PTX: allocating stack frame region for .param "__cudaparmf7__Z22loadSharedChunkFromMemILb1EEvPiPKiiiRiS3_S3_S3_S3_S3_" from 0x28 to 0x30
GPGPU-Sim PTX: allocating stack frame region for .param "__cudaparmf8__Z22loadSharedChunkFromMemILb1EEvPiPKiiiRiS3_S3_S3_S3_S3_" from 0x30 to 0x38
GPGPU-Sim PTX: allocating stack frame region for .param "__cudaparmf9__Z22loadSharedChunkFromMemILb1EEvPiPKiiiRiS3_S3_S3_S3_S3_" from 0x38 to 0x40
GPGPU-Sim PTX: allocating stack frame region for .param "__cudaparmf10__Z22loadSharedChunkFromMemILb1EEvPiPKiiiRiS3_S3_S3_S3_S3_" from 0x40 to 0x48
GPGPU-Sim PTX: allocating stack frame region for .param "__cudaparmf1__Z21storeSharedChunkToMemILb1EEvPiPKiiiiiiii" from 0x0 to 0x8
GPGPU-Sim PTX: allocating stack frame region for .param "__cudaparmf2__Z21storeSharedChunkToMemILb1EEvPiPKiiiiiiii" from 0x8 to 0x10
GPGPU-Sim PTX: allocating stack frame region for .param "__cudaparmf3__Z21storeSharedChunkToMemILb1EEvPiPKiiiiiiii" from 0x10 to 0x14
GPGPU-Sim PTX: allocating stack frame region for .param "__cudaparmf4__Z21storeSharedChunkToMemILb1EEvPiPKiiiiiiii" from 0x14 to 0x18
GPGPU-Sim PTX: allocating stack frame region for .param "__cudaparmf5__Z21storeSharedChunkToMemILb1EEvPiPKiiiiiiii" from 0x18 to 0x1c
GPGPU-Sim PTX: allocating stack frame region for .param "__cudaparmf6__Z21storeSharedChunkToMemILb1EEvPiPKiiiiiiii" from 0x1c to 0x20
GPGPU-Sim PTX: allocating stack frame region for .param "__cudaparmf7__Z21storeSharedChunkToMemILb1EEvPiPKiiiiiiii" from 0x20 to 0x24
GPGPU-Sim PTX: allocating stack frame region for .param "__cudaparmf8__Z21storeSharedChunkToMemILb1EEvPiPKiiiiiiii" from 0x24 to 0x28
GPGPU-Sim PTX: allocating stack frame region for .param "__cudaparmf9__Z21storeSharedChunkToMemILb1EEvPiPKiiiiiiii" from 0x28 to 0x2c
GPGPU-Sim PTX: allocating stack frame region for .param "__cudaparmf1__Z12prescanBlockILb0EEvPiiS0_" from 0x0 to 0x8
GPGPU-Sim PTX: allocating stack frame region for .param "__cudaparmf2__Z12prescanBlockILb0EEvPiiS0_" from 0x8 to 0xc
GPGPU-Sim PTX: allocating stack frame region for .param "__cudaparmf3__Z12prescanBlockILb0EEvPiiS0_" from 0xc to 0x14
GPGPU-Sim PTX: allocating stack frame region for .param "__cudaparmf1__Z16clearLastElementILb0EEvPiS0_i" from 0x0 to 0x8
GPGPU-Sim PTX: allocating stack frame region for .param "__cudaparmf2__Z16clearLastElementILb0EEvPiS0_i" from 0x8 to 0x10
GPGPU-Sim PTX: allocating stack frame region for .param "__cudaparmf3__Z16clearLastElementILb0EEvPiS0_i" from 0x10 to 0x14
GPGPU-Sim PTX: instruction assembly for function '_Z8buildSumPi'...   done.
GPGPU-Sim PTX: finding reconvergence points for '_Z8buildSumPi'...
GPGPU-Sim PTX: Finding dominators for '_Z8buildSumPi'...
GPGPU-Sim PTX: Finding immediate dominators for '_Z8buildSumPi'...
GPGPU-Sim PTX: Finding postdominators for '_Z8buildSumPi'...
GPGPU-Sim PTX: Finding immediate postdominators for '_Z8buildSumPi'...
GPGPU-Sim PTX: pre-decoding instructions for '_Z8buildSumPi'...
GPGPU-Sim PTX: reconvergence points for _Z8buildSumPi...
GPGPU-Sim PTX:  1 (potential) branch divergence @  PC=0x1ee8 (_2.ptx:85) @%p1 bra $Lt_0_3586;
GPGPU-Sim PTX:    immediate post dominator      @  PC=0x1ff8 (_2.ptx:128) mov.s32 %r21, %r5;
GPGPU-Sim PTX:  2 (potential) branch divergence @  PC=0x1f10 (_2.ptx:92) @%p2 bra $Lt_0_2818;
GPGPU-Sim PTX:    immediate post dominator      @  PC=0x1fc0 (_2.ptx:117) mul.lo.u32 %r5, %r5, 2;
GPGPU-Sim PTX:  3 (potential) branch divergence @  PC=0x1fe0 (_2.ptx:122) @%p3 bra $Lt_0_2562;
GPGPU-Sim PTX:    immediate post dominator      @  PC=0x1fe8 (_2.ptx:123) bra.uni $Lt_0_2050;
GPGPU-Sim PTX:  4 (potential) branch divergence @  PC=0x1fe8 (_2.ptx:123) bra.uni $Lt_0_2050;
GPGPU-Sim PTX:    immediate post dominator      @  PC=0x1ff8 (_2.ptx:128) mov.s32 %r21, %r5;
GPGPU-Sim PTX: ... end of reconvergence points for _Z8buildSumPi
GPGPU-Sim PTX: ... done pre-decoding instructions for '_Z8buildSumPi'.
GPGPU-Sim PTX: instruction assembly for function '_Z16scanRootToLeavesPij'...   done.
GPGPU-Sim PTX: finding reconvergence points for '_Z16scanRootToLeavesPij'...
GPGPU-Sim PTX: Finding dominators for '_Z16scanRootToLeavesPij'...
GPGPU-Sim PTX: Finding immediate dominators for '_Z16scanRootToLeavesPij'...
GPGPU-Sim PTX: Finding postdominators for '_Z16scanRootToLeavesPij'...
GPGPU-Sim PTX: Finding immediate postdominators for '_Z16scanRootToLeavesPij'...
GPGPU-Sim PTX: pre-decoding instructions for '_Z16scanRootToLeavesPij'...
GPGPU-Sim PTX: reconvergence points for _Z16scanRootToLeavesPij...
GPGPU-Sim PTX:  1 (potential) branch divergence @  PC=0x2048 (_2.ptx:148) @%p1 bra $Lt_1_2050;
GPGPU-Sim PTX:    immediate post dominator      @  PC=0x2150 (_2.ptx:192) ret;
GPGPU-Sim PTX:  2 (potential) branch divergence @  PC=0x2078 (_2.ptx:158) @%p2 bra $Lt_1_2818;
GPGPU-Sim PTX:    immediate post dominator      @  PC=0x2138 (_2.ptx:187) mul.lo.s32 %r6, %r6, 2;
GPGPU-Sim PTX:  3 (potential) branch divergence @  PC=0x2148 (_2.ptx:189) @%p3 bra $Lt_1_2562;
GPGPU-Sim PTX:    immediate post dominator      @  PC=0x2150 (_2.ptx:192) ret;
GPGPU-Sim PTX: ... end of reconvergence points for _Z16scanRootToLeavesPij
GPGPU-Sim PTX: ... done pre-decoding instructions for '_Z16scanRootToLeavesPij'.
GPGPU-Sim PTX: instruction assembly for function '_Z22loadSharedChunkFromMemILb0EEvPiPKiiiRiS3_S3_S3_S3_S3_'...   done.
GPGPU-Sim PTX: finding reconvergence points for '_Z22loadSharedChunkFromMemILb0EEvPiPKiiiRiS3_S3_S3_S3_S3_'...
GPGPU-Sim PTX: Finding dominators for '_Z22loadSharedChunkFromMemILb0EEvPiPKiiiRiS3_S3_S3_S3_S3_'...
GPGPU-Sim PTX: Finding immediate dominators for '_Z22loadSharedChunkFromMemILb0EEvPiPKiiiRiS3_S3_S3_S3_S3_'...
GPGPU-Sim PTX: Finding postdominators for '_Z22loadSharedChunkFromMemILb0EEvPiPKiiiRiS3_S3_S3_S3_S3_'...
GPGPU-Sim PTX: Finding immediate postdominators for '_Z22loadSharedChunkFromMemILb0EEvPiPKiiiRiS3_S3_S3_S3_S3_'...
GPGPU-Sim PTX: pre-decoding instructions for '_Z22loadSharedChunkFromMemILb0EEvPiPKiiiRiS3_S3_S3_S3_S3_'...
GPGPU-Sim PTX: reconvergence points for _Z22loadSharedChunkFromMemILb0EEvPiPKiiiRiS3_S3_S3_S3_S3_...
GPGPU-Sim PTX: ... end of reconvergence points for _Z22loadSharedChunkFromMemILb0EEvPiPKiiiRiS3_S3_S3_S3_S3_
GPGPU-Sim PTX: ... done pre-decoding instructions for '_Z22loadSharedChunkFromMemILb0EEvPiPKiiiRiS3_S3_S3_S3_S3_'.
GPGPU-Sim PTX: instruction assembly for function '_Z12prescanBlockILb1EEvPiiS0_'...   done.
GPGPU-Sim PTX: finding reconvergence points for '_Z12prescanBlockILb1EEvPiiS0_'...
GPGPU-Sim PTX: Finding dominators for '_Z12prescanBlockILb1EEvPiiS0_'...
GPGPU-Sim PTX: Finding immediate dominators for '_Z12prescanBlockILb1EEvPiiS0_'...
GPGPU-Sim PTX: Finding postdominators for '_Z12prescanBlockILb1EEvPiiS0_'...
GPGPU-Sim PTX: Finding immediate postdominators for '_Z12prescanBlockILb1EEvPiiS0_'...
GPGPU-Sim PTX: pre-decoding instructions for '_Z12prescanBlockILb1EEvPiiS0_'...
GPGPU-Sim PTX: reconvergence points for _Z12prescanBlockILb1EEvPiiS0_...
GPGPU-Sim PTX:  1 (potential) branch divergence @  PC=0x2380 (_2.ptx:291) @%p1 bra $Lt_3_9730;
GPGPU-Sim PTX:    immediate post dominator      @  PC=0x2498 (_2.ptx:335) mov.u32 %r23, %ntid.x;
GPGPU-Sim PTX:  2 (potential) branch divergence @  PC=0x23a8 (_2.ptx:298) @%p2 bra $Lt_3_6914;
GPGPU-Sim PTX:    immediate post dominator      @  PC=0x2458 (_2.ptx:323) mul.lo.u32 %r7, %r7, 2;
GPGPU-Sim PTX:  3 (potential) branch divergence @  PC=0x2478 (_2.ptx:328) @%p3 bra $Lt_3_6658;
GPGPU-Sim PTX:    immediate post dominator      @  PC=0x2480 (_2.ptx:329) bra.uni $Lt_3_6146;
GPGPU-Sim PTX:  4 (potential) branch divergence @  PC=0x2480 (_2.ptx:329) bra.uni $Lt_3_6146;
GPGPU-Sim PTX:    immediate post dominator      @  PC=0x2498 (_2.ptx:335) mov.u32 %r23, %ntid.x;
GPGPU-Sim PTX:  5 (potential) branch divergence @  PC=0x24b0 (_2.ptx:338) @%p4 bra $Lt_3_7682;
GPGPU-Sim PTX:    immediate post dominator      @  PC=0x2548 (_2.ptx:361) mov.s32 %r34, %r7;
GPGPU-Sim PTX:  6 (potential) branch divergence @  PC=0x2560 (_2.ptx:364) @%p6 bra $Lt_3_8194;
GPGPU-Sim PTX:    immediate post dominator      @  PC=0x2660 (_2.ptx:407) ret;
GPGPU-Sim PTX:  7 (potential) branch divergence @  PC=0x2588 (_2.ptx:373) @%p7 bra $Lt_3_8962;
GPGPU-Sim PTX:    immediate post dominator      @  PC=0x2648 (_2.ptx:402) mul.lo.s32 %r36, %r36, 2;
GPGPU-Sim PTX:  8 (potential) branch divergence @  PC=0x2658 (_2.ptx:404) @%p8 bra $Lt_3_8706;
GPGPU-Sim PTX:    immediate post dominator      @  PC=0x2660 (_2.ptx:407) ret;
GPGPU-Sim PTX: ... end of reconvergence points for _Z12prescanBlockILb1EEvPiiS0_
GPGPU-Sim PTX: ... done pre-decoding instructions for '_Z12prescanBlockILb1EEvPiiS0_'.
GPGPU-Sim PTX: instruction assembly for function '_Z16clearLastElementILb1EEvPiS0_i'...   done.
GPGPU-Sim PTX: finding reconvergence points for '_Z16clearLastElementILb1EEvPiS0_i'...
GPGPU-Sim PTX: Finding dominators for '_Z16clearLastElementILb1EEvPiS0_i'...
GPGPU-Sim PTX: Finding immediate dominators for '_Z16clearLastElementILb1EEvPiS0_i'...
GPGPU-Sim PTX: Finding postdominators for '_Z16clearLastElementILb1EEvPiS0_i'...
GPGPU-Sim PTX: Finding immediate postdominators for '_Z16clearLastElementILb1EEvPiS0_i'...
GPGPU-Sim PTX: pre-decoding instructions for '_Z16clearLastElementILb1EEvPiS0_i'...
GPGPU-Sim PTX: reconvergence points for _Z16clearLastElementILb1EEvPiS0_i...
GPGPU-Sim PTX:  1 (potential) branch divergence @  PC=0x26b0 (_2.ptx:427) @%p1 bra $Lt_4_1794;
GPGPU-Sim PTX:    immediate post dominator      @  PC=0x2730 (_2.ptx:447) ret;
GPGPU-Sim PTX: ... end of reconvergence points for _Z16clearLastElementILb1EEvPiS0_i
GPGPU-Sim PTX: ... done pre-decoding instructions for '_Z16clearLastElementILb1EEvPiS0_i'.
GPGPU-Sim PTX: instruction assembly for function '_Z21storeSharedChunkToMemILb0EEvPiPKiiiiiiii'...   done.
GPGPU-Sim PTX: finding reconvergence points for '_Z21storeSharedChunkToMemILb0EEvPiPKiiiiiiii'...
GPGPU-Sim PTX: Finding dominators for '_Z21storeSharedChunkToMemILb0EEvPiPKiiiiiiii'...
GPGPU-Sim PTX: Finding immediate dominators for '_Z21storeSharedChunkToMemILb0EEvPiPKiiiiiiii'...
GPGPU-Sim PTX: Finding postdominators for '_Z21storeSharedChunkToMemILb0EEvPiPKiiiiiiii'...
GPGPU-Sim PTX: Finding immediate postdominators for '_Z21storeSharedChunkToMemILb0EEvPiPKiiiiiiii'...
GPGPU-Sim PTX: pre-decoding instructions for '_Z21storeSharedChunkToMemILb0EEvPiPKiiiiiiii'...
GPGPU-Sim PTX: reconvergence points for _Z21storeSharedChunkToMemILb0EEvPiPKiiiiiiii...
GPGPU-Sim PTX: ... end of reconvergence points for _Z21storeSharedChunkToMemILb0EEvPiPKiiiiiiii
GPGPU-Sim PTX: ... done pre-decoding instructions for '_Z21storeSharedChunkToMemILb0EEvPiPKiiiiiiii'.
GPGPU-Sim PTX: instruction assembly for function '_Z22loadSharedChunkFromMemILb1EEvPiPKiiiRiS3_S3_S3_S3_S3_'...   done.
GPGPU-Sim PTX: finding reconvergence points for '_Z22loadSharedChunkFromMemILb1EEvPiPKiiiRiS3_S3_S3_S3_S3_'...
GPGPU-Sim PTX: Finding dominators for '_Z22loadSharedChunkFromMemILb1EEvPiPKiiiRiS3_S3_S3_S3_S3_'...
GPGPU-Sim PTX: Finding immediate dominators for '_Z22loadSharedChunkFromMemILb1EEvPiPKiiiRiS3_S3_S3_S3_S3_'...
GPGPU-Sim PTX: Finding postdominators for '_Z22loadSharedChunkFromMemILb1EEvPiPKiiiRiS3_S3_S3_S3_S3_'...
GPGPU-Sim PTX: Finding immediate postdominators for '_Z22loadSharedChunkFromMemILb1EEvPiPKiiiRiS3_S3_S3_S3_S3_'...
GPGPU-Sim PTX: pre-decoding instructions for '_Z22loadSharedChunkFromMemILb1EEvPiPKiiiRiS3_S3_S3_S3_S3_'...
GPGPU-Sim PTX: reconvergence points for _Z22loadSharedChunkFromMemILb1EEvPiPKiiiRiS3_S3_S3_S3_S3_...
GPGPU-Sim PTX:  1 (potential) branch divergence @  PC=0x29e0 (_2.ptx:562) @%p1 bra $Lt_6_2050;
GPGPU-Sim PTX:    immediate post dominator      @  PC=0x2a20 (_2.ptx:573) ld.s32 %r23, [%rd16+0];
GPGPU-Sim PTX:  2 (potential) branch divergence @  PC=0x2a10 (_2.ptx:569) bra.uni $Lt_6_1794;
GPGPU-Sim PTX:    immediate post dominator      @  PC=0x2a20 (_2.ptx:573) ld.s32 %r23, [%rd16+0];
GPGPU-Sim PTX: ... end of reconvergence points for _Z22loadSharedChunkFromMemILb1EEvPiPKiiiRiS3_S3_S3_S3_S3_
GPGPU-Sim PTX: ... done pre-decoding instructions for '_Z22loadSharedChunkFromMemILb1EEvPiPKiiiRiS3_S3_S3_S3_S3_'.
GPGPU-Sim PTX: instruction assembly for function '_Z21storeSharedChunkToMemILb1EEvPiPKiiiiiiii'...   done.
GPGPU-Sim PTX: finding reconvergence points for '_Z21storeSharedChunkToMemILb1EEvPiPKiiiiiiii'...
GPGPU-Sim PTX: Finding dominators for '_Z21storeSharedChunkToMemILb1EEvPiPKiiiiiiii'...
GPGPU-Sim PTX: Finding immediate dominators for '_Z21storeSharedChunkToMemILb1EEvPiPKiiiiiiii'...
[...]
GPGPU-Sim uArch: cycles simulated: 1084000  inst.: 6440179 (ipc= 5.9) sim_rate=10506 (inst/sec) elapsed = 0:0:10:13 / Tue Mar 22 07:47:03 2016
GPGPU-Sim uArch: cycles simulated: 1089500  inst.: 6468379 (ipc= 5.9) sim_rate=10534 (inst/sec) elapsed = 0:0:10:14 / Tue Mar 22 07:47:04 2016
GPGPU-Sim PTX: 7000000 instructions simulated : ctaid=(3,0,0) tid=(28,0,0)
GPGPU-Sim uArch: cycles simulated: 1095500  inst.: 6506010 (ipc= 5.9) sim_rate=10578 (inst/sec) elapsed = 0:0:10:15 / Tue Mar 22 07:47:05 2016
GPGPU-Sim uArch: cycles simulated: 1101000  inst.: 6538185 (ipc= 5.9) sim_rate=10613 (inst/sec) elapsed = 0:0:10:16 / Tue Mar 22 07:47:06 2016
GPGPU-Sim uArch: cycles simulated: 1107000  inst.: 6574162 (ipc= 5.9) sim_rate=10655 (inst/sec) elapsed = 0:0:10:17 / Tue Mar 22 07:47:07 2016
GPGPU-Sim PTX: 7100000 instructions simulated : ctaid=(2,0,0) tid=(92,0,0)
GPGPU-Sim uArch: cycles simulated: 1113000  inst.: 6612514 (ipc= 5.9) sim_rate=10699 (inst/sec) elapsed = 0:0:10:18 / Tue Mar 22 07:47:08 2016
GPGPU-Sim uArch: cycles simulated: 1118500  inst.: 6643898 (ipc= 5.9) sim_rate=10733 (inst/sec) elapsed = 0:0:10:19 / Tue Mar 22 07:47:09 2016
GPGPU-Sim PTX: 7200000 instructions simulated : ctaid=(3,0,0) tid=(45,0,0)
GPGPU-Sim uArch: cycles simulated: 1124500  inst.: 6681637 (ipc= 5.9) sim_rate=10776 (inst/sec) elapsed = 0:0:10:20 / Tue Mar 22 07:47:10 2016
GPGPU-Sim uArch: cycles simulated: 1130500  inst.: 6721889 (ipc= 5.9) sim_rate=10824 (inst/sec) elapsed = 0:0:10:21 / Tue Mar 22 07:47:11 2016
GPGPU-Sim uArch: cycles simulated: 1136500  inst.: 6758478 (ipc= 5.9) sim_rate=10865 (inst/sec) elapsed = 0:0:10:22 / Tue Mar 22 07:47:12 2016
GPGPU-Sim PTX: 7300000 instructions simulated : ctaid=(3,0,0) tid=(81,0,0)
GPGPU-Sim uArch: cycles simulated: 1142000  inst.: 6788489 (ipc= 5.9) sim_rate=10896 (inst/sec) elapsed = 0:0:10:23 / Tue Mar 22 07:47:13 2016
GPGPU-Sim uArch: cycles simulated: 1148000  inst.: 6824300 (ipc= 5.9) sim_rate=10936 (inst/sec) elapsed = 0:0:10:24 / Tue Mar 22 07:47:14 2016
GPGPU-Sim uArch: cycles simulated: 1154000  inst.: 6862836 (ipc= 5.9) sim_rate=10980 (inst/sec) elapsed = 0:0:10:25 / Tue Mar 22 07:47:15 2016
GPGPU-Sim PTX: 7400000 instructions simulated : ctaid=(0,0,0) tid=(213,0,0)
GPGPU-Sim uArch: cycles simulated: 1159500  inst.: 6894250 (ipc= 5.9) sim_rate=11013 (inst/sec) elapsed = 0:0:10:26 / Tue Mar 22 07:47:16 2016
GPGPU-Sim uArch: cycles simulated: 1165500  inst.: 6931112 (ipc= 5.9) sim_rate=11054 (inst/sec) elapsed = 0:0:10:27 / Tue Mar 22 07:47:17 2016
GPGPU-Sim PTX: 7500000 instructions simulated : ctaid=(0,0,0) tid=(157,0,0)
GPGPU-Sim uArch: cycles simulated: 1171000  inst.: 6967267 (ipc= 5.9) sim_rate=11094 (inst/sec) elapsed = 0:0:10:28 / Tue Mar 22 07:47:18 2016
GPGPU-Sim uArch: cycles simulated: 1177000  inst.: 7006778 (ipc= 6.0) sim_rate=11139 (inst/sec) elapsed = 0:0:10:29 / Tue Mar 22 07:47:19 2016
GPGPU-Sim uArch: cycles simulated: 1182000  inst.: 7039255 (ipc= 6.0) sim_rate=11173 (inst/sec) elapsed = 0:0:10:30 / Tue Mar 22 07:47:20 2016
GPGPU-Sim PTX: 7600000 instructions simulated : ctaid=(2,0,0) tid=(191,0,0)
GPGPU-Sim uArch: cycles simulated: 1188000  inst.: 7073769 (ipc= 6.0) sim_rate=11210 (inst/sec) elapsed = 0:0:10:31 / Tue Mar 22 07:47:21 2016
GPGPU-Sim uArch: cycles simulated: 1193500  inst.: 7104505 (ipc= 6.0) sim_rate=11241 (inst/sec) elapsed = 0:0:10:32 / Tue Mar 22 07:47:22 2016
GPGPU-Sim uArch: cycles simulated: 1199500  inst.: 7140776 (ipc= 6.0) sim_rate=11280 (inst/sec) elapsed = 0:0:10:33 / Tue Mar 22 07:47:23 2016
GPGPU-Sim PTX: 7700000 instructions simulated : ctaid=(3,0,0) tid=(104,0,0)
GPGPU-Sim uArch: cycles simulated: 1205500  inst.: 7175292 (ipc= 6.0) sim_rate=11317 (inst/sec) elapsed = 0:0:10:34 / Tue Mar 22 07:47:24 2016
GPGPU-Sim uArch: cycles simulated: 1211500  inst.: 7210129 (ipc= 6.0) sim_rate=11354 (inst/sec) elapsed = 0:0:10:35 / Tue Mar 22 07:47:25 2016
GPGPU-Sim PTX: 7800000 instructions simulated : ctaid=(2,0,0) tid=(165,0,0)
GPGPU-Sim uArch: cycles simulated: 1217500  inst.: 7245703 (ipc= 6.0) sim_rate=11392 (inst/sec) elapsed = 0:0:10:36 / Tue Mar 22 07:47:26 2016
GPGPU-Sim uArch: cycles simulated: 1223000  inst.: 7278563 (ipc= 6.0) sim_rate=11426 (inst/sec) elapsed = 0:0:10:37 / Tue Mar 22 07:47:27 2016
GPGPU-Sim uArch: cycles simulated: 1229000  inst.: 7315547 (ipc= 6.0) sim_rate=11466 (inst/sec) elapsed = 0:0:10:38 / Tue Mar 22 07:47:28 2016
GPGPU-Sim PTX: 7900000 instructions simulated : ctaid=(2,0,0) tid=(161,0,0)
GPGPU-Sim uArch: cycles simulated: 1235000  inst.: 7353111 (ipc= 6.0) sim_rate=11507 (inst/sec) elapsed = 0:0:10:39 / Tue Mar 22 07:47:29 2016
GPGPU-Sim uArch: cycles simulated: 1241000  inst.: 7385386 (ipc= 6.0) sim_rate=11539 (inst/sec) elapsed = 0:0:10:40 / Tue Mar 22 07:47:30 2016
GPGPU-Sim uArch: cycles simulated: 1246500  inst.: 7419783 (ipc= 6.0) sim_rate=11575 (inst/sec) elapsed = 0:0:10:41 / Tue Mar 22 07:47:31 2016
GPGPU-Sim PTX: 8000000 instructions simulated : ctaid=(0,0,0) tid=(104,0,0)
GPGPU-Sim uArch: cycles simulated: 1252500  inst.: 7452355 (ipc= 5.9) sim_rate=11608 (inst/sec) elapsed = 0:0:10:42 / Tue Mar 22 07:47:32 2016
GPGPU-Sim uArch: cycles simulated: 1258500  inst.: 7485217 (ipc= 5.9) sim_rate=11641 (inst/sec) elapsed = 0:0:10:43 / Tue Mar 22 07:47:33 2016
GPGPU-Sim PTX: 8100000 instructions simulated : ctaid=(0,0,0) tid=(124,0,0)
GPGPU-Sim uArch: cycles simulated: 1264500  inst.: 7521984 (ipc= 5.9) sim_rate=11680 (inst/sec) elapsed = 0:0:10:44 / Tue Mar 22 07:47:34 2016
GPGPU-Sim uArch: cycles simulated: 1270000  inst.: 7554182 (ipc= 5.9) sim_rate=11711 (inst/sec) elapsed = 0:0:10:45 / Tue Mar 22 07:47:35 2016
GPGPU-Sim uArch: cycles simulated: 1276000  inst.: 7589328 (ipc= 5.9) sim_rate=11748 (inst/sec) elapsed = 0:0:10:46 / Tue Mar 22 07:47:36 2016
GPGPU-Sim PTX: 8200000 instructions simulated : ctaid=(1,0,0) tid=(208,0,0)
GPGPU-Sim uArch: cycles simulated: 1282000  inst.: 7625848 (ipc= 5.9) sim_rate=11786 (inst/sec) elapsed = 0:0:10:47 / Tue Mar 22 07:47:37 2016
GPGPU-Sim uArch: cycles simulated: 1287500  inst.: 7657325 (ipc= 5.9) sim_rate=11816 (inst/sec) elapsed = 0:0:10:48 / Tue Mar 22 07:47:38 2016
GPGPU-Sim uArch: cycles simulated: 1293500  inst.: 7696387 (ipc= 6.0) sim_rate=11858 (inst/sec) elapsed = 0:0:10:49 / Tue Mar 22 07:47:39 2016
GPGPU-Sim PTX: 8300000 instructions simulated : ctaid=(2,0,0) tid=(145,0,0)
GPGPU-Sim uArch: cycles simulated: 1299500  inst.: 7729109 (ipc= 5.9) sim_rate=11890 (inst/sec) elapsed = 0:0:10:50 / Tue Mar 22 07:47:40 2016
GPGPU-Sim uArch: cycles simulated: 1305500  inst.: 7767217 (ipc= 5.9) sim_rate=11931 (inst/sec) elapsed = 0:0:10:51 / Tue Mar 22 07:47:41 2016
GPGPU-Sim PTX: 8400000 instructions simulated : ctaid=(3,0,0) tid=(156,0,0)
GPGPU-Sim uArch: cycles simulated: 1311000  inst.: 7799555 (ipc= 5.9) sim_rate=11962 (inst/sec) elapsed = 0:0:10:52 / Tue Mar 22 07:47:42 2016
GPGPU-Sim uArch: cycles simulated: 1317000  inst.: 7831229 (ipc= 5.9) sim_rate=11992 (inst/sec) elapsed = 0:0:10:53 / Tue Mar 22 07:47:43 2016
GPGPU-Sim uArch: cycles simulated: 1323000  inst.: 7866204 (ipc= 5.9) sim_rate=12027 (inst/sec) elapsed = 0:0:10:54 / Tue Mar 22 07:47:44 2016
GPGPU-Sim PTX: 8500000 instructions simulated : ctaid=(0,0,0) tid=(246,0,0)
GPGPU-Sim uArch: cycles simulated: 1329000  inst.: 7904238 (ipc= 5.9) sim_rate=12067 (inst/sec) elapsed = 0:0:10:55 / Tue Mar 22 07:47:45 2016
GPGPU-Sim uArch: cycles simulated: 1334500  inst.: 7939750 (ipc= 5.9) sim_rate=12103 (inst/sec) elapsed = 0:0:10:56 / Tue Mar 22 07:47:46 2016
GPGPU-Sim PTX: 8600000 instructions simulated : ctaid=(1,0,0) tid=(49,0,0)
GPGPU-Sim uArch: cycles simulated: 1340500  inst.: 7979147 (ipc= 6.0) sim_rate=12144 (inst/sec) elapsed = 0:0:10:57 / Tue Mar 22 07:47:47 2016
GPGPU-Sim uArch: cycles simulated: 1346500  inst.: 8015323 (ipc= 6.0) sim_rate=12181 (inst/sec) elapsed = 0:0:10:58 / Tue Mar 22 07:47:48 2016
GPGPU-Sim uArch: cycles simulated: 1352000  inst.: 8047107 (ipc= 6.0) sim_rate=12211 (inst/sec) elapsed = 0:0:10:59 / Tue Mar 22 07:47:49 2016
GPGPU-Sim PTX: 8700000 instructions simulated : ctaid=(3,0,0) tid=(82,0,0)
GPGPU-Sim uArch: cycles simulated: 1358000  inst.: 8083617 (ipc= 6.0) sim_rate=12247 (inst/sec) elapsed = 0:0:11:00 / Tue Mar 22 07:47:50 2016
GPGPU-Sim uArch: cycles simulated: 1364000  inst.: 8118400 (ipc= 6.0) sim_rate=12281 (inst/sec) elapsed = 0:0:11:01 / Tue Mar 22 07:47:51 2016
GPGPU-Sim uArch: cycles simulated: 1369500  inst.: 8153566 (ipc= 6.0) sim_rate=12316 (inst/sec) elapsed = 0:0:11:02 / Tue Mar 22 07:47:52 2016
GPGPU-Sim PTX: 8800000 instructions simulated : ctaid=(2,0,0) tid=(212,0,0)
GPGPU-Sim uArch: cycles simulated: 1375500  inst.: 8186474 (ipc= 6.0) sim_rate=12347 (inst/sec) elapsed = 0:0:11:03 / Tue Mar 22 07:47:53 2016
GPGPU-Sim uArch: cycles simulated: 1381500  inst.: 8220836 (ipc= 6.0) sim_rate=12380 (inst/sec) elapsed = 0:0:11:04 / Tue Mar 22 07:47:54 2016
GPGPU-Sim uArch: cycles simulated: 1387000  inst.: 8251336 (ipc= 5.9) sim_rate=12408 (inst/sec) elapsed = 0:0:11:05 / Tue Mar 22 07:47:55 2016
GPGPU-Sim PTX: 8900000 instructions simulated : ctaid=(3,0,0) tid=(85,0,0)
GPGPU-Sim uArch: cycles simulated: 1393000  inst.: 8288307 (ipc= 5.9) sim_rate=12444 (inst/sec) elapsed = 0:0:11:06 / Tue Mar 22 07:47:56 2016
GPGPU-Sim uArch: cycles simulated: 1399000  inst.: 8327460 (ipc= 6.0) sim_rate=12484 (inst/sec) elapsed = 0:0:11:07 / Tue Mar 22 07:47:57 2016
GPGPU-Sim PTX: 9000000 instructions simulated : ctaid=(3,0,0) tid=(22,0,0)
GPGPU-Sim uArch: cycles simulated: 1404500  inst.: 8357891 (ipc= 6.0) sim_rate=12511 (inst/sec) elapsed = 0:0:11:08 / Tue Mar 22 07:47:58 2016
GPGPU-Sim uArch: cycles simulated: 1410500  inst.: 8396252 (ipc= 6.0) sim_rate=12550 (inst/sec) elapsed = 0:0:11:09 / Tue Mar 22 07:47:59 2016
GPGPU-Sim uArch: cycles simulated: 1416000  inst.: 8432927 (ipc= 6.0) sim_rate=12586 (inst/sec) elapsed = 0:0:11:10 / Tue Mar 22 07:48:00 2016
GPGPU-Sim PTX: 9100000 instructions simulated : ctaid=(3,0,0) tid=(1,0,0)
GPGPU-Sim uArch: cycles simulated: 1422000  inst.: 8461878 (ipc= 6.0) sim_rate=12610 (inst/sec) elapsed = 0:0:11:11 / Tue Mar 22 07:48:01 2016
GPGPU-Sim uArch: cycles simulated: 1428000  inst.: 8499598 (ipc= 6.0) sim_rate=12648 (inst/sec) elapsed = 0:0:11:12 / Tue Mar 22 07:48:02 2016
GPGPU-Sim PTX: 9200000 instructions simulated : ctaid=(3,0,0) tid=(179,0,0)
GPGPU-Sim uArch: cycles simulated: 1434000  inst.: 8540946 (ipc= 6.0) sim_rate=12690 (inst/sec) elapsed = 0:0:11:13 / Tue Mar 22 07:48:03 2016
GPGPU-Sim uArch: cycles simulated: 1439500  inst.: 8573884 (ipc= 6.0) sim_rate=12720 (inst/sec) elapsed = 0:0:11:14 / Tue Mar 22 07:48:04 2016
GPGPU-Sim uArch: cycles simulated: 1445500  inst.: 8610644 (ipc= 6.0) sim_rate=12756 (inst/sec) elapsed = 0:0:11:15 / Tue Mar 22 07:48:05 2016
GPGPU-Sim PTX: 9300000 instructions simulated : ctaid=(0,0,0) tid=(111,0,0)
GPGPU-Sim uArch: cycles simulated: 1451500  inst.: 8649161 (ipc= 6.0) sim_rate=12794 (inst/sec) elapsed = 0:0:11:16 / Tue Mar 22 07:48:06 2016
GPGPU-Sim uArch: cycles simulated: 1457000  inst.: 8681459 (ipc= 6.0) sim_rate=12823 (inst/sec) elapsed = 0:0:11:17 / Tue Mar 22 07:48:07 2016
GPGPU-Sim uArch: cycles simulated: 1463000  inst.: 8712469 (ipc= 6.0) sim_rate=12850 (inst/sec) elapsed = 0:0:11:18 / Tue Mar 22 07:48:08 2016
GPGPU-Sim PTX: 9400000 instructions simulated : ctaid=(0,0,0) tid=(144,0,0)
GPGPU-Sim uArch: cycles simulated: 1469000  inst.: 8746853 (ipc= 6.0) sim_rate=12881 (inst/sec) elapsed = 0:0:11:19 / Tue Mar 22 07:48:09 2016
GPGPU-Sim uArch: cycles simulated: 1475000  inst.: 8779990 (ipc= 6.0) sim_rate=12911 (inst/sec) elapsed = 0:0:11:20 / Tue Mar 22 07:48:10 2016
GPGPU-Sim PTX: 9500000 instructions simulated : ctaid=(2,0,0) tid=(219,0,0)
GPGPU-Sim uArch: cycles simulated: 1481000  inst.: 8815432 (ipc= 6.0) sim_rate=12944 (inst/sec) elapsed = 0:0:11:21 / Tue Mar 22 07:48:11 2016
GPGPU-Sim uArch: cycles simulated: 1486500  inst.: 8852368 (ipc= 6.0) sim_rate=12980 (inst/sec) elapsed = 0:0:11:22 / Tue Mar 22 07:48:12 2016
GPGPU-Sim uArch: cycles simulated: 1492500  inst.: 8888188 (ipc= 6.0) sim_rate=13013 (inst/sec) elapsed = 0:0:11:23 / Tue Mar 22 07:48:13 2016
GPGPU-Sim PTX: 9600000 instructions simulated : ctaid=(2,0,0) tid=(86,0,0)
GPGPU-Sim uArch: cycles simulated: 1498500  inst.: 8922500 (ipc= 6.0) sim_rate=13044 (inst/sec) elapsed = 0:0:11:24 / Tue Mar 22 07:48:14 2016
GPGPU-Sim uArch: cycles simulated: 1504000  inst.: 8960137 (ipc= 6.0) sim_rate=13080 (inst/sec) elapsed = 0:0:11:25 / Tue Mar 22 07:48:15 2016
GPGPU-Sim PTX: 9700000 instructions simulated : ctaid=(3,0,0) tid=(148,0,0)
GPGPU-Sim uArch: cycles simulated: 1510000  inst.: 8997885 (ipc= 6.0) sim_rate=13116 (inst/sec) elapsed = 0:0:11:26 / Tue Mar 22 07:48:16 2016
GPGPU-Sim uArch: cycles simulated: 1516000  inst.: 9032458 (ipc= 6.0) sim_rate=13147 (inst/sec) elapsed = 0:0:11:27 / Tue Mar 22 07:48:17 2016
GPGPU-Sim uArch: cycles simulated: 1522000  inst.: 9070029 (ipc= 6.0) sim_rate=13183 (inst/sec) elapsed = 0:0:11:28 / Tue Mar 22 07:48:18 2016
GPGPU-Sim PTX: 9800000 instructions simulated : ctaid=(0,0,0) tid=(251,0,0)
GPGPU-Sim uArch: cycles simulated: 1527500  inst.: 9101773 (ipc= 6.0) sim_rate=13210 (inst/sec) elapsed = 0:0:11:29 / Tue Mar 22 07:48:19 2016
GPGPU-Sim uArch: cycles simulated: 1533500  inst.: 9140839 (ipc= 6.0) sim_rate=13247 (inst/sec) elapsed = 0:0:11:30 / Tue Mar 22 07:48:20 2016
GPGPU-Sim PTX: 9900000 instructions simulated : ctaid=(2,0,0) tid=(66,0,0)
GPGPU-Sim uArch: cycles simulated: 1539500  inst.: 9184061 (ipc= 6.0) sim_rate=13290 (inst/sec) elapsed = 0:0:11:31 / Tue Mar 22 07:48:21 2016
GPGPU-Sim uArch: cycles simulated: 1546000  inst.: 9223392 (ipc= 6.0) sim_rate=13328 (inst/sec) elapsed = 0:0:11:32 / Tue Mar 22 07:48:22 2016
GPGPU-Sim uArch: cycles simulated: 1552500  inst.: 9255058 (ipc= 6.0) sim_rate=13355 (inst/sec) elapsed = 0:0:11:33 / Tue Mar 22 07:48:23 2016
GPGPU-Sim PTX: 10000000 instructions simulated : ctaid=(1,0,0) tid=(232,0,0)
GPGPU-Sim uArch: cycles simulated: 1559000  inst.: 9288075 (ipc= 6.0) sim_rate=13383 (inst/sec) elapsed = 0:0:11:34 / Tue Mar 22 07:48:24 2016
GPGPU-Sim uArch: cycles simulated: 1565500  inst.: 9318522 (ipc= 6.0) sim_rate=13407 (inst/sec) elapsed = 0:0:11:35 / Tue Mar 22 07:48:25 2016
GPGPU-Sim uArch: cycles simulated: 1572500  inst.: 9350659 (ipc= 5.9) sim_rate=13434 (inst/sec) elapsed = 0:0:11:36 / Tue Mar 22 07:48:26 2016
GPGPU-Sim PTX: 10100000 instructions simulated : ctaid=(2,0,0) tid=(39,0,0)
GPGPU-Sim uArch: cycles simulated: 1579000  inst.: 9380523 (ipc= 5.9) sim_rate=13458 (inst/sec) elapsed = 0:0:11:37 / Tue Mar 22 07:48:27 2016
GPGPU-Sim uArch: cycles simulated: 1585500  inst.: 9413504 (ipc= 5.9) sim_rate=13486 (inst/sec) elapsed = 0:0:11:38 / Tue Mar 22 07:48:28 2016
GPGPU-Sim uArch: cycles simulated: 1592500  inst.: 9448600 (ipc= 5.9) sim_rate=13517 (inst/sec) elapsed = 0:0:11:39 / Tue Mar 22 07:48:29 2016
GPGPU-Sim PTX: 10200000 instructions simulated : ctaid=(2,0,0) tid=(174,0,0)
GPGPU-Sim uArch: cycles simulated: 1599000  inst.: 9480644 (ipc= 5.9) sim_rate=13543 (inst/sec) elapsed = 0:0:11:40 / Tue Mar 22 07:48:30 2016
GPGPU-Sim uArch: cycles simulated: 1605500  inst.: 9513083 (ipc= 5.9) sim_rate=13570 (inst/sec) elapsed = 0:0:11:41 / Tue Mar 22 07:48:31 2016
GPGPU-Sim uArch: cycles simulated: 1612500  inst.: 9549527 (ipc= 5.9) sim_rate=13603 (inst/sec) elapsed = 0:0:11:42 / Tue Mar 22 07:48:32 2016
GPGPU-Sim PTX: 10300000 instructions simulated : ctaid=(0,0,0) tid=(197,0,0)
GPGPU-Sim uArch: cycles simulated: 1619500  inst.: 9585125 (ipc= 5.9) sim_rate=13634 (inst/sec) elapsed = 0:0:11:43 / Tue Mar 22 07:48:33 2016
GPGPU-Sim uArch: cycles simulated: 1626500  inst.: 9623661 (ipc= 5.9) sim_rate=13669 (inst/sec) elapsed = 0:0:11:44 / Tue Mar 22 07:48:34 2016
GPGPU-Sim PTX: 10400000 instructions simulated : ctaid=(1,0,0) tid=(59,0,0)
GPGPU-Sim uArch: cycles simulated: 1634000  inst.: 9660327 (ipc= 5.9) sim_rate=13702 (inst/sec) elapsed = 0:0:11:45 / Tue Mar 22 07:48:35 2016
GPGPU-Sim uArch: cycles simulated: 1642000  inst.: 9700254 (ipc= 5.9) sim_rate=13739 (inst/sec) elapsed = 0:0:11:46 / Tue Mar 22 07:48:36 2016
GPGPU-Sim PTX: 10500000 instructions simulated : ctaid=(2,0,0) tid=(117,0,0)
GPGPU-Sim uArch: cycles simulated: 1650500  inst.: 9744540 (ipc= 5.9) sim_rate=13782 (inst/sec) elapsed = 0:0:11:47 / Tue Mar 22 07:48:37 2016
GPGPU-Sim uArch: Shader 3 finished CTA #0 (1656993,0), 0 CTAs running
GPGPU-Sim uArch: Shader 3 empty (release kernel 1 '_Z11MapperCountPcS_P4int4PiS2_S2_iii').
GPGPU-Sim uArch: Shader 2 finished CTA #0 (1659535,0), 0 CTAs running
GPGPU-Sim uArch: Shader 2 empty (release kernel 1 '_Z11MapperCountPcS_P4int4PiS2_S2_iii').
GPGPU-Sim uArch: cycles simulated: 1661500  inst.: 9774466 (ipc= 5.9) sim_rate=13805 (inst/sec) elapsed = 0:0:11:48 / Tue Mar 22 07:48:38 2016
GPGPU-Sim uArch: Shader 1 finished CTA #0 (1672730,0), 0 CTAs running
GPGPU-Sim uArch: Shader 1 empty (release kernel 1 '_Z11MapperCountPcS_P4int4PiS2_S2_iii').
GPGPU-Sim uArch: cycles simulated: 1679500  inst.: 9789469 (ipc= 5.8) sim_rate=13807 (inst/sec) elapsed = 0:0:11:49 / Tue Mar 22 07:48:39 2016
GPGPU-Sim uArch: cycles simulated: 1701000  inst.: 9793646 (ipc= 5.8) sim_rate=13793 (inst/sec) elapsed = 0:0:11:50 / Tue Mar 22 07:48:40 2016
GPGPU-Sim uArch: cycles simulated: 1722000  inst.: 9797664 (ipc= 5.7) sim_rate=13780 (inst/sec) elapsed = 0:0:11:51 / Tue Mar 22 07:48:41 2016
GPGPU-Sim uArch: cycles simulated: 1743000  inst.: 9801743 (ipc= 5.6) sim_rate=13766 (inst/sec) elapsed = 0:0:11:52 / Tue Mar 22 07:48:42 2016
GPGPU-Sim uArch: cycles simulated: 1764000  inst.: 9805820 (ipc= 5.6) sim_rate=13752 (inst/sec) elapsed = 0:0:11:53 / Tue Mar 22 07:48:43 2016
GPGPU-Sim uArch: cycles simulated: 1785500  inst.: 9809948 (ipc= 5.5) sim_rate=13739 (inst/sec) elapsed = 0:0:11:54 / Tue Mar 22 07:48:44 2016
GPGPU-Sim uArch: cycles simulated: 1806500  inst.: 9814026 (ipc= 5.4) sim_rate=13725 (inst/sec) elapsed = 0:0:11:55 / Tue Mar 22 07:48:45 2016
GPGPU-Sim uArch: cycles simulated: 1827500  inst.: 9818104 (ipc= 5.4) sim_rate=13712 (inst/sec) elapsed = 0:0:11:56 / Tue Mar 22 07:48:46 2016
GPGPU-Sim uArch: cycles simulated: 1849000  inst.: 9822232 (ipc= 5.3) sim_rate=13699 (inst/sec) elapsed = 0:0:11:57 / Tue Mar 22 07:48:47 2016
GPGPU-Sim uArch: cycles simulated: 1870000  inst.: 9826310 (ipc= 5.3) sim_rate=13685 (inst/sec) elapsed = 0:0:11:58 / Tue Mar 22 07:48:48 2016
GPGPU-Sim uArch: cycles simulated: 1891000  inst.: 9830388 (ipc= 5.2) sim_rate=13672 (inst/sec) elapsed = 0:0:11:59 / Tue Mar 22 07:48:49 2016
GPGPU-Sim uArch: cycles simulated: 1912000  inst.: 9834466 (ipc= 5.1) sim_rate=13658 (inst/sec) elapsed = 0:0:12:00 / Tue Mar 22 07:48:50 2016
GPGPU-Sim PTX: 10600000 instructions simulated : ctaid=(3,0,0) tid=(249,0,0)
GPGPU-Sim uArch: cycles simulated: 1933500  inst.: 9838594 (ipc= 5.1) sim_rate=13645 (inst/sec) elapsed = 0:0:12:01 / Tue Mar 22 07:48:51 2016
GPGPU-Sim uArch: cycles simulated: 1954500  inst.: 9842672 (ipc= 5.0) sim_rate=13632 (inst/sec) elapsed = 0:0:12:02 / Tue Mar 22 07:48:52 2016
GPGPU-Sim uArch: cycles simulated: 1975500  inst.: 9846949 (ipc= 5.0) sim_rate=13619 (inst/sec) elapsed = 0:0:12:03 / Tue Mar 22 07:48:53 2016
GPGPU-Sim uArch: cycles simulated: 1996000  inst.: 9862962 (ipc= 4.9) sim_rate=13622 (inst/sec) elapsed = 0:0:12:04 / Tue Mar 22 07:48:54 2016
GPGPU-Sim uArch: cycles simulated: 2017000  inst.: 9881125 (ipc= 4.9) sim_rate=13629 (inst/sec) elapsed = 0:0:12:05 / Tue Mar 22 07:48:55 2016
GPGPU-Sim uArch: cycles simulated: 2037500  inst.: 9897870 (ipc= 4.9) sim_rate=13633 (inst/sec) elapsed = 0:0:12:06 / Tue Mar 22 07:48:56 2016
GPGPU-Sim uArch: cycles simulated: 2058000  inst.: 9915752 (ipc= 4.8) sim_rate=13639 (inst/sec) elapsed = 0:0:12:07 / Tue Mar 22 07:48:57 2016
GPGPU-Sim uArch: Shader 4 finished CTA #0 (2061038,0), 0 CTAs running
GPGPU-Sim uArch: Shader 4 empty (release kernel 1 '_Z11MapperCountPcS_P4int4PiS2_S2_iii').
GPGPU-Sim uArch: GPU detected kernel '_Z11MapperCountPcS_P4int4PiS2_S2_iii' finished on shader 4.
