

        *** GPGPU-Sim Simulator Version 3.2.2  [build 0] ***


GPGPU-Sim PTX: simulation mode 0 (can change with PTX_SIM_MODE_FUNC environment variable:
               1=functional simulation only, 0=detailed performance simulator)
GPGPU-Sim: Configuration options:

-network_mode                           1 # Interconnection network mode
-inter_config_file   config_fermi_islip.icnt # Interconnection network config file
-gpgpu_ptx_use_cuobjdump                    1 # Use cuobjdump to extract ptx and sass from binaries
-gpgpu_experimental_lib_support                    0 # Try to extract code from cuda libraries [Broken because of unknown cudaGetExportTable]
-gpgpu_ptx_convert_to_ptxplus                    0 # Convert SASS (native ISA) to ptxplus and run ptxplus
-gpgpu_ptx_force_max_capability                   20 # Force maximum compute capability
-gpgpu_ptx_inst_debug_to_file                    0 # Dump executed instructions' debug information to file
-gpgpu_ptx_inst_debug_file       inst_debug.txt # Executed instructions' debug output file
-gpgpu_ptx_inst_debug_thread_uid                    1 # Thread UID for executed instructions' debug output
-gpgpu_simd_model                       1 # 1 = post-dominator
-gpgpu_shader_core_pipeline              1536:32 # shader core pipeline config, i.e., {<nthread>:<warpsize>}
-gpgpu_tex_cache:l1  4:128:24,L:R:m:N:L,F:128:4,128:2 # per-shader L1 texture cache  (READ-ONLY) config  {<nsets>:<bsize>:<assoc>,<rep>:<wr>:<alloc>:<wr_alloc>,<mshr>:<N>:<merge>,<mq>:<rf>}
-gpgpu_const_cache:l1 64:64:2,L:R:f:N:L,A:2:32,4 # per-shader L1 constant memory cache  (READ-ONLY) config  {<nsets>:<bsize>:<assoc>,<rep>:<wr>:<alloc>:<wr_alloc>,<mshr>:<N>:<merge>,<mq>} 
-gpgpu_cache:il1     4:128:4,L:R:f:N:L,A:2:32,4 # shader L1 instruction cache config  {<nsets>:<bsize>:<assoc>,<rep>:<wr>:<alloc>:<wr_alloc>,<mshr>:<N>:<merge>,<mq>} 
-gpgpu_cache:dl1     32:128:4,L:L:m:N:H,A:32:8,8:2,0,1:0:1:1:0:1,1:4:8:16:32:64,/sciclone/data10/hwang07/GPU_RESEARCH/swl/swl_outputs/RESULTS/swl16/ # per-shader L1 data cache config  {<nsets>:<bsize>:<assoc>,<rep>:<wr>:<alloc>:<wr_alloc>,<mshr>:<N>:<merge>,<mq> | none}
-gpgpu_cache:dl1PrefL1                 none # per-shader L1 data cache config  {<nsets>:<bsize>:<assoc>,<rep>:<wr>:<alloc>:<wr_alloc>,<mshr>:<N>:<merge>,<mq> | none}
-gpgpu_cache:dl1PreShared                 none # per-shader L1 data cache config  {<nsets>:<bsize>:<assoc>,<rep>:<wr>:<alloc>:<wr_alloc>,<mshr>:<N>:<merge>,<mq> | none}
-gmem_skip_L1D                          0 # global memory access skip L1D cache (implements -Xptxas -dlcm=cg, default=no skip)
-gpgpu_perfect_mem                      0 # enable perfect memory mode (no cache miss)
-n_regfile_gating_group                    4 # group of lanes that should be read/written together)
-gpgpu_clock_gated_reg_file                    0 # enable clock gated reg file for power calculations
-gpgpu_clock_gated_lanes                    0 # enable clock gated lanes for power calculations
-gpgpu_shader_registers                32768 # Number of registers per shader core. Limits number of concurrent CTAs. (default 8192)
-gpgpu_shader_cta                       8 # Maximum number of concurrent CTAs in shader (default 8)
-gpgpu_num_cta_barriers                   16 # Maximum number of named barriers per CTA (default 16)
-gpgpu_n_clusters                      15 # number of processing clusters
-gpgpu_n_cores_per_cluster                    1 # number of simd cores per cluster
-gpgpu_n_cluster_ejection_buffer_size                    8 # number of packets in ejection buffer
-gpgpu_n_ldst_response_buffer_size                    2 # number of response packets in ld/st unit ejection buffer
-gpgpu_shmem_size                   16384 # Size of shared memory per shader core (default 16kB)
-gpgpu_shmem_size                   49152 # Size of shared memory per shader core (default 16kB)
-gpgpu_shmem_size_PrefL1                16384 # Size of shared memory per shader core (default 16kB)
-gpgpu_shmem_size_PrefShared                16384 # Size of shared memory per shader core (default 16kB)
-gpgpu_shmem_num_banks                   32 # Number of banks in the shared memory in each shader core (default 16)
-gpgpu_shmem_limited_broadcast                    0 # Limit shared memory to do one broadcast per cycle (default on)
-gpgpu_shmem_warp_parts                    1 # Number of portions a warp is divided into for shared memory bank conflict check 
-gpgpu_warpdistro_shader                   -1 # Specify which shader core to collect the warp size distribution from
-gpgpu_warp_issue_shader                    0 # Specify which shader core to collect the warp issue distribution from
-gpgpu_local_mem_map                    1 # Mapping from local memory space address to simulated GPU physical address space (default = enabled)
-gpgpu_num_reg_banks                   16 # Number of register banks (default = 8)
-gpgpu_reg_bank_use_warp_id                    0 # Use warp ID in mapping registers to banks (default = off)
-gpgpu_operand_collector_num_units_sp                    6 # number of collector units (default = 4)
-gpgpu_operand_collector_num_units_sfu                    8 # number of collector units (default = 4)
-gpgpu_operand_collector_num_units_mem                    2 # number of collector units (default = 2)
-gpgpu_operand_collector_num_units_gen                    0 # number of collector units (default = 0)
-gpgpu_operand_collector_num_in_ports_sp                    2 # number of collector unit in ports (default = 1)
-gpgpu_operand_collector_num_in_ports_sfu                    1 # number of collector unit in ports (default = 1)
-gpgpu_operand_collector_num_in_ports_mem                    1 # number of collector unit in ports (default = 1)
-gpgpu_operand_collector_num_in_ports_gen                    0 # number of collector unit in ports (default = 0)
-gpgpu_operand_collector_num_out_ports_sp                    2 # number of collector unit in ports (default = 1)
-gpgpu_operand_collector_num_out_ports_sfu                    1 # number of collector unit in ports (default = 1)
-gpgpu_operand_collector_num_out_ports_mem                    1 # number of collector unit in ports (default = 1)
-gpgpu_operand_collector_num_out_ports_gen                    0 # number of collector unit in ports (default = 0)
-gpgpu_coalesce_arch                   13 # Coalescing arch (default = 13, anything else is off for now)
-gpgpu_num_sched_per_core                    2 # Number of warp schedulers per core
-gpgpu_max_insn_issue_per_warp                    1 # Max number of instructions that can be issued per warp in one cycle by scheduler
-gpgpu_simt_core_sim_order                    1 # Select the simulation order of cores in a cluster (0=Fix, 1=Round-Robin)
-gpgpu_pipeline_widths        2,1,1,2,1,1,2 # Pipeline widths ID_OC_SP,ID_OC_SFU,ID_OC_MEM,OC_EX_SP,OC_EX_SFU,OC_EX_MEM,EX_WB
-gpgpu_num_sp_units                     2 # Number of SP units (default=1)
-gpgpu_num_sfu_units                    1 # Number of SF units (default=1)
-gpgpu_num_mem_units                    1 # Number if ldst units (default=1) WARNING: not hooked up to anything
-gpgpu_scheduler       warp_limiting:2:16 # Scheduler configuration: < lrr | gto | two_level_active > If two_level_active:<num_active_warps>:<inner_prioritization>:<outer_prioritization>For complete list of prioritization values see shader.h enum scheduler_prioritization_typeDefault: gto
-gpgpu_dram_scheduler                    1 # 0 = fifo, 1 = FR-FCFS (defaul)
-gpgpu_dram_partition_queues              8:8:8:8 # i2$:$2d:d2$:$2i
-l2_ideal                               0 # Use a ideal L2 cache that always hit
-gpgpu_cache:dl2     64:128:8,L:B:m:W:L,A:32:4,4:0,32 # unified banked L2 data cache config  {<nsets>:<bsize>:<assoc>,<rep>:<wr>:<alloc>:<wr_alloc>,<mshr>:<N>:<merge>,<mq>}
-gpgpu_cache:dl2_texture_only                    0 # L2 cache used for texture only
-gpgpu_n_mem                            6 # number of memory modules (e.g. memory controllers) in gpu
-gpgpu_n_sub_partition_per_mchannel                    2 # number of memory subpartition in each memory module
-gpgpu_n_mem_per_ctrlr                    2 # number of memory chips per memory controller
-gpgpu_memlatency_stat                   14 # track and display latency statistics 0x2 enables MC, 0x4 enables queue logs
-gpgpu_frfcfs_dram_sched_queue_size                   16 # 0 = unlimited (default); # entries per chip
-gpgpu_dram_return_queue_size                  116 # 0 = unlimited (default); # entries per chip
-gpgpu_dram_buswidth                    4 # default = 4 bytes (8 bytes per cycle at DDR)
-gpgpu_dram_burst_length                    8 # Burst length of each DRAM request (default = 4 data bus cycle)
-dram_data_command_freq_ratio                    4 # Frequency ratio between DRAM data bus and command bus (default = 2 times, i.e. DDR)
-gpgpu_dram_timing_opt nbk=16:CCD=2:RRD=6:RCD=12:RAS=28:RP=12:RC=40: CL=12:WL=4:CDLR=5:WR=12:nbkgrp=4:CCDL=3:RTPL=2 # DRAM timing parameters = {nbk:tCCD:tRRD:tRCD:tRAS:tRP:tRC:CL:WL:tCDLR:tWR:nbkgrp:tCCDL:tRTPL}
-rop_latency                          120 # ROP queue latency (default 85)
-dram_latency                         100 # DRAM latency (default 30)
-gpgpu_mem_addr_mapping dramid@8;00000000.00000000.00000000.00000000.0000RRRR.RRRRRRRR.BBBCCCCB.CCSSSSSS # mapping memory address to dram model {dramid@<start bit>;<memory address map>}
-gpgpu_mem_addr_test                    0 # run sweep test to check address mapping for aliased address
-gpgpu_mem_address_mask                    1 # 0 = old addressing mask, 1 = new addressing mask, 2 = new add. mask + flipped bank sel and chip sel bits
-gpuwattch_xml_file  gpuwattch_gtx480.xml # GPUWattch XML file
-power_simulation_enabled                    0 # Turn on power simulator (1=On, 0=Off)
-power_per_cycle_dump                    0 # Dump detailed power output each cycle
-power_trace_enabled                    0 # produce a file for the power trace (1=On, 0=Off)
-power_trace_zlevel                     6 # Compression level of the power trace output log (0=no comp, 9=highest)
-steady_power_levels_enabled                    0 # produce a file for the steady power levels (1=On, 0=Off)
-steady_state_definition                  8:4 # allowed deviation:number of samples
-gpgpu_max_cycle                        0 # terminates gpu simulation early (0 = no limit)
-gpgpu_max_insn                         0 # terminates gpu simulation early (0 = no limit)
-gpgpu_max_cta                          0 # terminates gpu simulation early (0 = no limit)
-gpgpu_runtime_stat                   500 # display runtime statistics such as dram utilization {<freq>:<flag>}
-liveness_message_freq                    1 # Minimum number of seconds between simulation liveness messages (0 = always print)
-gpgpu_flush_l1_cache                    0 # Flush L1 cache at the end of each kernel call
-gpgpu_flush_l2_cache                    0 # Flush L2 cache at the end of each kernel call
-gpgpu_deadlock_detect                    1 # Stop the simulation at deadlock (1=on (default), 0=off)
-gpgpu_ptx_instruction_classification                    0 # if enabled will classify ptx instruction types per kernel (Max 255 kernels now)
-gpgpu_ptx_sim_mode                     0 # Select between Performance (default) or Functional simulation (1)
-gpgpu_clock_domains 700.0:700.0:700.0:924.0 # Clock Domain Frequencies in MhZ {<Core Clock>:<ICNT Clock>:<L2 Clock>:<DRAM Clock>}
-gpgpu_max_concurrent_kernel                    8 # maximum kernels that can run concurrently on GPU
-gpgpu_cflog_interval                    0 # Interval between each snapshot in control flow logger
-visualizer_enabled                     0 # Turn on visualizer output (1=On, 0=Off)
-visualizer_outputfile                 NULL # Specifies the output log file for visualizer
-visualizer_zlevel                      6 # Compression level of the visualizer output log (0=no comp, 9=highest)
-trace_enabled                          0 # Turn on traces
-trace_components                    none # comma seperated list of traces to enable. Complete list found in trace_streams.tup. Default none
-trace_sampling_core                    0 # The core which is printed using CORE_DPRINTF. Default 0
-trace_sampling_memory_partition                   -1 # The memory partition which is printed using MEMPART_DPRINTF. Default -1 (i.e. all)
-enable_ptx_file_line_stats                    1 # Turn on PTX source line statistic profiling. (1 = On)
-ptx_line_stats_filename gpgpu_inst_stats.txt # Output file for PTX source line statistics.
-save_embedded_ptx                      0 # saves ptx files embedded in binary as <n>.ptx
-keep                                   0 # keep intermediate files created by GPGPU-Sim when interfacing with external programs
-gpgpu_ptx_save_converted_ptxplus                    0 # Saved converted ptxplus to a file
-ptx_opcode_latency_int         4,13,4,5,145 # Opcode latencies for integers <ADD,MAX,MUL,MAD,DIV>Default 1,1,19,25,145
-ptx_opcode_latency_fp          4,13,4,5,39 # Opcode latencies for single precision floating points <ADD,MAX,MUL,MAD,DIV>Default 1,1,1,1,30
-ptx_opcode_latency_dp         8,19,8,8,330 # Opcode latencies for double precision floating points <ADD,MAX,MUL,MAD,DIV>Default 8,8,8,8,335
-ptx_opcode_initiation_int            1,2,2,1,8 # Opcode initiation intervals for integers <ADD,MAX,MUL,MAD,DIV>Default 1,1,4,4,32
-ptx_opcode_initiation_fp            1,2,1,1,4 # Opcode initiation intervals for single precision floating points <ADD,MAX,MUL,MAD,DIV>Default 1,1,1,1,5
-ptx_opcode_initiation_dp         8,16,8,8,130 # Opcode initiation intervals for double precision floating points <ADD,MAX,MUL,MAD,DIV>Default 8,8,8,8,130
DRAM Timing Options:
nbk                                    16 # number of banks
CCD                                     2 # column to column delay
RRD                                     6 # minimal delay between activation of rows in different banks
RCD                                    12 # row to column delay
RAS                                    28 # time needed to activate row
RP                                     12 # time needed to precharge (deactivate) row
RC                                     40 # row cycle time
CDLR                                    5 # switching from write to read (changes tWTR)
WR                                     12 # last data-in to row precharge
CL                                     12 # CAS latency
WL                                      4 # Write latency
nbkgrp                                  4 # number of bank groups
CCDL                                    3 # column to column delay between accesses to different bank groups
RTPL                                    2 # read to precharge delay between accesses to different bank groups
Total number of memory sub partition = 12
addr_dec_mask[CHIP]  = 0000000000000000 	high:64 low:0
addr_dec_mask[BK]    = 000000000000e100 	high:16 low:8
addr_dec_mask[ROW]   = 000000000fff0000 	high:28 low:16
addr_dec_mask[COL]   = 0000000000001eff 	high:13 low:0
addr_dec_mask[BURST] = 000000000000003f 	high:6 low:0
sub_partition_id_mask = 0000000000000100
GPGPU-Sim uArch: clock freqs: 700000000.000000:700000000.000000:700000000.000000:924000000.000000
GPGPU-Sim uArch: clock periods: 0.00000000142857142857:0.00000000142857142857:0.00000000142857142857:0.00000000108225108225
*** Initializing Memory Statistics ***
GPGPU-Sim uArch: interconnect node map (shaderID+MemID to icntID)
GPGPU-Sim uArch: Memory nodes ID start from index: 15
GPGPU-Sim uArch:    0   1   2   3   4
GPGPU-Sim uArch:    5   6   7   8   9
GPGPU-Sim uArch:   10  11  12  13  14
GPGPU-Sim uArch:   15  16  17  18  19
GPGPU-Sim uArch:   20  21  22  23  24
GPGPU-Sim uArch:   25  26
GPGPU-Sim uArch: interconnect node reverse map (icntID to shaderID+MemID)
GPGPU-Sim uArch: Memory nodes start from ID: 15
GPGPU-Sim uArch:    0   1   2   3   4
GPGPU-Sim uArch:    5   6   7   8   9
GPGPU-Sim uArch:   10  11  12  13  14
GPGPU-Sim uArch:   15  16  17  18  19
GPGPU-Sim uArch:   20  21  22  23  24
GPGPU-Sim uArch:   25  26
af04f0b458cb08397a3295dafdcb0262  /sciclone/data10/hwang07/adwait/applications/benchmarks/CUDA/TRA/gpgpu_ptx_sim__TRA
GPGPU-Sim uArch: performance model initialization complete.
GPGPU-Sim PTX: __cudaRegisterFatBinary, fat_cubin_handle = 1, filename=transpose.cu
self exe links to: /sciclone/data10/hwang07/adwait/applications/benchmarks/CUDA/TRA/gpgpu_ptx_sim__TRA
Running md5sum using "md5sum /sciclone/data10/hwang07/adwait/applications/benchmarks/CUDA/TRA/gpgpu_ptx_sim__TRA "
Parsing file _cuobjdump_complete_output_CPSVY0
######### cuobjdump parser ########
## Adding new section ELF
Adding arch: sm_20
Adding identifier: transpose.cu
## Adding new section PTX
Adding ptx filename: _cuobjdump_1.ptx
Adding arch: sm_20
Adding identifier: transpose.cu
Done parsing!!!
GPGPU-Sim PTX: __cudaRegisterFunction _Z15transpose_naivePfS_ii : hostFun 0x0x404f49, fat_cubin_handle = 1
GPGPU-Sim PTX: allocating shared region for "__cuda___cuda_local_var_42235_32_non_const_block24" from 0x0 to 0x440 (shared memory space)
GPGPU-Sim PTX: instruction assembly for function '_Z9transposePfS_ii'...   done.
GPGPU-Sim PTX: finding reconvergence points for '_Z9transposePfS_ii'...
GPGPU-Sim PTX: Finding dominators for '_Z9transposePfS_ii'...
GPGPU-Sim PTX: Finding immediate dominators for '_Z9transposePfS_ii'...
GPGPU-Sim PTX: Finding postdominators for '_Z9transposePfS_ii'...
GPGPU-Sim PTX: Finding immediate postdominators for '_Z9transposePfS_ii'...
GPGPU-Sim PTX: pre-decoding instructions for '_Z9transposePfS_ii'...
GPGPU-Sim PTX: reconvergence points for _Z9transposePfS_ii...
GPGPU-Sim PTX:  1 (potential) branch divergence @  PC=0x088 (_1.ptx:81) @%p1 bra $Lt_0_2306;
GPGPU-Sim PTX:    immediate post dominator      @  PC=0x108 (_1.ptx:99) mov.u64 %rd1, __cuda___cuda_local_var_42235_32_non_const_block24;
GPGPU-Sim PTX:  2 (potential) branch divergence @  PC=0x160 (_1.ptx:111) @%p2 bra $Lt_0_2818;
GPGPU-Sim PTX:    immediate post dominator      @  PC=0x1d8 (_1.ptx:129) exit;
GPGPU-Sim PTX: ... end of reconvergence points for _Z9transposePfS_ii
GPGPU-Sim PTX: ... done pre-decoding instructions for '_Z9transposePfS_ii'.
GPGPU-Sim PTX: instruction assembly for function '_Z15transpose_naivePfS_ii'...   done.
GPGPU-Sim PTX: finding reconvergence points for '_Z15transpose_naivePfS_ii'...
GPGPU-Sim PTX: Finding dominators for '_Z15transpose_naivePfS_ii'...
GPGPU-Sim PTX: Finding immediate dominators for '_Z15transpose_naivePfS_ii'...
GPGPU-Sim PTX: Finding postdominators for '_Z15transpose_naivePfS_ii'...
GPGPU-Sim PTX: Finding immediate postdominators for '_Z15transpose_naivePfS_ii'...
GPGPU-Sim PTX: pre-decoding instructions for '_Z15transpose_naivePfS_ii'...
GPGPU-Sim PTX: reconvergence points for _Z15transpose_naivePfS_ii...
GPGPU-Sim PTX:  1 (potential) branch divergence @  PC=0x278 (_1.ptx:164) @%p1 bra $Lt_1_1282;
GPGPU-Sim PTX:    immediate post dominator      @  PC=0x2f0 (_1.ptx:182) exit;
GPGPU-Sim PTX: ... end of reconvergence points for _Z15transpose_naivePfS_ii
GPGPU-Sim PTX: ... done pre-decoding instructions for '_Z15transpose_naivePfS_ii'.
GPGPU-Sim PTX: finished parsing EMBEDDED .ptx file _1.ptx
Adding _cuobjdump_1.ptx with cubin handle 1
GPGPU-Sim PTX: extracting embedded .ptx to temporary file "_ptx_WkKfzD"
Running: cat _ptx_WkKfzD | sed 's/.version 1.5/.version 1.4/' | sed 's/, texmode_independent//' | sed 's/\(\.extern \.const\[1\] .b8 \w\+\)\[\]/\1\[1\]/' | sed 's/const\[.\]/const\[0\]/g' > _ptx2_dIkxSg
GPGPU-Sim PTX: generating ptxinfo using "$CUDA_INSTALL_PATH/bin/ptxas --gpu-name=sm_20 -v _ptx2_dIkxSg --output-file  /dev/null 2> _ptx_WkKfzDinfo"
GPGPU-Sim PTX: Kernel '_Z15transpose_naivePfS_ii' : regs=8, lmem=0, smem=0, cmem=56
GPGPU-Sim PTX: Kernel '_Z9transposePfS_ii' : regs=9, lmem=0, smem=1088, cmem=56
GPGPU-Sim PTX: removing ptxinfo using "rm -f _ptx_WkKfzD _ptx2_dIkxSg _ptx_WkKfzDinfo"
GPGPU-Sim PTX: loading globals with explicit initializers... 
GPGPU-Sim PTX: finished loading globals (0 bytes total).
GPGPU-Sim PTX: loading constants with explicit initializers...  done.
GPGPU-Sim PTX: __cudaRegisterFunction _Z9transposePfS_ii : hostFun 0x0x404e59, fat_cubin_handle = 1

GPGPU-Sim PTX: cudaLaunch for 0x0x404f49 (mode=performance simulation) on stream 0
GPGPU-Sim PTX: pushing kernel '_Z15transpose_naivePfS_ii' to stream 0, gridDim= (16,256,1) blockDim = (16,16,1) 
kernel '_Z15transpose_naivePfS_ii' transfer to GPU hardware scheduler
GPGPU-Sim uArch: Shader 1 bind to kernel 1 '_Z15transpose_naivePfS_ii'
GPGPU-Sim uArch: CTA/core = 6, limited by: threads
GPGPU-Sim uArch: core:  1, cta: 0 initialized @(1,0)
GPGPU-Sim uArch: Shader 2 bind to kernel 1 '_Z15transpose_naivePfS_ii'
GPGPU-Sim uArch: core:  2, cta: 0 initialized @(1,0)
GPGPU-Sim uArch: Shader 3 bind to kernel 1 '_Z15transpose_naivePfS_ii'
GPGPU-Sim uArch: core:  3, cta: 0 initialized @(1,0)
GPGPU-Sim uArch: Shader 4 bind to kernel 1 '_Z15transpose_naivePfS_ii'
GPGPU-Sim uArch: core:  4, cta: 0 initialized @(1,0)
GPGPU-Sim uArch: Shader 5 bind to kernel 1 '_Z15transpose_naivePfS_ii'
GPGPU-Sim uArch: core:  5, cta: 0 initialized @(1,0)
GPGPU-Sim uArch: Shader 6 bind to kernel 1 '_Z15transpose_naivePfS_ii'
GPGPU-Sim uArch: core:  6, cta: 0 initialized @(1,0)
GPGPU-Sim uArch: Shader 7 bind to kernel 1 '_Z15transpose_naivePfS_ii'
GPGPU-Sim uArch: core:  7, cta: 0 initialized @(1,0)
GPGPU-Sim uArch: Shader 8 bind to kernel 1 '_Z15transpose_naivePfS_ii'
GPGPU-Sim uArch: core:  8, cta: 0 initialized @(1,0)
GPGPU-Sim uArch: Shader 9 bind to kernel 1 '_Z15transpose_naivePfS_ii'
GPGPU-Sim uArch: core:  9, cta: 0 initialized @(1,0)
GPGPU-Sim uArch: Shader 10 bind to kernel 1 '_Z15transpose_naivePfS_ii'
GPGPU-Sim uArch: core: 10, cta: 0 initialized @(1,0)
GPGPU-Sim uArch: Shader 11 bind to kernel 1 '_Z15transpose_naivePfS_ii'
GPGPU-Sim uArch: core: 11, cta: 0 initialized @(1,0)
GPGPU-Sim uArch: Shader 12 bind to kernel 1 '_Z15transpose_naivePfS_ii'
GPGPU-Sim uArch: core: 12, cta: 0 initialized @(1,0)
GPGPU-Sim uArch: Shader 13 bind to kernel 1 '_Z15transpose_naivePfS_ii'
GPGPU-Sim uArch: core: 13, cta: 0 initialized @(1,0)
GPGPU-Sim uArch: Shader 14 bind to kernel 1 '_Z15transpose_naivePfS_ii'
GPGPU-Sim uArch: core: 14, cta: 0 initialized @(1,0)
GPGPU-Sim uArch: Shader 0 bind to kernel 1 '_Z15transpose_naivePfS_ii'
GPGPU-Sim uArch: core:  0, cta: 0 initialized @(1,0)
GPGPU-Sim uArch: core:  1, cta: 1 initialized @(2,0)
GPGPU-Sim uArch: core:  2, cta: 1 initialized @(2,0)
GPGPU-Sim uArch: core:  3, cta: 1 initialized @(2,0)
GPGPU-Sim uArch: core:  4, cta: 1 initialized @(2,0)
GPGPU-Sim uArch: core:  5, cta: 1 initialized @(2,0)
GPGPU-Sim uArch: core:  6, cta: 1 initialized @(2,0)
GPGPU-Sim uArch: core:  7, cta: 1 initialized @(2,0)
GPGPU-Sim uArch: core:  8, cta: 1 initialized @(2,0)
GPGPU-Sim uArch: core:  9, cta: 1 initialized @(2,0)
GPGPU-Sim uArch: core: 10, cta: 1 initialized @(2,0)
GPGPU-Sim uArch: core: 11, cta: 1 initialized @(2,0)
GPGPU-Sim uArch: core: 12, cta: 1 initialized @(2,0)
GPGPU-Sim uArch: core: 13, cta: 1 initialized @(2,0)
GPGPU-Sim uArch: core: 14, cta: 1 initialized @(2,0)
GPGPU-Sim uArch: core:  0, cta: 1 initialized @(2,0)
GPGPU-Sim uArch: core:  1, cta: 2 initialized @(3,0)
GPGPU-Sim uArch: core:  2, cta: 2 initialized @(3,0)
GPGPU-Sim uArch: core:  3, cta: 2 initialized @(3,0)
GPGPU-Sim uArch: core:  4, cta: 2 initialized @(3,0)
GPGPU-Sim uArch: core:  5, cta: 2 initialized @(3,0)
GPGPU-Sim uArch: core:  6, cta: 2 initialized @(3,0)
GPGPU-Sim uArch: core:  7, cta: 2 initialized @(3,0)
GPGPU-Sim uArch: core:  8, cta: 2 initialized @(3,0)
GPGPU-Sim uArch: core:  9, cta: 2 initialized @(3,0)
GPGPU-Sim uArch: core: 10, cta: 2 initialized @(3,0)
GPGPU-Sim uArch: core: 11, cta: 2 initialized @(3,0)
GPGPU-Sim uArch: core: 12, cta: 2 initialized @(3,0)
GPGPU-Sim uArch: core: 13, cta: 2 initialized @(3,0)
GPGPU-Sim uArch: core: 14, cta: 2 initialized @(3,0)
GPGPU-Sim uArch: core:  0, cta: 2 initialized @(3,0)
GPGPU-Sim uArch: core:  1, cta: 3 initialized @(4,0)
GPGPU-Sim uArch: core:  2, cta: 3 initialized @(4,0)
GPGPU-Sim uArch: core:  3, cta: 3 initialized @(4,0)
GPGPU-Sim uArch: core:  4, cta: 3 initialized @(4,0)
GPGPU-Sim uArch: core:  5, cta: 3 initialized @(4,0)
GPGPU-Sim uArch: core:  6, cta: 3 initialized @(4,0)
GPGPU-Sim uArch: core:  7, cta: 3 initialized @(4,0)
GPGPU-Sim uArch: core:  8, cta: 3 initialized @(4,0)
GPGPU-Sim uArch: core:  9, cta: 3 initialized @(4,0)
GPGPU-Sim uArch: core: 10, cta: 3 initialized @(4,0)
GPGPU-Sim uArch: core: 11, cta: 3 initialized @(4,0)
GPGPU-Sim uArch: core: 12, cta: 3 initialized @(4,0)
GPGPU-Sim uArch: core: 13, cta: 3 initialized @(4,0)
GPGPU-Sim uArch: core: 14, cta: 3 initialized @(4,0)
GPGPU-Sim uArch: core:  0, cta: 3 initialized @(4,0)
GPGPU-Sim uArch: core:  1, cta: 4 initialized @(5,0)
GPGPU-Sim uArch: core:  2, cta: 4 initialized @(5,0)
GPGPU-Sim uArch: core:  3, cta: 4 initialized @(5,0)
GPGPU-Sim uArch: core:  4, cta: 4 initialized @(5,0)
GPGPU-Sim uArch: core:  5, cta: 4 initialized @(5,0)
GPGPU-Sim uArch: core:  6, cta: 4 initialized @(5,0)
GPGPU-Sim uArch: core:  7, cta: 4 initialized @(5,0)
GPGPU-Sim uArch: core:  8, cta: 4 initialized @(5,0)
GPGPU-Sim uArch: core:  9, cta: 4 initialized @(5,0)
GPGPU-Sim uArch: core: 10, cta: 4 initialized @(5,0)
GPGPU-Sim uArch: core: 11, cta: 4 initialized @(5,0)
GPGPU-Sim uArch: core: 12, cta: 4 initialized @(5,0)
GPGPU-Sim uArch: core: 13, cta: 4 initialized @(5,0)
GPGPU-Sim uArch: core: 14, cta: 4 initialized @(5,0)
GPGPU-Sim uArch: core:  0, cta: 4 initialized @(5,0)
GPGPU-Sim uArch: core:  1, cta: 5 initialized @(6,0)
GPGPU-Sim uArch: core:  2, cta: 5 initialized @(6,0)
GPGPU-Sim uArch: core:  3, cta: 5 initialized @(6,0)
GPGPU-Sim uArch: core:  4, cta: 5 initialized @(6,0)
GPGPU-Sim uArch: core:  5, cta: 5 initialized @(6,0)
GPGPU-Sim uArch: core:  6, cta: 5 initialized @(6,0)
GPGPU-Sim uArch: core:  7, cta: 5 initialized @(6,0)
GPGPU-Sim uArch: core:  8, cta: 5 initialized @(6,0)
GPGPU-Sim uArch: core:  9, cta: 5 initialized @(6,0)
GPGPU-Sim uArch: core: 10, cta: 5 initialized @(6,0)
GPGPU-Sim uArch: core: 11, cta: 5 initialized @(6,0)
GPGPU-Sim uArch: core: 12, cta: 5 initialized @(6,0)
GPGPU-Sim uArch: core: 13, cta: 5 initialized @(6,0)
GPGPU-Sim uArch: core: 14, cta: 5 initialized @(6,0)
GPGPU-Sim uArch: core:  0, cta: 5 initialized @(6,0)
GPGPU-Sim uArch: cycles simulated: 500  inst.: 61440 (ipc=122.9) sim_rate=30720 (inst/sec) elapsed = 0:0:00:02 / Tue Mar 22 12:56:33 2016
GPGPU-Sim PTX: 100000 instructions simulated : ctaid=(11,1,0) tid=(15,7,0)
GPGPU-Sim uArch: cycles simulated: 1000  inst.: 163360 (ipc=163.4) sim_rate=54453 (inst/sec) elapsed = 0:0:00:03 / Tue Mar 22 12:56:34 2016
GPGPU-Sim PTX: 200000 instructions simulated : ctaid=(2,1,0) tid=(15,5,0)
GPGPU-Sim PTX: 300000 instructions simulated : ctaid=(5,3,0) tid=(15,9,0)
GPGPU-Sim PTX: 400000 instructions simulated : ctaid=(6,0,0) tid=(15,7,0)
GPGPU-Sim uArch: cycles simulated: 1500  inst.: 410400 (ipc=273.6) sim_rate=102600 (inst/sec) elapsed = 0:0:00:04 / Tue Mar 22 12:56:35 2016
GPGPU-Sim uArch: cycles simulated: 3000  inst.: 476448 (ipc=158.8) sim_rate=95289 (inst/sec) elapsed = 0:0:00:05 / Tue Mar 22 12:56:36 2016
GPGPU-Sim PTX: 500000 instructions simulated : ctaid=(3,5,0) tid=(15,1,0)
GPGPU-Sim uArch: cycles simulated: 4000  inst.: 486688 (ipc=121.7) sim_rate=81114 (inst/sec) elapsed = 0:0:00:06 / Tue Mar 22 12:56:37 2016
GPGPU-Sim uArch: cycles simulated: 5500  inst.: 504672 (ipc=91.8) sim_rate=72096 (inst/sec) elapsed = 0:0:00:07 / Tue Mar 22 12:56:38 2016
GPGPU-Sim uArch: cycles simulated: 6500  inst.: 512544 (ipc=78.9) sim_rate=64068 (inst/sec) elapsed = 0:0:00:08 / Tue Mar 22 12:56:39 2016
GPGPU-Sim uArch: cycles simulated: 8000  inst.: 516832 (ipc=64.6) sim_rate=57425 (inst/sec) elapsed = 0:0:00:09 / Tue Mar 22 12:56:40 2016
GPGPU-Sim uArch: cycles simulated: 9000  inst.: 520704 (ipc=57.9) sim_rate=52070 (inst/sec) elapsed = 0:0:00:10 / Tue Mar 22 12:56:41 2016
GPGPU-Sim uArch: cycles simulated: 10500  inst.: 527968 (ipc=50.3) sim_rate=47997 (inst/sec) elapsed = 0:0:00:11 / Tue Mar 22 12:56:42 2016
GPGPU-Sim uArch: cycles simulated: 12000  inst.: 534016 (ipc=44.5) sim_rate=44501 (inst/sec) elapsed = 0:0:00:12 / Tue Mar 22 12:56:43 2016
GPGPU-Sim uArch: cycles simulated: 13500  inst.: 549568 (ipc=40.7) sim_rate=42274 (inst/sec) elapsed = 0:0:00:13 / Tue Mar 22 12:56:44 2016
GPGPU-Sim uArch: cycles simulated: 14500  inst.: 567360 (ipc=39.1) sim_rate=40525 (inst/sec) elapsed = 0:0:00:14 / Tue Mar 22 12:56:45 2016
GPGPU-Sim PTX: 600000 instructions simulated : ctaid=(9,3,0) tid=(15,5,0)
GPGPU-Sim uArch: Shader 4 finished CTA #0 (15696,0), 5 CTAs running
GPGPU-Sim uArch: core:  4, cta: 0 initialized @(15697,0)
GPGPU-Sim uArch: cycles simulated: 16000  inst.: 583936 (ipc=36.5) sim_rate=38929 (inst/sec) elapsed = 0:0:00:15 / Tue Mar 22 12:56:46 2016
GPGPU-Sim uArch: Shader 1 finished CTA #0 (16164,0), 5 CTAs running
GPGPU-Sim uArch: core:  1, cta: 0 initialized @(16165,0)
GPGPU-Sim uArch: Shader 3 finished CTA #0 (16170,0), 5 CTAs running
GPGPU-Sim uArch: core:  3, cta: 0 initialized @(16171,0)
GPGPU-Sim uArch: Shader 6 finished CTA #0 (16249,0), 5 CTAs running
GPGPU-Sim uArch: core:  6, cta: 0 initialized @(16250,0)
GPGPU-Sim uArch: Shader 13 finished CTA #0 (16914,0), 5 CTAs running
GPGPU-Sim uArch: core: 13, cta: 0 initialized @(16915,0)
GPGPU-Sim uArch: Shader 5 finished CTA #0 (17193,0), 5 CTAs running
GPGPU-Sim uArch: core:  5, cta: 0 initialized @(17194,0)
GPGPU-Sim uArch: cycles simulated: 17500  inst.: 605568 (ipc=34.6) sim_rate=37848 (inst/sec) elapsed = 0:0:00:16 / Tue Mar 22 12:56:47 2016
GPGPU-Sim uArch: cycles simulated: 18500  inst.: 625216 (ipc=33.8) sim_rate=36777 (inst/sec) elapsed = 0:0:00:17 / Tue Mar 22 12:56:48 2016
GPGPU-Sim uArch: Shader 7 finished CTA #0 (18612,0), 5 CTAs running
GPGPU-Sim uArch: core:  7, cta: 0 initialized @(18613,0)
GPGPU-Sim uArch: Shader 9 finished CTA #0 (18825,0), 5 CTAs running
GPGPU-Sim uArch: core:  9, cta: 0 initialized @(18826,0)
GPGPU-Sim uArch: Shader 0 finished CTA #0 (18942,0), 5 CTAs running
GPGPU-Sim uArch: core:  0, cta: 0 initialized @(18943,0)
GPGPU-Sim uArch: Shader 10 finished CTA #0 (19136,0), 5 CTAs running
GPGPU-Sim uArch: core: 10, cta: 0 initialized @(19137,0)
GPGPU-Sim uArch: Shader 2 finished CTA #0 (19423,0), 5 CTAs running
GPGPU-Sim uArch: core:  2, cta: 0 initialized @(19424,0)
GPGPU-Sim uArch: Shader 8 finished CTA #0 (19464,0), 5 CTAs running
GPGPU-Sim uArch: core:  8, cta: 0 initialized @(19465,0)
GPGPU-Sim uArch: Shader 11 finished CTA #0 (19853,0), 5 CTAs running
GPGPU-Sim uArch: core: 11, cta: 0 initialized @(19854,0)
GPGPU-Sim uArch: Shader 12 finished CTA #0 (19927,0), 5 CTAs running
GPGPU-Sim uArch: core: 12, cta: 0 initialized @(19928,0)
GPGPU-Sim uArch: Shader 14 finished CTA #0 (19930,0), 5 CTAs running
GPGPU-Sim uArch: core: 14, cta: 0 initialized @(19931,0)
GPGPU-Sim uArch: cycles simulated: 20000  inst.: 659552 (ipc=33.0) sim_rate=36641 (inst/sec) elapsed = 0:0:00:18 / Tue Mar 22 12:56:49 2016
GPGPU-Sim PTX: 700000 instructions simulated : ctaid=(8,5,0) tid=(15,5,0)
GPGPU-Sim uArch: cycles simulated: 21500  inst.: 678176 (ipc=31.5) sim_rate=35693 (inst/sec) elapsed = 0:0:00:19 / Tue Mar 22 12:56:50 2016
GPGPU-Sim uArch: Shader 0 finished CTA #1 (21649,0), 5 CTAs running
GPGPU-Sim uArch: core:  0, cta: 1 initialized @(21650,0)
GPGPU-Sim uArch: Shader 1 finished CTA #1 (21923,0), 5 CTAs running
GPGPU-Sim uArch: core:  1, cta: 1 initialized @(21924,0)
GPGPU-Sim uArch: Shader 6 finished CTA #1 (21941,0), 5 CTAs running
GPGPU-Sim uArch: core:  6, cta: 1 initialized @(21942,0)
GPGPU-Sim uArch: Shader 2 finished CTA #1 (21982,0), 5 CTAs running
GPGPU-Sim uArch: core:  2, cta: 1 initialized @(21983,0)
GPGPU-Sim uArch: Shader 10 finished CTA #1 (22047,0), 5 CTAs running
GPGPU-Sim uArch: core: 10, cta: 1 initialized @(22048,0)
GPGPU-Sim uArch: Shader 7 finished CTA #1 (22144,0), 5 CTAs running
GPGPU-Sim uArch: core:  7, cta: 1 initialized @(22145,0)
GPGPU-Sim uArch: Shader 5 finished CTA #1 (22149,0), 5 CTAs running
GPGPU-Sim uArch: core:  5, cta: 1 initialized @(22150,0)
GPGPU-Sim uArch: Shader 8 finished CTA #1 (22231,0), 5 CTAs running
GPGPU-Sim uArch: core:  8, cta: 1 initialized @(22232,0)
GPGPU-Sim uArch: Shader 4 finished CTA #1 (22370,0), 5 CTAs running
GPGPU-Sim uArch: core:  4, cta: 1 initialized @(22371,0)
GPGPU-Sim uArch: cycles simulated: 22500  inst.: 719136 (ipc=32.0) sim_rate=35956 (inst/sec) elapsed = 0:0:00:20 / Tue Mar 22 12:56:51 2016
GPGPU-Sim uArch: Shader 14 finished CTA #1 (22658,0), 5 CTAs running
GPGPU-Sim uArch: core: 14, cta: 1 initialized @(22659,0)
GPGPU-Sim uArch: Shader 3 finished CTA #1 (22701,0), 5 CTAs running
GPGPU-Sim uArch: core:  3, cta: 1 initialized @(22702,0)
GPGPU-Sim uArch: Shader 9 finished CTA #1 (22748,0), 5 CTAs running
GPGPU-Sim uArch: core:  9, cta: 1 initialized @(22749,0)
GPGPU-Sim PTX: 800000 instructions simulated : ctaid=(6,4,0) tid=(15,7,0)
GPGPU-Sim uArch: cycles simulated: 23500  inst.: 776160 (ipc=33.0) sim_rate=36960 (inst/sec) elapsed = 0:0:00:21 / Tue Mar 22 12:56:52 2016
GPGPU-Sim uArch: Shader 11 finished CTA #1 (23561,0), 5 CTAs running
GPGPU-Sim uArch: core: 11, cta: 1 initialized @(23562,0)
GPGPU-Sim uArch: Shader 13 finished CTA #1 (23637,0), 5 CTAs running
GPGPU-Sim uArch: core: 13, cta: 1 initialized @(23638,0)
GPGPU-Sim uArch: cycles simulated: 25000  inst.: 808832 (ipc=32.4) sim_rate=36765 (inst/sec) elapsed = 0:0:00:22 / Tue Mar 22 12:56:53 2016
GPGPU-Sim uArch: Shader 12 finished CTA #1 (25760,0), 5 CTAs running
GPGPU-Sim uArch: core: 12, cta: 1 initialized @(25761,0)
GPGPU-Sim uArch: cycles simulated: 26000  inst.: 845408 (ipc=32.5) sim_rate=36756 (inst/sec) elapsed = 0:0:00:23 / Tue Mar 22 12:56:54 2016
GPGPU-Sim uArch: Shader 0 finished CTA #2 (26396,0), 5 CTAs running
GPGPU-Sim uArch: core:  0, cta: 2 initialized @(26397,0)
GPGPU-Sim PTX: 900000 instructions simulated : ctaid=(14,5,0) tid=(15,15,0)
GPGPU-Sim uArch: cycles simulated: 27500  inst.: 876544 (ipc=31.9) sim_rate=36522 (inst/sec) elapsed = 0:0:00:24 / Tue Mar 22 12:56:55 2016
GPGPU-Sim uArch: Shader 9 finished CTA #2 (27570,0), 5 CTAs running
GPGPU-Sim uArch: core:  9, cta: 2 initialized @(27571,0)
GPGPU-Sim uArch: Shader 5 finished CTA #2 (27838,0), 5 CTAs running
GPGPU-Sim uArch: core:  5, cta: 2 initialized @(27839,0)
GPGPU-Sim uArch: Shader 3 finished CTA #2 (27932,0), 5 CTAs running
GPGPU-Sim uArch: core:  3, cta: 2 initialized @(27933,0)
GPGPU-Sim uArch: Shader 4 finished CTA #2 (27997,0), 5 CTAs running
GPGPU-Sim uArch: core:  4, cta: 2 initialized @(27998,0)
GPGPU-Sim uArch: Shader 14 finished CTA #2 (28175,0), 5 CTAs running
GPGPU-Sim uArch: core: 14, cta: 2 initialized @(28176,0)
GPGPU-Sim uArch: Shader 14 finished CTA #3 (28303,0), 5 CTAs running
GPGPU-Sim uArch: core: 14, cta: 3 initialized @(28304,0)
GPGPU-Sim uArch: Shader 10 finished CTA #2 (28360,0), 5 CTAs running
GPGPU-Sim uArch: core: 10, cta: 2 initialized @(28361,0)
GPGPU-Sim uArch: Shader 4 finished CTA #3 (28911,0), 5 CTAs running
GPGPU-Sim uArch: core:  4, cta: 3 initialized @(28912,0)
GPGPU-Sim uArch: cycles simulated: 29000  inst.: 910528 (ipc=31.4) sim_rate=36421 (inst/sec) elapsed = 0:0:00:25 / Tue Mar 22 12:56:56 2016
GPGPU-Sim uArch: Shader 0 finished CTA #3 (29329,0), 5 CTAs running
GPGPU-Sim uArch: core:  0, cta: 3 initialized @(29330,0)
GPGPU-Sim uArch: Shader 2 finished CTA #2 (29656,0), 5 CTAs running
GPGPU-Sim uArch: core:  2, cta: 2 initialized @(29657,0)
GPGPU-Sim uArch: Shader 2 finished CTA #3 (29959,0), 5 CTAs running
GPGPU-Sim uArch: core:  2, cta: 3 initialized @(29960,0)
GPGPU-Sim uArch: cycles simulated: 30000  inst.: 931968 (ipc=31.1) sim_rate=35844 (inst/sec) elapsed = 0:0:00:26 / Tue Mar 22 12:56:57 2016
GPGPU-Sim uArch: Shader 13 finished CTA #2 (30199,0), 5 CTAs running
GPGPU-Sim uArch: core: 13, cta: 2 initialized @(30200,0)
GPGPU-Sim uArch: Shader 7 finished CTA #2 (30377,0), 5 CTAs running
GPGPU-Sim uArch: core:  7, cta: 2 initialized @(30378,0)
GPGPU-Sim uArch: Shader 3 finished CTA #3 (30434,0), 5 CTAs running
GPGPU-Sim uArch: core:  3, cta: 3 initialized @(30435,0)
GPGPU-Sim PTX: 1000000 instructions simulated : ctaid=(7,5,0) tid=(15,15,0)
GPGPU-Sim uArch: Shader 4 finished CTA #4 (31028,0), 5 CTAs running
GPGPU-Sim uArch: core:  4, cta: 4 initialized @(31029,0)
GPGPU-Sim uArch: Shader 13 finished CTA #3 (31187,0), 5 CTAs running
GPGPU-Sim uArch: core: 13, cta: 3 initialized @(31188,0)
GPGPU-Sim uArch: Shader 11 finished CTA #2 (31258,0), 5 CTAs running
GPGPU-Sim uArch: core: 11, cta: 2 initialized @(31259,0)
GPGPU-Sim uArch: Shader 9 finished CTA #3 (31468,0), 5 CTAs running
GPGPU-Sim uArch: core:  9, cta: 3 initialized @(31469,0)
GPGPU-Sim uArch: cycles simulated: 31500  inst.: 1007104 (ipc=32.0) sim_rate=37300 (inst/sec) elapsed = 0:0:00:27 / Tue Mar 22 12:56:58 2016
GPGPU-Sim uArch: Shader 0 finished CTA #4 (31597,0), 5 CTAs running
GPGPU-Sim uArch: core:  0, cta: 4 initialized @(31598,0)
GPGPU-Sim uArch: Shader 2 finished CTA #4 (31623,0), 5 CTAs running
GPGPU-Sim uArch: core:  2, cta: 4 initialized @(31624,0)
GPGPU-Sim uArch: Shader 10 finished CTA #3 (31625,0), 5 CTAs running
GPGPU-Sim uArch: core: 10, cta: 3 initialized @(31626,0)
GPGPU-Sim uArch: Shader 11 finished CTA #3 (31656,0), 5 CTAs running
GPGPU-Sim uArch: core: 11, cta: 3 initialized @(31657,0)
GPGPU-Sim uArch: Shader 12 finished CTA #2 (31778,0), 5 CTAs running
GPGPU-Sim uArch: core: 12, cta: 2 initialized @(31779,0)
GPGPU-Sim uArch: Shader 6 finished CTA #2 (31881,0), 5 CTAs running
GPGPU-Sim uArch: core:  6, cta: 2 initialized @(31882,0)
GPGPU-Sim uArch: Shader 1 finished CTA #2 (32115,0), 5 CTAs running
GPGPU-Sim uArch: core:  1, cta: 2 initialized @(32116,0)
GPGPU-Sim uArch: Shader 12 finished CTA #3 (32263,0), 5 CTAs running
GPGPU-Sim uArch: core: 12, cta: 3 initialized @(32264,0)
GPGPU-Sim uArch: cycles simulated: 32500  inst.: 1053664 (ipc=32.4) sim_rate=37630 (inst/sec) elapsed = 0:0:00:28 / Tue Mar 22 12:56:59 2016
GPGPU-Sim uArch: Shader 1 finished CTA #3 (32567,0), 5 CTAs running
GPGPU-Sim uArch: core:  1, cta: 3 initialized @(32568,0)
GPGPU-Sim PTX: 1100000 instructions simulated : ctaid=(0,9,0) tid=(15,3,0)
GPGPU-Sim uArch: Shader 1 finished CTA #4 (32671,0), 5 CTAs running
GPGPU-Sim uArch: core:  1, cta: 4 initialized @(32672,0)
GPGPU-Sim uArch: Shader 6 finished CTA #3 (32921,0), 5 CTAs running
GPGPU-Sim uArch: core:  6, cta: 3 initialized @(32922,0)
GPGPU-Sim uArch: Shader 8 finished CTA #2 (33386,0), 5 CTAs running
GPGPU-Sim uArch: core:  8, cta: 2 initialized @(33387,0)
GPGPU-Sim uArch: Shader 5 finished CTA #3 (33471,0), 5 CTAs running
GPGPU-Sim uArch: core:  5, cta: 3 initialized @(33472,0)
GPGPU-Sim uArch: Shader 7 finished CTA #3 (33804,0), 5 CTAs running
GPGPU-Sim uArch: core:  7, cta: 3 initialized @(33805,0)
GPGPU-Sim uArch: cycles simulated: 34000  inst.: 1097248 (ipc=32.3) sim_rate=37836 (inst/sec) elapsed = 0:0:00:29 / Tue Mar 22 12:57:00 2016
GPGPU-Sim uArch: Shader 8 finished CTA #3 (34016,0), 5 CTAs running
GPGPU-Sim uArch: core:  8, cta: 3 initialized @(34017,0)
GPGPU-Sim uArch: Shader 14 finished CTA #4 (34251,0), 5 CTAs running
GPGPU-Sim uArch: core: 14, cta: 4 initialized @(34252,0)
GPGPU-Sim uArch: Shader 2 finished CTA #5 (34730,0), 5 CTAs running
GPGPU-Sim uArch: core:  2, cta: 5 initialized @(34731,0)
GPGPU-Sim uArch: Shader 1 finished CTA #5 (34736,0), 5 CTAs running
GPGPU-Sim uArch: core:  1, cta: 5 initialized @(34737,0)
GPGPU-Sim uArch: cycles simulated: 35000  inst.: 1122944 (ipc=32.1) sim_rate=37431 (inst/sec) elapsed = 0:0:00:30 / Tue Mar 22 12:57:01 2016
GPGPU-Sim uArch: Shader 3 finished CTA #4 (35545,0), 5 CTAs running
GPGPU-Sim uArch: core:  3, cta: 4 initialized @(35546,0)
GPGPU-Sim PTX: 1200000 instructions simulated : ctaid=(12,6,0) tid=(15,7,0)
GPGPU-Sim uArch: cycles simulated: 36500  inst.: 1170656 (ipc=32.1) sim_rate=37763 (inst/sec) elapsed = 0:0:00:31 / Tue Mar 22 12:57:02 2016
GPGPU-Sim uArch: Shader 4 finished CTA #5 (36932,0), 5 CTAs running
GPGPU-Sim uArch: core:  4, cta: 5 initialized @(36933,0)
GPGPU-Sim uArch: Shader 6 finished CTA #4 (36955,0), 5 CTAs running
GPGPU-Sim uArch: core:  6, cta: 4 initialized @(36956,0)
GPGPU-Sim uArch: Shader 7 finished CTA #4 (36979,0), 5 CTAs running
GPGPU-Sim uArch: core:  7, cta: 4 initialized @(36980,0)
GPGPU-Sim uArch: Shader 13 finished CTA #4 (37077,0), 5 CTAs running
GPGPU-Sim uArch: core: 13, cta: 4 initialized @(37078,0)
GPGPU-Sim uArch: Shader 1 finished CTA #0 (37268,0), 5 CTAs running
GPGPU-Sim uArch: core:  1, cta: 0 initialized @(37269,0)
GPGPU-Sim uArch: Shader 3 finished CTA #5 (37371,0), 5 CTAs running
GPGPU-Sim uArch: core:  3, cta: 5 initialized @(37372,0)
GPGPU-Sim uArch: cycles simulated: 37500  inst.: 1213760 (ipc=32.4) sim_rate=37930 (inst/sec) elapsed = 0:0:00:32 / Tue Mar 22 12:57:03 2016
GPGPU-Sim uArch: Shader 11 finished CTA #4 (37598,0), 5 CTAs running
GPGPU-Sim uArch: core: 11, cta: 4 initialized @(37599,0)
GPGPU-Sim uArch: Shader 8 finished CTA #4 (37771,0), 5 CTAs running
GPGPU-Sim uArch: core:  8, cta: 4 initialized @(37772,0)
GPGPU-Sim uArch: Shader 0 finished CTA #5 (37926,0), 5 CTAs running
GPGPU-Sim uArch: core:  0, cta: 5 initialized @(37927,0)
GPGPU-Sim uArch: Shader 9 finished CTA #4 (38087,0), 5 CTAs running
GPGPU-Sim uArch: core:  9, cta: 4 initialized @(38088,0)
GPGPU-Sim uArch: Shader 12 finished CTA #4 (38200,0), 5 CTAs running
GPGPU-Sim uArch: core: 12, cta: 4 initialized @(38201,0)
GPGPU-Sim uArch: Shader 10 finished CTA #4 (38452,0), 5 CTAs running
GPGPU-Sim uArch: core: 10, cta: 4 initialized @(38453,0)
GPGPU-Sim uArch: Shader 2 finished CTA #0 (38738,0), 5 CTAs running
GPGPU-Sim uArch: core:  2, cta: 0 initialized @(38739,0)
GPGPU-Sim PTX: 1300000 instructions simulated : ctaid=(2,5,0) tid=(15,15,0)
GPGPU-Sim uArch: cycles simulated: 39000  inst.: 1275456 (ipc=32.7) sim_rate=38650 (inst/sec) elapsed = 0:0:00:33 / Tue Mar 22 12:57:04 2016
GPGPU-Sim uArch: Shader 7 finished CTA #5 (39204,0), 5 CTAs running
GPGPU-Sim uArch: core:  7, cta: 5 initialized @(39205,0)
GPGPU-Sim uArch: Shader 9 finished CTA #5 (39409,0), 5 CTAs running
GPGPU-Sim uArch: core:  9, cta: 5 initialized @(39410,0)
GPGPU-Sim uArch: Shader 5 finished CTA #4 (39580,0), 5 CTAs running
GPGPU-Sim uArch: core:  5, cta: 4 initialized @(39581,0)
GPGPU-Sim uArch: Shader 4 finished CTA #0 (39617,0), 5 CTAs running
GPGPU-Sim uArch: core:  4, cta: 0 initialized @(39618,0)
GPGPU-Sim uArch: Shader 6 finished CTA #5 (39800,0), 5 CTAs running
GPGPU-Sim uArch: core:  6, cta: 5 initialized @(39801,0)
GPGPU-Sim uArch: Shader 13 finished CTA #5 (39893,0), 5 CTAs running
GPGPU-Sim uArch: core: 13, cta: 5 initialized @(39894,0)
GPGPU-Sim uArch: cycles simulated: 40000  inst.: 1311424 (ipc=32.8) sim_rate=38571 (inst/sec) elapsed = 0:0:00:34 / Tue Mar 22 12:57:05 2016
GPGPU-Sim uArch: Shader 1 finished CTA #1 (40017,0), 5 CTAs running
GPGPU-Sim uArch: core:  1, cta: 1 initialized @(40018,0)
GPGPU-Sim uArch: Shader 0 finished CTA #0 (40282,0), 5 CTAs running
GPGPU-Sim uArch: core:  0, cta: 0 initialized @(40283,0)
GPGPU-Sim uArch: Shader 3 finished CTA #0 (40286,0), 5 CTAs running
GPGPU-Sim uArch: core:  3, cta: 0 initialized @(40287,0)
GPGPU-Sim uArch: Shader 11 finished CTA #5 (40651,0), 5 CTAs running
GPGPU-Sim uArch: core: 11, cta: 5 initialized @(40652,0)
GPGPU-Sim uArch: Shader 8 finished CTA #5 (40701,0), 5 CTAs running
GPGPU-Sim uArch: core:  8, cta: 5 initialized @(40702,0)
GPGPU-Sim PTX: 1400000 instructions simulated : ctaid=(4,9,0) tid=(15,3,0)
GPGPU-Sim uArch: Shader 12 finished CTA #5 (40863,0), 5 CTAs running
GPGPU-Sim uArch: core: 12, cta: 5 initialized @(40864,0)
GPGPU-Sim uArch: Shader 2 finished CTA #1 (40956,0), 5 CTAs running
GPGPU-Sim uArch: core:  2, cta: 1 initialized @(40957,0)
GPGPU-Sim uArch: Shader 10 finished CTA #5 (41067,0), 5 CTAs running
GPGPU-Sim uArch: core: 10, cta: 5 initialized @(41068,0)
GPGPU-Sim uArch: Shader 14 finished CTA #5 (41431,0), 5 CTAs running
GPGPU-Sim uArch: core: 14, cta: 5 initialized @(41432,0)
GPGPU-Sim uArch: cycles simulated: 41500  inst.: 1400928 (ipc=33.8) sim_rate=40026 (inst/sec) elapsed = 0:0:00:35 / Tue Mar 22 12:57:06 2016
GPGPU-Sim uArch: Shader 9 finished CTA #0 (41606,0), 5 CTAs running
GPGPU-Sim uArch: core:  9, cta: 0 initialized @(41607,0)
GPGPU-Sim uArch: Shader 7 finished CTA #0 (41709,0), 5 CTAs running
GPGPU-Sim uArch: core:  7, cta: 0 initialized @(41710,0)
GPGPU-Sim uArch: Shader 2 finished CTA #2 (41926,0), 5 CTAs running
GPGPU-Sim uArch: core:  2, cta: 2 initialized @(41927,0)
GPGPU-Sim uArch: Shader 10 finished CTA #0 (41987,0), 5 CTAs running
GPGPU-Sim uArch: core: 10, cta: 0 initialized @(41988,0)
GPGPU-Sim uArch: Shader 3 finished CTA #1 (42098,0), 5 CTAs running
GPGPU-Sim uArch: core:  3, cta: 1 initialized @(42099,0)
GPGPU-Sim uArch: Shader 8 finished CTA #0 (42138,0), 5 CTAs running
GPGPU-Sim uArch: core:  8, cta: 0 initialized @(42139,0)
GPGPU-Sim uArch: Shader 7 finished CTA #1 (42144,0), 5 CTAs running
GPGPU-Sim uArch: core:  7, cta: 1 initialized @(42145,0)
GPGPU-Sim uArch: Shader 6 finished CTA #0 (42277,0), 5 CTAs running
GPGPU-Sim uArch: core:  6, cta: 0 initialized @(42278,0)
GPGPU-Sim uArch: Shader 8 finished CTA #1 (42323,0), 5 CTAs running
GPGPU-Sim uArch: core:  8, cta: 1 initialized @(42324,0)
GPGPU-Sim uArch: cycles simulated: 42500  inst.: 1436384 (ipc=33.8) sim_rate=39899 (inst/sec) elapsed = 0:0:00:36 / Tue Mar 22 12:57:07 2016
GPGPU-Sim uArch: Shader 13 finished CTA #0 (42761,0), 5 CTAs running
GPGPU-Sim uArch: core: 13, cta: 0 initialized @(42762,0)
GPGPU-Sim PTX: 1500000 instructions simulated : ctaid=(15,11,0) tid=(15,9,0)
GPGPU-Sim uArch: Shader 11 finished CTA #0 (43014,0), 5 CTAs running
GPGPU-Sim uArch: core: 11, cta: 0 initialized @(43015,0)
GPGPU-Sim uArch: cycles simulated: 43500  inst.: 1480320 (ipc=34.0) sim_rate=40008 (inst/sec) elapsed = 0:0:00:37 / Tue Mar 22 12:57:08 2016
GPGPU-Sim uArch: Shader 0 finished CTA #1 (43525,0), 5 CTAs running
GPGPU-Sim uArch: core:  0, cta: 1 initialized @(43526,0)
GPGPU-Sim uArch: Shader 5 finished CTA #5 (43562,0), 5 CTAs running
GPGPU-Sim uArch: core:  5, cta: 5 initialized @(43563,0)
GPGPU-Sim uArch: Shader 4 finished CTA #1 (44086,0), 5 CTAs running
GPGPU-Sim uArch: core:  4, cta: 1 initialized @(44087,0)
GPGPU-Sim uArch: Shader 5 finished CTA #0 (44403,0), 5 CTAs running
GPGPU-Sim uArch: core:  5, cta: 0 initialized @(44404,0)
GPGPU-Sim uArch: Shader 5 finished CTA #1 (44674,0), 5 CTAs running
GPGPU-Sim uArch: core:  5, cta: 1 initialized @(44675,0)
GPGPU-Sim PTX: 1600000 instructions simulated : ctaid=(6,11,0) tid=(15,11,0)
GPGPU-Sim uArch: cycles simulated: 45000  inst.: 1555328 (ipc=34.6) sim_rate=40929 (inst/sec) elapsed = 0:0:00:38 / Tue Mar 22 12:57:09 2016
GPGPU-Sim uArch: Shader 14 finished CTA #0 (45128,0), 5 CTAs running
GPGPU-Sim uArch: core: 14, cta: 0 initialized @(45129,0)
GPGPU-Sim uArch: Shader 12 finished CTA #0 (45257,0), 5 CTAs running
GPGPU-Sim uArch: core: 12, cta: 0 initialized @(45258,0)
GPGPU-Sim uArch: Shader 10 finished CTA #1 (45437,0), 5 CTAs running
GPGPU-Sim uArch: core: 10, cta: 1 initialized @(45438,0)
GPGPU-Sim uArch: Shader 12 finished CTA #1 (45516,0), 5 CTAs running
GPGPU-Sim uArch: core: 12, cta: 1 initialized @(45517,0)
GPGPU-Sim uArch: Shader 2 finished CTA #3 (45719,0), 5 CTAs running
GPGPU-Sim uArch: core:  2, cta: 3 initialized @(45720,0)
GPGPU-Sim uArch: Shader 8 finished CTA #2 (45781,0), 5 CTAs running
GPGPU-Sim uArch: core:  8, cta: 2 initialized @(45782,0)
GPGPU-Sim uArch: cycles simulated: 46000  inst.: 1583488 (ipc=34.4) sim_rate=40602 (inst/sec) elapsed = 0:0:00:39 / Tue Mar 22 12:57:10 2016
GPGPU-Sim uArch: Shader 5 finished CTA #2 (46044,0), 5 CTAs running
GPGPU-Sim uArch: core:  5, cta: 2 initialized @(46045,0)
GPGPU-Sim uArch: Shader 11 finished CTA #1 (46059,0), 5 CTAs running
GPGPU-Sim uArch: core: 11, cta: 1 initialized @(46060,0)
GPGPU-Sim uArch: Shader 1 finished CTA #2 (46508,0), 5 CTAs running
GPGPU-Sim uArch: core:  1, cta: 2 initialized @(46509,0)
GPGPU-Sim uArch: Shader 0 finished CTA #2 (47207,0), 5 CTAs running
GPGPU-Sim uArch: core:  0, cta: 2 initialized @(47208,0)
GPGPU-Sim uArch: Shader 4 finished CTA #2 (47388,0), 5 CTAs running
GPGPU-Sim uArch: core:  4, cta: 2 initialized @(47389,0)
GPGPU-Sim uArch: cycles simulated: 47500  inst.: 1621504 (ipc=34.1) sim_rate=40537 (inst/sec) elapsed = 0:0:00:40 / Tue Mar 22 12:57:11 2016
GPGPU-Sim uArch: Shader 6 finished CTA #1 (47752,0), 5 CTAs running
GPGPU-Sim uArch: core:  6, cta: 1 initialized @(47753,0)
GPGPU-Sim uArch: Shader 10 finished CTA #2 (47838,0), 5 CTAs running
GPGPU-Sim uArch: core: 10, cta: 2 initialized @(47839,0)
GPGPU-Sim uArch: cycles simulated: 48500  inst.: 1641952 (ipc=33.9) sim_rate=40047 (inst/sec) elapsed = 0:0:00:41 / Tue Mar 22 12:57:12 2016
GPGPU-Sim PTX: 1700000 instructions simulated : ctaid=(11,12,0) tid=(15,9,0)
GPGPU-Sim uArch: Shader 14 finished CTA #1 (48909,0), 5 CTAs running
GPGPU-Sim uArch: core: 14, cta: 1 initialized @(48910,0)
GPGPU-Sim uArch: Shader 14 finished CTA #2 (49127,0), 5 CTAs running
GPGPU-Sim uArch: core: 14, cta: 2 initialized @(49128,0)
GPGPU-Sim uArch: Shader 11 finished CTA #2 (49129,0), 5 CTAs running
GPGPU-Sim uArch: core: 11, cta: 2 initialized @(49130,0)
GPGPU-Sim uArch: Shader 5 finished CTA #3 (49144,0), 5 CTAs running
GPGPU-Sim uArch: core:  5, cta: 3 initialized @(49145,0)
GPGPU-Sim uArch: Shader 6 finished CTA #2 (49146,0), 5 CTAs running
GPGPU-Sim uArch: core:  6, cta: 2 initialized @(49147,0)
GPGPU-Sim uArch: Shader 14 finished CTA #3 (49484,0), 5 CTAs running
GPGPU-Sim uArch: core: 14, cta: 3 initialized @(49485,0)
GPGPU-Sim uArch: cycles simulated: 49500  inst.: 1677728 (ipc=33.9) sim_rate=39945 (inst/sec) elapsed = 0:0:00:42 / Tue Mar 22 12:57:13 2016
GPGPU-Sim uArch: Shader 0 finished CTA #3 (49756,0), 5 CTAs running
GPGPU-Sim uArch: core:  0, cta: 3 initialized @(49757,0)
GPGPU-Sim uArch: Shader 4 finished CTA #3 (50312,0), 5 CTAs running
GPGPU-Sim uArch: core:  4, cta: 3 initialized @(50313,0)
GPGPU-Sim uArch: Shader 9 finished CTA #1 (50667,0), 5 CTAs running
GPGPU-Sim uArch: core:  9, cta: 1 initialized @(50668,0)
GPGPU-Sim uArch: Shader 7 finished CTA #2 (50808,0), 5 CTAs running
GPGPU-Sim uArch: core:  7, cta: 2 initialized @(50809,0)
GPGPU-Sim PTX: 1800000 instructions simulated : ctaid=(8,12,0) tid=(15,3,0)
GPGPU-Sim uArch: Shader 12 finished CTA #2 (50977,0), 5 CTAs running
GPGPU-Sim uArch: core: 12, cta: 2 initialized @(50978,0)
GPGPU-Sim uArch: cycles simulated: 51000  inst.: 1746368 (ipc=34.2) sim_rate=40613 (inst/sec) elapsed = 0:0:00:43 / Tue Mar 22 12:57:14 2016
GPGPU-Sim uArch: Shader 6 finished CTA #3 (51007,0), 5 CTAs running
GPGPU-Sim uArch: core:  6, cta: 3 initialized @(51008,0)
GPGPU-Sim uArch: Shader 13 finished CTA #1 (51024,0), 5 CTAs running
GPGPU-Sim uArch: core: 13, cta: 1 initialized @(51025,0)
GPGPU-Sim uArch: Shader 9 finished CTA #2 (51086,0), 5 CTAs running
GPGPU-Sim uArch: core:  9, cta: 2 initialized @(51087,0)
GPGPU-Sim uArch: Shader 3 finished CTA #2 (51169,0), 5 CTAs running
GPGPU-Sim uArch: core:  3, cta: 2 initialized @(51170,0)
GPGPU-Sim uArch: Shader 11 finished CTA #3 (51560,0), 5 CTAs running
GPGPU-Sim uArch: core: 11, cta: 3 initialized @(51561,0)
GPGPU-Sim uArch: Shader 5 finished CTA #4 (51584,0), 5 CTAs running
GPGPU-Sim uArch: core:  5, cta: 4 initialized @(51585,0)
GPGPU-Sim uArch: Shader 2 finished CTA #4 (51735,0), 5 CTAs running
GPGPU-Sim uArch: core:  2, cta: 4 initialized @(51736,0)
GPGPU-Sim uArch: cycles simulated: 52000  inst.: 1796512 (ipc=34.5) sim_rate=40829 (inst/sec) elapsed = 0:0:00:44 / Tue Mar 22 12:57:15 2016
GPGPU-Sim uArch: Shader 5 finished CTA #5 (52263,0), 5 CTAs running
GPGPU-Sim uArch: core:  5, cta: 5 initialized @(52264,0)
GPGPU-Sim uArch: Shader 13 finished CTA #2 (52612,0), 5 CTAs running
GPGPU-Sim uArch: core: 13, cta: 2 initialized @(52613,0)
GPGPU-Sim PTX: 1900000 instructions simulated : ctaid=(12,12,0) tid=(15,7,0)
GPGPU-Sim uArch: Shader 4 finished CTA #4 (52710,0), 5 CTAs running
GPGPU-Sim uArch: core:  4, cta: 4 initialized @(52711,0)
GPGPU-Sim uArch: Shader 3 finished CTA #3 (52887,0), 5 CTAs running
GPGPU-Sim uArch: core:  3, cta: 3 initialized @(52888,0)
GPGPU-Sim uArch: Shader 10 finished CTA #3 (52994,0), 5 CTAs running
GPGPU-Sim uArch: core: 10, cta: 3 initialized @(52995,0)
GPGPU-Sim uArch: cycles simulated: 53000  inst.: 1865184 (ipc=35.2) sim_rate=41448 (inst/sec) elapsed = 0:0:00:45 / Tue Mar 22 12:57:16 2016
GPGPU-Sim uArch: Shader 5 finished CTA #0 (53344,0), 5 CTAs running
GPGPU-Sim uArch: core:  5, cta: 0 initialized @(53345,0)
GPGPU-Sim uArch: Shader 1 finished CTA #3 (53663,0), 5 CTAs running
GPGPU-Sim uArch: core:  1, cta: 3 initialized @(53664,0)
GPGPU-Sim uArch: Shader 3 finished CTA #4 (53881,0), 5 CTAs running
GPGPU-Sim uArch: core:  3, cta: 4 initialized @(53882,0)
GPGPU-Sim uArch: Shader 0 finished CTA #4 (54070,0), 5 CTAs running
GPGPU-Sim uArch: core:  0, cta: 4 initialized @(54071,0)
GPGPU-Sim uArch: Shader 5 finished CTA #1 (54117,0), 5 CTAs running
GPGPU-Sim uArch: core:  5, cta: 1 initialized @(54118,0)
GPGPU-Sim uArch: Shader 14 finished CTA #4 (54151,0), 5 CTAs running
GPGPU-Sim uArch: core: 14, cta: 4 initialized @(54152,0)
GPGPU-Sim uArch: Shader 7 finished CTA #3 (54161,0), 5 CTAs running
GPGPU-Sim uArch: core:  7, cta: 3 initialized @(54162,0)
GPGPU-Sim uArch: Shader 8 finished CTA #3 (54222,0), 5 CTAs running
GPGPU-Sim uArch: core:  8, cta: 3 initialized @(54223,0)
GPGPU-Sim uArch: Shader 9 finished CTA #3 (54385,0), 5 CTAs running
GPGPU-Sim uArch: core:  9, cta: 3 initialized @(54386,0)
GPGPU-Sim uArch: cycles simulated: 54500  inst.: 1923200 (ipc=35.3) sim_rate=41808 (inst/sec) elapsed = 0:0:00:46 / Tue Mar 22 12:57:17 2016
GPGPU-Sim uArch: Shader 4 finished CTA #5 (54535,0), 5 CTAs running
GPGPU-Sim uArch: core:  4, cta: 5 initialized @(54536,0)
GPGPU-Sim uArch: Shader 13 finished CTA #3 (54616,0), 5 CTAs running
GPGPU-Sim uArch: core: 13, cta: 3 initialized @(54617,0)
GPGPU-Sim uArch: Shader 12 finished CTA #3 (54788,0), 5 CTAs running
GPGPU-Sim uArch: core: 12, cta: 3 initialized @(54789,0)
GPGPU-Sim uArch: Shader 11 finished CTA #4 (54945,0), 5 CTAs running
GPGPU-Sim uArch: core: 11, cta: 4 initialized @(54946,0)
GPGPU-Sim uArch: Shader 1 finished CTA #4 (55081,0), 5 CTAs running
GPGPU-Sim uArch: core:  1, cta: 4 initialized @(55082,0)
GPGPU-Sim PTX: 2000000 instructions simulated : ctaid=(11,14,0) tid=(15,9,0)
GPGPU-Sim uArch: Shader 6 finished CTA #4 (55260,0), 5 CTAs running
GPGPU-Sim uArch: core:  6, cta: 4 initialized @(55261,0)
GPGPU-Sim uArch: Shader 7 finished CTA #4 (55453,0), 5 CTAs running
GPGPU-Sim uArch: core:  7, cta: 4 initialized @(55454,0)
GPGPU-Sim uArch: Shader 4 finished CTA #0 (55457,0), 5 CTAs running
GPGPU-Sim uArch: core:  4, cta: 0 initialized @(55458,0)
GPGPU-Sim uArch: cycles simulated: 55500  inst.: 1946752 (ipc=35.1) sim_rate=41420 (inst/sec) elapsed = 0:0:00:47 / Tue Mar 22 12:57:18 2016
GPGPU-Sim uArch: Shader 8 finished CTA #4 (56232,0), 5 CTAs running
GPGPU-Sim uArch: core:  8, cta: 4 initialized @(56233,0)
GPGPU-Sim uArch: Shader 2 finished CTA #5 (56272,0), 5 CTAs running
GPGPU-Sim uArch: core:  2, cta: 5 initialized @(56273,0)
GPGPU-Sim uArch: Shader 8 finished CTA #5 (56344,0), 5 CTAs running
GPGPU-Sim uArch: core:  8, cta: 5 initialized @(56345,0)
GPGPU-Sim uArch: Shader 0 finished CTA #5 (56435,0), 5 CTAs running
GPGPU-Sim uArch: core:  0, cta: 5 initialized @(56436,0)
GPGPU-Sim uArch: cycles simulated: 56500  inst.: 1989024 (ipc=35.2) sim_rate=41438 (inst/sec) elapsed = 0:0:00:48 / Tue Mar 22 12:57:19 2016
GPGPU-Sim uArch: Shader 1 finished CTA #5 (56876,0), 5 CTAs running
GPGPU-Sim uArch: core:  1, cta: 5 initialized @(56877,0)
GPGPU-Sim uArch: Shader 13 finished CTA #4 (57046,0), 5 CTAs running
GPGPU-Sim uArch: core: 13, cta: 4 initialized @(57047,0)
GPGPU-Sim uArch: Shader 7 finished CTA #5 (57281,0), 5 CTAs running
GPGPU-Sim uArch: core:  7, cta: 5 initialized @(57282,0)
GPGPU-Sim uArch: cycles simulated: 57500  inst.: 2033920 (ipc=35.4) sim_rate=41508 (inst/sec) elapsed = 0:0:00:49 / Tue Mar 22 12:57:20 2016
GPGPU-Sim PTX: 2100000 instructions simulated : ctaid=(4,16,0) tid=(15,13,0)
GPGPU-Sim uArch: Shader 11 finished CTA #5 (57963,0), 5 CTAs running
GPGPU-Sim uArch: core: 11, cta: 5 initialized @(57964,0)
GPGPU-Sim uArch: Shader 3 finished CTA #5 (58175,0), 5 CTAs running
GPGPU-Sim uArch: core:  3, cta: 5 initialized @(58176,0)
GPGPU-Sim uArch: Shader 10 finished CTA #4 (58679,0), 5 CTAs running
GPGPU-Sim uArch: core: 10, cta: 4 initialized @(58680,0)
GPGPU-Sim uArch: Shader 10 finished CTA #5 (58700,0), 5 CTAs running
GPGPU-Sim uArch: core: 10, cta: 5 initialized @(58701,0)
GPGPU-Sim uArch: Shader 5 finished CTA #2 (58985,0), 5 CTAs running
GPGPU-Sim uArch: core:  5, cta: 2 initialized @(58986,0)
GPGPU-Sim uArch: cycles simulated: 59000  inst.: 2071840 (ipc=35.1) sim_rate=41436 (inst/sec) elapsed = 0:0:00:50 / Tue Mar 22 12:57:21 2016
GPGPU-Sim uArch: Shader 0 finished CTA #0 (60018,0), 5 CTAs running
GPGPU-Sim uArch: core:  0, cta: 0 initialized @(60019,0)
GPGPU-Sim uArch: Shader 2 finished CTA #0 (60165,0), 5 CTAs running
GPGPU-Sim uArch: core:  2, cta: 0 initialized @(60166,0)
GPGPU-Sim uArch: Shader 2 finished CTA #1 (60486,0), 5 CTAs running
GPGPU-Sim uArch: core:  2, cta: 1 initialized @(60487,0)
GPGPU-Sim uArch: cycles simulated: 60500  inst.: 2118144 (ipc=35.0) sim_rate=41532 (inst/sec) elapsed = 0:0:00:51 / Tue Mar 22 12:57:22 2016
GPGPU-Sim uArch: Shader 8 finished CTA #0 (60607,0), 5 CTAs running
GPGPU-Sim uArch: core:  8, cta: 0 initialized @(60608,0)
GPGPU-Sim uArch: Shader 9 finished CTA #4 (60734,0), 5 CTAs running
GPGPU-Sim uArch: core:  9, cta: 4 initialized @(60735,0)
GPGPU-Sim uArch: Shader 2 finished CTA #2 (60741,0), 5 CTAs running
GPGPU-Sim uArch: core:  2, cta: 2 initialized @(60742,0)
GPGPU-Sim uArch: Shader 6 finished CTA #5 (60835,0), 5 CTAs running
GPGPU-Sim uArch: core:  6, cta: 5 initialized @(60836,0)
GPGPU-Sim uArch: Shader 9 finished CTA #5 (60852,0), 5 CTAs running
GPGPU-Sim uArch: core:  9, cta: 5 initialized @(60853,0)
GPGPU-Sim PTX: 2200000 instructions simulated : ctaid=(1,17,0) tid=(15,13,0)
GPGPU-Sim uArch: cycles simulated: 61500  inst.: 2156416 (ipc=35.1) sim_rate=41469 (inst/sec) elapsed = 0:0:00:52 / Tue Mar 22 12:57:23 2016
GPGPU-Sim uArch: Shader 1 finished CTA #0 (61586,0), 5 CTAs running
GPGPU-Sim uArch: core:  1, cta: 0 initialized @(61587,0)
GPGPU-Sim uArch: Shader 12 finished CTA #4 (61694,0), 5 CTAs running
GPGPU-Sim uArch: core: 12, cta: 4 initialized @(61695,0)
GPGPU-Sim uArch: Shader 12 finished CTA #5 (61736,0), 5 CTAs running
GPGPU-Sim uArch: core: 12, cta: 5 initialized @(61737,0)
GPGPU-Sim uArch: Shader 14 finished CTA #5 (62095,0), 5 CTAs running
GPGPU-Sim uArch: core: 14, cta: 5 initialized @(62096,0)
GPGPU-Sim uArch: Shader 0 finished CTA #1 (62169,0), 5 CTAs running
GPGPU-Sim uArch: core:  0, cta: 1 initialized @(62170,0)
GPGPU-Sim uArch: Shader 8 finished CTA #1 (62497,0), 5 CTAs running
GPGPU-Sim uArch: core:  8, cta: 1 initialized @(62498,0)
GPGPU-Sim uArch: cycles simulated: 62500  inst.: 2218912 (ipc=35.5) sim_rate=41866 (inst/sec) elapsed = 0:0:00:53 / Tue Mar 22 12:57:24 2016
GPGPU-Sim uArch: Shader 10 finished CTA #0 (62641,0), 5 CTAs running
GPGPU-Sim uArch: core: 10, cta: 0 initialized @(62642,0)
GPGPU-Sim PTX: 2300000 instructions simulated : ctaid=(9,16,0) tid=(15,5,0)
GPGPU-Sim uArch: Shader 1 finished CTA #1 (63348,0), 5 CTAs running
GPGPU-Sim uArch: core:  1, cta: 1 initialized @(63349,0)
GPGPU-Sim uArch: cycles simulated: 63500  inst.: 2265760 (ipc=35.7) sim_rate=41958 (inst/sec) elapsed = 0:0:00:54 / Tue Mar 22 12:57:25 2016
GPGPU-Sim uArch: Shader 9 finished CTA #0 (63572,0), 5 CTAs running
GPGPU-Sim uArch: core:  9, cta: 0 initialized @(63573,0)
GPGPU-Sim uArch: Shader 3 finished CTA #0 (63754,0), 5 CTAs running
GPGPU-Sim uArch: core:  3, cta: 0 initialized @(63755,0)
GPGPU-Sim uArch: Shader 11 finished CTA #0 (63816,0), 5 CTAs running
GPGPU-Sim uArch: core: 11, cta: 0 initialized @(63817,0)
GPGPU-Sim uArch: Shader 13 finished CTA #5 (63853,0), 5 CTAs running
GPGPU-Sim uArch: core: 13, cta: 5 initialized @(63854,0)
GPGPU-Sim uArch: Shader 3 finished CTA #1 (63903,0), 5 CTAs running
GPGPU-Sim uArch: core:  3, cta: 1 initialized @(63904,0)
GPGPU-Sim uArch: Shader 7 finished CTA #0 (63945,0), 5 CTAs running
GPGPU-Sim uArch: core:  7, cta: 0 initialized @(63946,0)
GPGPU-Sim uArch: Shader 2 finished CTA #3 (64305,0), 5 CTAs running
GPGPU-Sim uArch: core:  2, cta: 3 initialized @(64306,0)
GPGPU-Sim PTX: 2400000 instructions simulated : ctaid=(1,18,0) tid=(15,13,0)
GPGPU-Sim uArch: cycles simulated: 64500  inst.: 2328448 (ipc=36.1) sim_rate=42335 (inst/sec) elapsed = 0:0:00:55 / Tue Mar 22 12:57:26 2016
GPGPU-Sim uArch: Shader 14 finished CTA #0 (64525,0), 5 CTAs running
GPGPU-Sim uArch: core: 14, cta: 0 initialized @(64526,0)
GPGPU-Sim uArch: Shader 12 finished CTA #0 (64732,0), 5 CTAs running
GPGPU-Sim uArch: core: 12, cta: 0 initialized @(64733,0)
GPGPU-Sim uArch: Shader 13 finished CTA #0 (65195,0), 5 CTAs running
GPGPU-Sim uArch: core: 13, cta: 0 initialized @(65196,0)
GPGPU-Sim uArch: Shader 0 finished CTA #2 (65232,0), 5 CTAs running
GPGPU-Sim uArch: core:  0, cta: 2 initialized @(65233,0)
GPGPU-Sim uArch: Shader 5 finished CTA #3 (65558,0), 5 CTAs running
GPGPU-Sim uArch: core:  5, cta: 3 initialized @(65559,0)
GPGPU-Sim uArch: Shader 11 finished CTA #1 (65743,0), 5 CTAs running
GPGPU-Sim uArch: core: 11, cta: 1 initialized @(65744,0)
GPGPU-Sim uArch: Shader 1 finished CTA #2 (65870,0), 5 CTAs running
GPGPU-Sim uArch: core:  1, cta: 2 initialized @(65871,0)
GPGPU-Sim uArch: Shader 10 finished CTA #1 (65943,0), 5 CTAs running
GPGPU-Sim uArch: core: 10, cta: 1 initialized @(65944,0)
GPGPU-Sim uArch: cycles simulated: 66000  inst.: 2381568 (ipc=36.1) sim_rate=42528 (inst/sec) elapsed = 0:0:00:56 / Tue Mar 22 12:57:27 2016
GPGPU-Sim uArch: Shader 9 finished CTA #1 (66281,0), 5 CTAs running
GPGPU-Sim uArch: core:  9, cta: 1 initialized @(66282,0)
GPGPU-Sim uArch: cycles simulated: 67000  inst.: 2406912 (ipc=35.9) sim_rate=42226 (inst/sec) elapsed = 0:0:00:57 / Tue Mar 22 12:57:28 2016
GPGPU-Sim uArch: Shader 2 finished CTA #4 (67041,0), 5 CTAs running
GPGPU-Sim uArch: core:  2, cta: 4 initialized @(67042,0)
GPGPU-Sim uArch: Shader 12 finished CTA #1 (67120,0), 5 CTAs running
GPGPU-Sim uArch: core: 12, cta: 1 initialized @(67121,0)
GPGPU-Sim uArch: Shader 7 finished CTA #1 (67224,0), 5 CTAs running
GPGPU-Sim uArch: core:  7, cta: 1 initialized @(67225,0)
GPGPU-Sim PTX: 2500000 instructions simulated : ctaid=(9,18,0) tid=(15,3,0)
GPGPU-Sim uArch: Shader 3 finished CTA #2 (67285,0), 5 CTAs running
GPGPU-Sim uArch: core:  3, cta: 2 initialized @(67286,0)
GPGPU-Sim uArch: Shader 4 finished CTA #1 (67293,0), 5 CTAs running
GPGPU-Sim uArch: core:  4, cta: 1 initialized @(67294,0)
GPGPU-Sim uArch: Shader 6 finished CTA #0 (67354,0), 5 CTAs running
GPGPU-Sim uArch: core:  6, cta: 0 initialized @(67355,0)
GPGPU-Sim uArch: Shader 0 finished CTA #3 (67492,0), 5 CTAs running
GPGPU-Sim uArch: core:  0, cta: 3 initialized @(67493,0)
GPGPU-Sim uArch: Shader 2 finished CTA #5 (67545,0), 5 CTAs running
GPGPU-Sim uArch: core:  2, cta: 5 initialized @(67546,0)
GPGPU-Sim uArch: Shader 6 finished CTA #1 (67558,0), 5 CTAs running
GPGPU-Sim uArch: core:  6, cta: 1 initialized @(67559,0)
GPGPU-Sim uArch: Shader 14 finished CTA #1 (67716,0), 5 CTAs running
GPGPU-Sim uArch: core: 14, cta: 1 initialized @(67717,0)
GPGPU-Sim uArch: Shader 13 finished CTA #1 (67816,0), 5 CTAs running
GPGPU-Sim uArch: core: 13, cta: 1 initialized @(67817,0)
GPGPU-Sim uArch: cycles simulated: 68000  inst.: 2462752 (ipc=36.2) sim_rate=42461 (inst/sec) elapsed = 0:0:00:58 / Tue Mar 22 12:57:29 2016
GPGPU-Sim uArch: Shader 10 finished CTA #2 (68152,0), 5 CTAs running
GPGPU-Sim uArch: core: 10, cta: 2 initialized @(68153,0)
GPGPU-Sim uArch: Shader 1 finished CTA #3 (68289,0), 5 CTAs running
GPGPU-Sim uArch: core:  1, cta: 3 initialized @(68290,0)
GPGPU-Sim uArch: Shader 7 finished CTA #2 (68610,0), 5 CTAs running
GPGPU-Sim uArch: core:  7, cta: 2 initialized @(68611,0)
GPGPU-Sim uArch: Shader 11 finished CTA #2 (68851,0), 5 CTAs running
GPGPU-Sim uArch: core: 11, cta: 2 initialized @(68852,0)
GPGPU-Sim uArch: Shader 2 finished CTA #1 (68987,0), 5 CTAs running
GPGPU-Sim uArch: core:  2, cta: 1 initialized @(68988,0)
GPGPU-Sim uArch: cycles simulated: 69000  inst.: 2505024 (ipc=36.3) sim_rate=42458 (inst/sec) elapsed = 0:0:00:59 / Tue Mar 22 12:57:30 2016
GPGPU-Sim uArch: Shader 2 finished CTA #0 (69101,0), 5 CTAs running
GPGPU-Sim uArch: core:  2, cta: 0 initialized @(69102,0)
GPGPU-Sim uArch: Shader 9 finished CTA #2 (69213,0), 5 CTAs running
GPGPU-Sim uArch: core:  9, cta: 2 initialized @(69214,0)
GPGPU-Sim uArch: Shader 8 finished CTA #2 (69221,0), 5 CTAs running
GPGPU-Sim uArch: core:  8, cta: 2 initialized @(69222,0)
GPGPU-Sim PTX: 2600000 instructions simulated : ctaid=(15,16,0) tid=(15,3,0)
GPGPU-Sim uArch: Shader 14 finished CTA #2 (69344,0), 5 CTAs running
GPGPU-Sim uArch: core: 14, cta: 2 initialized @(69345,0)
GPGPU-Sim uArch: Shader 2 finished CTA #2 (69602,0), 5 CTAs running
GPGPU-Sim uArch: core:  2, cta: 2 initialized @(69603,0)
GPGPU-Sim uArch: Shader 6 finished CTA #2 (69902,0), 5 CTAs running
GPGPU-Sim uArch: core:  6, cta: 2 initialized @(69903,0)
GPGPU-Sim uArch: Shader 0 finished CTA #4 (69946,0), 5 CTAs running
GPGPU-Sim uArch: core:  0, cta: 4 initialized @(69947,0)
GPGPU-Sim uArch: cycles simulated: 70000  inst.: 2570912 (ipc=36.7) sim_rate=42848 (inst/sec) elapsed = 0:0:01:00 / Tue Mar 22 12:57:31 2016
GPGPU-Sim uArch: Shader 3 finished CTA #3 (70174,0), 5 CTAs running
GPGPU-Sim uArch: core:  3, cta: 3 initialized @(70175,0)
GPGPU-Sim uArch: Shader 12 finished CTA #2 (70383,0), 5 CTAs running
GPGPU-Sim uArch: core: 12, cta: 2 initialized @(70384,0)
GPGPU-Sim uArch: Shader 5 finished CTA #4 (70460,0), 5 CTAs running
GPGPU-Sim uArch: core:  5, cta: 4 initialized @(70461,0)
GPGPU-Sim PTX: 2700000 instructions simulated : ctaid=(0,19,0) tid=(15,1,0)
GPGPU-Sim uArch: Shader 10 finished CTA #3 (70688,0), 5 CTAs running
GPGPU-Sim uArch: core: 10, cta: 3 initialized @(70689,0)
GPGPU-Sim uArch: Shader 4 finished CTA #2 (70709,0), 5 CTAs running
GPGPU-Sim uArch: core:  4, cta: 2 initialized @(70710,0)
GPGPU-Sim uArch: Shader 0 finished CTA #5 (70738,0), 5 CTAs running
GPGPU-Sim uArch: core:  0, cta: 5 initialized @(70739,0)
GPGPU-Sim uArch: Shader 2 finished CTA #3 (70850,0), 5 CTAs running
GPGPU-Sim uArch: core:  2, cta: 3 initialized @(70851,0)
GPGPU-Sim uArch: Shader 1 finished CTA #4 (70969,0), 5 CTAs running
GPGPU-Sim uArch: core:  1, cta: 4 initialized @(70970,0)
GPGPU-Sim uArch: cycles simulated: 71000  inst.: 2642560 (ipc=37.2) sim_rate=43320 (inst/sec) elapsed = 0:0:01:01 / Tue Mar 22 12:57:32 2016
GPGPU-Sim uArch: Shader 7 finished CTA #3 (71024,0), 5 CTAs running
GPGPU-Sim uArch: core:  7, cta: 3 initialized @(71025,0)
GPGPU-Sim uArch: Shader 14 finished CTA #3 (71134,0), 5 CTAs running
GPGPU-Sim uArch: core: 14, cta: 3 initialized @(71135,0)
GPGPU-Sim uArch: Shader 5 finished CTA #5 (71383,0), 5 CTAs running
GPGPU-Sim uArch: core:  5, cta: 5 initialized @(71384,0)
GPGPU-Sim uArch: Shader 11 finished CTA #3 (71385,0), 5 CTAs running
GPGPU-Sim uArch: core: 11, cta: 3 initialized @(71386,0)
GPGPU-Sim uArch: Shader 4 finished CTA #3 (71424,0), 5 CTAs running
GPGPU-Sim uArch: core:  4, cta: 3 initialized @(71425,0)
GPGPU-Sim uArch: Shader 6 finished CTA #3 (71696,0), 5 CTAs running
GPGPU-Sim uArch: core:  6, cta: 3 initialized @(71697,0)
GPGPU-Sim uArch: Shader 5 finished CTA #0 (71805,0), 5 CTAs running
GPGPU-Sim uArch: core:  5, cta: 0 initialized @(71806,0)
GPGPU-Sim uArch: cycles simulated: 72000  inst.: 2690496 (ipc=37.4) sim_rate=43395 (inst/sec) elapsed = 0:0:01:02 / Tue Mar 22 12:57:33 2016
GPGPU-Sim uArch: Shader 5 finished CTA #1 (72145,0), 5 CTAs running
GPGPU-Sim uArch: core:  5, cta: 1 initialized @(72146,0)
GPGPU-Sim uArch: Shader 1 finished CTA #5 (72165,0), 5 CTAs running
GPGPU-Sim uArch: core:  1, cta: 5 initialized @(72166,0)
GPGPU-Sim uArch: Shader 8 finished CTA #3 (72177,0), 5 CTAs running
GPGPU-Sim uArch: core:  8, cta: 3 initialized @(72178,0)
GPGPU-Sim uArch: Shader 12 finished CTA #3 (72399,0), 5 CTAs running
GPGPU-Sim uArch: core: 12, cta: 3 initialized @(72400,0)
GPGPU-Sim uArch: Shader 0 finished CTA #0 (72402,0), 5 CTAs running
GPGPU-Sim uArch: core:  0, cta: 0 initialized @(72403,0)
GPGPU-Sim uArch: Shader 14 finished CTA #4 (72455,0), 5 CTAs running
GPGPU-Sim uArch: core: 14, cta: 4 initialized @(72456,0)
GPGPU-Sim uArch: Shader 4 finished CTA #4 (72511,0), 5 CTAs running
GPGPU-Sim uArch: core:  4, cta: 4 initialized @(72512,0)
GPGPU-Sim uArch: Shader 9 finished CTA #3 (72521,0), 5 CTAs running
GPGPU-Sim uArch: core:  9, cta: 3 initialized @(72522,0)
GPGPU-Sim PTX: 2800000 instructions simulated : ctaid=(2,18,0) tid=(15,3,0)
GPGPU-Sim uArch: Shader 2 finished CTA #4 (72745,0), 5 CTAs running
GPGPU-Sim uArch: core:  2, cta: 4 initialized @(72746,0)
GPGPU-Sim uArch: cycles simulated: 73000  inst.: 2727168 (ipc=37.4) sim_rate=43288 (inst/sec) elapsed = 0:0:01:03 / Tue Mar 22 12:57:34 2016
GPGPU-Sim uArch: Shader 3 finished CTA #4 (73766,0), 5 CTAs running
GPGPU-Sim uArch: core:  3, cta: 4 initialized @(73767,0)
GPGPU-Sim uArch: cycles simulated: 74000  inst.: 2768512 (ipc=37.4) sim_rate=43258 (inst/sec) elapsed = 0:0:01:04 / Tue Mar 22 12:57:35 2016
GPGPU-Sim uArch: Shader 11 finished CTA #4 (74074,0), 5 CTAs running
GPGPU-Sim uArch: core: 11, cta: 4 initialized @(74075,0)
GPGPU-Sim uArch: Shader 13 finished CTA #2 (74372,0), 5 CTAs running
GPGPU-Sim uArch: core: 13, cta: 2 initialized @(74373,0)
GPGPU-Sim uArch: Shader 5 finished CTA #2 (74763,0), 5 CTAs running
GPGPU-Sim uArch: core:  5, cta: 2 initialized @(74764,0)
GPGPU-Sim uArch: Shader 7 finished CTA #4 (74932,0), 5 CTAs running
GPGPU-Sim uArch: core:  7, cta: 4 initialized @(74933,0)
GPGPU-Sim uArch: Shader 10 finished CTA #4 (74980,0), 5 CTAs running
GPGPU-Sim uArch: core: 10, cta: 4 initialized @(74981,0)
GPGPU-Sim uArch: cycles simulated: 75000  inst.: 2795040 (ipc=37.3) sim_rate=43000 (inst/sec) elapsed = 0:0:01:05 / Tue Mar 22 12:57:36 2016
GPGPU-Sim uArch: Shader 4 finished CTA #5 (75094,0), 5 CTAs running
GPGPU-Sim uArch: core:  4, cta: 5 initialized @(75095,0)
GPGPU-Sim uArch: Shader 1 finished CTA #0 (75192,0), 5 CTAs running
GPGPU-Sim uArch: core:  1, cta: 0 initialized @(75193,0)
GPGPU-Sim PTX: 2900000 instructions simulated : ctaid=(0,21,0) tid=(15,9,0)
GPGPU-Sim uArch: Shader 4 finished CTA #0 (75552,0), 5 CTAs running
GPGPU-Sim uArch: core:  4, cta: 0 initialized @(75553,0)
GPGPU-Sim uArch: Shader 13 finished CTA #3 (75902,0), 5 CTAs running
GPGPU-Sim uArch: core: 13, cta: 3 initialized @(75903,0)
GPGPU-Sim uArch: cycles simulated: 76000  inst.: 2842496 (ipc=37.4) sim_rate=43068 (inst/sec) elapsed = 0:0:01:06 / Tue Mar 22 12:57:37 2016
GPGPU-Sim uArch: Shader 3 finished CTA #5 (76428,0), 5 CTAs running
GPGPU-Sim uArch: core:  3, cta: 5 initialized @(76429,0)
GPGPU-Sim uArch: Shader 8 finished CTA #4 (76579,0), 5 CTAs running
GPGPU-Sim uArch: core:  8, cta: 4 initialized @(76580,0)
GPGPU-Sim uArch: Shader 0 finished CTA #1 (76652,0), 5 CTAs running
GPGPU-Sim uArch: core:  0, cta: 1 initialized @(76653,0)
GPGPU-Sim uArch: Shader 11 finished CTA #5 (76822,0), 5 CTAs running
GPGPU-Sim uArch: core: 11, cta: 5 initialized @(76823,0)
GPGPU-Sim uArch: cycles simulated: 77000  inst.: 2887200 (ipc=37.5) sim_rate=43092 (inst/sec) elapsed = 0:0:01:07 / Tue Mar 22 12:57:38 2016
GPGPU-Sim PTX: 3000000 instructions simulated : ctaid=(4,21,0) tid=(15,9,0)
GPGPU-Sim uArch: Shader 5 finished CTA #3 (77812,0), 5 CTAs running
GPGPU-Sim uArch: core:  5, cta: 3 initialized @(77813,0)
GPGPU-Sim uArch: Shader 2 finished CTA #5 (77965,0), 5 CTAs running
GPGPU-Sim uArch: core:  2, cta: 5 initialized @(77966,0)
GPGPU-Sim uArch: cycles simulated: 78000  inst.: 2916992 (ipc=37.4) sim_rate=42896 (inst/sec) elapsed = 0:0:01:08 / Tue Mar 22 12:57:39 2016
GPGPU-Sim uArch: Shader 13 finished CTA #4 (78228,0), 5 CTAs running
GPGPU-Sim uArch: core: 13, cta: 4 initialized @(78229,0)
GPGPU-Sim uArch: Shader 5 finished CTA #4 (78298,0), 5 CTAs running
GPGPU-Sim uArch: core:  5, cta: 4 initialized @(78299,0)
GPGPU-Sim uArch: Shader 5 finished CTA #5 (78323,0), 5 CTAs running
GPGPU-Sim uArch: core:  5, cta: 5 initialized @(78324,0)
GPGPU-Sim uArch: Shader 4 finished CTA #1 (78856,0), 5 CTAs running
GPGPU-Sim uArch: core:  4, cta: 1 initialized @(78857,0)
GPGPU-Sim uArch: cycles simulated: 79000  inst.: 2967040 (ipc=37.6) sim_rate=43000 (inst/sec) elapsed = 0:0:01:09 / Tue Mar 22 12:57:40 2016
GPGPU-Sim uArch: Shader 8 finished CTA #5 (79277,0), 5 CTAs running
GPGPU-Sim uArch: core:  8, cta: 5 initialized @(79278,0)
GPGPU-Sim uArch: Shader 3 finished CTA #0 (79303,0), 5 CTAs running
GPGPU-Sim uArch: core:  3, cta: 0 initialized @(79304,0)
GPGPU-Sim uArch: Shader 10 finished CTA #5 (79419,0), 5 CTAs running
GPGPU-Sim uArch: core: 10, cta: 5 initialized @(79420,0)
GPGPU-Sim uArch: Shader 12 finished CTA #4 (79762,0), 5 CTAs running
GPGPU-Sim uArch: core: 12, cta: 4 initialized @(79763,0)
GPGPU-Sim uArch: Shader 11 finished CTA #0 (79808,0), 5 CTAs running
GPGPU-Sim uArch: core: 11, cta: 0 initialized @(79809,0)
GPGPU-Sim uArch: Shader 2 finished CTA #1 (79902,0), 5 CTAs running
GPGPU-Sim uArch: core:  2, cta: 1 initialized @(79903,0)
GPGPU-Sim uArch: Shader 8 finished CTA #0 (80191,0), 5 CTAs running
GPGPU-Sim uArch: core:  8, cta: 0 initialized @(80192,0)
GPGPU-Sim uArch: Shader 4 finished CTA #2 (80359,0), 5 CTAs running
GPGPU-Sim uArch: core:  4, cta: 2 initialized @(80360,0)
GPGPU-Sim uArch: cycles simulated: 80500  inst.: 3002400 (ipc=37.3) sim_rate=42891 (inst/sec) elapsed = 0:0:01:10 / Tue Mar 22 12:57:41 2016
GPGPU-Sim PTX: 3100000 instructions simulated : ctaid=(2,23,0) tid=(15,9,0)
GPGPU-Sim uArch: Shader 0 finished CTA #2 (81065,0), 5 CTAs running
GPGPU-Sim uArch: core:  0, cta: 2 initialized @(81066,0)
GPGPU-Sim uArch: Shader 3 finished CTA #1 (81310,0), 5 CTAs running
GPGPU-Sim uArch: core:  3, cta: 1 initialized @(81311,0)
GPGPU-Sim uArch: cycles simulated: 81500  inst.: 3022112 (ipc=37.1) sim_rate=42564 (inst/sec) elapsed = 0:0:01:11 / Tue Mar 22 12:57:42 2016
GPGPU-Sim uArch: Shader 6 finished CTA #4 (81863,0), 5 CTAs running
GPGPU-Sim uArch: core:  6, cta: 4 initialized @(81864,0)
GPGPU-Sim uArch: Shader 9 finished CTA #4 (82209,0), 5 CTAs running
GPGPU-Sim uArch: core:  9, cta: 4 initialized @(82210,0)
GPGPU-Sim uArch: Shader 14 finished CTA #5 (82599,0), 5 CTAs running
GPGPU-Sim uArch: core: 14, cta: 5 initialized @(82600,0)
GPGPU-Sim PTX: 3200000 instructions simulated : ctaid=(3,23,0) tid=(15,5,0)
GPGPU-Sim uArch: Shader 6 finished CTA #5 (82907,0), 5 CTAs running
GPGPU-Sim uArch: core:  6, cta: 5 initialized @(82908,0)
GPGPU-Sim uArch: Shader 9 finished CTA #0 (82913,0), 5 CTAs running
GPGPU-Sim uArch: core:  9, cta: 0 initialized @(82914,0)
GPGPU-Sim uArch: cycles simulated: 83000  inst.: 3123616 (ipc=37.6) sim_rate=43383 (inst/sec) elapsed = 0:0:01:12 / Tue Mar 22 12:57:43 2016
GPGPU-Sim uArch: Shader 10 finished CTA #0 (83196,0), 5 CTAs running
GPGPU-Sim uArch: core: 10, cta: 0 initialized @(83197,0)
GPGPU-Sim uArch: Shader 9 finished CTA #5 (83269,0), 5 CTAs running
GPGPU-Sim uArch: core:  9, cta: 5 initialized @(83270,0)
GPGPU-Sim uArch: Shader 2 finished CTA #0 (83307,0), 5 CTAs running
GPGPU-Sim uArch: core:  2, cta: 0 initialized @(83308,0)
GPGPU-Sim uArch: Shader 9 finished CTA #1 (83331,0), 5 CTAs running
GPGPU-Sim uArch: core:  9, cta: 1 initialized @(83332,0)
GPGPU-Sim uArch: Shader 14 finished CTA #0 (83474,0), 5 CTAs running
GPGPU-Sim uArch: core: 14, cta: 0 initialized @(83475,0)
GPGPU-Sim uArch: Shader 9 finished CTA #2 (83563,0), 5 CTAs running
GPGPU-Sim uArch: core:  9, cta: 2 initialized @(83564,0)
GPGPU-Sim uArch: Shader 14 finished CTA #1 (83691,0), 5 CTAs running
GPGPU-Sim uArch: core: 14, cta: 1 initialized @(83692,0)
GPGPU-Sim uArch: cycles simulated: 84000  inst.: 3168672 (ipc=37.7) sim_rate=43406 (inst/sec) elapsed = 0:0:01:13 / Tue Mar 22 12:57:44 2016
GPGPU-Sim uArch: Shader 14 finished CTA #2 (84056,0), 5 CTAs running
GPGPU-Sim uArch: core: 14, cta: 2 initialized @(84057,0)
GPGPU-Sim uArch: Shader 12 finished CTA #5 (84168,0), 5 CTAs running
GPGPU-Sim uArch: core: 12, cta: 5 initialized @(84169,0)
GPGPU-Sim uArch: Shader 7 finished CTA #5 (84286,0), 5 CTAs running
GPGPU-Sim uArch: core:  7, cta: 5 initialized @(84287,0)
GPGPU-Sim uArch: Shader 7 finished CTA #0 (84537,0), 5 CTAs running
GPGPU-Sim uArch: core:  7, cta: 0 initialized @(84538,0)
GPGPU-Sim uArch: Shader 7 finished CTA #1 (84682,0), 5 CTAs running
GPGPU-Sim uArch: core:  7, cta: 1 initialized @(84683,0)
GPGPU-Sim uArch: Shader 6 finished CTA #0 (84853,0), 5 CTAs running
GPGPU-Sim uArch: core:  6, cta: 0 initialized @(84854,0)
GPGPU-Sim uArch: Shader 10 finished CTA #1 (84984,0), 5 CTAs running
GPGPU-Sim uArch: core: 10, cta: 1 initialized @(84985,0)
GPGPU-Sim PTX: 3300000 instructions simulated : ctaid=(10,21,0) tid=(15,3,0)
GPGPU-Sim uArch: Shader 7 finished CTA #2 (85415,0), 5 CTAs running
GPGPU-Sim uArch: core:  7, cta: 2 initialized @(85416,0)
GPGPU-Sim uArch: cycles simulated: 85500  inst.: 3210400 (ipc=37.5) sim_rate=43383 (inst/sec) elapsed = 0:0:01:14 / Tue Mar 22 12:57:45 2016
GPGPU-Sim uArch: Shader 13 finished CTA #5 (85544,0), 5 CTAs running
GPGPU-Sim uArch: core: 13, cta: 5 initialized @(85545,0)
GPGPU-Sim uArch: Shader 11 finished CTA #1 (85859,0), 5 CTAs running
GPGPU-Sim uArch: core: 11, cta: 1 initialized @(85860,0)
GPGPU-Sim uArch: Shader 8 finished CTA #1 (85881,0), 5 CTAs running
GPGPU-Sim uArch: core:  8, cta: 1 initialized @(85882,0)
GPGPU-Sim uArch: Shader 8 finished CTA #2 (86041,0), 5 CTAs running
GPGPU-Sim uArch: core:  8, cta: 2 initialized @(86042,0)
GPGPU-Sim uArch: Shader 1 finished CTA #1 (86723,0), 5 CTAs running
GPGPU-Sim uArch: core:  1, cta: 1 initialized @(86724,0)
GPGPU-Sim uArch: Shader 1 finished CTA #2 (86950,0), 5 CTAs running
GPGPU-Sim uArch: core:  1, cta: 2 initialized @(86951,0)
GPGPU-Sim uArch: Shader 10 finished CTA #2 (86984,0), 5 CTAs running
GPGPU-Sim uArch: core: 10, cta: 2 initialized @(86985,0)
GPGPU-Sim uArch: cycles simulated: 87000  inst.: 3261280 (ipc=37.5) sim_rate=43483 (inst/sec) elapsed = 0:0:01:15 / Tue Mar 22 12:57:46 2016
GPGPU-Sim uArch: Shader 0 finished CTA #3 (87116,0), 5 CTAs running
GPGPU-Sim uArch: core:  0, cta: 3 initialized @(87117,0)
GPGPU-Sim uArch: Shader 12 finished CTA #0 (87271,0), 5 CTAs running
GPGPU-Sim uArch: core: 12, cta: 0 initialized @(87272,0)
GPGPU-Sim uArch: Shader 12 finished CTA #1 (87573,0), 5 CTAs running
GPGPU-Sim uArch: core: 12, cta: 1 initialized @(87574,0)
GPGPU-Sim uArch: Shader 7 finished CTA #3 (87777,0), 5 CTAs running
GPGPU-Sim uArch: core:  7, cta: 3 initialized @(87778,0)
GPGPU-Sim uArch: Shader 1 finished CTA #3 (87895,0), 5 CTAs running
GPGPU-Sim uArch: core:  1, cta: 3 initialized @(87896,0)
GPGPU-Sim PTX: 3400000 instructions simulated : ctaid=(4,25,0) tid=(15,13,0)
GPGPU-Sim uArch: Shader 13 finished CTA #0 (88296,0), 5 CTAs running
GPGPU-Sim uArch: core: 13, cta: 0 initialized @(88297,0)
GPGPU-Sim uArch: Shader 3 finished CTA #2 (88325,0), 5 CTAs running
GPGPU-Sim uArch: core:  3, cta: 2 initialized @(88326,0)
GPGPU-Sim uArch: cycles simulated: 88500  inst.: 3313728 (ipc=37.4) sim_rate=43601 (inst/sec) elapsed = 0:0:01:16 / Tue Mar 22 12:57:47 2016
GPGPU-Sim uArch: Shader 6 finished CTA #1 (88656,0), 5 CTAs running
GPGPU-Sim uArch: core:  6, cta: 1 initialized @(88657,0)
GPGPU-Sim uArch: Shader 11 finished CTA #2 (89126,0), 5 CTAs running
GPGPU-Sim uArch: core: 11, cta: 2 initialized @(89127,0)
[...]
maxdqlatency = 0 
maxmflatency = 2368 
averagemflatency = 710 
max_icnt2mem_latency = 2076 
max_icnt2sh_latency = 1041336 
mrq_lat_table:272370 	12912 	17755 	61135 	204829 	234550 	218002 	53738 	417 	0 	0 	0 	0 	0 	0 	0 	0 	0 	0 	0 	0 	0 	0 	0 	0 	0 	0 	0 	0 	0 	0 	0 	
dq_lat_table:0 	0 	0 	0 	0 	0 	0 	0 	0 	0 	0 	0 	0 	0 	0 	0 	0 	0 	0 	0 	0 	0 	0 	0 	0 	0 	0 	0 	0 	0 	0 	0 	
mf_lat_table:0 	0 	0 	0 	0 	0 	0 	34282 	201817 	340786 	141272 	9 	0 	0 	0 	0 	0 	0 	0 	0 	0 	0 	0 	0 	0 	0 	0 	0 	0 	0 	0 	0 	
icnt2mem_lat_table:0 	0 	0 	19398 	9576 	134778 	64538 	63340 	204019 	218149 	4457 	1 	0 	0 	0 	0 	0 	0 	0 	0 	0 	0 	0 	0 	
icnt2sh_lat_table:0 	0 	0 	48952 	53082 	23186 	3092 	30 	0 	0 	3 	539 	1055 	2463 	7590 	18973 	39672 	82338 	163863 	273328 	0 	0 	0 	0 	
mf_lat_pw_table:0 	0 	0 	0 	0 	0 	0 	1 	57 	1925 	97 	0 	0 	0 	0 	0 	0 	0 	0 	0 	0 	0 	0 	0 	0 	0 	0 	0 	0 	0 	0 	0 	
maximum concurrent accesses to same row:
dram[0]:        30        30        32        32        32        32        32        32        32        32        29        29        32        32        32        32 
dram[1]:        32        32        32        30        32        32        32        32        31        32        32        32        32        32        32        32 
dram[2]:        32        30        32        32        32        32        32        32        32        32        32        29        32        32        32        32 
dram[3]:        32        32        30        32        32        32        32        32        32        32        32        32        32        32        32        32 
dram[4]:        25        29        32        32        32        32        32        32        32        32        29        32        32        32        32        32 
dram[5]:        32        32        32        30        32        32        32        32        30        32        32        32        32        32        32        32 
maximum service time to same row:
dram[0]:     26152     34357     26516     34349     26182     32675     27066     31188     25217     24853     26847     31197     25487     32847     26139     32838 
dram[1]:     27241     45747     26921     45738     23840     44114     24966     44093     24245     28854     24621     30731     25416     40757     27313     47918 
dram[2]:     33781     27473     34352     26927     32677     26209     31189     26253     24463     25343     31199     25694     32850     26138     32841     26127 
dram[3]:     45750     26894     45741     27690     44122     23913     44093     23928     28856     24270     30732     24332     40759     24350     47921     27256 
dram[4]:     26160     34354     26927     34346     26192     31212     26192     31178     25319     24720     23438     31209     26167     32844     25478     32835 
dram[5]:     27636     45744     27661     45735     25078     44112     24379     44085     23928     25808     24327     30793     24904     40765     27285     47915 
average row accesses per activate:
dram[0]:  2.185787  2.188999  2.164845  2.162676  2.184705  2.183283  2.177444  2.209347  2.167658  2.184361  2.197494  2.206108  2.214599  2.208194  2.219527  2.194566 
dram[1]:  2.161442  2.167889  2.165433  2.182148  2.159159  2.189780  2.178118  2.211346  2.169390  2.205545  2.181546  2.194283  2.197017  2.209933  2.189465  2.185994 
dram[2]:  2.192946  2.173489  2.170732  2.170064  2.184610  2.171767  2.205474  2.182435  2.179760  2.161891  2.214228  2.223147  2.198290  2.214390  2.197262  2.203031 
dram[3]:  2.166352  2.159423  2.178640  2.172453  2.187287  2.181818  2.194587  2.188744  2.195813  2.183654  2.197479  2.175229  2.215288  2.201511  2.198133  2.194543 
dram[4]:  2.183789  2.196699  2.166321  2.175405  2.176438  2.178476  2.180026  2.210282  2.173605  2.181507  2.192761  2.196392  2.215063  2.207314  2.216719  2.204844 
dram[5]:  2.161266  2.168020  2.181349  2.176201  2.161525  2.180616  2.183751  2.212040  2.175066  2.205010  2.163846  2.208671  2.186342  2.213957  2.189709  2.197057 
average row locality = 1075708/491740 = 2.187554
number of total memory accesses made:
dram[0]:         0         0         0         0         0         0         0         0         0         0         0         0         0         0         0         0 
dram[1]:         0         0         0         0         0         0         0         0         0         0         0         0         0         0         0         0 
dram[2]:         0         0         0         0         0         0         0         0         0         0         0         0         0         0         0         0 
dram[3]:         0         0         0         0         0         0         0         0         0         0         0         0         0         0         0         0 
dram[4]:         0         0         0         0         0         0         0         0         0         0         0         0         0         0         0         0 
dram[5]:         0         0         0         0         0         0         0         0         0         0         0         0         0         0         0         0 
total accesses: 0
min_bank_accesses = 0!
min_chip_accesses = 0!
number of total read accesses:
dram[0]:      5435      5376      5385      5303      5464      5392      5464      5359      5516      5393      5259      5157      5034      4998      5058      5011 
dram[1]:      5379      5411      5315      5332      5433      5403      5387      5377      5442      5426      5157      5216      4935      5038      4949      5062 
dram[2]:      5381      5436      5294      5397      5403      5442      5360      5456      5377      5495      5150      5195      4979      5038      5016      5053 
dram[3]:      5388      5376      5330      5329      5417      5390      5393      5418      5425      5439      5219      5154      5033      4940      5047      4963 
dram[4]:      5434      5335      5386      5308      5484      5327      5468      5351      5503      5385      5204      5105      5039      4986      5052      4992 
dram[5]:      5386      5386      5312      5327      5405      5419      5387      5418      5446      5432      5133      5175      4949      5047      4934      5050 
total reads: 506164
bank skew: 5516/4934 = 1.12
chip skew: 84604/84206 = 1.00
number of total write accesses:
dram[0]:      6130      6125      6106      6077      6163      6127      6120      6081      6146      6088      5790      5750      5554      5566      5558      5569 
dram[1]:      6135      6120      6099      6085      6166      6124      6120      6122      6110      6109      5790      5762      5525      5552      5567      5551 
dram[2]:      6121      6140      6098      6100      6123      6127      6082      6124      6082      6123      5775      5754      5564      5549      5577      5559 
dram[3]:      6098      6151      6073      6122      6145      6154      6122      6132      6114      6130      5764      5770      5545      5548      5548      5573 
dram[4]:      6151      6112      6102      6102      6173      6110      6145      6085      6141      6081      5762      5732      5549      5576      5555      5567 
dram[5]:      6153      6098      6103      6085      6157      6123      6117      6120      6121      6098      5736      5727      5552      5549      5535      5553 
total reads: 569544
bank skew: 6173/5525 = 1.12
chip skew: 94989/94827 = 1.00
average mf latency per bank:
dram[0]:        468       468       469       478       470       471       476       478       475       481       469       471       474       479       474       479
dram[1]:        481       470       475       468       479       471       491       480       487       471       486       480       482       473       476       473
dram[2]:        465       478       473       481       470       482       473       485       473       486       471       480       477       485       476       487
dram[3]:        471       470       469       462       471       467       481       475       471       474       475       474       474       469       475       466
dram[4]:        472       463       477       469       480       465       479       469       481       469       474       464       480       469       480       470
dram[5]:        467       470       463       467       465       473       477       479       472       470       472       475       466       472       465       474
maximum mf latency per bank:
dram[0]:       1741      1677      1834      1740      1780      1791      1905      1756      1767      1632      1763      1717      1878      1636      2043      1710
dram[1]:       1794      1614      1771      1540      1737      1597      1761      1511      2368      1594      1714      1555      1612      1543      1614      1699
dram[2]:       1681      1932      1741      1787      1745      1867      1633      1882      1614      1869      1559      1958      1633      2014      1778      2050
dram[3]:       1612      1664      1644      1740      1570      1780      1705      1790      1612      2159      1567      1618      1515      1656      1655      1652
dram[4]:       1827      1564      1772      1739      1750      1607      1896      1518      1787      1681      1849      1536      1799      1676      2065      1548
dram[5]:       1610      1638      1703      1596      1738      1596      1731      1668      2242      1655      1594      1591      1594      1545      1672      1688

Number of Memory Banks Accessed per Memory Operation per Warp (from 0):
0	0	0	0	0	0	0	0	0	0	0	0	0	0	0	0	0	0	0	0	0	0	0	0	0	0	0	0	0	0	0	0	0	0	0	0	0	0	0	0	0	0	0	0	0	0	0	0	0	0	0	0	0	0	0	0	0	0	0	0	0	0	0	0	0	0	0	0	0	0	0	0	0	0	0	0	0	0	0	0	0	0	0	0	0	0	0	0	0	0	0	0	0	0	0	0	
Average # of Memory Banks Accessed per Memory Operation per Warp=-nan

position of mrq chosen
0	0	0	0	0	0	0	0	0	0	0	0	0	0	0	0	

average position of mrq chosen = -nan
Memory Partition 0: 
Cache L2_bank_000:
MSHR contents

Cache L2_bank_001:
MSHR contents

In Dram Latency Queue (total = 0): 
DRAM[0]: 16 bks, busW=4 BL=8 CL=12, tRRD=2 tCCD=6, tRCD=12 tRAS=28 tRP=12 tRC=40
n_cmd=1374563 n_nop=941219 n_act=81989 n_pre=81973 n_req=179554 n_rd=169208 n_write=100174 bw_util=0.392
n_activity=1150018 dram_eff=0.4685
bk0: 10870a 1017423i bk1: 10752a 1020452i bk2: 10770a 1010520i bk3: 10606a 1010747i bk4: 10928a 1001475i bk5: 10784a 1005209i bk6: 10928a 995813i bk7: 10718a 1000419i bk8: 11032a 1011385i bk9: 10786a 1014259i bk10: 10518a 1026792i bk11: 10314a 1030952i bk12: 10068a 1033377i bk13: 9996a 1030727i bk14: 10116a 1031093i bk15: 10022a 1026826i 
dram_util_bins: 0 0 0 0 0 0 0 0 0 0
dram_eff_bins: 0 0 0 0 0 0 0 0 0 0
mrqq: max=16 avg=6.92881
Memory Partition 1: 
Cache L2_bank_002:
MSHR contents

Cache L2_bank_003:
MSHR contents
MSHR: tag=0x80767f80, atomic=0 1 entries : 0x7fc7c71f70e0 :  mf: uid=17082037, sid13:w28, part=1, addr=0x80767fc0, load , size=64, unknown  status = IN_PARTITION_DRAM (1041330), 

In Dram Latency Queue (total = 0): 
DRAM[1]: 16 bks, busW=4 BL=8 CL=12, tRRD=2 tCCD=6, tRCD=12 tRAS=28 tRP=12 tRC=40
n_cmd=1374563 n_nop=941508 n_act=82055 n_pre=82039 n_req=179199 n_rd=168524 n_write=100437 bw_util=0.3913
n_activity=1146085 dram_eff=0.4694
bk0: 10758a 1017195i bk1: 10822a 1014369i bk2: 10630a 1011683i bk3: 10664a 1007643i bk4: 10866a 999431i bk5: 10806a 1001652i bk6: 10774a 996433i bk7: 10754a 993596i bk8: 10884a 1015798i bk9: 10852a 1014080i bk10: 10314a 1026128i bk11: 10432a 1023257i bk12: 9870a 1037489i bk13: 10076a 1033587i bk14: 9898a 1031597i bk15: 10124a 1028557i 
dram_util_bins: 0 0 0 0 0 0 0 0 0 0
dram_eff_bins: 0 0 0 0 0 0 0 0 0 0
mrqq: max=16 avg=7.08184
Memory Partition 2: 
Cache L2_bank_004:
MSHR contents

Cache L2_bank_005:
MSHR contents

In Dram Latency Queue (total = 0): 
DRAM[2]: 16 bks, busW=4 BL=8 CL=12, tRRD=2 tCCD=6, tRCD=12 tRAS=28 tRP=12 tRC=40
n_cmd=1374563 n_nop=941628 n_act=81919 n_pre=81903 n_req=179370 n_rd=168944 n_write=100169 bw_util=0.3916
n_activity=1149466 dram_eff=0.4682
bk0: 10762a 1020790i bk1: 10872a 1017473i bk2: 10588a 1009714i bk3: 10794a 1008681i bk4: 10806a 1003567i bk5: 10884a 1000601i bk6: 10720a 1000709i bk7: 10912a 993693i bk8: 10754a 1017172i bk9: 10990a 1011164i bk10: 10300a 1026825i bk11: 10390a 1029938i bk12: 9958a 1032172i bk13: 10076a 1033030i bk14: 10032a 1026136i bk15: 10106a 1029951i 
dram_util_bins: 0 0 0 0 0 0 0 0 0 0
dram_eff_bins: 0 0 0 0 0 0 0 0 0 0
mrqq: max=16 avg=6.92965
Memory Partition 3: 
Cache L2_bank_006:
MSHR contents
MSHR: tag=0x80763f80, atomic=0 1 entries : 0x7fc7c74fa540 :  mf: uid=17082038, sid13:w28, part=3, addr=0x80763fc0, load , size=64, unknown  status = IN_PARTITION_DRAM (1041333), 

Cache L2_bank_007:
MSHR contents

In Dram Latency Queue (total = 0): 
DRAM[3]: 16 bks, busW=4 BL=8 CL=12, tRRD=2 tCCD=6, tRCD=12 tRAS=28 tRP=12 tRC=40
n_cmd=1374563 n_nop=941600 n_act=81979 n_pre=81963 n_req=179250 n_rd=168522 n_write=100499 bw_util=0.3914
n_activity=1146677 dram_eff=0.4692
bk0: 10776a 1014976i bk1: 10752a 1015627i bk2: 10660a 1010992i bk3: 10658a 1009677i bk4: 10834a 999229i bk5: 10780a 1000865i bk6: 10786a 995524i bk7: 10836a 994749i bk8: 10850a 1014717i bk9: 10878a 1012827i bk10: 10438a 1025339i bk11: 10308a 1026826i bk12: 10066a 1033163i bk13: 9880a 1034854i bk14: 10094a 1029141i bk15: 9926a 1030036i 
dram_util_bins: 0 0 0 0 0 0 0 0 0 0
dram_eff_bins: 0 0 0 0 0 0 0 0 0 0
mrqq: max=16 avg=7.06527
Memory Partition 4: 
Cache L2_bank_008:
MSHR contents

Cache L2_bank_009:
MSHR contents

In Dram Latency Queue (total = 0): 
DRAM[4]: 16 bks, busW=4 BL=8 CL=12, tRRD=2 tCCD=6, tRCD=12 tRAS=28 tRP=12 tRC=40
n_cmd=1374563 n_nop=941881 n_act=81858 n_pre=81842 n_req=179302 n_rd=168718 n_write=100264 bw_util=0.3914
n_activity=1148041 dram_eff=0.4686
bk0: 10868a 1017736i bk1: 10670a 1020214i bk2: 10772a 1010905i bk3: 10616a 1008573i bk4: 10968a 1000595i bk5: 10654a 1005690i bk6: 10936a 994285i bk7: 10702a 1001882i bk8: 11006a 1010480i bk9: 10770a 1016389i bk10: 10408a 1028148i bk11: 10210a 1031825i bk12: 10078a 1034061i bk13: 9972a 1031774i bk14: 10104a 1032018i bk15: 9984a 1026255i 
dram_util_bins: 0 0 0 0 0 0 0 0 0 0
dram_eff_bins: 0 0 0 0 0 0 0 0 0 0
mrqq: max=16 avg=6.93896
Memory Partition 5: 
Cache L2_bank_010:
MSHR contents

Cache L2_bank_011:
MSHR contents

In Dram Latency Queue (total = 0): 
DRAM[5]: 16 bks, busW=4 BL=8 CL=12, tRRD=2 tCCD=6, tRCD=12 tRAS=28 tRP=12 tRC=40
n_cmd=1374563 n_nop=941895 n_act=81941 n_pre=81925 n_req=179033 n_rd=168412 n_write=100390 bw_util=0.3911
n_activity=1144594 dram_eff=0.4697
bk0: 10772a 1014176i bk1: 10772a 1013695i bk2: 10624a 1010859i bk3: 10654a 1008926i bk4: 10810a 1002261i bk5: 10838a 1000217i bk6: 10774a 994945i bk7: 10836a 995914i bk8: 10892a 1012983i bk9: 10864a 1014831i bk10: 10266a 1027465i bk11: 10350a 1026345i bk12: 9898a 1035564i bk13: 10094a 1031075i bk14: 9868a 1035215i bk15: 10100a 1026406i 
dram_util_bins: 0 0 0 0 0 0 0 0 0 0
dram_eff_bins: 0 0 0 0 0 0 0 0 0 0
mrqq: max=16 avg=7.04872

========= L2 cache stats =========
L2_cache_bank[0]: Access = 59914, Miss = 42615, Miss_rate = 0.711, Pending_hits = 8620, Reservation_fails = 219940
L2_cache_bank[1]: Access = 59820, Miss = 41989, Miss_rate = 0.702, Pending_hits = 9025, Reservation_fails = 216983
L2_cache_bank[2]: Access = 59877, Miss = 41997, Miss_rate = 0.701, Pending_hits = 8905, Reservation_fails = 218824
L2_cache_bank[3]: Access = 59867, Miss = 42265, Miss_rate = 0.706, Pending_hits = 8798, Reservation_fails = 212169
L2_cache_bank[4]: Access = 59888, Miss = 41960, Miss_rate = 0.701, Pending_hits = 9120, Reservation_fails = 211554
L2_cache_bank[5]: Access = 59841, Miss = 42512, Miss_rate = 0.710, Pending_hits = 8606, Reservation_fails = 221851
L2_cache_bank[6]: Access = 59898, Miss = 42252, Miss_rate = 0.705, Pending_hits = 8739, Reservation_fails = 214718
L2_cache_bank[7]: Access = 59813, Miss = 42009, Miss_rate = 0.702, Pending_hits = 8953, Reservation_fails = 209409
L2_cache_bank[8]: Access = 59826, Miss = 42570, Miss_rate = 0.712, Pending_hits = 8663, Reservation_fails = 222099
L2_cache_bank[9]: Access = 59828, Miss = 41789, Miss_rate = 0.698, Pending_hits = 9173, Reservation_fails = 209562
L2_cache_bank[10]: Access = 59812, Miss = 41952, Miss_rate = 0.701, Pending_hits = 8843, Reservation_fails = 213128
L2_cache_bank[11]: Access = 59872, Miss = 42254, Miss_rate = 0.706, Pending_hits = 8696, Reservation_fails = 212427
L2_total_cache_accesses = 718256
L2_total_cache_misses = 506164
L2_total_cache_miss_rate = 0.7047
L2_total_cache_pending_hits = 106141
L2_total_cache_reservation_fails = 2582664
L2_total_cache_breakdown:
	L2_cache_stats_breakdown[GLOBAL_ACC_R][HIT] = 53205
	L2_cache_stats_breakdown[GLOBAL_ACC_R][HIT_RESERVED] = 8363
	L2_cache_stats_breakdown[GLOBAL_ACC_R][MISS] = 66759
	L2_cache_stats_breakdown[GLOBAL_ACC_R][RESERVATION_FAIL] = 16693
	L2_cache_stats_breakdown[CONST_ACC_R][HIT] = 11
	L2_cache_stats_breakdown[CONST_ACC_R][HIT_RESERVED] = 3
	L2_cache_stats_breakdown[CONST_ACC_R][MISS] = 1
	L2_cache_stats_breakdown[CONST_ACC_R][RESERVATION_FAIL] = 100
	L2_cache_stats_breakdown[GLOBAL_ACC_W][HIT] = 52669
	L2_cache_stats_breakdown[GLOBAL_ACC_W][HIT_RESERVED] = 97757
	L2_cache_stats_breakdown[GLOBAL_ACC_W][MISS] = 439398
	L2_cache_stats_breakdown[GLOBAL_ACC_W][RESERVATION_FAIL] = 2565246
	L2_cache_stats_breakdown[INST_ACC_R][HIT] = 66
	L2_cache_stats_breakdown[INST_ACC_R][HIT_RESERVED] = 18
	L2_cache_stats_breakdown[INST_ACC_R][MISS] = 6
	L2_cache_stats_breakdown[INST_ACC_R][RESERVATION_FAIL] = 625
L2_cache_data_port_util = 0.022
L2_cache_fill_port_util = 0.162

icnt_total_pkts_mem_to_simt=1231954
icnt_total_pkts_simt_to_mem=1373616
LD_mem_lat_dist  0 0 0 0 0 0 0 0 0 0 0 0 0 0 0 0 0 0 0 0 0 0 0 0 0 0 0
ST_mem_lat_dist  0 0 0 0 0 0 0 0 0 0 0 0 0 0 0 0 0 0 0 0 0 0 0 0 0 0 0
----------------------------Interconnect-DETAILS--------------------------------
Class 0:
Packet latency average = 75.0504
	minimum = 6
	maximum = 1012
Network latency average = 45.4993
	minimum = 6
	maximum = 678
Slowest packet = 1178380
Flit latency average = 37.6823
	minimum = 6
	maximum = 676
Slowest flit = 1983958
Fragmentation average = 0.378567
	minimum = 0
	maximum = 403
Injected packet rate average = 0.0578542
	minimum = 0.0483294 (at node 3)
	maximum = 0.0652456 (at node 15)
Accepted packet rate average = 0.0578542
	minimum = 0.0483294 (at node 3)
	maximum = 0.0652456 (at node 15)
Injected flit rate average = 0.144421
	minimum = 0.0967368 (at node 3)
	maximum = 0.195028 (at node 15)
Accepted flit rate average= 0.144421
	minimum = 0.130509 (at node 22)
	maximum = 0.173742 (at node 9)
Injected packet length average = 2.4963
Accepted packet length average = 2.4963
Total in-flight flits = 0 (0 measured)
====== Overall Traffic Statistics ======
====== Traffic class 0 ======
Packet latency average = 89.3507 (2 samples)
	minimum = 6 (2 samples)
	maximum = 1295.5 (2 samples)
Network latency average = 51.1795 (2 samples)
	minimum = 6 (2 samples)
	maximum = 832.5 (2 samples)
Flit latency average = 50.0615 (2 samples)
	minimum = 6 (2 samples)
	maximum = 831.5 (2 samples)
Fragmentation average = 0.280423 (2 samples)
	minimum = 0 (2 samples)
	maximum = 455.5 (2 samples)
Injected packet rate average = 0.0538293 (2 samples)
	minimum = 0.045732 (2 samples)
	maximum = 0.0606588 (2 samples)
Accepted packet rate average = 0.0538293 (2 samples)
	minimum = 0.045732 (2 samples)
	maximum = 0.0606588 (2 samples)
Injected flit rate average = 0.113619 (2 samples)
	minimum = 0.0885027 (2 samples)
	maximum = 0.142219 (2 samples)
Accepted flit rate average = 0.113619 (2 samples)
	minimum = 0.0961217 (2 samples)
	maximum = 0.139892 (2 samples)
Injected packet size average = 2.11073 (2 samples)
Accepted packet size average = 2.11073 (2 samples)
Hops average = 1 (2 samples)
----------------------------END-of-Interconnect-DETAILS-------------------------
GPGPU-Sim API: Stream Manager State
