

        *** GPGPU-Sim Simulator Version 3.2.2  [build 0] ***


GPGPU-Sim PTX: simulation mode 0 (can change with PTX_SIM_MODE_FUNC environment variable:
               1=functional simulation only, 0=detailed performance simulator)
GPGPU-Sim: Configuration options:

-network_mode                           1 # Interconnection network mode
-inter_config_file   config_fermi_islip.icnt # Interconnection network config file
-gpgpu_ptx_use_cuobjdump                    1 # Use cuobjdump to extract ptx and sass from binaries
-gpgpu_experimental_lib_support                    0 # Try to extract code from cuda libraries [Broken because of unknown cudaGetExportTable]
-gpgpu_ptx_convert_to_ptxplus                    0 # Convert SASS (native ISA) to ptxplus and run ptxplus
-gpgpu_ptx_force_max_capability                   20 # Force maximum compute capability
-gpgpu_ptx_inst_debug_to_file                    0 # Dump executed instructions' debug information to file
-gpgpu_ptx_inst_debug_file       inst_debug.txt # Executed instructions' debug output file
-gpgpu_ptx_inst_debug_thread_uid                    1 # Thread UID for executed instructions' debug output
-gpgpu_simd_model                       1 # 1 = post-dominator
-gpgpu_shader_core_pipeline              1536:32 # shader core pipeline config, i.e., {<nthread>:<warpsize>}
-gpgpu_tex_cache:l1  4:128:24,L:R:m:N:L,F:128:4,128:2 # per-shader L1 texture cache  (READ-ONLY) config  {<nsets>:<bsize>:<assoc>,<rep>:<wr>:<alloc>:<wr_alloc>,<mshr>:<N>:<merge>,<mq>:<rf>}
-gpgpu_const_cache:l1 64:64:2,L:R:f:N:L,A:2:32,4 # per-shader L1 constant memory cache  (READ-ONLY) config  {<nsets>:<bsize>:<assoc>,<rep>:<wr>:<alloc>:<wr_alloc>,<mshr>:<N>:<merge>,<mq>} 
-gpgpu_cache:il1     4:128:4,L:R:f:N:L,A:2:32,4 # shader L1 instruction cache config  {<nsets>:<bsize>:<assoc>,<rep>:<wr>:<alloc>:<wr_alloc>,<mshr>:<N>:<merge>,<mq>} 
-gpgpu_cache:dl1     32:128:4,L:L:m:N:H,A:32:8,8:2,0,1:0:1:1:0:1,1:4:8:16:32:64,/sciclone/data10/hwang07/GPU_RESEARCH/swl/swl_outputs/RESULTS/swl1/ # per-shader L1 data cache config  {<nsets>:<bsize>:<assoc>,<rep>:<wr>:<alloc>:<wr_alloc>,<mshr>:<N>:<merge>,<mq> | none}
-gpgpu_cache:dl1PrefL1                 none # per-shader L1 data cache config  {<nsets>:<bsize>:<assoc>,<rep>:<wr>:<alloc>:<wr_alloc>,<mshr>:<N>:<merge>,<mq> | none}
-gpgpu_cache:dl1PreShared                 none # per-shader L1 data cache config  {<nsets>:<bsize>:<assoc>,<rep>:<wr>:<alloc>:<wr_alloc>,<mshr>:<N>:<merge>,<mq> | none}
-gmem_skip_L1D                          0 # global memory access skip L1D cache (implements -Xptxas -dlcm=cg, default=no skip)
-gpgpu_perfect_mem                      0 # enable perfect memory mode (no cache miss)
-n_regfile_gating_group                    4 # group of lanes that should be read/written together)
-gpgpu_clock_gated_reg_file                    0 # enable clock gated reg file for power calculations
-gpgpu_clock_gated_lanes                    0 # enable clock gated lanes for power calculations
-gpgpu_shader_registers                32768 # Number of registers per shader core. Limits number of concurrent CTAs. (default 8192)
-gpgpu_shader_cta                       8 # Maximum number of concurrent CTAs in shader (default 8)
-gpgpu_num_cta_barriers                   16 # Maximum number of named barriers per CTA (default 16)
-gpgpu_n_clusters                      15 # number of processing clusters
-gpgpu_n_cores_per_cluster                    1 # number of simd cores per cluster
-gpgpu_n_cluster_ejection_buffer_size                    8 # number of packets in ejection buffer
-gpgpu_n_ldst_response_buffer_size                    2 # number of response packets in ld/st unit ejection buffer
-gpgpu_shmem_size                   16384 # Size of shared memory per shader core (default 16kB)
-gpgpu_shmem_size                   49152 # Size of shared memory per shader core (default 16kB)
-gpgpu_shmem_size_PrefL1                16384 # Size of shared memory per shader core (default 16kB)
-gpgpu_shmem_size_PrefShared                16384 # Size of shared memory per shader core (default 16kB)
-gpgpu_shmem_num_banks                   32 # Number of banks in the shared memory in each shader core (default 16)
-gpgpu_shmem_limited_broadcast                    0 # Limit shared memory to do one broadcast per cycle (default on)
-gpgpu_shmem_warp_parts                    1 # Number of portions a warp is divided into for shared memory bank conflict check 
-gpgpu_warpdistro_shader                   -1 # Specify which shader core to collect the warp size distribution from
-gpgpu_warp_issue_shader                    0 # Specify which shader core to collect the warp issue distribution from
-gpgpu_local_mem_map                    1 # Mapping from local memory space address to simulated GPU physical address space (default = enabled)
-gpgpu_num_reg_banks                   16 # Number of register banks (default = 8)
-gpgpu_reg_bank_use_warp_id                    0 # Use warp ID in mapping registers to banks (default = off)
-gpgpu_operand_collector_num_units_sp                    6 # number of collector units (default = 4)
-gpgpu_operand_collector_num_units_sfu                    8 # number of collector units (default = 4)
-gpgpu_operand_collector_num_units_mem                    2 # number of collector units (default = 2)
-gpgpu_operand_collector_num_units_gen                    0 # number of collector units (default = 0)
-gpgpu_operand_collector_num_in_ports_sp                    2 # number of collector unit in ports (default = 1)
-gpgpu_operand_collector_num_in_ports_sfu                    1 # number of collector unit in ports (default = 1)
-gpgpu_operand_collector_num_in_ports_mem                    1 # number of collector unit in ports (default = 1)
-gpgpu_operand_collector_num_in_ports_gen                    0 # number of collector unit in ports (default = 0)
-gpgpu_operand_collector_num_out_ports_sp                    2 # number of collector unit in ports (default = 1)
-gpgpu_operand_collector_num_out_ports_sfu                    1 # number of collector unit in ports (default = 1)
-gpgpu_operand_collector_num_out_ports_mem                    1 # number of collector unit in ports (default = 1)
-gpgpu_operand_collector_num_out_ports_gen                    0 # number of collector unit in ports (default = 0)
-gpgpu_coalesce_arch                   13 # Coalescing arch (default = 13, anything else is off for now)
-gpgpu_num_sched_per_core                    2 # Number of warp schedulers per core
-gpgpu_max_insn_issue_per_warp                    1 # Max number of instructions that can be issued per warp in one cycle by scheduler
-gpgpu_simt_core_sim_order                    1 # Select the simulation order of cores in a cluster (0=Fix, 1=Round-Robin)
-gpgpu_pipeline_widths        2,1,1,2,1,1,2 # Pipeline widths ID_OC_SP,ID_OC_SFU,ID_OC_MEM,OC_EX_SP,OC_EX_SFU,OC_EX_MEM,EX_WB
-gpgpu_num_sp_units                     2 # Number of SP units (default=1)
-gpgpu_num_sfu_units                    1 # Number of SF units (default=1)
-gpgpu_num_mem_units                    1 # Number if ldst units (default=1) WARNING: not hooked up to anything
-gpgpu_scheduler        warp_limiting:2:1 # Scheduler configuration: < lrr | gto | two_level_active > If two_level_active:<num_active_warps>:<inner_prioritization>:<outer_prioritization>For complete list of prioritization values see shader.h enum scheduler_prioritization_typeDefault: gto
-gpgpu_dram_scheduler                    1 # 0 = fifo, 1 = FR-FCFS (defaul)
-gpgpu_dram_partition_queues              8:8:8:8 # i2$:$2d:d2$:$2i
-l2_ideal                               0 # Use a ideal L2 cache that always hit
-gpgpu_cache:dl2     64:128:8,L:B:m:W:L,A:32:4,4:0,32 # unified banked L2 data cache config  {<nsets>:<bsize>:<assoc>,<rep>:<wr>:<alloc>:<wr_alloc>,<mshr>:<N>:<merge>,<mq>}
-gpgpu_cache:dl2_texture_only                    0 # L2 cache used for texture only
-gpgpu_n_mem                            6 # number of memory modules (e.g. memory controllers) in gpu
-gpgpu_n_sub_partition_per_mchannel                    2 # number of memory subpartition in each memory module
-gpgpu_n_mem_per_ctrlr                    2 # number of memory chips per memory controller
-gpgpu_memlatency_stat                   14 # track and display latency statistics 0x2 enables MC, 0x4 enables queue logs
-gpgpu_frfcfs_dram_sched_queue_size                   16 # 0 = unlimited (default); # entries per chip
-gpgpu_dram_return_queue_size                  116 # 0 = unlimited (default); # entries per chip
-gpgpu_dram_buswidth                    4 # default = 4 bytes (8 bytes per cycle at DDR)
-gpgpu_dram_burst_length                    8 # Burst length of each DRAM request (default = 4 data bus cycle)
-dram_data_command_freq_ratio                    4 # Frequency ratio between DRAM data bus and command bus (default = 2 times, i.e. DDR)
-gpgpu_dram_timing_opt nbk=16:CCD=2:RRD=6:RCD=12:RAS=28:RP=12:RC=40: CL=12:WL=4:CDLR=5:WR=12:nbkgrp=4:CCDL=3:RTPL=2 # DRAM timing parameters = {nbk:tCCD:tRRD:tRCD:tRAS:tRP:tRC:CL:WL:tCDLR:tWR:nbkgrp:tCCDL:tRTPL}
-rop_latency                          120 # ROP queue latency (default 85)
-dram_latency                         100 # DRAM latency (default 30)
-gpgpu_mem_addr_mapping dramid@8;00000000.00000000.00000000.00000000.0000RRRR.RRRRRRRR.BBBCCCCB.CCSSSSSS # mapping memory address to dram model {dramid@<start bit>;<memory address map>}
-gpgpu_mem_addr_test                    0 # run sweep test to check address mapping for aliased address
-gpgpu_mem_address_mask                    1 # 0 = old addressing mask, 1 = new addressing mask, 2 = new add. mask + flipped bank sel and chip sel bits
-gpuwattch_xml_file  gpuwattch_gtx480.xml # GPUWattch XML file
-power_simulation_enabled                    0 # Turn on power simulator (1=On, 0=Off)
-power_per_cycle_dump                    0 # Dump detailed power output each cycle
-power_trace_enabled                    0 # produce a file for the power trace (1=On, 0=Off)
-power_trace_zlevel                     6 # Compression level of the power trace output log (0=no comp, 9=highest)
-steady_power_levels_enabled                    0 # produce a file for the steady power levels (1=On, 0=Off)
-steady_state_definition                  8:4 # allowed deviation:number of samples
-gpgpu_max_cycle                        0 # terminates gpu simulation early (0 = no limit)
-gpgpu_max_insn                         0 # terminates gpu simulation early (0 = no limit)
-gpgpu_max_cta                          0 # terminates gpu simulation early (0 = no limit)
-gpgpu_runtime_stat                   500 # display runtime statistics such as dram utilization {<freq>:<flag>}
-liveness_message_freq                    1 # Minimum number of seconds between simulation liveness messages (0 = always print)
-gpgpu_flush_l1_cache                    0 # Flush L1 cache at the end of each kernel call
-gpgpu_flush_l2_cache                    0 # Flush L2 cache at the end of each kernel call
-gpgpu_deadlock_detect                    1 # Stop the simulation at deadlock (1=on (default), 0=off)
-gpgpu_ptx_instruction_classification                    0 # if enabled will classify ptx instruction types per kernel (Max 255 kernels now)
-gpgpu_ptx_sim_mode                     0 # Select between Performance (default) or Functional simulation (1)
-gpgpu_clock_domains 700.0:700.0:700.0:924.0 # Clock Domain Frequencies in MhZ {<Core Clock>:<ICNT Clock>:<L2 Clock>:<DRAM Clock>}
-gpgpu_max_concurrent_kernel                    8 # maximum kernels that can run concurrently on GPU
-gpgpu_cflog_interval                    0 # Interval between each snapshot in control flow logger
-visualizer_enabled                     0 # Turn on visualizer output (1=On, 0=Off)
-visualizer_outputfile                 NULL # Specifies the output log file for visualizer
-visualizer_zlevel                      6 # Compression level of the visualizer output log (0=no comp, 9=highest)
-trace_enabled                          0 # Turn on traces
-trace_components                    none # comma seperated list of traces to enable. Complete list found in trace_streams.tup. Default none
-trace_sampling_core                    0 # The core which is printed using CORE_DPRINTF. Default 0
-trace_sampling_memory_partition                   -1 # The memory partition which is printed using MEMPART_DPRINTF. Default -1 (i.e. all)
-enable_ptx_file_line_stats                    1 # Turn on PTX source line statistic profiling. (1 = On)
-ptx_line_stats_filename gpgpu_inst_stats.txt # Output file for PTX source line statistics.
-save_embedded_ptx                      0 # saves ptx files embedded in binary as <n>.ptx
-keep                                   0 # keep intermediate files created by GPGPU-Sim when interfacing with external programs
-gpgpu_ptx_save_converted_ptxplus                    0 # Saved converted ptxplus to a file
-ptx_opcode_latency_int         4,13,4,5,145 # Opcode latencies for integers <ADD,MAX,MUL,MAD,DIV>Default 1,1,19,25,145
-ptx_opcode_latency_fp          4,13,4,5,39 # Opcode latencies for single precision floating points <ADD,MAX,MUL,MAD,DIV>Default 1,1,1,1,30
-ptx_opcode_latency_dp         8,19,8,8,330 # Opcode latencies for double precision floating points <ADD,MAX,MUL,MAD,DIV>Default 8,8,8,8,335
-ptx_opcode_initiation_int            1,2,2,1,8 # Opcode initiation intervals for integers <ADD,MAX,MUL,MAD,DIV>Default 1,1,4,4,32
-ptx_opcode_initiation_fp            1,2,1,1,4 # Opcode initiation intervals for single precision floating points <ADD,MAX,MUL,MAD,DIV>Default 1,1,1,1,5
-ptx_opcode_initiation_dp         8,16,8,8,130 # Opcode initiation intervals for double precision floating points <ADD,MAX,MUL,MAD,DIV>Default 8,8,8,8,130
DRAM Timing Options:
nbk                                    16 # number of banks
CCD                                     2 # column to column delay
RRD                                     6 # minimal delay between activation of rows in different banks
RCD                                    12 # row to column delay
RAS                                    28 # time needed to activate row
RP                                     12 # time needed to precharge (deactivate) row
RC                                     40 # row cycle time
CDLR                                    5 # switching from write to read (changes tWTR)
WR                                     12 # last data-in to row precharge
CL                                     12 # CAS latency
WL                                      4 # Write latency
nbkgrp                                  4 # number of bank groups
CCDL                                    3 # column to column delay between accesses to different bank groups
RTPL                                    2 # read to precharge delay between accesses to different bank groups
Total number of memory sub partition = 12
addr_dec_mask[CHIP]  = 0000000000000000 	high:64 low:0
addr_dec_mask[BK]    = 000000000000e100 	high:16 low:8
addr_dec_mask[ROW]   = 000000000fff0000 	high:28 low:16
addr_dec_mask[COL]   = 0000000000001eff 	high:13 low:0
addr_dec_mask[BURST] = 000000000000003f 	high:6 low:0
sub_partition_id_mask = 0000000000000100
GPGPU-Sim uArch: clock freqs: 700000000.000000:700000000.000000:700000000.000000:924000000.000000
GPGPU-Sim uArch: clock periods: 0.00000000142857142857:0.00000000142857142857:0.00000000142857142857:0.00000000108225108225
*** Initializing Memory Statistics ***
GPGPU-Sim uArch: interconnect node map (shaderID+MemID to icntID)
GPGPU-Sim uArch: Memory nodes ID start from index: 15
GPGPU-Sim uArch:    0   1   2   3   4
GPGPU-Sim uArch:    5   6   7   8   9
GPGPU-Sim uArch:   10  11  12  13  14
GPGPU-Sim uArch:   15  16  17  18  19
GPGPU-Sim uArch:   20  21  22  23  24
GPGPU-Sim uArch:   25  26
GPGPU-Sim uArch: interconnect node reverse map (icntID to shaderID+MemID)
GPGPU-Sim uArch: Memory nodes start from ID: 15
GPGPU-Sim uArch:    0   1   2   3   4
GPGPU-Sim uArch:    5   6   7   8   9
GPGPU-Sim uArch:   10  11  12  13  14
GPGPU-Sim uArch:   15  16  17  18  19
GPGPU-Sim uArch:   20  21  22  23  24
GPGPU-Sim uArch:   25  26
54328626b7b3e20cd9d3237c822777b1  /sciclone/data10/hwang07/adwait/applications/benchmarks/rodinia/cuda/hotspot/gpgpu_ptx_sim__hotspot
GPGPU-Sim uArch: performance model initialization complete.
GPGPU-Sim PTX: __cudaRegisterFatBinary, fat_cubin_handle = 1, filename=hotspot.cu
self exe links to: /sciclone/data10/hwang07/adwait/applications/benchmarks/rodinia/cuda/hotspot/gpgpu_ptx_sim__hotspot
Running md5sum using "md5sum /sciclone/data10/hwang07/adwait/applications/benchmarks/rodinia/cuda/hotspot/gpgpu_ptx_sim__hotspot "
Parsing file _cuobjdump_complete_output_lyjp5l
######### cuobjdump parser ########
## Adding new section ELF
Adding arch: sm_20
Adding identifier: hotspot.cu
## Adding new section PTX
Adding ptx filename: _cuobjdump_1.ptx
Adding arch: sm_20
Adding identifier: hotspot.cu
Done parsing!!!
GPGPU-Sim PTX: __cudaRegisterFunction _Z14calculate_tempiPfS_S_iiiiffffff : hostFun 0x0x401b60, fat_cubin_handle = 1
GPGPU-Sim PTX: allocating shared region for "__cuda___cuda_local_var_32316_39_non_const_temp_on_cuda72" from 0x0 to 0x400 (shared memory space)
GPGPU-Sim PTX: allocating shared region for "__cuda___cuda_local_var_32317_39_non_const_power_on_cuda1096" from 0x400 to 0x800 (shared memory space)
GPGPU-Sim PTX: allocating shared region for "__cuda___cuda_local_var_32318_39_non_const_temp_t2120" from 0x800 to 0xc00 (shared memory space)
GPGPU-Sim PTX: instruction assembly for function '_Z14calculate_tempiPfS_S_iiiiffffff'...   done.
GPGPU-Sim PTX: finding reconvergence points for '_Z14calculate_tempiPfS_S_iiiiffffff'...
GPGPU-Sim PTX: Finding dominators for '_Z14calculate_tempiPfS_S_iiiiffffff'...
GPGPU-Sim PTX: Finding immediate dominators for '_Z14calculate_tempiPfS_S_iiiiffffff'...
GPGPU-Sim PTX: Finding postdominators for '_Z14calculate_tempiPfS_S_iiiiffffff'...
GPGPU-Sim PTX: Finding immediate postdominators for '_Z14calculate_tempiPfS_S_iiiiffffff'...
GPGPU-Sim PTX: pre-decoding instructions for '_Z14calculate_tempiPfS_S_iiiiffffff'...
GPGPU-Sim PTX: reconvergence points for _Z14calculate_tempiPfS_S_iiiiffffff...
GPGPU-Sim PTX:  1 (potential) branch divergence @  PC=0x060 (_1.ptx:91) @%p1 bra $Lt_0_15106;
GPGPU-Sim PTX:    immediate post dominator      @  PC=0x198 (_1.ptx:134) mov.u64 %rd1, __cuda___cuda_local_var_32316_39_non_const_temp_on_cuda72;
GPGPU-Sim PTX:  2 (potential) branch divergence @  PC=0x080 (_1.ptx:95) @%p2 bra $Lt_0_15106;
GPGPU-Sim PTX:    immediate post dominator      @  PC=0x198 (_1.ptx:134) mov.u64 %rd1, __cuda___cuda_local_var_32316_39_non_const_temp_on_cuda72;
GPGPU-Sim PTX:  3 (potential) branch divergence @  PC=0x0c8 (_1.ptx:104) @%p3 bra $Lt_0_15106;
GPGPU-Sim PTX:    immediate post dominator      @  PC=0x198 (_1.ptx:134) mov.u64 %rd1, __cuda___cuda_local_var_32316_39_non_const_temp_on_cuda72;
GPGPU-Sim PTX:  4 (potential) branch divergence @  PC=0x0e8 (_1.ptx:108) @%p4 bra $Lt_0_15106;
GPGPU-Sim PTX:    immediate post dominator      @  PC=0x198 (_1.ptx:134) mov.u64 %rd1, __cuda___cuda_local_var_32316_39_non_const_temp_on_cuda72;
GPGPU-Sim PTX:  5 (potential) branch divergence @  PC=0x1c0 (_1.ptx:140) @%p5 bra $Lt_0_15618;
GPGPU-Sim PTX:    immediate post dominator      @  PC=0x6b0 (_1.ptx:315) @!%p20 bra $Lt_0_14082;
GPGPU-Sim PTX:  6 (potential) branch divergence @  PC=0x388 (_1.ptx:200) @%p10 bra $Lt_0_17410;
GPGPU-Sim PTX:    immediate post dominator      @  PC=0x5c8 (_1.ptx:277) bar.sync 0;
GPGPU-Sim PTX:  7 (potential) branch divergence @  PC=0x3a8 (_1.ptx:204) @%p11 bra $Lt_0_17410;
GPGPU-Sim PTX:    immediate post dominator      @  PC=0x5c8 (_1.ptx:277) bar.sync 0;
GPGPU-Sim PTX:  8 (potential) branch divergence @  PC=0x3b8 (_1.ptx:206) @%p12 bra $Lt_0_17410;
GPGPU-Sim PTX:    immediate post dominator      @  PC=0x5c8 (_1.ptx:277) bar.sync 0;
GPGPU-Sim PTX:  9 (potential) branch divergence @  PC=0x3c8 (_1.ptx:208) @%p13 bra $Lt_0_17410;
GPGPU-Sim PTX:    immediate post dominator      @  PC=0x5c8 (_1.ptx:277) bar.sync 0;
GPGPU-Sim PTX: 10 (potential) branch divergence @  PC=0x3d8 (_1.ptx:210) @%p14 bra $Lt_0_17410;
GPGPU-Sim PTX:    immediate post dominator      @  PC=0x5c8 (_1.ptx:277) bar.sync 0;
GPGPU-Sim PTX: 11 (potential) branch divergence @  PC=0x3e8 (_1.ptx:212) @%p15 bra $Lt_0_17410;
GPGPU-Sim PTX:    immediate post dominator      @  PC=0x5c8 (_1.ptx:277) bar.sync 0;
GPGPU-Sim PTX: 12 (potential) branch divergence @  PC=0x3f8 (_1.ptx:214) @%p16 bra $Lt_0_17410;
GPGPU-Sim PTX:    immediate post dominator      @  PC=0x5c8 (_1.ptx:277) bar.sync 0;
GPGPU-Sim PTX: 13 (potential) branch divergence @  PC=0x408 (_1.ptx:216) @%p17 bra $Lt_0_17410;
GPGPU-Sim PTX:    immediate post dominator      @  PC=0x5c8 (_1.ptx:277) bar.sync 0;
GPGPU-Sim PTX: 14 (potential) branch divergence @  PC=0x5d8 (_1.ptx:280) @%p18 bra $Lt_0_17922;
GPGPU-Sim PTX:    immediate post dominator      @  PC=0x6b0 (_1.ptx:315) @!%p20 bra $Lt_0_14082;
GPGPU-Sim PTX: 15 (potential) branch divergence @  PC=0x600 (_1.ptx:285) @!%p19 bra $Lt_0_13314;
GPGPU-Sim PTX:    immediate post dominator      @  PC=0x650 (_1.ptx:298) bar.sync 0;
GPGPU-Sim PTX: 16 (potential) branch divergence @  PC=0x668 (_1.ptx:302) @%p23 bra $Lt_0_13058;
GPGPU-Sim PTX:    immediate post dominator      @  PC=0x6b0 (_1.ptx:315) @!%p20 bra $Lt_0_14082;
GPGPU-Sim PTX: 17 (potential) branch divergence @  PC=0x670 (_1.ptx:303) bra.uni $Lt_0_258;
GPGPU-Sim PTX:    immediate post dominator      @  PC=0x6b0 (_1.ptx:315) @!%p20 bra $Lt_0_14082;
GPGPU-Sim PTX: 18 (potential) branch divergence @  PC=0x698 (_1.ptx:309) bra.uni $Lt_0_258;
GPGPU-Sim PTX:    immediate post dominator      @  PC=0x6b0 (_1.ptx:315) @!%p20 bra $Lt_0_14082;
GPGPU-Sim PTX: 19 (potential) branch divergence @  PC=0x6b0 (_1.ptx:315) @!%p20 bra $Lt_0_14082;
GPGPU-Sim PTX:    immediate post dominator      @  PC=0x760 (_1.ptx:340) exit;
GPGPU-Sim PTX: ... end of reconvergence points for _Z14calculate_tempiPfS_S_iiiiffffff
GPGPU-Sim PTX: ... done pre-decoding instructions for '_Z14calculate_tempiPfS_S_iiiiffffff'.
GPGPU-Sim PTX: finished parsing EMBEDDED .ptx file _1.ptx
Adding _cuobjdump_1.ptx with cubin handle 1
GPGPU-Sim PTX: extracting embedded .ptx to temporary file "_ptx_2Lk9GP"
Running: cat _ptx_2Lk9GP | sed 's/.version 1.5/.version 1.4/' | sed 's/, texmode_independent//' | sed 's/\(\.extern \.const\[1\] .b8 \w\+\)\[\]/\1\[1\]/' | sed 's/const\[.\]/const\[0\]/g' > _ptx2_Bu5dJk
GPGPU-Sim PTX: generating ptxinfo using "$CUDA_INSTALL_PATH/bin/ptxas --gpu-name=sm_20 -v _ptx2_Bu5dJk --output-file  /dev/null 2> _ptx_2Lk9GPinfo"
GPGPU-Sim PTX: Kernel '_Z14calculate_tempiPfS_S_iiiiffffff' : regs=35, lmem=0, smem=3072, cmem=120
GPGPU-Sim PTX: removing ptxinfo using "rm -f _ptx_2Lk9GP _ptx2_Bu5dJk _ptx_2Lk9GPinfo"
GPGPU-Sim PTX: loading globals with explicit initializers... 
GPGPU-Sim PTX: finished loading globals (0 bytes total).
GPGPU-Sim PTX: loading constants with explicit initializers...  done.
pyramidHeight: 2
gridSize: [512, 512]
border:[2, 2]
blockGrid:[43, 43]
targetBlock:[12, 12]
Start computing the transient temperature

GPGPU-Sim PTX: cudaLaunch for 0x0x401b60 (mode=performance simulation) on stream 0
GPGPU-Sim PTX: pushing kernel '_Z14calculate_tempiPfS_S_iiiiffffff' to stream 0, gridDim= (43,43,1) blockDim = (16,16,1) 
kernel '_Z14calculate_tempiPfS_S_iiiiffffff' transfer to GPU hardware scheduler
GPGPU-Sim uArch: Shader 1 bind to kernel 1 '_Z14calculate_tempiPfS_S_iiiiffffff'
GPGPU-Sim uArch: CTA/core = 3, limited by: regs
GPGPU-Sim uArch: core:  1, cta: 0 initialized @(1,0)
GPGPU-Sim uArch: Shader 2 bind to kernel 1 '_Z14calculate_tempiPfS_S_iiiiffffff'
GPGPU-Sim uArch: core:  2, cta: 0 initialized @(1,0)
GPGPU-Sim uArch: Shader 3 bind to kernel 1 '_Z14calculate_tempiPfS_S_iiiiffffff'
GPGPU-Sim uArch: core:  3, cta: 0 initialized @(1,0)
GPGPU-Sim uArch: Shader 4 bind to kernel 1 '_Z14calculate_tempiPfS_S_iiiiffffff'
GPGPU-Sim uArch: core:  4, cta: 0 initialized @(1,0)
GPGPU-Sim uArch: Shader 5 bind to kernel 1 '_Z14calculate_tempiPfS_S_iiiiffffff'
GPGPU-Sim uArch: core:  5, cta: 0 initialized @(1,0)
GPGPU-Sim uArch: Shader 6 bind to kernel 1 '_Z14calculate_tempiPfS_S_iiiiffffff'
GPGPU-Sim uArch: core:  6, cta: 0 initialized @(1,0)
GPGPU-Sim uArch: Shader 7 bind to kernel 1 '_Z14calculate_tempiPfS_S_iiiiffffff'
GPGPU-Sim uArch: core:  7, cta: 0 initialized @(1,0)
GPGPU-Sim uArch: Shader 8 bind to kernel 1 '_Z14calculate_tempiPfS_S_iiiiffffff'
GPGPU-Sim uArch: core:  8, cta: 0 initialized @(1,0)
GPGPU-Sim uArch: Shader 9 bind to kernel 1 '_Z14calculate_tempiPfS_S_iiiiffffff'
GPGPU-Sim uArch: core:  9, cta: 0 initialized @(1,0)
GPGPU-Sim uArch: Shader 10 bind to kernel 1 '_Z14calculate_tempiPfS_S_iiiiffffff'
GPGPU-Sim uArch: core: 10, cta: 0 initialized @(1,0)
GPGPU-Sim uArch: Shader 11 bind to kernel 1 '_Z14calculate_tempiPfS_S_iiiiffffff'
GPGPU-Sim uArch: core: 11, cta: 0 initialized @(1,0)
GPGPU-Sim uArch: Shader 12 bind to kernel 1 '_Z14calculate_tempiPfS_S_iiiiffffff'
GPGPU-Sim uArch: core: 12, cta: 0 initialized @(1,0)
GPGPU-Sim uArch: Shader 13 bind to kernel 1 '_Z14calculate_tempiPfS_S_iiiiffffff'
GPGPU-Sim uArch: core: 13, cta: 0 initialized @(1,0)
GPGPU-Sim uArch: Shader 14 bind to kernel 1 '_Z14calculate_tempiPfS_S_iiiiffffff'
GPGPU-Sim uArch: core: 14, cta: 0 initialized @(1,0)
GPGPU-Sim uArch: Shader 0 bind to kernel 1 '_Z14calculate_tempiPfS_S_iiiiffffff'
GPGPU-Sim uArch: core:  0, cta: 0 initialized @(1,0)
GPGPU-Sim uArch: core:  1, cta: 1 initialized @(2,0)
GPGPU-Sim uArch: core:  2, cta: 1 initialized @(2,0)
GPGPU-Sim uArch: core:  3, cta: 1 initialized @(2,0)
GPGPU-Sim uArch: core:  4, cta: 1 initialized @(2,0)
GPGPU-Sim uArch: core:  5, cta: 1 initialized @(2,0)
GPGPU-Sim uArch: core:  6, cta: 1 initialized @(2,0)
GPGPU-Sim uArch: core:  7, cta: 1 initialized @(2,0)
GPGPU-Sim uArch: core:  8, cta: 1 initialized @(2,0)
GPGPU-Sim uArch: core:  9, cta: 1 initialized @(2,0)
GPGPU-Sim uArch: core: 10, cta: 1 initialized @(2,0)
GPGPU-Sim uArch: core: 11, cta: 1 initialized @(2,0)
GPGPU-Sim uArch: core: 12, cta: 1 initialized @(2,0)
GPGPU-Sim uArch: core: 13, cta: 1 initialized @(2,0)
GPGPU-Sim uArch: core: 14, cta: 1 initialized @(2,0)
GPGPU-Sim uArch: core:  0, cta: 1 initialized @(2,0)
GPGPU-Sim uArch: core:  1, cta: 2 initialized @(3,0)
GPGPU-Sim uArch: core:  2, cta: 2 initialized @(3,0)
GPGPU-Sim uArch: core:  3, cta: 2 initialized @(3,0)
GPGPU-Sim uArch: core:  4, cta: 2 initialized @(3,0)
GPGPU-Sim uArch: core:  5, cta: 2 initialized @(3,0)
GPGPU-Sim uArch: core:  6, cta: 2 initialized @(3,0)
GPGPU-Sim uArch: core:  7, cta: 2 initialized @(3,0)
GPGPU-Sim uArch: core:  8, cta: 2 initialized @(3,0)
GPGPU-Sim uArch: core:  9, cta: 2 initialized @(3,0)
GPGPU-Sim uArch: core: 10, cta: 2 initialized @(3,0)
GPGPU-Sim uArch: core: 11, cta: 2 initialized @(3,0)
GPGPU-Sim uArch: core: 12, cta: 2 initialized @(3,0)
GPGPU-Sim uArch: core: 13, cta: 2 initialized @(3,0)
GPGPU-Sim uArch: core: 14, cta: 2 initialized @(3,0)
GPGPU-Sim uArch: core:  0, cta: 2 initialized @(3,0)
GPGPU-Sim uArch: cycles simulated: 500  inst.: 0 (ipc= 0.0) sim_rate=0 (inst/sec) elapsed = 0:0:00:11 / Tue Mar 22 12:39:51 2016
GPGPU-Sim uArch: cycles simulated: 1500  inst.: 45952 (ipc=30.6) sim_rate=3282 (inst/sec) elapsed = 0:0:00:14 / Tue Mar 22 12:39:54 2016
GPGPU-Sim uArch: cycles simulated: 2000  inst.: 61768 (ipc=30.9) sim_rate=4117 (inst/sec) elapsed = 0:0:00:15 / Tue Mar 22 12:39:55 2016
GPGPU-Sim PTX: 100000 instructions simulated : ctaid=(13,0,0) tid=(15,7,0)
GPGPU-Sim PTX: 200000 instructions simulated : ctaid=(22,0,0) tid=(11,5,0)
GPGPU-Sim uArch: cycles simulated: 4500  inst.: 214716 (ipc=47.7) sim_rate=13419 (inst/sec) elapsed = 0:0:00:16 / Tue Mar 22 12:39:56 2016
GPGPU-Sim PTX: 300000 instructions simulated : ctaid=(6,0,0) tid=(7,5,0)
GPGPU-Sim uArch: cycles simulated: 7000  inst.: 365460 (ipc=52.2) sim_rate=21497 (inst/sec) elapsed = 0:0:00:17 / Tue Mar 22 12:39:57 2016
GPGPU-Sim PTX: 400000 instructions simulated : ctaid=(3,0,0) tid=(11,6,0)
GPGPU-Sim PTX: 500000 instructions simulated : ctaid=(6,0,0) tid=(15,12,0)
GPGPU-Sim PTX: 600000 instructions simulated : ctaid=(0,0,0) tid=(5,10,0)
GPGPU-Sim uArch: cycles simulated: 8500  inst.: 578596 (ipc=68.1) sim_rate=32144 (inst/sec) elapsed = 0:0:00:18 / Tue Mar 22 12:39:58 2016
GPGPU-Sim PTX: 700000 instructions simulated : ctaid=(11,0,0) tid=(7,5,0)
GPGPU-Sim PTX: 800000 instructions simulated : ctaid=(24,0,0) tid=(9,13,0)
GPGPU-Sim uArch: cycles simulated: 10500  inst.: 747761 (ipc=71.2) sim_rate=39355 (inst/sec) elapsed = 0:0:00:19 / Tue Mar 22 12:39:59 2016
GPGPU-Sim uArch: Shader 4 finished CTA #0 (10541,0), 2 CTAs running
GPGPU-Sim uArch: core:  4, cta: 0 initialized @(10542,0)
GPGPU-Sim uArch: Shader 6 finished CTA #0 (10542,0), 2 CTAs running
GPGPU-Sim uArch: core:  6, cta: 0 initialized @(10543,0)
GPGPU-Sim uArch: Shader 0 finished CTA #0 (10547,0), 2 CTAs running
GPGPU-Sim uArch: core:  0, cta: 0 initialized @(10548,0)
GPGPU-Sim uArch: Shader 11 finished CTA #0 (10559,0), 2 CTAs running
GPGPU-Sim uArch: core: 11, cta: 0 initialized @(10560,0)
GPGPU-Sim uArch: Shader 5 finished CTA #0 (10570,0), 2 CTAs running
GPGPU-Sim uArch: core:  5, cta: 0 initialized @(10571,0)
GPGPU-Sim uArch: Shader 1 finished CTA #0 (10572,0), 2 CTAs running
GPGPU-Sim uArch: core:  1, cta: 0 initialized @(10573,0)
GPGPU-Sim uArch: Shader 9 finished CTA #0 (10578,0), 2 CTAs running
GPGPU-Sim uArch: core:  9, cta: 0 initialized @(10579,0)
GPGPU-Sim uArch: Shader 3 finished CTA #0 (10594,0), 2 CTAs running
GPGPU-Sim uArch: core:  3, cta: 0 initialized @(10595,0)
GPGPU-Sim uArch: Shader 2 finished CTA #0 (10599,0), 2 CTAs running
GPGPU-Sim uArch: core:  2, cta: 0 initialized @(10600,0)
GPGPU-Sim uArch: Shader 7 finished CTA #0 (10600,0), 2 CTAs running
GPGPU-Sim uArch: core:  7, cta: 0 initialized @(10601,0)
GPGPU-Sim uArch: Shader 8 finished CTA #0 (10602,0), 2 CTAs running
GPGPU-Sim uArch: core:  8, cta: 0 initialized @(10603,0)
GPGPU-Sim uArch: Shader 10 finished CTA #0 (10604,0), 2 CTAs running
GPGPU-Sim uArch: core: 10, cta: 0 initialized @(10605,0)
GPGPU-Sim uArch: Shader 12 finished CTA #0 (10621,0), 2 CTAs running
GPGPU-Sim uArch: core: 12, cta: 0 initialized @(10622,0)
GPGPU-Sim uArch: Shader 13 finished CTA #0 (10625,0), 2 CTAs running
GPGPU-Sim uArch: core: 13, cta: 0 initialized @(10626,0)
GPGPU-Sim uArch: Shader 14 finished CTA #0 (10628,0), 2 CTAs running
GPGPU-Sim uArch: core: 14, cta: 0 initialized @(10629,0)
GPGPU-Sim PTX: 900000 instructions simulated : ctaid=(28,0,0) tid=(5,10,0)
GPGPU-Sim uArch: cycles simulated: 12500  inst.: 883089 (ipc=70.6) sim_rate=44154 (inst/sec) elapsed = 0:0:00:20 / Tue Mar 22 12:40:00 2016
GPGPU-Sim PTX: 1000000 instructions simulated : ctaid=(0,1,0) tid=(9,12,0)
GPGPU-Sim PTX: 1100000 instructions simulated : ctaid=(28,0,0) tid=(13,4,0)
GPGPU-Sim uArch: cycles simulated: 14000  inst.: 1032347 (ipc=73.7) sim_rate=49159 (inst/sec) elapsed = 0:0:00:21 / Tue Mar 22 12:40:01 2016
GPGPU-Sim PTX: 1200000 instructions simulated : ctaid=(19,0,0) tid=(9,9,0)
GPGPU-Sim PTX: 1300000 instructions simulated : ctaid=(18,0,0) tid=(1,11,0)
GPGPU-Sim PTX: 1400000 instructions simulated : ctaid=(15,0,0) tid=(12,6,0)
GPGPU-Sim uArch: cycles simulated: 16000  inst.: 1319541 (ipc=82.5) sim_rate=59979 (inst/sec) elapsed = 0:0:00:22 / Tue Mar 22 12:40:02 2016
GPGPU-Sim uArch: Shader 1 finished CTA #1 (16416,0), 2 CTAs running
GPGPU-Sim uArch: core:  1, cta: 1 initialized @(16417,0)
GPGPU-Sim PTX: 1500000 instructions simulated : ctaid=(7,1,0) tid=(13,12,0)
GPGPU-Sim uArch: Shader 12 finished CTA #1 (17433,0), 2 CTAs running
GPGPU-Sim uArch: core: 12, cta: 1 initialized @(17434,0)
GPGPU-Sim uArch: Shader 5 finished CTA #1 (17448,0), 2 CTAs running
GPGPU-Sim uArch: core:  5, cta: 1 initialized @(17449,0)
GPGPU-Sim uArch: Shader 9 finished CTA #1 (17465,0), 2 CTAs running
GPGPU-Sim uArch: core:  9, cta: 1 initialized @(17466,0)
GPGPU-Sim uArch: Shader 11 finished CTA #1 (17485,0), 2 CTAs running
GPGPU-Sim uArch: core: 11, cta: 1 initialized @(17486,0)
GPGPU-Sim uArch: Shader 10 finished CTA #1 (17489,0), 2 CTAs running
GPGPU-Sim uArch: core: 10, cta: 1 initialized @(17490,0)
GPGPU-Sim uArch: Shader 6 finished CTA #1 (17496,0), 2 CTAs running
GPGPU-Sim uArch: core:  6, cta: 1 initialized @(17497,0)
GPGPU-Sim uArch: Shader 3 finished CTA #1 (17498,0), 2 CTAs running
GPGPU-Sim uArch: core:  3, cta: 1 initialized @(17499,0)
GPGPU-Sim uArch: cycles simulated: 17500  inst.: 1478549 (ipc=84.5) sim_rate=64284 (inst/sec) elapsed = 0:0:00:23 / Tue Mar 22 12:40:03 2016
GPGPU-Sim uArch: Shader 2 finished CTA #1 (17500,0), 2 CTAs running
GPGPU-Sim uArch: core:  2, cta: 1 initialized @(17501,0)
GPGPU-Sim uArch: Shader 4 finished CTA #1 (17503,0), 2 CTAs running
GPGPU-Sim uArch: core:  4, cta: 1 initialized @(17504,0)
GPGPU-Sim uArch: Shader 14 finished CTA #1 (17506,0), 2 CTAs running
GPGPU-Sim uArch: core: 14, cta: 1 initialized @(17507,0)
GPGPU-Sim uArch: Shader 7 finished CTA #1 (17507,0), 2 CTAs running
GPGPU-Sim uArch: core:  7, cta: 1 initialized @(17508,0)
GPGPU-Sim uArch: Shader 8 finished CTA #1 (17508,0), 2 CTAs running
GPGPU-Sim uArch: core:  8, cta: 1 initialized @(17509,0)
GPGPU-Sim uArch: Shader 0 finished CTA #1 (17552,0), 2 CTAs running
GPGPU-Sim uArch: core:  0, cta: 1 initialized @(17553,0)
GPGPU-Sim uArch: Shader 13 finished CTA #1 (17554,0), 2 CTAs running
GPGPU-Sim uArch: core: 13, cta: 1 initialized @(17555,0)
GPGPU-Sim PTX: 1600000 instructions simulated : ctaid=(31,1,0) tid=(13,0,0)
GPGPU-Sim PTX: 1700000 instructions simulated : ctaid=(39,0,0) tid=(14,6,0)
GPGPU-Sim uArch: cycles simulated: 19000  inst.: 1662991 (ipc=87.5) sim_rate=69291 (inst/sec) elapsed = 0:0:00:24 / Tue Mar 22 12:40:04 2016
GPGPU-Sim uArch: Shader 12 finished CTA #2 (19141,0), 2 CTAs running
GPGPU-Sim uArch: core: 12, cta: 2 initialized @(19142,0)
GPGPU-Sim PTX: 1800000 instructions simulated : ctaid=(16,1,0) tid=(13,12,0)
GPGPU-Sim uArch: Shader 11 finished CTA #2 (19168,0), 2 CTAs running
GPGPU-Sim uArch: core: 11, cta: 2 initialized @(19169,0)
GPGPU-Sim uArch: Shader 9 finished CTA #2 (19174,0), 2 CTAs running
GPGPU-Sim uArch: core:  9, cta: 2 initialized @(19175,0)
GPGPU-Sim uArch: Shader 10 finished CTA #2 (19188,0), 2 CTAs running
GPGPU-Sim uArch: core: 10, cta: 2 initialized @(19189,0)
GPGPU-Sim uArch: Shader 8 finished CTA #2 (19197,0), 2 CTAs running
GPGPU-Sim uArch: core:  8, cta: 2 initialized @(19198,0)
GPGPU-Sim uArch: Shader 13 finished CTA #2 (19221,0), 2 CTAs running
GPGPU-Sim uArch: core: 13, cta: 2 initialized @(19222,0)
GPGPU-Sim PTX: 1900000 instructions simulated : ctaid=(30,0,0) tid=(8,11,0)
GPGPU-Sim uArch: cycles simulated: 21000  inst.: 1852075 (ipc=88.2) sim_rate=74083 (inst/sec) elapsed = 0:0:00:25 / Tue Mar 22 12:40:05 2016
GPGPU-Sim PTX: 2000000 instructions simulated : ctaid=(0,1,0) tid=(7,2,0)
GPGPU-Sim PTX: 2100000 instructions simulated : ctaid=(35,1,0) tid=(10,0,0)
GPGPU-Sim uArch: Shader 1 finished CTA #2 (22376,0), 2 CTAs running
GPGPU-Sim uArch: core:  1, cta: 2 initialized @(22377,0)
GPGPU-Sim uArch: cycles simulated: 22500  inst.: 2019183 (ipc=89.7) sim_rate=77660 (inst/sec) elapsed = 0:0:00:26 / Tue Mar 22 12:40:06 2016
GPGPU-Sim PTX: 2200000 instructions simulated : ctaid=(34,0,0) tid=(9,12,0)
GPGPU-Sim uArch: Shader 2 finished CTA #2 (23331,0), 2 CTAs running
GPGPU-Sim uArch: core:  2, cta: 2 initialized @(23332,0)
GPGPU-Sim PTX: 2300000 instructions simulated : ctaid=(15,1,0) tid=(5,7,0)
GPGPU-Sim uArch: Shader 6 finished CTA #2 (24292,0), 2 CTAs running
GPGPU-Sim uArch: core:  6, cta: 2 initialized @(24293,0)
GPGPU-Sim uArch: Shader 7 finished CTA #2 (24310,0), 2 CTAs running
GPGPU-Sim uArch: core:  7, cta: 2 initialized @(24311,0)
GPGPU-Sim PTX: 2400000 instructions simulated : ctaid=(4,1,0) tid=(15,2,0)
GPGPU-Sim uArch: Shader 5 finished CTA #2 (24347,0), 2 CTAs running
GPGPU-Sim uArch: core:  5, cta: 2 initialized @(24348,0)
GPGPU-Sim uArch: Shader 3 finished CTA #2 (24367,0), 2 CTAs running
GPGPU-Sim uArch: core:  3, cta: 2 initialized @(24368,0)
GPGPU-Sim uArch: Shader 4 finished CTA #2 (24372,0), 2 CTAs running
GPGPU-Sim uArch: core:  4, cta: 2 initialized @(24373,0)
GPGPU-Sim uArch: Shader 14 finished CTA #2 (24377,0), 2 CTAs running
GPGPU-Sim uArch: core: 14, cta: 2 initialized @(24378,0)
GPGPU-Sim uArch: Shader 0 finished CTA #2 (24399,0), 2 CTAs running
GPGPU-Sim uArch: core:  0, cta: 2 initialized @(24400,0)
GPGPU-Sim uArch: cycles simulated: 24500  inst.: 2251634 (ipc=91.9) sim_rate=83393 (inst/sec) elapsed = 0:0:00:27 / Tue Mar 22 12:40:07 2016
GPGPU-Sim PTX: 2500000 instructions simulated : ctaid=(6,1,0) tid=(11,10,0)
GPGPU-Sim uArch: Shader 12 finished CTA #0 (26271,0), 2 CTAs running
GPGPU-Sim uArch: core: 12, cta: 0 initialized @(26272,0)
GPGPU-Sim uArch: Shader 9 finished CTA #0 (26287,0), 2 CTAs running
GPGPU-Sim uArch: core:  9, cta: 0 initialized @(26288,0)
GPGPU-Sim uArch: Shader 13 finished CTA #0 (26307,0), 2 CTAs running
GPGPU-Sim uArch: core: 13, cta: 0 initialized @(26308,0)
GPGPU-Sim uArch: Shader 11 finished CTA #0 (26318,0), 2 CTAs running
GPGPU-Sim uArch: core: 11, cta: 0 initialized @(26319,0)
GPGPU-Sim uArch: Shader 8 finished CTA #0 (26324,0), 2 CTAs running
GPGPU-Sim uArch: core:  8, cta: 0 initialized @(26325,0)
GPGPU-Sim uArch: Shader 10 finished CTA #0 (26348,0), 2 CTAs running
GPGPU-Sim uArch: core: 10, cta: 0 initialized @(26349,0)
GPGPU-Sim PTX: 2600000 instructions simulated : ctaid=(11,1,0) tid=(9,0,0)
GPGPU-Sim uArch: cycles simulated: 27000  inst.: 2480180 (ipc=91.9) sim_rate=88577 (inst/sec) elapsed = 0:0:00:28 / Tue Mar 22 12:40:08 2016
GPGPU-Sim PTX: 2700000 instructions simulated : ctaid=(9,1,0) tid=(5,7,0)
GPGPU-Sim PTX: 2800000 instructions simulated : ctaid=(10,1,0) tid=(4,10,0)
GPGPU-Sim uArch: Shader 1 finished CTA #0 (28308,0), 2 CTAs running
GPGPU-Sim uArch: core:  1, cta: 0 initialized @(28309,0)
GPGPU-Sim uArch: cycles simulated: 28500  inst.: 2637128 (ipc=92.5) sim_rate=90935 (inst/sec) elapsed = 0:0:00:29 / Tue Mar 22 12:40:09 2016
GPGPU-Sim PTX: 2900000 instructions simulated : ctaid=(9,1,0) tid=(2,13,0)
GPGPU-Sim PTX: 3000000 instructions simulated : ctaid=(29,1,0) tid=(6,3,0)
GPGPU-Sim uArch: Shader 5 finished CTA #0 (30301,0), 2 CTAs running
GPGPU-Sim uArch: core:  5, cta: 0 initialized @(30302,0)
GPGPU-Sim uArch: Shader 2 finished CTA #0 (30346,0), 2 CTAs running
GPGPU-Sim uArch: core:  2, cta: 0 initialized @(30347,0)
GPGPU-Sim uArch: Shader 7 finished CTA #0 (30366,0), 2 CTAs running
GPGPU-Sim uArch: core:  7, cta: 0 initialized @(30367,0)
GPGPU-Sim uArch: Shader 3 finished CTA #0 (30429,0), 2 CTAs running
GPGPU-Sim uArch: core:  3, cta: 0 initialized @(30430,0)
GPGPU-Sim PTX: 3100000 instructions simulated : ctaid=(24,1,0) tid=(11,7,0)
GPGPU-Sim uArch: Shader 6 finished CTA #0 (30919,0), 2 CTAs running
GPGPU-Sim uArch: core:  6, cta: 0 initialized @(30920,0)
GPGPU-Sim uArch: Shader 0 finished CTA #0 (30975,0), 2 CTAs running
GPGPU-Sim uArch: Shader 4 finished CTA #0 (30975,0), 2 CTAs running
GPGPU-Sim uArch: core:  0, cta: 0 initialized @(30976,0)
GPGPU-Sim uArch: core:  4, cta: 0 initialized @(30976,0)
GPGPU-Sim uArch: cycles simulated: 31000  inst.: 2935424 (ipc=94.7) sim_rate=97847 (inst/sec) elapsed = 0:0:00:30 / Tue Mar 22 12:40:10 2016
GPGPU-Sim uArch: Shader 14 finished CTA #0 (31241,0), 2 CTAs running
GPGPU-Sim uArch: core: 14, cta: 0 initialized @(31242,0)
GPGPU-Sim PTX: 3200000 instructions simulated : ctaid=(31,1,0) tid=(9,13,0)
GPGPU-Sim PTX: 3300000 instructions simulated : ctaid=(12,2,0) tid=(1,9,0)
GPGPU-Sim uArch: cycles simulated: 32500  inst.: 3084362 (ipc=94.9) sim_rate=99495 (inst/sec) elapsed = 0:0:00:31 / Tue Mar 22 12:40:11 2016
GPGPU-Sim uArch: Shader 12 finished CTA #1 (33119,0), 2 CTAs running
GPGPU-Sim uArch: core: 12, cta: 1 initialized @(33120,0)
GPGPU-Sim uArch: Shader 13 finished CTA #1 (33132,0), 2 CTAs running
GPGPU-Sim uArch: core: 13, cta: 1 initialized @(33133,0)
GPGPU-Sim uArch: Shader 9 finished CTA #1 (33172,0), 2 CTAs running
GPGPU-Sim uArch: core:  9, cta: 1 initialized @(33173,0)
GPGPU-Sim uArch: Shader 11 finished CTA #1 (33188,0), 2 CTAs running
GPGPU-Sim uArch: core: 11, cta: 1 initialized @(33189,0)
GPGPU-Sim uArch: Shader 10 finished CTA #1 (33207,0), 2 CTAs running
GPGPU-Sim uArch: core: 10, cta: 1 initialized @(33208,0)
GPGPU-Sim uArch: Shader 8 finished CTA #1 (33226,0), 2 CTAs running
GPGPU-Sim uArch: core:  8, cta: 1 initialized @(33227,0)
GPGPU-Sim PTX: 3400000 instructions simulated : ctaid=(7,2,0) tid=(7,13,0)
GPGPU-Sim PTX: 3500000 instructions simulated : ctaid=(26,1,0) tid=(11,6,0)
GPGPU-Sim uArch: Shader 1 finished CTA #1 (34279,0), 2 CTAs running
GPGPU-Sim uArch: core:  1, cta: 1 initialized @(34280,0)
GPGPU-Sim uArch: Shader 13 finished CTA #2 (34825,0), 2 CTAs running
GPGPU-Sim uArch: core: 13, cta: 2 initialized @(34826,0)
GPGPU-Sim PTX: 3600000 instructions simulated : ctaid=(28,1,0) tid=(14,14,0)
GPGPU-Sim uArch: cycles simulated: 35000  inst.: 3380904 (ipc=96.6) sim_rate=105653 (inst/sec) elapsed = 0:0:00:32 / Tue Mar 22 12:40:12 2016
GPGPU-Sim PTX: 3700000 instructions simulated : ctaid=(28,1,0) tid=(2,11,0)
GPGPU-Sim uArch: Shader 1 finished CTA #2 (36089,0), 2 CTAs running
GPGPU-Sim uArch: core:  1, cta: 2 initialized @(36090,0)
GPGPU-Sim uArch: Shader 7 finished CTA #1 (36169,0), 2 CTAs running
GPGPU-Sim uArch: core:  7, cta: 1 initialized @(36170,0)
GPGPU-Sim uArch: Shader 5 finished CTA #1 (36245,0), 2 CTAs running
GPGPU-Sim uArch: core:  5, cta: 1 initialized @(36246,0)
GPGPU-Sim uArch: Shader 3 finished CTA #1 (36248,0), 2 CTAs running
GPGPU-Sim uArch: core:  3, cta: 1 initialized @(36249,0)
GPGPU-Sim PTX: 3800000 instructions simulated : ctaid=(33,1,0) tid=(13,3,0)
GPGPU-Sim uArch: Shader 6 finished CTA #1 (36788,0), 2 CTAs running
GPGPU-Sim uArch: core:  6, cta: 1 initialized @(36789,0)
GPGPU-Sim uArch: Shader 0 finished CTA #1 (36813,0), 2 CTAs running
GPGPU-Sim uArch: core:  0, cta: 1 initialized @(36814,0)
GPGPU-Sim uArch: cycles simulated: 37000  inst.: 3606144 (ipc=97.5) sim_rate=109277 (inst/sec) elapsed = 0:0:00:33 / Tue Mar 22 12:40:13 2016
GPGPU-Sim uArch: Shader 2 finished CTA #1 (37223,0), 2 CTAs running
GPGPU-Sim uArch: core:  2, cta: 1 initialized @(37224,0)
GPGPU-Sim uArch: Shader 4 finished CTA #1 (37268,0), 2 CTAs running
GPGPU-Sim uArch: core:  4, cta: 1 initialized @(37269,0)
GPGPU-Sim uArch: Shader 14 finished CTA #1 (37303,0), 2 CTAs running
GPGPU-Sim uArch: core: 14, cta: 1 initialized @(37304,0)
GPGPU-Sim PTX: 3900000 instructions simulated : ctaid=(40,1,0) tid=(0,2,0)
GPGPU-Sim uArch: Shader 7 finished CTA #2 (37981,0), 2 CTAs running
GPGPU-Sim uArch: core:  7, cta: 2 initialized @(37982,0)
GPGPU-Sim PTX: 4000000 instructions simulated : ctaid=(40,1,0) tid=(10,8,0)
GPGPU-Sim uArch: Shader 5 finished CTA #2 (38056,0), 2 CTAs running
GPGPU-Sim uArch: core:  5, cta: 2 initialized @(38057,0)
GPGPU-Sim uArch: Shader 6 finished CTA #2 (38600,0), 2 CTAs running
GPGPU-Sim uArch: core:  6, cta: 2 initialized @(38601,0)
GPGPU-Sim PTX: 4100000 instructions simulated : ctaid=(39,1,0) tid=(3,12,0)
GPGPU-Sim uArch: Shader 2 finished CTA #2 (38925,0), 2 CTAs running
GPGPU-Sim uArch: core:  2, cta: 2 initialized @(38926,0)
GPGPU-Sim uArch: cycles simulated: 39500  inst.: 3892002 (ipc=98.5) sim_rate=114470 (inst/sec) elapsed = 0:0:00:34 / Tue Mar 22 12:40:14 2016
GPGPU-Sim PTX: 4200000 instructions simulated : ctaid=(4,2,0) tid=(9,3,0)
GPGPU-Sim uArch: Shader 12 finished CTA #2 (39976,0), 2 CTAs running
GPGPU-Sim uArch: core: 12, cta: 2 initialized @(39977,0)
GPGPU-Sim uArch: Shader 11 finished CTA #2 (39998,0), 2 CTAs running
GPGPU-Sim uArch: core: 11, cta: 2 initialized @(39999,0)
GPGPU-Sim uArch: Shader 10 finished CTA #2 (40009,0), 2 CTAs running
GPGPU-Sim uArch: core: 10, cta: 2 initialized @(40010,0)
GPGPU-Sim uArch: Shader 8 finished CTA #2 (40044,0), 2 CTAs running
GPGPU-Sim uArch: core:  8, cta: 2 initialized @(40045,0)
GPGPU-Sim uArch: Shader 9 finished CTA #2 (40047,0), 2 CTAs running
GPGPU-Sim uArch: core:  9, cta: 2 initialized @(40048,0)
GPGPU-Sim PTX: 4300000 instructions simulated : ctaid=(38,2,0) tid=(0,4,0)
GPGPU-Sim PTX: 4400000 instructions simulated : ctaid=(10,2,0) tid=(6,14,0)
GPGPU-Sim uArch: cycles simulated: 42000  inst.: 4151507 (ipc=98.8) sim_rate=118614 (inst/sec) elapsed = 0:0:00:35 / Tue Mar 22 12:40:15 2016
GPGPU-Sim uArch: Shader 13 finished CTA #0 (42108,0), 2 CTAs running
GPGPU-Sim uArch: core: 13, cta: 0 initialized @(42109,0)
GPGPU-Sim PTX: 4500000 instructions simulated : ctaid=(26,2,0) tid=(5,8,0)
GPGPU-Sim PTX: 4600000 instructions simulated : ctaid=(2,3,0) tid=(15,1,0)
GPGPU-Sim uArch: Shader 1 finished CTA #0 (43206,0), 2 CTAs running
GPGPU-Sim uArch: core:  1, cta: 0 initialized @(43207,0)
GPGPU-Sim uArch: Shader 4 finished CTA #2 (43230,0), 2 CTAs running
GPGPU-Sim uArch: core:  4, cta: 2 initialized @(43231,0)
GPGPU-Sim uArch: Shader 3 finished CTA #2 (43249,0), 2 CTAs running
GPGPU-Sim uArch: core:  3, cta: 2 initialized @(43250,0)
GPGPU-Sim uArch: Shader 0 finished CTA #2 (43788,0), 2 CTAs running
GPGPU-Sim uArch: core:  0, cta: 2 initialized @(43789,0)
GPGPU-Sim uArch: Shader 14 finished CTA #2 (43807,0), 2 CTAs running
GPGPU-Sim uArch: core: 14, cta: 2 initialized @(43808,0)
GPGPU-Sim PTX: 4700000 instructions simulated : ctaid=(9,2,0) tid=(10,10,0)
GPGPU-Sim uArch: cycles simulated: 44000  inst.: 4404252 (ipc=100.1) sim_rate=122340 (inst/sec) elapsed = 0:0:00:36 / Tue Mar 22 12:40:16 2016
GPGPU-Sim PTX: 4800000 instructions simulated : ctaid=(4,3,0) tid=(11,5,0)
GPGPU-Sim uArch: Shader 5 finished CTA #0 (45131,0), 2 CTAs running
GPGPU-Sim uArch: core:  5, cta: 0 initialized @(45132,0)
GPGPU-Sim uArch: Shader 6 finished CTA #0 (45142,0), 2 CTAs running
GPGPU-Sim uArch: core:  6, cta: 0 initialized @(45143,0)
GPGPU-Sim uArch: Shader 2 finished CTA #0 (45196,0), 2 CTAs running
GPGPU-Sim uArch: core:  2, cta: 0 initialized @(45197,0)
GPGPU-Sim uArch: Shader 7 finished CTA #0 (45200,0), 2 CTAs running
GPGPU-Sim uArch: core:  7, cta: 0 initialized @(45201,0)
GPGPU-Sim PTX: 4900000 instructions simulated : ctaid=(9,3,0) tid=(7,5,0)
GPGPU-Sim uArch: Shader 11 finished CTA #0 (45860,0), 2 CTAs running
GPGPU-Sim uArch: core: 11, cta: 0 initialized @(45861,0)
GPGPU-Sim uArch: Shader 10 finished CTA #0 (45922,0), 2 CTAs running
GPGPU-Sim uArch: core: 10, cta: 0 initialized @(45923,0)
GPGPU-Sim uArch: Shader 12 finished CTA #0 (45933,0), 2 CTAs running
GPGPU-Sim uArch: core: 12, cta: 0 initialized @(45934,0)
GPGPU-Sim uArch: Shader 9 finished CTA #0 (45936,0), 2 CTAs running
GPGPU-Sim uArch: core:  9, cta: 0 initialized @(45937,0)
GPGPU-Sim uArch: Shader 8 finished CTA #0 (45971,0), 2 CTAs running
GPGPU-Sim uArch: core:  8, cta: 0 initialized @(45972,0)
GPGPU-Sim uArch: cycles simulated: 46000  inst.: 4599268 (ipc=100.0) sim_rate=124304 (inst/sec) elapsed = 0:0:00:37 / Tue Mar 22 12:40:17 2016
GPGPU-Sim PTX: 5000000 instructions simulated : ctaid=(20,2,0) tid=(9,10,0)
GPGPU-Sim uArch: cycles simulated: 47500  inst.: 4743108 (ipc=99.9) sim_rate=124818 (inst/sec) elapsed = 0:0:00:38 / Tue Mar 22 12:40:18 2016
GPGPU-Sim PTX: 5100000 instructions simulated : ctaid=(16,2,0) tid=(3,8,0)
GPGPU-Sim PTX: 5200000 instructions simulated : ctaid=(28,2,0) tid=(4,1,0)
GPGPU-Sim uArch: cycles simulated: 49000  inst.: 4923006 (ipc=100.5) sim_rate=126230 (inst/sec) elapsed = 0:0:00:39 / Tue Mar 22 12:40:19 2016
GPGPU-Sim uArch: Shader 13 finished CTA #1 (49058,0), 2 CTAs running
GPGPU-Sim uArch: core: 13, cta: 1 initialized @(49059,0)
GPGPU-Sim uArch: Shader 3 finished CTA #0 (49082,0), 2 CTAs running
GPGPU-Sim uArch: core:  3, cta: 0 initialized @(49083,0)
GPGPU-Sim PTX: 5300000 instructions simulated : ctaid=(19,2,0) tid=(8,4,0)
GPGPU-Sim PTX: 5400000 instructions simulated : ctaid=(23,2,0) tid=(6,10,0)
GPGPU-Sim uArch: Shader 4 finished CTA #0 (50089,0), 2 CTAs running
GPGPU-Sim uArch: core:  4, cta: 0 initialized @(50090,0)
GPGPU-Sim uArch: Shader 0 finished CTA #0 (50128,0), 2 CTAs running
GPGPU-Sim uArch: core:  0, cta: 0 initialized @(50129,0)
GPGPU-Sim uArch: Shader 14 finished CTA #0 (50147,0), 2 CTAs running
GPGPU-Sim uArch: core: 14, cta: 0 initialized @(50148,0)
GPGPU-Sim uArch: Shader 1 finished CTA #1 (50180,0), 2 CTAs running
GPGPU-Sim uArch: core:  1, cta: 1 initialized @(50181,0)
GPGPU-Sim uArch: cycles simulated: 50500  inst.: 5108954 (ipc=101.2) sim_rate=127723 (inst/sec) elapsed = 0:0:00:40 / Tue Mar 22 12:40:20 2016
GPGPU-Sim PTX: 5500000 instructions simulated : ctaid=(21,2,0) tid=(8,12,0)
GPGPU-Sim PTX: 5600000 instructions simulated : ctaid=(24,2,0) tid=(8,14,0)
GPGPU-Sim uArch: Shader 12 finished CTA #1 (51880,0), 2 CTAs running
GPGPU-Sim uArch: core: 12, cta: 1 initialized @(51881,0)
GPGPU-Sim uArch: Shader 9 finished CTA #1 (51898,0), 2 CTAs running
GPGPU-Sim uArch: core:  9, cta: 1 initialized @(51899,0)
GPGPU-Sim uArch: Shader 10 finished CTA #1 (51909,0), 2 CTAs running
GPGPU-Sim uArch: core: 10, cta: 1 initialized @(51910,0)
GPGPU-Sim uArch: Shader 11 finished CTA #1 (51930,0), 2 CTAs running
GPGPU-Sim uArch: core: 11, cta: 1 initialized @(51931,0)
GPGPU-Sim uArch: Shader 8 finished CTA #1 (51945,0), 2 CTAs running
GPGPU-Sim uArch: core:  8, cta: 1 initialized @(51946,0)
GPGPU-Sim uArch: Shader 6 finished CTA #1 (51997,0), 2 CTAs running
GPGPU-Sim uArch: core:  6, cta: 1 initialized @(51998,0)
GPGPU-Sim uArch: Shader 5 finished CTA #1 (52028,0), 2 CTAs running
GPGPU-Sim uArch: core:  5, cta: 1 initialized @(52029,0)
GPGPU-Sim uArch: Shader 2 finished CTA #1 (52051,0), 2 CTAs running
GPGPU-Sim uArch: core:  2, cta: 1 initialized @(52052,0)
GPGPU-Sim uArch: Shader 7 finished CTA #1 (52055,0), 2 CTAs running
GPGPU-Sim uArch: core:  7, cta: 1 initialized @(52056,0)
GPGPU-Sim uArch: cycles simulated: 52500  inst.: 5323306 (ipc=101.4) sim_rate=129836 (inst/sec) elapsed = 0:0:00:41 / Tue Mar 22 12:40:21 2016
GPGPU-Sim PTX: 5700000 instructions simulated : ctaid=(24,3,0) tid=(3,1,0)
GPGPU-Sim PTX: 5800000 instructions simulated : ctaid=(37,2,0) tid=(7,11,0)
GPGPU-Sim uArch: Shader 12 finished CTA #2 (53692,0), 2 CTAs running
GPGPU-Sim uArch: core: 12, cta: 2 initialized @(53693,0)
GPGPU-Sim uArch: Shader 6 finished CTA #2 (53706,0), 2 CTAs running
GPGPU-Sim uArch: core:  6, cta: 2 initialized @(53707,0)
GPGPU-Sim uArch: Shader 10 finished CTA #2 (53722,0), 2 CTAs running
GPGPU-Sim uArch: core: 10, cta: 2 initialized @(53723,0)
GPGPU-Sim uArch: Shader 5 finished CTA #2 (53725,0), 2 CTAs running
GPGPU-Sim uArch: core:  5, cta: 2 initialized @(53726,0)
GPGPU-Sim uArch: Shader 11 finished CTA #2 (53740,0), 2 CTAs running
GPGPU-Sim uArch: core: 11, cta: 2 initialized @(53741,0)
GPGPU-Sim uArch: Shader 2 finished CTA #2 (53741,0), 2 CTAs running
GPGPU-Sim uArch: core:  2, cta: 2 initialized @(53742,0)
GPGPU-Sim PTX: 5900000 instructions simulated : ctaid=(24,3,0) tid=(5,8,0)
GPGPU-Sim uArch: cycles simulated: 54000  inst.: 5542890 (ipc=102.6) sim_rate=131973 (inst/sec) elapsed = 0:0:00:42 / Tue Mar 22 12:40:22 2016
GPGPU-Sim PTX: 6000000 instructions simulated : ctaid=(13,3,0) tid=(6,7,0)
GPGPU-Sim uArch: Shader 13 finished CTA #2 (54911,0), 2 CTAs running
GPGPU-Sim uArch: core: 13, cta: 2 initialized @(54912,0)
GPGPU-Sim uArch: Shader 3 finished CTA #1 (55049,0), 2 CTAs running
GPGPU-Sim uArch: core:  3, cta: 1 initialized @(55050,0)
GPGPU-Sim uArch: cycles simulated: 55500  inst.: 5683349 (ipc=102.4) sim_rate=132170 (inst/sec) elapsed = 0:0:00:43 / Tue Mar 22 12:40:23 2016
GPGPU-Sim PTX: 6100000 instructions simulated : ctaid=(1,3,0) tid=(7,6,0)
GPGPU-Sim uArch: Shader 0 finished CTA #1 (56063,0), 2 CTAs running
GPGPU-Sim uArch: core:  0, cta: 1 initialized @(56064,0)
GPGPU-Sim uArch: Shader 1 finished CTA #2 (56069,0), 2 CTAs running
GPGPU-Sim uArch: core:  1, cta: 2 initialized @(56070,0)
GPGPU-Sim PTX: 6200000 instructions simulated : ctaid=(1,3,0) tid=(2,10,0)
GPGPU-Sim uArch: Shader 4 finished CTA #1 (56956,0), 2 CTAs running
GPGPU-Sim uArch: core:  4, cta: 1 initialized @(56957,0)
GPGPU-Sim uArch: Shader 14 finished CTA #1 (56976,0), 2 CTAs running
GPGPU-Sim uArch: core: 14, cta: 1 initialized @(56977,0)
GPGPU-Sim uArch: cycles simulated: 57500  inst.: 5877709 (ipc=102.2) sim_rate=133584 (inst/sec) elapsed = 0:0:00:44 / Tue Mar 22 12:40:24 2016
GPGPU-Sim PTX: 6300000 instructions simulated : ctaid=(10,3,0) tid=(13,7,0)
GPGPU-Sim uArch: Shader 7 finished CTA #2 (57899,0), 2 CTAs running
GPGPU-Sim uArch: core:  7, cta: 2 initialized @(57900,0)
GPGPU-Sim PTX: 6400000 instructions simulated : ctaid=(12,3,0) tid=(2,10,0)
GPGPU-Sim uArch: Shader 9 finished CTA #2 (58912,0), 2 CTAs running
GPGPU-Sim uArch: core:  9, cta: 2 initialized @(58913,0)
GPGPU-Sim uArch: Shader 8 finished CTA #2 (58931,0), 2 CTAs running
GPGPU-Sim uArch: core:  8, cta: 2 initialized @(58932,0)
GPGPU-Sim uArch: cycles simulated: 59000  inst.: 6041554 (ipc=102.4) sim_rate=134256 (inst/sec) elapsed = 0:0:00:45 / Tue Mar 22 12:40:25 2016
GPGPU-Sim PTX: 6500000 instructions simulated : ctaid=(12,3,0) tid=(13,14,0)
GPGPU-Sim PTX: 6600000 instructions simulated : ctaid=(34,3,0) tid=(3,0,0)
GPGPU-Sim uArch: cycles simulated: 60500  inst.: 6228572 (ipc=103.0) sim_rate=135403 (inst/sec) elapsed = 0:0:00:46 / Tue Mar 22 12:40:26 2016
GPGPU-Sim PTX: 6700000 instructions simulated : ctaid=(5,3,0) tid=(6,13,0)
GPGPU-Sim uArch: Shader 12 finished CTA #0 (60796,0), 2 CTAs running
GPGPU-Sim uArch: core: 12, cta: 0 initialized @(60797,0)
GPGPU-Sim uArch: Shader 2 finished CTA #0 (60847,0), 2 CTAs running
GPGPU-Sim uArch: core:  2, cta: 0 initialized @(60848,0)
GPGPU-Sim uArch: Shader 6 finished CTA #0 (60879,0), 2 CTAs running
GPGPU-Sim uArch: core:  6, cta: 0 initialized @(60880,0)
GPGPU-Sim uArch: Shader 11 finished CTA #0 (60906,0), 2 CTAs running
GPGPU-Sim uArch: core: 11, cta: 0 initialized @(60907,0)
GPGPU-Sim uArch: Shader 5 finished CTA #0 (60908,0), 2 CTAs running
GPGPU-Sim uArch: core:  5, cta: 0 initialized @(60909,0)
GPGPU-Sim uArch: Shader 10 finished CTA #0 (60944,0), 2 CTAs running
GPGPU-Sim uArch: core: 10, cta: 0 initialized @(60945,0)
GPGPU-Sim PTX: 6800000 instructions simulated : ctaid=(15,3,0) tid=(9,5,0)
GPGPU-Sim uArch: Shader 13 finished CTA #0 (61910,0), 2 CTAs running
GPGPU-Sim uArch: core: 13, cta: 0 initialized @(61911,0)
GPGPU-Sim uArch: Shader 3 finished CTA #2 (61978,0), 2 CTAs running
GPGPU-Sim uArch: core:  3, cta: 2 initialized @(61979,0)
GPGPU-Sim uArch: cycles simulated: 62000  inst.: 6379020 (ipc=102.9) sim_rate=135723 (inst/sec) elapsed = 0:0:00:47 / Tue Mar 22 12:40:27 2016
GPGPU-Sim uArch: Shader 1 finished CTA #0 (62037,0), 2 CTAs running
GPGPU-Sim uArch: core:  1, cta: 0 initialized @(62038,0)
GPGPU-Sim uArch: Shader 0 finished CTA #2 (62117,0), 2 CTAs running
GPGPU-Sim uArch: core:  0, cta: 2 initialized @(62118,0)
GPGPU-Sim PTX: 6900000 instructions simulated : ctaid=(21,3,0) tid=(11,3,0)
GPGPU-Sim uArch: Shader 14 finished CTA #2 (62820,0), 2 CTAs running
GPGPU-Sim uArch: core: 14, cta: 2 initialized @(62821,0)
GPGPU-Sim uArch: Shader 4 finished CTA #2 (62858,0), 2 CTAs running
GPGPU-Sim uArch: core:  4, cta: 2 initialized @(62859,0)
GPGPU-Sim PTX: 7000000 instructions simulated : ctaid=(23,3,0) tid=(3,3,0)
GPGPU-Sim uArch: Shader 7 finished CTA #0 (63938,0), 2 CTAs running
GPGPU-Sim uArch: core:  7, cta: 0 initialized @(63939,0)
GPGPU-Sim uArch: cycles simulated: 64000  inst.: 6557396 (ipc=102.5) sim_rate=136612 (inst/sec) elapsed = 0:0:00:48 / Tue Mar 22 12:40:28 2016
GPGPU-Sim uArch: Shader 9 finished CTA #0 (64731,0), 2 CTAs running
GPGPU-Sim uArch: core:  9, cta: 0 initialized @(64732,0)
GPGPU-Sim PTX: 7100000 instructions simulated : ctaid=(23,3,0) tid=(15,5,0)
GPGPU-Sim uArch: cycles simulated: 65500  inst.: 6730366 (ipc=102.8) sim_rate=137354 (inst/sec) elapsed = 0:0:00:49 / Tue Mar 22 12:40:29 2016
GPGPU-Sim PTX: 7200000 instructions simulated : ctaid=(26,3,0) tid=(15,8,0)
GPGPU-Sim uArch: Shader 8 finished CTA #0 (65770,0), 2 CTAs running
GPGPU-Sim uArch: core:  8, cta: 0 initialized @(65771,0)
GPGPU-Sim PTX: 7300000 instructions simulated : ctaid=(26,3,0) tid=(11,15,0)
GPGPU-Sim PTX: 7400000 instructions simulated : ctaid=(21,3,0) tid=(12,11,0)
GPGPU-Sim uArch: cycles simulated: 67500  inst.: 6984244 (ipc=103.5) sim_rate=139684 (inst/sec) elapsed = 0:0:00:50 / Tue Mar 22 12:40:30 2016
GPGPU-Sim uArch: Shader 2 finished CTA #1 (67706,0), 2 CTAs running
GPGPU-Sim uArch: core:  2, cta: 1 initialized @(67707,0)
GPGPU-Sim uArch: Shader 12 finished CTA #1 (67710,0), 2 CTAs running
GPGPU-Sim uArch: core: 12, cta: 1 initialized @(67711,0)
GPGPU-Sim uArch: Shader 13 finished CTA #1 (67738,0), 2 CTAs running
GPGPU-Sim uArch: core: 13, cta: 1 initialized @(67739,0)
GPGPU-Sim uArch: Shader 6 finished CTA #1 (67746,0), 2 CTAs running
GPGPU-Sim uArch: core:  6, cta: 1 initialized @(67747,0)
GPGPU-Sim PTX: 7500000 instructions simulated : ctaid=(21,3,0) tid=(2,13,0)
GPGPU-Sim uArch: Shader 5 finished CTA #1 (67774,0), 2 CTAs running
GPGPU-Sim uArch: core:  5, cta: 1 initialized @(67775,0)
GPGPU-Sim uArch: Shader 11 finished CTA #1 (67797,0), 2 CTAs running
GPGPU-Sim uArch: core: 11, cta: 1 initialized @(67798,0)
GPGPU-Sim uArch: Shader 10 finished CTA #1 (67827,0), 2 CTAs running
GPGPU-Sim uArch: core: 10, cta: 1 initialized @(67828,0)
GPGPU-Sim PTX: 7600000 instructions simulated : ctaid=(39,3,0) tid=(1,2,0)
GPGPU-Sim uArch: Shader 3 finished CTA #0 (68894,0), 2 CTAs running
GPGPU-Sim uArch: core:  3, cta: 0 initialized @(68895,0)
GPGPU-Sim uArch: Shader 4 finished CTA #0 (68940,0), 2 CTAs running
GPGPU-Sim uArch: core:  4, cta: 0 initialized @(68941,0)
GPGPU-Sim uArch: Shader 14 finished CTA #0 (69038,0), 2 CTAs running
GPGPU-Sim uArch: core: 14, cta: 0 initialized @(69039,0)
GPGPU-Sim uArch: Shader 1 finished CTA #1 (69059,0), 2 CTAs running
GPGPU-Sim uArch: core:  1, cta: 1 initialized @(69060,0)
GPGPU-Sim uArch: Shader 0 finished CTA #0 (69069,0), 2 CTAs running
GPGPU-Sim uArch: core:  0, cta: 0 initialized @(69070,0)
GPGPU-Sim uArch: Shader 2 finished CTA #2 (69402,0), 2 CTAs running
GPGPU-Sim uArch: core:  2, cta: 2 initialized @(69403,0)
GPGPU-Sim PTX: 7700000 instructions simulated : ctaid=(5,4,0) tid=(9,3,0)
GPGPU-Sim uArch: cycles simulated: 69500  inst.: 7210944 (ipc=103.8) sim_rate=141391 (inst/sec) elapsed = 0:0:00:51 / Tue Mar 22 12:40:31 2016
GPGPU-Sim uArch: Shader 13 finished CTA #2 (69549,0), 2 CTAs running
GPGPU-Sim uArch: core: 13, cta: 2 initialized @(69550,0)
GPGPU-Sim uArch: Shader 7 finished CTA #1 (69871,0), 2 CTAs running
GPGPU-Sim uArch: core:  7, cta: 1 initialized @(69872,0)
GPGPU-Sim PTX: 7800000 instructions simulated : ctaid=(39,3,0) tid=(3,14,0)
GPGPU-Sim uArch: Shader 3 finished CTA #1 (70574,0), 2 CTAs running
GPGPU-Sim uArch: core:  3, cta: 1 initialized @(70575,0)
GPGPU-Sim uArch: Shader 4 finished CTA #1 (70629,0), 2 CTAs running
GPGPU-Sim uArch: core:  4, cta: 1 initialized @(70630,0)
GPGPU-Sim uArch: Shader 9 finished CTA #1 (70693,0), 2 CTAs running
GPGPU-Sim uArch: core:  9, cta: 1 initialized @(70694,0)
GPGPU-Sim uArch: Shader 1 finished CTA #2 (70726,0), 2 CTAs running
GPGPU-Sim uArch: core:  1, cta: 2 initialized @(70727,0)
GPGPU-Sim uArch: Shader 0 finished CTA #1 (70768,0), 2 CTAs running
GPGPU-Sim uArch: core:  0, cta: 1 initialized @(70769,0)
GPGPU-Sim PTX: 7900000 instructions simulated : ctaid=(5,4,0) tid=(5,11,0)
GPGPU-Sim uArch: Shader 8 finished CTA #1 (71698,0), 2 CTAs running
GPGPU-Sim uArch: core:  8, cta: 1 initialized @(71699,0)
GPGPU-Sim uArch: cycles simulated: 72000  inst.: 7470546 (ipc=103.8) sim_rate=143664 (inst/sec) elapsed = 0:0:00:52 / Tue Mar 22 12:40:32 2016
GPGPU-Sim PTX: 8000000 instructions simulated : ctaid=(1,4,0) tid=(0,3,0)
GPGPU-Sim PTX: 8100000 instructions simulated : ctaid=(1,4,0) tid=(1,7,0)
GPGPU-Sim uArch: cycles simulated: 73500  inst.: 7628830 (ipc=103.8) sim_rate=143940 (inst/sec) elapsed = 0:0:00:53 / Tue Mar 22 12:40:33 2016
GPGPU-Sim PTX: 8200000 instructions simulated : ctaid=(13,4,0) tid=(9,0,0)
GPGPU-Sim PTX: 8300000 instructions simulated : ctaid=(10,4,0) tid=(7,11,0)
GPGPU-Sim uArch: Shader 12 finished CTA #2 (74573,0), 2 CTAs running
GPGPU-Sim uArch: core: 12, cta: 2 initialized @(74574,0)
GPGPU-Sim uArch: Shader 6 finished CTA #2 (74626,0), 2 CTAs running
GPGPU-Sim uArch: core:  6, cta: 2 initialized @(74627,0)
GPGPU-Sim uArch: Shader 10 finished CTA #2 (74646,0), 2 CTAs running
GPGPU-Sim uArch: core: 10, cta: 2 initialized @(74647,0)
GPGPU-Sim uArch: Shader 5 finished CTA #2 (74650,0), 2 CTAs running
GPGPU-Sim uArch: core:  5, cta: 2 initialized @(74651,0)
GPGPU-Sim uArch: Shader 11 finished CTA #2 (74653,0), 2 CTAs running
GPGPU-Sim uArch: core: 11, cta: 2 initialized @(74654,0)
GPGPU-Sim PTX: 8400000 instructions simulated : ctaid=(1,4,0) tid=(6,9,0)
GPGPU-Sim uArch: cycles simulated: 75500  inst.: 7873128 (ipc=104.3) sim_rate=145798 (inst/sec) elapsed = 0:0:00:54 / Tue Mar 22 12:40:34 2016
GPGPU-Sim uArch: Shader 14 finished CTA #1 (75888,0), 2 CTAs running
GPGPU-Sim uArch: core: 14, cta: 1 initialized @(75889,0)
GPGPU-Sim uArch: Shader 7 finished CTA #2 (75947,0), 2 CTAs running
GPGPU-Sim uArch: core:  7, cta: 2 initialized @(75948,0)
GPGPU-Sim PTX: 8500000 instructions simulated : ctaid=(15,4,0) tid=(1,15,0)
GPGPU-Sim uArch: Shader 2 finished CTA #0 (76525,0), 2 CTAs running
GPGPU-Sim uArch: core:  2, cta: 0 initialized @(76526,0)
GPGPU-Sim uArch: Shader 13 finished CTA #0 (76700,0), 2 CTAs running
GPGPU-Sim uArch: core: 13, cta: 0 initialized @(76701,0)
GPGPU-Sim uArch: cycles simulated: 77000  inst.: 8013892 (ipc=104.1) sim_rate=145707 (inst/sec) elapsed = 0:0:00:55 / Tue Mar 22 12:40:35 2016
GPGPU-Sim PTX: 8600000 instructions simulated : ctaid=(1,5,0) tid=(13,12,0)
GPGPU-Sim uArch: Shader 9 finished CTA #2 (77660,0), 2 CTAs running
GPGPU-Sim uArch: core:  9, cta: 2 initialized @(77661,0)
GPGPU-Sim uArch: Shader 1 finished CTA #0 (77703,0), 2 CTAs running
GPGPU-Sim uArch: core:  1, cta: 0 initialized @(77704,0)
GPGPU-Sim uArch: Shader 3 finished CTA #2 (77716,0), 2 CTAs running
GPGPU-Sim uArch: core:  3, cta: 2 initialized @(77717,0)
GPGPU-Sim uArch: Shader 8 finished CTA #2 (77746,0), 2 CTAs running
GPGPU-Sim uArch: core:  8, cta: 2 initialized @(77747,0)
GPGPU-Sim uArch: Shader 0 finished CTA #2 (77804,0), 2 CTAs running
GPGPU-Sim uArch: core:  0, cta: 2 initialized @(77805,0)
GPGPU-Sim uArch: Shader 4 finished CTA #2 (77822,0), 2 CTAs running
GPGPU-Sim uArch: core:  4, cta: 2 initialized @(77823,0)
GPGPU-Sim PTX: 8700000 instructions simulated : ctaid=(9,5,0) tid=(11,0,0)
GPGPU-Sim uArch: cycles simulated: 79000  inst.: 8201974 (ipc=103.8) sim_rate=146463 (inst/sec) elapsed = 0:0:00:56 / Tue Mar 22 12:40:36 2016
GPGPU-Sim PTX: 8800000 instructions simulated : ctaid=(8,5,0) tid=(11,4,0)
GPGPU-Sim PTX: 8900000 instructions simulated : ctaid=(10,5,0) tid=(13,13,0)
GPGPU-Sim uArch: Shader 12 finished CTA #0 (80557,0), 2 CTAs running
GPGPU-Sim uArch: core: 12, cta: 0 initialized @(80558,0)
GPGPU-Sim PTX: 9000000 instructions simulated : ctaid=(19,4,0) tid=(4,5,0)
GPGPU-Sim uArch: Shader 6 finished CTA #0 (81488,0), 2 CTAs running
GPGPU-Sim uArch: core:  6, cta: 0 initialized @(81489,0)
GPGPU-Sim uArch: cycles simulated: 81500  inst.: 8493770 (ipc=104.2) sim_rate=149013 (inst/sec) elapsed = 0:0:00:57 / Tue Mar 22 12:40:37 2016
GPGPU-Sim uArch: Shader 10 finished CTA #0 (81508,0), 2 CTAs running
GPGPU-Sim uArch: core: 10, cta: 0 initialized @(81509,0)
GPGPU-Sim uArch: Shader 11 finished CTA #0 (81510,0), 2 CTAs running
GPGPU-Sim uArch: core: 11, cta: 0 initialized @(81511,0)
GPGPU-Sim uArch: Shader 5 finished CTA #0 (81521,0), 2 CTAs running
GPGPU-Sim uArch: core:  5, cta: 0 initialized @(81522,0)
GPGPU-Sim PTX: 9100000 instructions simulated : ctaid=(26,4,0) tid=(10,4,0)
GPGPU-Sim uArch: Shader 14 finished CTA #2 (81763,0), 2 CTAs running
GPGPU-Sim uArch: core: 14, cta: 2 initialized @(81764,0)
GPGPU-Sim PTX: 9200000 instructions simulated : ctaid=(30,4,0) tid=(10,9,0)
GPGPU-Sim uArch: Shader 7 finished CTA #0 (82814,0), 2 CTAs running
GPGPU-Sim uArch: core:  7, cta: 0 initialized @(82815,0)
GPGPU-Sim PTX: 9300000 instructions simulated : ctaid=(13,5,0) tid=(9,9,0)
GPGPU-Sim uArch: Shader 2 finished CTA #1 (83440,0), 2 CTAs running
GPGPU-Sim uArch: core:  2, cta: 1 initialized @(83441,0)
GPGPU-Sim uArch: Shader 9 finished CTA #0 (83539,0), 2 CTAs running
GPGPU-Sim uArch: core:  9, cta: 0 initialized @(83540,0)
GPGPU-Sim uArch: Shader 13 finished CTA #1 (83559,0), 2 CTAs running
GPGPU-Sim uArch: core: 13, cta: 1 initialized @(83560,0)
GPGPU-Sim uArch: Shader 8 finished CTA #0 (83721,0), 2 CTAs running
GPGPU-Sim uArch: core:  8, cta: 0 initialized @(83722,0)
GPGPU-Sim uArch: cycles simulated: 84000  inst.: 8756754 (ipc=104.2) sim_rate=150978 (inst/sec) elapsed = 0:0:00:58 / Tue Mar 22 12:40:38 2016
GPGPU-Sim PTX: 9400000 instructions simulated : ctaid=(37,4,0) tid=(7,3,0)
GPGPU-Sim uArch: Shader 3 finished CTA #0 (84558,0), 2 CTAs running
GPGPU-Sim uArch: core:  3, cta: 0 initialized @(84559,0)
GPGPU-Sim uArch: Shader 0 finished CTA #0 (84562,0), 2 CTAs running
GPGPU-Sim uArch: core:  0, cta: 0 initialized @(84563,0)
GPGPU-Sim uArch: Shader 4 finished CTA #0 (84588,0), 2 CTAs running
GPGPU-Sim uArch: core:  4, cta: 0 initialized @(84589,0)
GPGPU-Sim uArch: Shader 1 finished CTA #1 (84607,0), 2 CTAs running
GPGPU-Sim uArch: core:  1, cta: 1 initialized @(84608,0)
GPGPU-Sim PTX: 9500000 instructions simulated : ctaid=(24,4,0) tid=(9,7,0)
GPGPU-Sim uArch: Shader 8 finished CTA #1 (85532,0), 2 CTAs running
GPGPU-Sim uArch: core:  8, cta: 1 initialized @(85533,0)
GPGPU-Sim PTX: 9600000 instructions simulated : ctaid=(20,4,0) tid=(14,3,0)
GPGPU-Sim uArch: cycles simulated: 86000  inst.: 8986962 (ipc=104.5) sim_rate=152321 (inst/sec) elapsed = 0:0:00:59 / Tue Mar 22 12:40:39 2016
GPGPU-Sim uArch: Shader 0 finished CTA #1 (86258,0), 2 CTAs running
GPGPU-Sim uArch: core:  0, cta: 1 initialized @(86259,0)
GPGPU-Sim uArch: Shader 1 finished CTA #2 (86293,0), 2 CTAs running
GPGPU-Sim uArch: core:  1, cta: 2 initialized @(86294,0)
GPGPU-Sim uArch: Shader 12 finished CTA #1 (86637,0), 2 CTAs running
GPGPU-Sim uArch: core: 12, cta: 1 initialized @(86638,0)
GPGPU-Sim PTX: 9700000 instructions simulated : ctaid=(22,4,0) tid=(14,11,0)
GPGPU-Sim PTX: 9800000 instructions simulated : ctaid=(35,4,0) tid=(12,7,0)
GPGPU-Sim uArch: cycles simulated: 87500  inst.: 9170216 (ipc=104.8) sim_rate=152836 (inst/sec) elapsed = 0:0:01:00 / Tue Mar 22 12:40:40 2016
GPGPU-Sim uArch: Shader 14 finished CTA #0 (87749,0), 2 CTAs running
GPGPU-Sim uArch: core: 14, cta: 0 initialized @(87750,0)
GPGPU-Sim PTX: 9900000 instructions simulated : ctaid=(41,4,0) tid=(6,2,0)
GPGPU-Sim uArch: Shader 10 finished CTA #1 (88375,0), 2 CTAs running
GPGPU-Sim uArch: core: 10, cta: 1 initialized @(88376,0)
GPGPU-Sim uArch: Shader 11 finished CTA #1 (88403,0), 2 CTAs running
GPGPU-Sim uArch: core: 11, cta: 1 initialized @(88404,0)
GPGPU-Sim uArch: Shader 6 finished CTA #1 (88411,0), 2 CTAs running
GPGPU-Sim uArch: core:  6, cta: 1 initialized @(88412,0)
GPGPU-Sim uArch: Shader 5 finished CTA #1 (88423,0), 2 CTAs running
GPGPU-Sim uArch: core:  5, cta: 1 initialized @(88424,0)
GPGPU-Sim uArch: Shader 12 finished CTA #2 (88445,0), 2 CTAs running
GPGPU-Sim uArch: core: 12, cta: 2 initialized @(88446,0)
GPGPU-Sim uArch: cycles simulated: 89000  inst.: 9348532 (ipc=105.0) sim_rate=153254 (inst/sec) elapsed = 0:0:01:01 / Tue Mar 22 12:40:41 2016
GPGPU-Sim PTX: 10000000 instructions simulated : ctaid=(34,4,0) tid=(6,12,0)
GPGPU-Sim uArch: Shader 2 finished CTA #2 (89246,0), 2 CTAs running
GPGPU-Sim uArch: core:  2, cta: 2 initialized @(89247,0)
GPGPU-Sim uArch: Shader 7 finished CTA #1 (89686,0), 2 CTAs running
GPGPU-Sim uArch: core:  7, cta: 1 initialized @(89687,0)
GPGPU-Sim uArch: Shader 13 finished CTA #2 (89723,0), 2 CTAs running
GPGPU-Sim uArch: core: 13, cta: 2 initialized @(89724,0)
GPGPU-Sim PTX: 10100000 instructions simulated : ctaid=(39,5,0) tid=(4,1,0)
GPGPU-Sim uArch: Shader 10 finished CTA #2 (90075,0), 2 CTAs running
GPGPU-Sim uArch: core: 10, cta: 2 initialized @(90076,0)
GPGPU-Sim uArch: Shader 6 finished CTA #2 (90103,0), 2 CTAs running
GPGPU-Sim uArch: core:  6, cta: 2 initialized @(90104,0)
GPGPU-Sim uArch: cycles simulated: 90500  inst.: 9514546 (ipc=105.1) sim_rate=153460 (inst/sec) elapsed = 0:0:01:02 / Tue Mar 22 12:40:42 2016
GPGPU-Sim uArch: Shader 9 finished CTA #1 (90501,0), 2 CTAs running
GPGPU-Sim uArch: core:  9, cta: 1 initialized @(90502,0)
GPGPU-Sim uArch: Shader 3 finished CTA #1 (90596,0), 2 CTAs running
GPGPU-Sim uArch: Shader 4 finished CTA #1 (90596,0), 2 CTAs running
GPGPU-Sim uArch: core:  3, cta: 1 initialized @(90597,0)
GPGPU-Sim uArch: core:  4, cta: 1 initialized @(90597,0)
GPGPU-Sim PTX: 10200000 instructions simulated : ctaid=(30,5,0) tid=(13,12,0)
GPGPU-Sim PTX: 10300000 instructions simulated : ctaid=(2,5,0) tid=(4,5,0)
GPGPU-Sim uArch: cycles simulated: 92500  inst.: 9699633 (ipc=104.9) sim_rate=153962 (inst/sec) elapsed = 0:0:01:03 / Tue Mar 22 12:40:43 2016
GPGPU-Sim PTX: 10400000 instructions simulated : ctaid=(29,5,0) tid=(12,4,0)
GPGPU-Sim uArch: Shader 1 finished CTA #0 (92729,0), 2 CTAs running
GPGPU-Sim uArch: core:  1, cta: 0 initialized @(92730,0)
GPGPU-Sim uArch: Shader 0 finished CTA #2 (92741,0), 2 CTAs running
GPGPU-Sim uArch: core:  0, cta: 2 initialized @(92742,0)
GPGPU-Sim uArch: Shader 8 finished CTA #2 (92770,0), 2 CTAs running
GPGPU-Sim uArch: core:  8, cta: 2 initialized @(92771,0)
GPGPU-Sim PTX: 10500000 instructions simulated : ctaid=(13,5,0) tid=(14,1,0)
GPGPU-Sim uArch: cycles simulated: 94000  inst.: 9872082 (ipc=105.0) sim_rate=154251 (inst/sec) elapsed = 0:0:01:04 / Tue Mar 22 12:40:44 2016
GPGPU-Sim PTX: 10600000 instructions simulated : ctaid=(6,5,0) tid=(10,10,0)
GPGPU-Sim uArch: Shader 14 finished CTA #1 (94836,0), 2 CTAs running
GPGPU-Sim uArch: core: 14, cta: 1 initialized @(94837,0)
GPGPU-Sim uArch: Shader 11 finished CTA #2 (94866,0), 2 CTAs running
GPGPU-Sim uArch: core: 11, cta: 2 initialized @(94867,0)
GPGPU-Sim uArch: Shader 5 finished CTA #2 (94872,0), 2 CTAs running
GPGPU-Sim uArch: core:  5, cta: 2 initialized @(94873,0)
GPGPU-Sim PTX: 10700000 instructions simulated : ctaid=(11,5,0) tid=(3,12,0)
GPGPU-Sim uArch: Shader 7 finished CTA #2 (95497,0), 2 CTAs running
GPGPU-Sim uArch: core:  7, cta: 2 initialized @(95498,0)
GPGPU-Sim uArch: Shader 12 finished CTA #0 (95585,0), 2 CTAs running
GPGPU-Sim uArch: core: 12, cta: 0 initialized @(95586,0)
GPGPU-Sim uArch: cycles simulated: 96000  inst.: 10095924 (ipc=105.2) sim_rate=155321 (inst/sec) elapsed = 0:0:01:05 / Tue Mar 22 12:40:45 2016
GPGPU-Sim PTX: 10800000 instructions simulated : ctaid=(24,5,0) tid=(6,3,0)
GPGPU-Sim uArch: Shader 13 finished CTA #0 (96211,0), 2 CTAs running
GPGPU-Sim uArch: core: 13, cta: 0 initialized @(96212,0)
GPGPU-Sim uArch: Shader 2 finished CTA #0 (96264,0), 2 CTAs running
GPGPU-Sim uArch: core:  2, cta: 0 initialized @(96265,0)
GPGPU-Sim uArch: Shader 3 finished CTA #2 (96436,0), 2 CTAs running
GPGPU-Sim uArch: core:  3, cta: 2 initialized @(96437,0)
GPGPU-Sim uArch: Shader 9 finished CTA #2 (96466,0), 2 CTAs running
GPGPU-Sim uArch: core:  9, cta: 2 initialized @(96467,0)
GPGPU-Sim uArch: Shader 4 finished CTA #2 (96540,0), 2 CTAs running
GPGPU-Sim uArch: core:  4, cta: 2 initialized @(96541,0)
GPGPU-Sim PTX: 10900000 instructions simulated : ctaid=(24,5,0) tid=(10,6,0)
GPGPU-Sim uArch: Shader 10 finished CTA #0 (97191,0), 2 CTAs running
GPGPU-Sim uArch: core: 10, cta: 0 initialized @(97192,0)
GPGPU-Sim uArch: Shader 6 finished CTA #0 (97235,0), 2 CTAs running
GPGPU-Sim uArch: core:  6, cta: 0 initialized @(97236,0)
GPGPU-Sim uArch: cycles simulated: 97500  inst.: 10235506 (ipc=105.0) sim_rate=155083 (inst/sec) elapsed = 0:0:01:06 / Tue Mar 22 12:40:46 2016
GPGPU-Sim PTX: 11000000 instructions simulated : ctaid=(24,5,0) tid=(11,13,0)
GPGPU-Sim PTX: 11100000 instructions simulated : ctaid=(22,5,0) tid=(12,1,0)
GPGPU-Sim uArch: cycles simulated: 99000  inst.: 10392238 (ipc=105.0) sim_rate=155108 (inst/sec) elapsed = 0:0:01:07 / Tue Mar 22 12:40:47 2016
GPGPU-Sim uArch: Shader 1 finished CTA #1 (99593,0), 2 CTAs running
GPGPU-Sim uArch: core:  1, cta: 1 initialized @(99594,0)
GPGPU-Sim uArch: Shader 0 finished CTA #0 (99621,0), 2 CTAs running
GPGPU-Sim uArch: core:  0, cta: 0 initialized @(99622,0)
GPGPU-Sim uArch: Shader 8 finished CTA #0 (99660,0), 2 CTAs running
GPGPU-Sim uArch: core:  8, cta: 0 initialized @(99661,0)
GPGPU-Sim PTX: 11200000 instructions simulated : ctaid=(3,6,0) tid=(1,8,0)
GPGPU-Sim PTX: 11300000 instructions simulated : ctaid=(3,6,0) tid=(15,12,0)
GPGPU-Sim uArch: Shader 11 finished CTA #0 (100679,0), 2 CTAs running
GPGPU-Sim uArch: core: 11, cta: 0 initialized @(100680,0)
GPGPU-Sim uArch: cycles simulated: 101000  inst.: 10625472 (ipc=105.2) sim_rate=156256 (inst/sec) elapsed = 0:0:01:08 / Tue Mar 22 12:40:48 2016
GPGPU-Sim PTX: 11400000 instructions simulated : ctaid=(19,5,0) tid=(10,14,0)
GPGPU-Sim uArch: Shader 5 finished CTA #0 (101687,0), 2 CTAs running
GPGPU-Sim uArch: core:  5, cta: 0 initialized @(101688,0)
GPGPU-Sim uArch: Shader 14 finished CTA #2 (101719,0), 2 CTAs running
GPGPU-Sim uArch: core: 14, cta: 2 initialized @(101720,0)
GPGPU-Sim uArch: Shader 13 finished CTA #1 (102075,0), 2 CTAs running
GPGPU-Sim uArch: core: 13, cta: 1 initialized @(102076,0)
GPGPU-Sim PTX: 11500000 instructions simulated : ctaid=(34,5,0) tid=(6,8,0)
GPGPU-Sim uArch: Shader 3 finished CTA #0 (102364,0), 2 CTAs running
GPGPU-Sim uArch: core:  3, cta: 0 initialized @(102365,0)
GPGPU-Sim uArch: Shader 7 finished CTA #0 (102456,0), 2 CTAs running
GPGPU-Sim uArch: Shader 12 finished CTA #1 (102456,0), 2 CTAs running
GPGPU-Sim uArch: core:  7, cta: 0 initialized @(102457,0)
GPGPU-Sim uArch: core: 12, cta: 1 initialized @(102457,0)
GPGPU-Sim uArch: Shader 9 finished CTA #0 (102499,0), 2 CTAs running
GPGPU-Sim uArch: core:  9, cta: 0 initialized @(102500,0)
GPGPU-Sim uArch: cycles simulated: 102500  inst.: 10783270 (ipc=105.2) sim_rate=156279 (inst/sec) elapsed = 0:0:01:09 / Tue Mar 22 12:40:49 2016
GPGPU-Sim uArch: Shader 2 finished CTA #1 (102500,0), 2 CTAs running
GPGPU-Sim uArch: core:  2, cta: 1 initialized @(102501,0)
GPGPU-Sim uArch: Shader 4 finished CTA #0 (102628,0), 2 CTAs running
GPGPU-Sim uArch: core:  4, cta: 0 initialized @(102629,0)
GPGPU-Sim PTX: 11600000 instructions simulated : ctaid=(21,6,0) tid=(11,8,0)
GPGPU-Sim PTX: 11700000 instructions simulated : ctaid=(39,5,0) tid=(6,13,0)
GPGPU-Sim uArch: Shader 13 finished CTA #2 (103886,0), 2 CTAs running
GPGPU-Sim uArch: core: 13, cta: 2 initialized @(103887,0)
GPGPU-Sim uArch: cycles simulated: 104000  inst.: 10981342 (ipc=105.6) sim_rate=156876 (inst/sec) elapsed = 0:0:01:10 / Tue Mar 22 12:40:50 2016
GPGPU-Sim uArch: Shader 10 finished CTA #1 (104037,0), 2 CTAs running
GPGPU-Sim uArch: core: 10, cta: 1 initialized @(104038,0)
GPGPU-Sim uArch: Shader 6 finished CTA #1 (104115,0), 2 CTAs running
GPGPU-Sim uArch: core:  6, cta: 1 initialized @(104116,0)
GPGPU-Sim uArch: Shader 7 finished CTA #1 (104155,0), 2 CTAs running
GPGPU-Sim uArch: core:  7, cta: 1 initialized @(104156,0)
GPGPU-Sim uArch: Shader 2 finished CTA #2 (104195,0), 2 CTAs running
GPGPU-Sim uArch: core:  2, cta: 2 initialized @(104196,0)
GPGPU-Sim uArch: Shader 9 finished CTA #1 (104304,0), 2 CTAs running
GPGPU-Sim uArch: core:  9, cta: 1 initialized @(104305,0)
GPGPU-Sim PTX: 11800000 instructions simulated : ctaid=(23,6,0) tid=(13,1,0)
GPGPU-Sim PTX: 11900000 instructions simulated : ctaid=(33,5,0) tid=(2,15,0)
GPGPU-Sim uArch: Shader 10 finished CTA #2 (105737,0), 2 CTAs running
GPGPU-Sim uArch: core: 10, cta: 2 initialized @(105738,0)
GPGPU-Sim uArch: Shader 6 finished CTA #2 (105799,0), 2 CTAs running
GPGPU-Sim uArch: core:  6, cta: 2 initialized @(105800,0)
GPGPU-Sim uArch: cycles simulated: 106000  inst.: 11216865 (ipc=105.8) sim_rate=157984 (inst/sec) elapsed = 0:0:01:11 / Tue Mar 22 12:40:51 2016
GPGPU-Sim PTX: 12000000 instructions simulated : ctaid=(31,5,0) tid=(5,13,0)
GPGPU-Sim uArch: Shader 0 finished CTA #1 (106519,0), 2 CTAs running
GPGPU-Sim uArch: core:  0, cta: 1 initialized @(106520,0)
GPGPU-Sim uArch: Shader 8 finished CTA #1 (106545,0), 2 CTAs running
GPGPU-Sim uArch: core:  8, cta: 1 initialized @(106546,0)
GPGPU-Sim uArch: Shader 1 finished CTA #2 (106554,0), 2 CTAs running
GPGPU-Sim uArch: core:  1, cta: 2 initialized @(106555,0)
GPGPU-Sim uArch: Shader 11 finished CTA #1 (106659,0), 2 CTAs running
GPGPU-Sim uArch: core: 11, cta: 1 initialized @(106660,0)
GPGPU-Sim PTX: 12100000 instructions simulated : ctaid=(1,6,0) tid=(6,11,0)
GPGPU-Sim uArch: cycles simulated: 107500  inst.: 11362259 (ipc=105.7) sim_rate=157809 (inst/sec) elapsed = 0:0:01:12 / Tue Mar 22 12:40:52 2016
GPGPU-Sim uArch: Shader 5 finished CTA #1 (107563,0), 2 CTAs running
GPGPU-Sim uArch: core:  5, cta: 1 initialized @(107564,0)
GPGPU-Sim uArch: Shader 14 finished CTA #0 (107581,0), 2 CTAs running
GPGPU-Sim uArch: core: 14, cta: 0 initialized @(107582,0)
GPGPU-Sim PTX: 12200000 instructions simulated : ctaid=(2,6,0) tid=(9,11,0)
GPGPU-Sim uArch: Shader 12 finished CTA #2 (108262,0), 2 CTAs running
GPGPU-Sim uArch: core: 12, cta: 2 initialized @(108263,0)
GPGPU-Sim PTX: 12300000 instructions simulated : ctaid=(10,6,0) tid=(9,8,0)
GPGPU-Sim uArch: Shader 4 finished CTA #1 (109348,0), 2 CTAs running
GPGPU-Sim uArch: core:  4, cta: 1 initialized @(109349,0)
GPGPU-Sim uArch: Shader 3 finished CTA #1 (109381,0), 2 CTAs running
GPGPU-Sim uArch: core:  3, cta: 1 initialized @(109382,0)
GPGPU-Sim uArch: cycles simulated: 109500  inst.: 11558576 (ipc=105.6) sim_rate=158336 (inst/sec) elapsed = 0:0:01:13 / Tue Mar 22 12:40:53 2016
GPGPU-Sim PTX: 12400000 instructions simulated : ctaid=(13,6,0) tid=(6,10,0)
GPGPU-Sim PTX: 12500000 instructions simulated : ctaid=(15,6,0) tid=(14,14,0)
GPGPU-Sim uArch: Shader 13 finished CTA #0 (111053,0), 2 CTAs running
GPGPU-Sim uArch: core: 13, cta: 0 initialized @(111054,0)
GPGPU-Sim PTX: 12600000 instructions simulated : ctaid=(16,6,0) tid=(13,13,0)
GPGPU-Sim uArch: Shader 7 finished CTA #2 (111325,0), 2 CTAs running
GPGPU-Sim uArch: core:  7, cta: 2 initialized @(111326,0)
GPGPU-Sim uArch: Shader 2 finished CTA #0 (111338,0), 2 CTAs running
GPGPU-Sim uArch: core:  2, cta: 0 initialized @(111339,0)
GPGPU-Sim uArch: Shader 9 finished CTA #2 (111457,0), 2 CTAs running
GPGPU-Sim uArch: core:  9, cta: 2 initialized @(111458,0)
GPGPU-Sim uArch: cycles simulated: 111500  inst.: 11809074 (ipc=105.9) sim_rate=159582 (inst/sec) elapsed = 0:0:01:14 / Tue Mar 22 12:40:54 2016
GPGPU-Sim uArch: Shader 10 finished CTA #0 (111853,0), 2 CTAs running
GPGPU-Sim uArch: core: 10, cta: 0 initialized @(111854,0)
GPGPU-Sim PTX: 12700000 instructions simulated : ctaid=(28,6,0) tid=(15,7,0)
GPGPU-Sim uArch: Shader 6 finished CTA #0 (112925,0), 2 CTAs running
GPGPU-Sim uArch: core:  6, cta: 0 initialized @(112926,0)
GPGPU-Sim PTX: 12800000 instructions simulated : ctaid=(6,6,0) tid=(8,14,0)
GPGPU-Sim uArch: Shader 0 finished CTA #2 (113364,0), 2 CTAs running
GPGPU-Sim uArch: core:  0, cta: 2 initialized @(113365,0)
GPGPU-Sim uArch: Shader 1 finished CTA #0 (113384,0), 2 CTAs running
GPGPU-Sim uArch: core:  1, cta: 0 initialized @(113385,0)
GPGPU-Sim uArch: Shader 11 finished CTA #2 (113395,0), 2 CTAs running
GPGPU-Sim uArch: core: 11, cta: 2 initialized @(113396,0)
GPGPU-Sim uArch: Shader 8 finished CTA #2 (113455,0), 2 CTAs running
GPGPU-Sim uArch: core:  8, cta: 2 initialized @(113456,0)
GPGPU-Sim uArch: cycles simulated: 113500  inst.: 12014184 (ipc=105.9) sim_rate=160189 (inst/sec) elapsed = 0:0:01:15 / Tue Mar 22 12:40:55 2016
GPGPU-Sim uArch: Shader 5 finished CTA #2 (113524,0), 2 CTAs running
GPGPU-Sim uArch: core:  5, cta: 2 initialized @(113525,0)
GPGPU-Sim uArch: Shader 14 finished CTA #1 (113562,0), 2 CTAs running
GPGPU-Sim uArch: core: 14, cta: 1 initialized @(113563,0)
[...]
gpu_reg_bank_conflict_stalls = 0
Warp Occupancy Distribution:
Stall:5075	W0_Idle:1878626	W0_Scoreboard:15003961	W1:0	W2:0	W3:0	W4:0	W5:0	W6:0	W7:0	W8:0	W9:5814	W10:0	W11:0	W12:0	W13:5986	W14:221808	W15:0	W16:0	W17:0	W18:17752	W19:0	W20:6132	W21:0	W22:0	W23:0	W24:0	W25:0	W26:18268	W27:0	W28:727950	W29:0	W30:59168	W31:0	W32:1663412
traffic_breakdown_coretomem[CONST_ACC_R] = 120 {8:15,}
traffic_breakdown_coretomem[GLOBAL_ACC_R] = 480352 {8:60044,}
traffic_breakdown_coretomem[GLOBAL_ACC_W] = 2162688 {40:8704,72:9728,136:8192,}
traffic_breakdown_coretomem[INST_ACC_R] = 1680 {8:210,}
traffic_breakdown_memtocore[CONST_ACC_R] = 1080 {72:15,}
traffic_breakdown_memtocore[GLOBAL_ACC_R] = 8165984 {136:60044,}
traffic_breakdown_memtocore[GLOBAL_ACC_W] = 212992 {8:26624,}
traffic_breakdown_memtocore[INST_ACC_R] = 28560 {136:210,}
maxmrqlatency = 78 
maxdqlatency = 0 
maxmflatency = 350 
averagemflatency = 202 
max_icnt2mem_latency = 57 
max_icnt2sh_latency = 625600 
mrq_lat_table:29640 	4270 	1344 	2860 	5800 	721 	21 	0 	0 	0 	0 	0 	0 	0 	0 	0 	0 	0 	0 	0 	0 	0 	0 	0 	0 	0 	0 	0 	0 	0 	0 	0 	
dq_lat_table:0 	0 	0 	0 	0 	0 	0 	0 	0 	0 	0 	0 	0 	0 	0 	0 	0 	0 	0 	0 	0 	0 	0 	0 	0 	0 	0 	0 	0 	0 	0 	0 	
mf_lat_table:0 	0 	0 	0 	0 	0 	0 	53931 	32752 	0 	0 	0 	0 	0 	0 	0 	0 	0 	0 	0 	0 	0 	0 	0 	0 	0 	0 	0 	0 	0 	0 	0 	
icnt2mem_lat_table:0 	0 	0 	68802 	17387 	704 	0 	0 	0 	0 	0 	0 	0 	0 	0 	0 	0 	0 	0 	0 	0 	0 	0 	0 	
icnt2sh_lat_table:0 	0 	0 	31570 	27869 	620 	0 	0 	0 	0 	0 	0 	0 	285 	761 	1412 	2880 	5549 	11296 	4441 	0 	0 	0 	0 	
mf_lat_pw_table:0 	0 	0 	0 	0 	0 	0 	1230 	8 	0 	0 	0 	0 	0 	0 	0 	0 	0 	0 	0 	0 	0 	0 	0 	0 	0 	0 	0 	0 	0 	0 	0 	
maximum concurrent accesses to same row:
dram[0]:       121       105        96        96       104        97       104        94       101        82       101        85       101        93       102        94 
dram[1]:       117       116        90        96       106        97        87        95        96        92        81        95        94        96        86        88 
dram[2]:       105       120        96        97        96       106        92       107        81       101        81       101        96       102        91       104 
dram[3]:       117       112        98        90        96       108        93        88        92        96        97        83        96        96        88        87 
dram[4]:       121       104        96        96       104        97       105        93       104        82       101        82       102        95       104        92 
dram[5]:       115       116        91       101       106        99        88        93        94        95        81        99        96        95        85        90 
maximum service time to same row:
dram[0]:     80627     82859     76412     82370     81640     73739     91274     89159     83119     88149     86259     81175     99097     89266    101253     95119 
dram[1]:     81687     85029     77587     82921     81966     76459     89187     93652     83106     87564     81897     82641     98819     88273     96852     97044 
dram[2]:     82047     77566     75309     77261     81549     84409     89167     91288     82893     99594     81010     85440     97163     99095     95785    101253 
dram[3]:     83818     76208     76635     78290     85562     82787     93662     89187     83875     99125     82492     81066     95042     98815     97700     96847 
dram[4]:     81438     75387     80867     77635     73221     82383     91244     89164     93996     94747     86409     80188     91241     97159     97228     95784 
dram[5]:     83745     75931     83701     75804     74575     86378     89173     93675     89728     95484     82062     81671     90894     95037     95331     97698 
average row accesses per activate:
dram[0]:  7.738461  5.301075  5.234043  4.169643  5.123711  4.495413  5.855422  4.813725  5.431818  4.077586  4.881721  3.769912  4.585106  4.153846  5.375000  4.076923 
dram[1]:  6.767123  6.011905  4.017391  4.886598  5.333333  5.845238  4.429906  4.388889  4.720000  4.852941  3.756522  4.045872  4.028302  4.663043  3.898148  4.087379 
dram[2]:  5.666667  8.032258  4.287037  5.156250  4.757282  5.144330  4.843137  6.217949  3.933333  5.558139  3.713043  4.881721  4.182693  4.510417  3.888889  5.292683 
dram[3]:  5.952941  6.389610  4.790000  4.218182  5.632184  5.376344  4.500000  4.429906  4.660378  4.481132  4.382353  3.747826  4.630435  3.926605  4.210000  3.692982 
dram[4]:  8.559322  5.315217  5.268817  4.549020  5.308511  4.776699  6.324676  4.843137  5.987500  3.974576  4.565657  3.855856  4.225490  4.113207  5.400000  4.230000 
dram[5]:  6.048780  5.929412  4.299066  4.968750  5.091837  5.655172  4.429906  4.481132  4.557693  4.601852  3.658120  4.198113  4.000000  4.484210  3.675439  4.262626 
average row locality = 44656/9425 = 4.738037
number of total memory accesses made:
dram[0]:         0         0         0         0         0         0         0         0         0         0         0         0         0         0         0         0 
dram[1]:         0         0         0         0         0         0         0         0         0         0         0         0         0         0         0         0 
dram[2]:         0         0         0         0         0         0         0         0         0         0         0         0         0         0         0         0 
dram[3]:         0         0         0         0         0         0         0         0         0         0         0         0         0         0         0         0 
dram[4]:         0         0         0         0         0         0         0         0         0         0         0         0         0         0         0         0 
dram[5]:         0         0         0         0         0         0         0         0         0         0         0         0         0         0         0         0 
total accesses: 0
min_bank_accesses = 0!
min_chip_accesses = 0!
number of total read accesses:
dram[0]:       259       257       256       256       256       256       256       256       256       256       256       256       256       256       256       256 
dram[1]:       258       257       256       256       256       256       256       256       256       256       256       256       256       256       256       256 
dram[2]:       258       256       256       256       256       256       256       256       256       256       256       256       256       256       256       256 
dram[3]:       258       256       256       256       256       256       256       256       256       256       256       256       256       256       256       256 
dram[4]:       258       256       256       256       256       256       256       256       256       256       256       256       256       256       256       256 
dram[5]:       258       256       256       256       256       256       256       256       256       256       256       256       256       256       256       256 
total reads: 24591
bank skew: 259/256 = 1.01
chip skew: 4100/4098 = 1.00
number of total write accesses:
dram[0]:       244       236       236       211       241       234       230       235       222       217       198       170       175       176       174       168 
dram[1]:       236       248       206       218       240       235       218       218       216       239       176       185       171       173       165       165 
dram[2]:       235       242       207       239       234       243       238       229       216       222       171       198       179       177       164       178 
dram[3]:       248       236       223       208       234       244       221       218       238       219       191       175       170       172       165       165 
dram[4]:       247       233       234       208       243       236       231       238       223       213       196       172       175       180       176       167 
dram[5]:       238       248       204       221       243       236       218       219       218       241       172       189       172       170       163       166 
total reads: 20065
bank skew: 248/163 = 1.52
chip skew: 3372/3309 = 1.02
average mf latency per bank:
dram[0]:        354       374       355       385       358       365       363       374       358       373       384       433       404       417       403       434
dram[1]:        392       362       410       383       388       373       402       385       396       366       447       419       447       427       455       434
dram[2]:        373       350       386       350       368       357       371       366       375       360       427       386       416       405       436       400
dram[3]:        364       394       380       409       375       388       384       403       365       396       411       447       427       446       433       456
dram[4]:        345       376       354       386       354       368       363       371       359       376       392       427       407       416       403       430
dram[5]:        387       365       411       381       386       375       403       384       398       363       456       414       444       433       457       432
maximum mf latency per bank:
dram[0]:        310       318       324       312       307       332       314       336       312       339       306       335       319       321       299       339
dram[1]:        316       318       313       303       317       339       328       322       315       322       313       312       315       325       322       343
dram[2]:        314       312       337       309       330       326       331       323       320       333       318       303       330       340       321       326
dram[3]:        343       310       307       308       317       312       328       325       318       307       316       320       321       323       319       321
dram[4]:        311       323       316       314       308       324       329       332       319       350       337       314       329       322       322       309
dram[5]:        317       318       315       300       326       321       320       314       320       310       308       311       327       321       324       309

Number of Memory Banks Accessed per Memory Operation per Warp (from 0):
0	0	0	0	0	0	0	0	0	0	0	0	0	0	0	0	0	0	0	0	0	0	0	0	0	0	0	0	0	0	0	0	0	0	0	0	0	0	0	0	0	0	0	0	0	0	0	0	0	0	0	0	0	0	0	0	0	0	0	0	0	0	0	0	0	0	0	0	0	0	0	0	0	0	0	0	0	0	0	0	0	0	0	0	0	0	0	0	0	0	0	0	0	0	0	0	
Average # of Memory Banks Accessed per Memory Operation per Warp=-nan

position of mrq chosen
0	0	0	0	0	0	0	0	0	0	0	0	0	0	0	0	

average position of mrq chosen = -nan
Memory Partition 0: 
Cache L2_bank_000:
MSHR contents

Cache L2_bank_001:
MSHR contents

In Dram Latency Queue (total = 0): 
DRAM[0]: 16 bks, busW=4 BL=8 CL=12, tRRD=2 tCCD=6, tRCD=12 tRAS=28 tRP=12 tRC=40
n_cmd=863839 n_nop=847364 n_act=1547 n_pre=1531 n_req=7467 n_rd=8200 n_write=5197 bw_util=0.03102
n_activity=136396 dram_eff=0.1964
bk0: 518a 858550i bk1: 514a 857975i bk2: 512a 857850i bk3: 512a 857557i bk4: 512a 857860i bk5: 512a 857569i bk6: 512a 858305i bk7: 512a 857560i bk8: 512a 858020i bk9: 512a 857303i bk10: 512a 858382i bk11: 512a 857961i bk12: 512a 858287i bk13: 512a 858067i bk14: 512a 858999i bk15: 512a 858463i 
dram_util_bins: 0 0 0 0 0 0 0 0 0 0
dram_eff_bins: 0 0 0 0 0 0 0 0 0 0
mrqq: max=8 avg=0.0526163
Memory Partition 1: 
Cache L2_bank_002:
MSHR contents

Cache L2_bank_003:
MSHR contents

In Dram Latency Queue (total = 0): 
DRAM[1]: 16 bks, busW=4 BL=8 CL=12, tRRD=2 tCCD=6, tRCD=12 tRAS=28 tRP=12 tRC=40
n_cmd=863839 n_nop=847462 n_act=1596 n_pre=1580 n_req=7408 n_rd=8198 n_write=5003 bw_util=0.03056
n_activity=139091 dram_eff=0.1898
bk0: 516a 858480i bk1: 514a 858102i bk2: 512a 857539i bk3: 512a 858065i bk4: 512a 858087i bk5: 512a 858461i bk6: 512a 857698i bk7: 512a 857810i bk8: 512a 857994i bk9: 512a 857777i bk10: 512a 857798i bk11: 512a 857955i bk12: 512a 858199i bk13: 512a 858626i bk14: 512a 858187i bk15: 512a 858330i 
dram_util_bins: 0 0 0 0 0 0 0 0 0 0
dram_eff_bins: 0 0 0 0 0 0 0 0 0 0
mrqq: max=9 avg=0.0462841
Memory Partition 2: 
Cache L2_bank_004:
MSHR contents

Cache L2_bank_005:
MSHR contents

In Dram Latency Queue (total = 0): 
DRAM[2]: 16 bks, busW=4 BL=8 CL=12, tRRD=2 tCCD=6, tRCD=12 tRAS=28 tRP=12 tRC=40
n_cmd=863839 n_nop=847381 n_act=1537 n_pre=1521 n_req=7470 n_rd=8196 n_write=5204 bw_util=0.03102
n_activity=136095 dram_eff=0.1969
bk0: 516a 858137i bk1: 512a 858828i bk2: 512a 857831i bk3: 512a 857900i bk4: 512a 857683i bk5: 512a 857895i bk6: 512a 857537i bk7: 512a 858368i bk8: 512a 857230i bk9: 512a 858088i bk10: 512a 857819i bk11: 512a 858446i bk12: 512a 858105i bk13: 512a 858190i bk14: 512a 858254i bk15: 512a 858708i 
dram_util_bins: 0 0 0 0 0 0 0 0 0 0
dram_eff_bins: 0 0 0 0 0 0 0 0 0 0
mrqq: max=10 avg=0.0513846
Memory Partition 3: 
Cache L2_bank_006:
MSHR contents

Cache L2_bank_007:
MSHR contents

In Dram Latency Queue (total = 0): 
DRAM[3]: 16 bks, busW=4 BL=8 CL=12, tRRD=2 tCCD=6, tRCD=12 tRAS=28 tRP=12 tRC=40
n_cmd=863839 n_nop=847411 n_act=1609 n_pre=1593 n_req=7425 n_rd=8196 n_write=5030 bw_util=0.03062
n_activity=138863 dram_eff=0.1905
bk0: 516a 858098i bk1: 512a 858374i bk2: 512a 857969i bk3: 512a 857630i bk4: 512a 858231i bk5: 512a 858056i bk6: 512a 857751i bk7: 512a 857802i bk8: 512a 857629i bk9: 512a 857769i bk10: 512a 857999i bk11: 512a 857850i bk12: 512a 858738i bk13: 512a 858117i bk14: 512a 858513i bk15: 512a 858039i 
dram_util_bins: 0 0 0 0 0 0 0 0 0 0
dram_eff_bins: 0 0 0 0 0 0 0 0 0 0
mrqq: max=9 avg=0.0471998
Memory Partition 4: 
Cache L2_bank_008:
MSHR contents

Cache L2_bank_009:
MSHR contents

In Dram Latency Queue (total = 0): 
DRAM[4]: 16 bks, busW=4 BL=8 CL=12, tRRD=2 tCCD=6, tRCD=12 tRAS=28 tRP=12 tRC=40
n_cmd=863839 n_nop=847416 n_act=1518 n_pre=1502 n_req=7470 n_rd=8196 n_write=5207 bw_util=0.03103
n_activity=135276 dram_eff=0.1982
bk0: 516a 858798i bk1: 512a 858032i bk2: 512a 857971i bk3: 512a 857914i bk4: 512a 858007i bk5: 512a 857746i bk6: 512a 858417i bk7: 512a 857464i bk8: 512a 858275i bk9: 512a 857222i bk10: 512a 858298i bk11: 512a 857801i bk12: 512a 858120i bk13: 512a 858044i bk14: 512a 858913i bk15: 512a 858503i 
dram_util_bins: 0 0 0 0 0 0 0 0 0 0
dram_eff_bins: 0 0 0 0 0 0 0 0 0 0
mrqq: max=10 avg=0.0529798
Memory Partition 5: 
Cache L2_bank_010:
MSHR contents

Cache L2_bank_011:
MSHR contents

In Dram Latency Queue (total = 0): 
DRAM[5]: 16 bks, busW=4 BL=8 CL=12, tRRD=2 tCCD=6, tRCD=12 tRAS=28 tRP=12 tRC=40
n_cmd=863839 n_nop=847403 n_act=1618 n_pre=1602 n_req=7416 n_rd=8196 n_write=5020 bw_util=0.0306
n_activity=138954 dram_eff=0.1902
bk0: 516a 858271i bk1: 512a 858076i bk2: 512a 857727i bk3: 512a 858052i bk4: 512a 857954i bk5: 512a 858296i bk6: 512a 857775i bk7: 512a 857797i bk8: 512a 857886i bk9: 512a 857485i bk10: 512a 857844i bk11: 512a 857899i bk12: 512a 858155i bk13: 512a 858617i bk14: 512a 858056i bk15: 512a 858489i 
dram_util_bins: 0 0 0 0 0 0 0 0 0 0
dram_eff_bins: 0 0 0 0 0 0 0 0 0 0
mrqq: max=9 avg=0.0453835

========= L2 cache stats =========
L2_cache_bank[0]: Access = 6715, Miss = 2051, Miss_rate = 0.305, Pending_hits = 1493, Reservation_fails = 342
L2_cache_bank[1]: Access = 7229, Miss = 2049, Miss_rate = 0.283, Pending_hits = 1287, Reservation_fails = 97
L2_cache_bank[2]: Access = 7811, Miss = 2050, Miss_rate = 0.262, Pending_hits = 1226, Reservation_fails = 199
L2_cache_bank[3]: Access = 7242, Miss = 2049, Miss_rate = 0.283, Pending_hits = 1374, Reservation_fails = 100
L2_cache_bank[4]: Access = 7249, Miss = 2050, Miss_rate = 0.283, Pending_hits = 1274, Reservation_fails = 171
L2_cache_bank[5]: Access = 6666, Miss = 2048, Miss_rate = 0.307, Pending_hits = 1506, Reservation_fails = 0
L2_cache_bank[6]: Access = 7262, Miss = 2050, Miss_rate = 0.282, Pending_hits = 1385, Reservation_fails = 191
L2_cache_bank[7]: Access = 7775, Miss = 2048, Miss_rate = 0.263, Pending_hits = 1252, Reservation_fails = 0
L2_cache_bank[8]: Access = 6698, Miss = 2050, Miss_rate = 0.306, Pending_hits = 1504, Reservation_fails = 191
L2_cache_bank[9]: Access = 7211, Miss = 2048, Miss_rate = 0.284, Pending_hits = 1273, Reservation_fails = 0
L2_cache_bank[10]: Access = 7806, Miss = 2050, Miss_rate = 0.263, Pending_hits = 1237, Reservation_fails = 190
L2_cache_bank[11]: Access = 7229, Miss = 2048, Miss_rate = 0.283, Pending_hits = 1412, Reservation_fails = 0
L2_total_cache_accesses = 86893
L2_total_cache_misses = 24591
L2_total_cache_miss_rate = 0.2830
L2_total_cache_pending_hits = 16223
L2_total_cache_reservation_fails = 1481
L2_total_cache_breakdown:
	L2_cache_stats_breakdown[GLOBAL_ACC_R][HIT] = 34376
	L2_cache_stats_breakdown[GLOBAL_ACC_R][HIT_RESERVED] = 9284
	L2_cache_stats_breakdown[GLOBAL_ACC_R][MISS] = 16384
	L2_cache_stats_breakdown[CONST_ACC_R][HIT] = 11
	L2_cache_stats_breakdown[CONST_ACC_R][HIT_RESERVED] = 3
	L2_cache_stats_breakdown[CONST_ACC_R][MISS] = 1
	L2_cache_stats_breakdown[CONST_ACC_R][RESERVATION_FAIL] = 109
	L2_cache_stats_breakdown[GLOBAL_ACC_W][HIT] = 11538
	L2_cache_stats_breakdown[GLOBAL_ACC_W][HIT_RESERVED] = 6894
	L2_cache_stats_breakdown[GLOBAL_ACC_W][MISS] = 8192
	L2_cache_stats_breakdown[INST_ACC_R][HIT] = 154
	L2_cache_stats_breakdown[INST_ACC_R][HIT_RESERVED] = 42
	L2_cache_stats_breakdown[INST_ACC_R][MISS] = 14
	L2_cache_stats_breakdown[INST_ACC_R][RESERVATION_FAIL] = 1372
L2_cache_data_port_util = 0.023
L2_cache_fill_port_util = 0.013

icnt_total_pkts_mem_to_simt=327939
icnt_total_pkts_simt_to_mem=147821
LD_mem_lat_dist  0 0 0 0 0 0 0 0 0 0 0 0 0 0 0 0 0 0 0 0 0 0 0 0 0 0 0
ST_mem_lat_dist  0 0 0 0 0 0 0 0 0 0 0 0 0 0 0 0 0 0 0 0 0 0 0 0 0 0 0
----------------------------Interconnect-DETAILS--------------------------------
Class 0:
Packet latency average = 10.6571
	minimum = 6
	maximum = 52
Network latency average = 9.77702
	minimum = 6
	maximum = 50
Slowest packet = 101230
Flit latency average = 8.58189
	minimum = 6
	maximum = 46
Slowest flit = 277555
Fragmentation average = 0
	minimum = 0
	maximum = 0
Injected packet rate average = 0.00983539
	minimum = 0.00828209 (at node 2)
	maximum = 0.0119357 (at node 17)
Accepted packet rate average = 0.00983539
	minimum = 0.00828209 (at node 2)
	maximum = 0.0119357 (at node 17)
Injected flit rate average = 0.0269256
	minimum = 0.0145869 (at node 6)
	maximum = 0.0450503 (at node 25)
Accepted flit rate average= 0.0269256
	minimum = 0.0180021 (at node 20)
	maximum = 0.0354082 (at node 3)
Injected packet length average = 2.73762
Accepted packet length average = 2.73762
Total in-flight flits = 0 (0 measured)
====== Overall Traffic Statistics ======
====== Traffic class 0 ======
Packet latency average = 10.6571 (1 samples)
	minimum = 6 (1 samples)
	maximum = 52 (1 samples)
Network latency average = 9.77702 (1 samples)
	minimum = 6 (1 samples)
	maximum = 50 (1 samples)
Flit latency average = 8.58189 (1 samples)
	minimum = 6 (1 samples)
	maximum = 46 (1 samples)
Fragmentation average = 0 (1 samples)
	minimum = 0 (1 samples)
	maximum = 0 (1 samples)
Injected packet rate average = 0.00983539 (1 samples)
	minimum = 0.00828209 (1 samples)
	maximum = 0.0119357 (1 samples)
Accepted packet rate average = 0.00983539 (1 samples)
	minimum = 0.00828209 (1 samples)
	maximum = 0.0119357 (1 samples)
Injected flit rate average = 0.0269256 (1 samples)
	minimum = 0.0145869 (1 samples)
	maximum = 0.0450503 (1 samples)
Accepted flit rate average = 0.0269256 (1 samples)
	minimum = 0.0180021 (1 samples)
	maximum = 0.0354082 (1 samples)
Injected packet size average = 2.73762 (1 samples)
Accepted packet size average = 2.73762 (1 samples)
Hops average = 1 (1 samples)
----------------------------END-of-Interconnect-DETAILS-------------------------


gpgpu_simulation_time = 0 days, 0 hrs, 6 min, 11 sec (371 sec)
gpgpu_simulation_rate = 200377 (inst/sec)
gpgpu_simulation_rate = 1763 (cycle/sec)
