

        *** GPGPU-Sim Simulator Version 3.2.2  [build 0] ***


GPGPU-Sim PTX: simulation mode 0 (can change with PTX_SIM_MODE_FUNC environment variable:
               1=functional simulation only, 0=detailed performance simulator)
GPGPU-Sim: Configuration options:

-network_mode                           1 # Interconnection network mode
-inter_config_file   config_fermi_islip.icnt # Interconnection network config file
-gpgpu_ptx_use_cuobjdump                    1 # Use cuobjdump to extract ptx and sass from binaries
-gpgpu_experimental_lib_support                    0 # Try to extract code from cuda libraries [Broken because of unknown cudaGetExportTable]
-gpgpu_ptx_convert_to_ptxplus                    0 # Convert SASS (native ISA) to ptxplus and run ptxplus
-gpgpu_ptx_force_max_capability                   20 # Force maximum compute capability
-gpgpu_ptx_inst_debug_to_file                    0 # Dump executed instructions' debug information to file
-gpgpu_ptx_inst_debug_file       inst_debug.txt # Executed instructions' debug output file
-gpgpu_ptx_inst_debug_thread_uid                    1 # Thread UID for executed instructions' debug output
-gpgpu_simd_model                       1 # 1 = post-dominator
-gpgpu_shader_core_pipeline              1536:32 # shader core pipeline config, i.e., {<nthread>:<warpsize>}
-gpgpu_tex_cache:l1  4:128:24,L:R:m:N:L,F:128:4,128:2 # per-shader L1 texture cache  (READ-ONLY) config  {<nsets>:<bsize>:<assoc>,<rep>:<wr>:<alloc>:<wr_alloc>,<mshr>:<N>:<merge>,<mq>:<rf>}
-gpgpu_const_cache:l1 64:64:2,L:R:f:N:L,A:2:32,4 # per-shader L1 constant memory cache  (READ-ONLY) config  {<nsets>:<bsize>:<assoc>,<rep>:<wr>:<alloc>:<wr_alloc>,<mshr>:<N>:<merge>,<mq>} 
-gpgpu_cache:il1     4:128:4,L:R:f:N:L,A:2:32,4 # shader L1 instruction cache config  {<nsets>:<bsize>:<assoc>,<rep>:<wr>:<alloc>:<wr_alloc>,<mshr>:<N>:<merge>,<mq>} 
-gpgpu_cache:dl1     32:128:4,L:L:m:N:H,A:32:8,8:2,0,1:0:1:1:0:1,1:4:8:16:32:64,/sciclone/data10/hwang07/GPU_RESEARCH/swl/swl_outputs/RESULTS/swl4/ # per-shader L1 data cache config  {<nsets>:<bsize>:<assoc>,<rep>:<wr>:<alloc>:<wr_alloc>,<mshr>:<N>:<merge>,<mq> | none}
-gpgpu_cache:dl1PrefL1                 none # per-shader L1 data cache config  {<nsets>:<bsize>:<assoc>,<rep>:<wr>:<alloc>:<wr_alloc>,<mshr>:<N>:<merge>,<mq> | none}
-gpgpu_cache:dl1PreShared                 none # per-shader L1 data cache config  {<nsets>:<bsize>:<assoc>,<rep>:<wr>:<alloc>:<wr_alloc>,<mshr>:<N>:<merge>,<mq> | none}
-gmem_skip_L1D                          0 # global memory access skip L1D cache (implements -Xptxas -dlcm=cg, default=no skip)
-gpgpu_perfect_mem                      0 # enable perfect memory mode (no cache miss)
-n_regfile_gating_group                    4 # group of lanes that should be read/written together)
-gpgpu_clock_gated_reg_file                    0 # enable clock gated reg file for power calculations
-gpgpu_clock_gated_lanes                    0 # enable clock gated lanes for power calculations
-gpgpu_shader_registers                32768 # Number of registers per shader core. Limits number of concurrent CTAs. (default 8192)
-gpgpu_shader_cta                       8 # Maximum number of concurrent CTAs in shader (default 8)
-gpgpu_num_cta_barriers                   16 # Maximum number of named barriers per CTA (default 16)
-gpgpu_n_clusters                      15 # number of processing clusters
-gpgpu_n_cores_per_cluster                    1 # number of simd cores per cluster
-gpgpu_n_cluster_ejection_buffer_size                    8 # number of packets in ejection buffer
-gpgpu_n_ldst_response_buffer_size                    2 # number of response packets in ld/st unit ejection buffer
-gpgpu_shmem_size                   16384 # Size of shared memory per shader core (default 16kB)
-gpgpu_shmem_size                   49152 # Size of shared memory per shader core (default 16kB)
-gpgpu_shmem_size_PrefL1                16384 # Size of shared memory per shader core (default 16kB)
-gpgpu_shmem_size_PrefShared                16384 # Size of shared memory per shader core (default 16kB)
-gpgpu_shmem_num_banks                   32 # Number of banks in the shared memory in each shader core (default 16)
-gpgpu_shmem_limited_broadcast                    0 # Limit shared memory to do one broadcast per cycle (default on)
-gpgpu_shmem_warp_parts                    1 # Number of portions a warp is divided into for shared memory bank conflict check 
-gpgpu_warpdistro_shader                   -1 # Specify which shader core to collect the warp size distribution from
-gpgpu_warp_issue_shader                    0 # Specify which shader core to collect the warp issue distribution from
-gpgpu_local_mem_map                    1 # Mapping from local memory space address to simulated GPU physical address space (default = enabled)
-gpgpu_num_reg_banks                   16 # Number of register banks (default = 8)
-gpgpu_reg_bank_use_warp_id                    0 # Use warp ID in mapping registers to banks (default = off)
-gpgpu_operand_collector_num_units_sp                    6 # number of collector units (default = 4)
-gpgpu_operand_collector_num_units_sfu                    8 # number of collector units (default = 4)
-gpgpu_operand_collector_num_units_mem                    2 # number of collector units (default = 2)
-gpgpu_operand_collector_num_units_gen                    0 # number of collector units (default = 0)
-gpgpu_operand_collector_num_in_ports_sp                    2 # number of collector unit in ports (default = 1)
-gpgpu_operand_collector_num_in_ports_sfu                    1 # number of collector unit in ports (default = 1)
-gpgpu_operand_collector_num_in_ports_mem                    1 # number of collector unit in ports (default = 1)
-gpgpu_operand_collector_num_in_ports_gen                    0 # number of collector unit in ports (default = 0)
-gpgpu_operand_collector_num_out_ports_sp                    2 # number of collector unit in ports (default = 1)
-gpgpu_operand_collector_num_out_ports_sfu                    1 # number of collector unit in ports (default = 1)
-gpgpu_operand_collector_num_out_ports_mem                    1 # number of collector unit in ports (default = 1)
-gpgpu_operand_collector_num_out_ports_gen                    0 # number of collector unit in ports (default = 0)
-gpgpu_coalesce_arch                   13 # Coalescing arch (default = 13, anything else is off for now)
-gpgpu_num_sched_per_core                    2 # Number of warp schedulers per core
-gpgpu_max_insn_issue_per_warp                    1 # Max number of instructions that can be issued per warp in one cycle by scheduler
-gpgpu_simt_core_sim_order                    1 # Select the simulation order of cores in a cluster (0=Fix, 1=Round-Robin)
-gpgpu_pipeline_widths        2,1,1,2,1,1,2 # Pipeline widths ID_OC_SP,ID_OC_SFU,ID_OC_MEM,OC_EX_SP,OC_EX_SFU,OC_EX_MEM,EX_WB
-gpgpu_num_sp_units                     2 # Number of SP units (default=1)
-gpgpu_num_sfu_units                    1 # Number of SF units (default=1)
-gpgpu_num_mem_units                    1 # Number if ldst units (default=1) WARNING: not hooked up to anything
-gpgpu_scheduler        warp_limiting:2:4 # Scheduler configuration: < lrr | gto | two_level_active > If two_level_active:<num_active_warps>:<inner_prioritization>:<outer_prioritization>For complete list of prioritization values see shader.h enum scheduler_prioritization_typeDefault: gto
-gpgpu_dram_scheduler                    1 # 0 = fifo, 1 = FR-FCFS (defaul)
-gpgpu_dram_partition_queues              8:8:8:8 # i2$:$2d:d2$:$2i
-l2_ideal                               0 # Use a ideal L2 cache that always hit
-gpgpu_cache:dl2     64:128:8,L:B:m:W:L,A:32:4,4:0,32 # unified banked L2 data cache config  {<nsets>:<bsize>:<assoc>,<rep>:<wr>:<alloc>:<wr_alloc>,<mshr>:<N>:<merge>,<mq>}
-gpgpu_cache:dl2_texture_only                    0 # L2 cache used for texture only
-gpgpu_n_mem                            6 # number of memory modules (e.g. memory controllers) in gpu
-gpgpu_n_sub_partition_per_mchannel                    2 # number of memory subpartition in each memory module
-gpgpu_n_mem_per_ctrlr                    2 # number of memory chips per memory controller
-gpgpu_memlatency_stat                   14 # track and display latency statistics 0x2 enables MC, 0x4 enables queue logs
-gpgpu_frfcfs_dram_sched_queue_size                   16 # 0 = unlimited (default); # entries per chip
-gpgpu_dram_return_queue_size                  116 # 0 = unlimited (default); # entries per chip
-gpgpu_dram_buswidth                    4 # default = 4 bytes (8 bytes per cycle at DDR)
-gpgpu_dram_burst_length                    8 # Burst length of each DRAM request (default = 4 data bus cycle)
-dram_data_command_freq_ratio                    4 # Frequency ratio between DRAM data bus and command bus (default = 2 times, i.e. DDR)
-gpgpu_dram_timing_opt nbk=16:CCD=2:RRD=6:RCD=12:RAS=28:RP=12:RC=40: CL=12:WL=4:CDLR=5:WR=12:nbkgrp=4:CCDL=3:RTPL=2 # DRAM timing parameters = {nbk:tCCD:tRRD:tRCD:tRAS:tRP:tRC:CL:WL:tCDLR:tWR:nbkgrp:tCCDL:tRTPL}
-rop_latency                          120 # ROP queue latency (default 85)
-dram_latency                         100 # DRAM latency (default 30)
-gpgpu_mem_addr_mapping dramid@8;00000000.00000000.00000000.00000000.0000RRRR.RRRRRRRR.BBBCCCCB.CCSSSSSS # mapping memory address to dram model {dramid@<start bit>;<memory address map>}
-gpgpu_mem_addr_test                    0 # run sweep test to check address mapping for aliased address
-gpgpu_mem_address_mask                    1 # 0 = old addressing mask, 1 = new addressing mask, 2 = new add. mask + flipped bank sel and chip sel bits
-gpuwattch_xml_file  gpuwattch_gtx480.xml # GPUWattch XML file
-power_simulation_enabled                    0 # Turn on power simulator (1=On, 0=Off)
-power_per_cycle_dump                    0 # Dump detailed power output each cycle
-power_trace_enabled                    0 # produce a file for the power trace (1=On, 0=Off)
-power_trace_zlevel                     6 # Compression level of the power trace output log (0=no comp, 9=highest)
-steady_power_levels_enabled                    0 # produce a file for the steady power levels (1=On, 0=Off)
-steady_state_definition                  8:4 # allowed deviation:number of samples
-gpgpu_max_cycle                        0 # terminates gpu simulation early (0 = no limit)
-gpgpu_max_insn                         0 # terminates gpu simulation early (0 = no limit)
-gpgpu_max_cta                          0 # terminates gpu simulation early (0 = no limit)
-gpgpu_runtime_stat                   500 # display runtime statistics such as dram utilization {<freq>:<flag>}
-liveness_message_freq                    1 # Minimum number of seconds between simulation liveness messages (0 = always print)
-gpgpu_flush_l1_cache                    0 # Flush L1 cache at the end of each kernel call
-gpgpu_flush_l2_cache                    0 # Flush L2 cache at the end of each kernel call
-gpgpu_deadlock_detect                    1 # Stop the simulation at deadlock (1=on (default), 0=off)
-gpgpu_ptx_instruction_classification                    0 # if enabled will classify ptx instruction types per kernel (Max 255 kernels now)
-gpgpu_ptx_sim_mode                     0 # Select between Performance (default) or Functional simulation (1)
-gpgpu_clock_domains 700.0:700.0:700.0:924.0 # Clock Domain Frequencies in MhZ {<Core Clock>:<ICNT Clock>:<L2 Clock>:<DRAM Clock>}
-gpgpu_max_concurrent_kernel                    8 # maximum kernels that can run concurrently on GPU
-gpgpu_cflog_interval                    0 # Interval between each snapshot in control flow logger
-visualizer_enabled                     0 # Turn on visualizer output (1=On, 0=Off)
-visualizer_outputfile                 NULL # Specifies the output log file for visualizer
-visualizer_zlevel                      6 # Compression level of the visualizer output log (0=no comp, 9=highest)
-trace_enabled                          0 # Turn on traces
-trace_components                    none # comma seperated list of traces to enable. Complete list found in trace_streams.tup. Default none
-trace_sampling_core                    0 # The core which is printed using CORE_DPRINTF. Default 0
-trace_sampling_memory_partition                   -1 # The memory partition which is printed using MEMPART_DPRINTF. Default -1 (i.e. all)
-enable_ptx_file_line_stats                    1 # Turn on PTX source line statistic profiling. (1 = On)
-ptx_line_stats_filename gpgpu_inst_stats.txt # Output file for PTX source line statistics.
-save_embedded_ptx                      0 # saves ptx files embedded in binary as <n>.ptx
-keep                                   0 # keep intermediate files created by GPGPU-Sim when interfacing with external programs
-gpgpu_ptx_save_converted_ptxplus                    0 # Saved converted ptxplus to a file
-ptx_opcode_latency_int         4,13,4,5,145 # Opcode latencies for integers <ADD,MAX,MUL,MAD,DIV>Default 1,1,19,25,145
-ptx_opcode_latency_fp          4,13,4,5,39 # Opcode latencies for single precision floating points <ADD,MAX,MUL,MAD,DIV>Default 1,1,1,1,30
-ptx_opcode_latency_dp         8,19,8,8,330 # Opcode latencies for double precision floating points <ADD,MAX,MUL,MAD,DIV>Default 8,8,8,8,335
-ptx_opcode_initiation_int            1,2,2,1,8 # Opcode initiation intervals for integers <ADD,MAX,MUL,MAD,DIV>Default 1,1,4,4,32
-ptx_opcode_initiation_fp            1,2,1,1,4 # Opcode initiation intervals for single precision floating points <ADD,MAX,MUL,MAD,DIV>Default 1,1,1,1,5
-ptx_opcode_initiation_dp         8,16,8,8,130 # Opcode initiation intervals for double precision floating points <ADD,MAX,MUL,MAD,DIV>Default 8,8,8,8,130
DRAM Timing Options:
nbk                                    16 # number of banks
CCD                                     2 # column to column delay
RRD                                     6 # minimal delay between activation of rows in different banks
RCD                                    12 # row to column delay
RAS                                    28 # time needed to activate row
RP                                     12 # time needed to precharge (deactivate) row
RC                                     40 # row cycle time
CDLR                                    5 # switching from write to read (changes tWTR)
WR                                     12 # last data-in to row precharge
CL                                     12 # CAS latency
WL                                      4 # Write latency
nbkgrp                                  4 # number of bank groups
CCDL                                    3 # column to column delay between accesses to different bank groups
RTPL                                    2 # read to precharge delay between accesses to different bank groups
Total number of memory sub partition = 12
addr_dec_mask[CHIP]  = 0000000000000000 	high:64 low:0
addr_dec_mask[BK]    = 000000000000e100 	high:16 low:8
addr_dec_mask[ROW]   = 000000000fff0000 	high:28 low:16
addr_dec_mask[COL]   = 0000000000001eff 	high:13 low:0
addr_dec_mask[BURST] = 000000000000003f 	high:6 low:0
sub_partition_id_mask = 0000000000000100
GPGPU-Sim uArch: clock freqs: 700000000.000000:700000000.000000:700000000.000000:924000000.000000
GPGPU-Sim uArch: clock periods: 0.00000000142857142857:0.00000000142857142857:0.00000000142857142857:0.00000000108225108225
*** Initializing Memory Statistics ***
GPGPU-Sim uArch: interconnect node map (shaderID+MemID to icntID)
GPGPU-Sim uArch: Memory nodes ID start from index: 15
GPGPU-Sim uArch:    0   1   2   3   4
GPGPU-Sim uArch:    5   6   7   8   9
GPGPU-Sim uArch:   10  11  12  13  14
GPGPU-Sim uArch:   15  16  17  18  19
GPGPU-Sim uArch:   20  21  22  23  24
GPGPU-Sim uArch:   25  26
GPGPU-Sim uArch: interconnect node reverse map (icntID to shaderID+MemID)
GPGPU-Sim uArch: Memory nodes start from ID: 15
GPGPU-Sim uArch:    0   1   2   3   4
GPGPU-Sim uArch:    5   6   7   8   9
GPGPU-Sim uArch:   10  11  12  13  14
GPGPU-Sim uArch:   15  16  17  18  19
GPGPU-Sim uArch:   20  21  22  23  24
GPGPU-Sim uArch:   25  26
67265a35928c1e7333fb90cd2f70e437  /sciclone/data10/hwang07/adwait/applications/benchmarks/CUDA/STO/gpgpu_ptx_sim__STO
GPGPU-Sim uArch: performance model initialization complete.
GPGPU-Sim PTX: __cudaRegisterFatBinary, fat_cubin_handle = 1, filename=storeGPU.cu
self exe links to: /sciclone/data10/hwang07/adwait/applications/benchmarks/CUDA/STO/gpgpu_ptx_sim__STO
Running md5sum using "md5sum /sciclone/data10/hwang07/adwait/applications/benchmarks/CUDA/STO/gpgpu_ptx_sim__STO "
Parsing file _cuobjdump_complete_output_9QoCSM
######### cuobjdump parser ########
## Adding new section ELF
Adding arch: sm_20
Adding identifier: main.cu
## Adding new section PTX
Adding ptx filename: _cuobjdump_1.ptx
Adding arch: sm_20
Adding identifier: main.cu
## Adding new section ELF
Adding arch: sm_20
Adding identifier: storeGPU.cu
## Adding new section PTX
Adding ptx filename: _cuobjdump_2.ptx
Adding arch: sm_20
Adding identifier: storeGPU.cu
Done parsing!!!
GPGPU-Sim PTX: __cudaRegisterFunction _Z12sha1_overlapPhiiiiS_ : hostFun 0x0x40dfd2, fat_cubin_handle = 1
GPGPU-Sim PTX: allocating stack frame region for .param "__cudaretf__Z14macroRFunctioniPj" from 0x0 to 0x8
GPGPU-Sim PTX: allocating stack frame region for .param "__cudaparmf1__Z14macroRFunctioniPj" from 0x8 to 0xc
GPGPU-Sim PTX: allocating stack frame region for .param "__cudaparmf2__Z14macroRFunctioniPj" from 0xc to 0x14
GPGPU-Sim PTX: instruction assembly for function '_Z14macroRFunctioniPj'...   done.
GPGPU-Sim PTX: finding reconvergence points for '_Z14macroRFunctioniPj'...
GPGPU-Sim PTX: Finding dominators for '_Z14macroRFunctioniPj'...
GPGPU-Sim PTX: Finding immediate dominators for '_Z14macroRFunctioniPj'...
GPGPU-Sim PTX: Finding postdominators for '_Z14macroRFunctioniPj'...
GPGPU-Sim PTX: Finding immediate postdominators for '_Z14macroRFunctioniPj'...
GPGPU-Sim PTX: pre-decoding instructions for '_Z14macroRFunctioniPj'...
GPGPU-Sim PTX: reconvergence points for _Z14macroRFunctioniPj...
GPGPU-Sim PTX: ... end of reconvergence points for _Z14macroRFunctioniPj
GPGPU-Sim PTX: ... done pre-decoding instructions for '_Z14macroRFunctioniPj'.
GPGPU-Sim PTX: allocating shared region for "__cuda___cuda_local_var_34843_40_non_const_sharedMemory32" from 0x0 to 0x3f80 (shared memory space)
GPGPU-Sim PTX: instruction assembly for function '_Z3md5PhiiiS_'...   done.
GPGPU-Sim PTX: finding reconvergence points for '_Z3md5PhiiiS_'...
GPGPU-Sim PTX: Finding dominators for '_Z3md5PhiiiS_'...
GPGPU-Sim PTX: Finding immediate dominators for '_Z3md5PhiiiS_'...
GPGPU-Sim PTX: Finding postdominators for '_Z3md5PhiiiS_'...
GPGPU-Sim PTX: Finding immediate postdominators for '_Z3md5PhiiiS_'...
GPGPU-Sim PTX: pre-decoding instructions for '_Z3md5PhiiiS_'...
GPGPU-Sim PTX: reconvergence points for _Z3md5PhiiiS_...
GPGPU-Sim PTX:  1 (potential) branch divergence @  PC=0x190 (_1.ptx:127) @%p1 bra $Lt_1_4866;
GPGPU-Sim PTX:    immediate post dominator      @  PC=0x21f0 (_1.ptx:1283) exit;
GPGPU-Sim PTX:  2 (potential) branch divergence @  PC=0x198 (_1.ptx:128) bra.uni $LBB20__Z3md5PhiiiS_;
GPGPU-Sim PTX:    immediate post dominator      @  PC=0x21f0 (_1.ptx:1283) exit;
GPGPU-Sim PTX:  3 (potential) branch divergence @  PC=0x1f0 (_1.ptx:141) @%p3 bra $Lt_1_5634;
GPGPU-Sim PTX:    immediate post dominator      @  PC=0x290 (_1.ptx:167) shr.s32 %r23, %r15, 31;
GPGPU-Sim PTX:  4 (potential) branch divergence @  PC=0x200 (_1.ptx:143) @!%p2 bra $Lt_1_5378;
GPGPU-Sim PTX:    immediate post dominator      @  PC=0x290 (_1.ptx:167) shr.s32 %r23, %r15, 31;
GPGPU-Sim PTX:  5 (potential) branch divergence @  PC=0x278 (_1.ptx:161) @%p4 bra $Lt_1_6402;
GPGPU-Sim PTX:    immediate post dominator      @  PC=0x280 (_1.ptx:162) bra.uni $Lt_1_5378;
GPGPU-Sim PTX:  6 (potential) branch divergence @  PC=0x280 (_1.ptx:162) bra.uni $Lt_1_5378;
GPGPU-Sim PTX:    immediate post dominator      @  PC=0x290 (_1.ptx:167) shr.s32 %r23, %r15, 31;
GPGPU-Sim PTX:  7 (potential) branch divergence @  PC=0x2d0 (_1.ptx:175) @%p5 bra $Lt_1_8706;
GPGPU-Sim PTX:    immediate post dominator      @  PC=0x2198 (_1.ptx:1270) mul.lo.s32 %r234, %r5, 4;
GPGPU-Sim PTX:  8 (potential) branch divergence @  PC=0x4e8 (_1.ptx:257) @%p6 bra $Lt_1_7938;
GPGPU-Sim PTX:    immediate post dominator      @  PC=0x560 (_1.ptx:281) ld.shared.u8 %r69, [%rd20+0];
GPGPU-Sim PTX:  9 (potential) branch divergence @  PC=0x520 (_1.ptx:267) bra.uni $Lt_1_7682;
GPGPU-Sim PTX:    immediate post dominator      @  PC=0x560 (_1.ptx:281) ld.shared.u8 %r69, [%rd20+0];
GPGPU-Sim PTX: 10 (potential) branch divergence @  PC=0x2180 (_1.ptx:1264) @%p7 bra $Lt_1_7426;
GPGPU-Sim PTX:    immediate post dominator      @  PC=0x2188 (_1.ptx:1265) bra.uni $Lt_1_6914;
GPGPU-Sim PTX: 11 (potential) branch divergence @  PC=0x2188 (_1.ptx:1265) bra.uni $Lt_1_6914;
GPGPU-Sim PTX:    immediate post dominator      @  PC=0x2198 (_1.ptx:1270) mul.lo.s32 %r234, %r5, 4;
GPGPU-Sim PTX: ... end of reconvergence points for _Z3md5PhiiiS_
GPGPU-Sim PTX: ... done pre-decoding instructions for '_Z3md5PhiiiS_'.
GPGPU-Sim PTX: allocating shared region for "__cuda___cuda_local_var_34878_40_non_const_sharedMemory16320" from 0x0 to 0x3f80 (shared memory space)
GPGPU-Sim PTX: instruction assembly for function '_Z11md5_overlapPhiiiiS_'...   done.
GPGPU-Sim PTX: finding reconvergence points for '_Z11md5_overlapPhiiiiS_'...
GPGPU-Sim PTX: Finding dominators for '_Z11md5_overlapPhiiiiS_'...
GPGPU-Sim PTX: Finding immediate dominators for '_Z11md5_overlapPhiiiiS_'...
GPGPU-Sim PTX: Finding postdominators for '_Z11md5_overlapPhiiiiS_'...
GPGPU-Sim PTX: Finding immediate postdominators for '_Z11md5_overlapPhiiiiS_'...
GPGPU-Sim PTX: pre-decoding instructions for '_Z11md5_overlapPhiiiiS_'...
GPGPU-Sim PTX: reconvergence points for _Z11md5_overlapPhiiiiS_...
GPGPU-Sim PTX:  1 (potential) branch divergence @  PC=0x2230 (_1.ptx:1308) @%p1 bra $Lt_2_5634;
GPGPU-Sim PTX:    immediate post dominator      @  PC=0x43e8 (_1.ptx:2510) exit;
GPGPU-Sim PTX:  2 (potential) branch divergence @  PC=0x2238 (_1.ptx:1309) bra.uni $LBB23__Z11md5_overlapPhiiiiS_;
GPGPU-Sim PTX:    immediate post dominator      @  PC=0x43e8 (_1.ptx:2510) exit;
GPGPU-Sim PTX:  3 (potential) branch divergence @  PC=0x22b0 (_1.ptx:1326) @%p3 bra $Lt_2_9730;
GPGPU-Sim PTX:    immediate post dominator      @  PC=0x4390 (_1.ptx:2497) mul.lo.s32 %r260, %r5, 4;
GPGPU-Sim PTX:  4 (potential) branch divergence @  PC=0x2440 (_1.ptx:1378) @%p4 bra $Lt_2_7170;
GPGPU-Sim PTX:    immediate post dominator      @  PC=0x2768 (_1.ptx:1510) ld.shared.u8 %r95, [%rd15+0];
GPGPU-Sim PTX:  5 (potential) branch divergence @  PC=0x2488 (_1.ptx:1387) @%p5 bra $Lt_2_9986;
GPGPU-Sim PTX:    immediate post dominator      @  PC=0x2520 (_1.ptx:1411) mov.s32 %r62, 13;
GPGPU-Sim PTX:  6 (potential) branch divergence @  PC=0x2500 (_1.ptx:1405) @%p6 bra $Lt_2_7938;
GPGPU-Sim PTX:    immediate post dominator      @  PC=0x2508 (_1.ptx:1406) mov.s32 %r61, %r52;
GPGPU-Sim PTX:  7 (potential) branch divergence @  PC=0x2510 (_1.ptx:1407) bra.uni $Lt_2_7426;
GPGPU-Sim PTX:    immediate post dominator      @  PC=0x2520 (_1.ptx:1411) mov.s32 %r62, 13;
GPGPU-Sim PTX:  8 (potential) branch divergence @  PC=0x2540 (_1.ptx:1415) @%p7 bra $Lt_2_8450;
GPGPU-Sim PTX:    immediate post dominator      @  PC=0x25e0 (_1.ptx:1440) mov.u32 %r72, 128;
GPGPU-Sim PTX:  9 (potential) branch divergence @  PC=0x25d8 (_1.ptx:1437) @%p8 bra $Lt_2_8962;
GPGPU-Sim PTX:    immediate post dominator      @  PC=0x25e0 (_1.ptx:1440) mov.u32 %r72, 128;
GPGPU-Sim PTX: 10 (potential) branch divergence @  PC=0x2640 (_1.ptx:1454) bra.uni $Lt_2_6914;
GPGPU-Sim PTX:    immediate post dominator      @  PC=0x2768 (_1.ptx:1510) ld.shared.u8 %r95, [%rd15+0];
GPGPU-Sim PTX: 11 (potential) branch divergence @  PC=0x4378 (_1.ptx:2491) @%p9 bra $Lt_2_6658;
GPGPU-Sim PTX:    immediate post dominator      @  PC=0x4380 (_1.ptx:2492) bra.uni $Lt_2_6146;
GPGPU-Sim PTX: 12 (potential) branch divergence @  PC=0x4380 (_1.ptx:2492) bra.uni $Lt_2_6146;
GPGPU-Sim PTX:    immediate post dominator      @  PC=0x4390 (_1.ptx:2497) mul.lo.s32 %r260, %r5, 4;
GPGPU-Sim PTX: ... end of reconvergence points for _Z11md5_overlapPhiiiiS_
GPGPU-Sim PTX: ... done pre-decoding instructions for '_Z11md5_overlapPhiiiiS_'.
GPGPU-Sim PTX: allocating shared region for "__cuda___cuda_local_var_35732_40_non_const_sharedMemory32608" from 0x0 to 0x3f80 (shared memory space)
GPGPU-Sim PTX: instruction assembly for function '_Z4sha1PhiiiS_'...   done.
GPGPU-Sim PTX: finding reconvergence points for '_Z4sha1PhiiiS_'...
GPGPU-Sim PTX: Finding dominators for '_Z4sha1PhiiiS_'...
GPGPU-Sim PTX: Finding immediate dominators for '_Z4sha1PhiiiS_'...
GPGPU-Sim PTX: Finding postdominators for '_Z4sha1PhiiiS_'...
GPGPU-Sim PTX: Finding immediate postdominators for '_Z4sha1PhiiiS_'...
GPGPU-Sim PTX: pre-decoding instructions for '_Z4sha1PhiiiS_'...
GPGPU-Sim PTX: reconvergence points for _Z4sha1PhiiiS_...
GPGPU-Sim PTX:  1 (potential) branch divergence @  PC=0x4428 (_1.ptx:2534) @%p1 bra $Lt_3_4866;
GPGPU-Sim PTX:    immediate post dominator      @  PC=0x9018 (_1.ptx:5165) exit;
GPGPU-Sim PTX:  2 (potential) branch divergence @  PC=0x4430 (_1.ptx:2535) bra.uni $LBB20__Z4sha1PhiiiS_;
GPGPU-Sim PTX:    immediate post dominator      @  PC=0x9018 (_1.ptx:5165) exit;
GPGPU-Sim PTX:  3 (potential) branch divergence @  PC=0x4488 (_1.ptx:2548) @%p3 bra $Lt_3_5634;
GPGPU-Sim PTX:    immediate post dominator      @  PC=0x4528 (_1.ptx:2574) shr.u32 %r23, %r15, 6;
GPGPU-Sim PTX:  4 (potential) branch divergence @  PC=0x4498 (_1.ptx:2550) @!%p2 bra $Lt_3_5378;
GPGPU-Sim PTX:    immediate post dominator      @  PC=0x4528 (_1.ptx:2574) shr.u32 %r23, %r15, 6;
GPGPU-Sim PTX:  5 (potential) branch divergence @  PC=0x4510 (_1.ptx:2568) @%p4 bra $Lt_3_6402;
GPGPU-Sim PTX:    immediate post dominator      @  PC=0x4518 (_1.ptx:2569) bra.uni $Lt_3_5378;
GPGPU-Sim PTX:  6 (potential) branch divergence @  PC=0x4518 (_1.ptx:2569) bra.uni $Lt_3_5378;
GPGPU-Sim PTX:    immediate post dominator      @  PC=0x4528 (_1.ptx:2574) shr.u32 %r23, %r15, 6;
GPGPU-Sim PTX:  7 (potential) branch divergence @  PC=0x4548 (_1.ptx:2578) @%p5 bra $Lt_3_8706;
GPGPU-Sim PTX:    immediate post dominator      @  PC=0x8fc0 (_1.ptx:5152) mul.lo.s32 %r748, %r5, 4;
GPGPU-Sim PTX:  8 (potential) branch divergence @  PC=0x4730 (_1.ptx:2654) @%p6 bra $Lt_3_7938;
GPGPU-Sim PTX:    immediate post dominator      @  PC=0x4820 (_1.ptx:2693) ld.shared.u8 %r69, [%rd21+3];
GPGPU-Sim PTX:  9 (potential) branch divergence @  PC=0x47e0 (_1.ptx:2679) bra.uni $Lt_3_7682;
GPGPU-Sim PTX:    immediate post dominator      @  PC=0x4820 (_1.ptx:2693) ld.shared.u8 %r69, [%rd21+3];
GPGPU-Sim PTX: 10 (potential) branch divergence @  PC=0x8fa8 (_1.ptx:5146) @%p7 bra $Lt_3_7426;
GPGPU-Sim PTX:    immediate post dominator      @  PC=0x8fb0 (_1.ptx:5147) bra.uni $Lt_3_6914;
GPGPU-Sim PTX: 11 (potential) branch divergence @  PC=0x8fb0 (_1.ptx:5147) bra.uni $Lt_3_6914;
GPGPU-Sim PTX:    immediate post dominator      @  PC=0x8fc0 (_1.ptx:5152) mul.lo.s32 %r748, %r5, 4;
GPGPU-Sim PTX: ... end of reconvergence points for _Z4sha1PhiiiS_
GPGPU-Sim PTX: ... done pre-decoding instructions for '_Z4sha1PhiiiS_'.
GPGPU-Sim PTX: allocating shared region for "__cuda___cuda_local_var_35764_40_non_const_sharedMemory48896" from 0x0 to 0x3f80 (shared memory space)
GPGPU-Sim PTX: instruction assembly for function '_Z12sha1_overlapPhiiiiS_'...   done.
GPGPU-Sim PTX: finding reconvergence points for '_Z12sha1_overlapPhiiiiS_'...
GPGPU-Sim PTX: Finding dominators for '_Z12sha1_overlapPhiiiiS_'...
GPGPU-Sim PTX: Finding immediate dominators for '_Z12sha1_overlapPhiiiiS_'...
GPGPU-Sim PTX: Finding postdominators for '_Z12sha1_overlapPhiiiiS_'...
GPGPU-Sim PTX: Finding immediate postdominators for '_Z12sha1_overlapPhiiiiS_'...
GPGPU-Sim PTX: pre-decoding instructions for '_Z12sha1_overlapPhiiiiS_'...
GPGPU-Sim PTX: reconvergence points for _Z12sha1_overlapPhiiiiS_...
GPGPU-Sim PTX:  1 (potential) branch divergence @  PC=0x9058 (_1.ptx:5190) @%p1 bra $Lt_4_5634;
GPGPU-Sim PTX:    immediate post dominator      @  PC=0xde28 (_1.ptx:7884) exit;
GPGPU-Sim PTX:  2 (potential) branch divergence @  PC=0x9060 (_1.ptx:5191) bra.uni $LBB23__Z12sha1_overlapPhiiiiS_;
GPGPU-Sim PTX:    immediate post dominator      @  PC=0xde28 (_1.ptx:7884) exit;
GPGPU-Sim PTX:  3 (potential) branch divergence @  PC=0x90b8 (_1.ptx:5204) @%p3 bra $Lt_4_9730;
GPGPU-Sim PTX:    immediate post dominator      @  PC=0xddd0 (_1.ptx:7871) mul.lo.s32 %r783, %r5, 4;
GPGPU-Sim PTX:  4 (potential) branch divergence @  PC=0x9288 (_1.ptx:5264) @%p4 bra $Lt_4_7170;
GPGPU-Sim PTX:    immediate post dominator      @  PC=0x9628 (_1.ptx:5411) ld.shared.u8 %r101, [%rd15+3];
GPGPU-Sim PTX:  5 (potential) branch divergence @  PC=0x92d0 (_1.ptx:5273) @%p5 bra $Lt_4_9986;
GPGPU-Sim PTX:    immediate post dominator      @  PC=0x9368 (_1.ptx:5297) mov.s32 %r59, 13;
GPGPU-Sim PTX:  6 (potential) branch divergence @  PC=0x9348 (_1.ptx:5291) @%p6 bra $Lt_4_7938;
GPGPU-Sim PTX:    immediate post dominator      @  PC=0x9350 (_1.ptx:5292) mov.s32 %r58, %r49;
GPGPU-Sim PTX:  7 (potential) branch divergence @  PC=0x9358 (_1.ptx:5293) bra.uni $Lt_4_7426;
GPGPU-Sim PTX:    immediate post dominator      @  PC=0x9368 (_1.ptx:5297) mov.s32 %r59, 13;
GPGPU-Sim PTX:  8 (potential) branch divergence @  PC=0x9388 (_1.ptx:5301) @%p7 bra $Lt_4_8450;
GPGPU-Sim PTX:    immediate post dominator      @  PC=0x9428 (_1.ptx:5326) mov.u32 %r69, 128;
GPGPU-Sim PTX:  9 (potential) branch divergence @  PC=0x9420 (_1.ptx:5323) @%p8 bra $Lt_4_8962;
GPGPU-Sim PTX:    immediate post dominator      @  PC=0x9428 (_1.ptx:5326) mov.u32 %r69, 128;
GPGPU-Sim PTX: 10 (potential) branch divergence @  PC=0x9500 (_1.ptx:5355) bra.uni $Lt_4_6914;
GPGPU-Sim PTX:    immediate post dominator      @  PC=0x9628 (_1.ptx:5411) ld.shared.u8 %r101, [%rd15+3];
GPGPU-Sim PTX: 11 (potential) branch divergence @  PC=0xddb8 (_1.ptx:7865) @%p9 bra $Lt_4_6658;
GPGPU-Sim PTX:    immediate post dominator      @  PC=0xddc0 (_1.ptx:7866) bra.uni $Lt_4_6146;
GPGPU-Sim PTX: 12 (potential) branch divergence @  PC=0xddc0 (_1.ptx:7866) bra.uni $Lt_4_6146;
GPGPU-Sim PTX:    immediate post dominator      @  PC=0xddd0 (_1.ptx:7871) mul.lo.s32 %r783, %r5, 4;
GPGPU-Sim PTX: ... end of reconvergence points for _Z12sha1_overlapPhiiiiS_
GPGPU-Sim PTX: ... done pre-decoding instructions for '_Z12sha1_overlapPhiiiiS_'.
GPGPU-Sim PTX: allocating global region for "md5_padding" from 0x100 to 0x140 (global memory space)
GPGPU-Sim PTX: allocating global region for "sha1_padding" from 0x140 to 0x180 (global memory space)
GPGPU-Sim PTX: finished parsing EMBEDDED .ptx file _1.ptx
Adding _cuobjdump_2.ptx with cubin handle 1
GPGPU-Sim PTX: extracting embedded .ptx to temporary file "_ptx_IQtBTn"
Running: cat _ptx_IQtBTn | sed 's/.version 1.5/.version 1.4/' | sed 's/, texmode_independent//' | sed 's/\(\.extern \.const\[1\] .b8 \w\+\)\[\]/\1\[1\]/' | sed 's/const\[.\]/const\[0\]/g' > _ptx2_aerd00
GPGPU-Sim PTX: generating ptxinfo using "$CUDA_INSTALL_PATH/bin/ptxas --gpu-name=sm_20 -v _ptx2_aerd00 --output-file  /dev/null 2> _ptx_IQtBTninfo"
GPGPU-Sim PTX: Kernel '_Z12sha1_overlapPhiiiiS_' : regs=47, lmem=0, smem=16256, cmem=80
GPGPU-Sim PTX: Kernel '_Z4sha1PhiiiS_' : regs=45, lmem=0, smem=16256, cmem=80
GPGPU-Sim PTX: Kernel '_Z11md5_overlapPhiiiiS_' : regs=42, lmem=0, smem=16256, cmem=80
GPGPU-Sim PTX: Kernel '_Z3md5PhiiiS_' : regs=42, lmem=0, smem=16256, cmem=80
GPGPU-Sim PTX: removing ptxinfo using "rm -f _ptx_IQtBTn _ptx2_aerd00 _ptx_IQtBTninfo"
GPGPU-Sim PTX: loading globals with explicit initializers... 
GPGPU-Sim PTX:     initializing 'md5_padding' ...  wrote 64 bytes
GPGPU-Sim PTX:     initializing 'sha1_padding' ...  wrote 64 bytes
GPGPU-Sim PTX: finished loading globals (128 bytes total).
GPGPU-Sim PTX: loading constants with explicit initializers...  done.
GPGPU-Sim PTX: __cudaRegisterFunction _Z4sha1PhiiiS_ : hostFun 0x0x40de87, fat_cubin_handle = 1
GPGPU-Sim PTX: __cudaRegisterFunction _Z11md5_overlapPhiiiiS_ : hostFun 0x0x40dd5c, fat_cubin_handle = 1
GPGPU-Sim PTX: __cudaRegisterFunction _Z3md5PhiiiS_ : hostFun 0x0x40dc11, fat_cubin_handle = 1
GPGPU-Sim PTX: __cudaRegisterVar: hostVar = 0x668920; deviceAddress = md5_padding; deviceName = md5_padding
GPGPU-Sim PTX: __cudaRegisterVar: Registering const memory space of 64 bytes
GPGPU-Sim PTX registering global md5_padding hostVar to name mapping
GPGPU-Sim PTX: __cudaRegisterVar: hostVar = 0x668960; deviceAddress = sha1_padding; deviceName = sha1_padding
GPGPU-Sim PTX: __cudaRegisterVar: Registering const memory space of 64 bytes
GPGPU-Sim PTX registering global sha1_padding hostVar to name mapping
GPGPU-Sim PTX: __cudaRegisterFatBinary, fat_cubin_handle = 2, filename=main.cu
Shared Memory Enabled
Pinned Memory Enabled
Reduced Hash Size Enabled
Running SHA1 Overlap Test..
SHA1 Overlap Test


== GPU Execution Context ==
Threads       : 128
Blocks        : 384
Total Threads : 49152
Total size    : 196656
Chunk Size    : 52
Padding       : 0


GPGPU-Sim PTX: cudaLaunch for 0x0x40dfd2 (mode=performance simulation) on stream 0
GPGPU-Sim PTX: pushing kernel '_Z12sha1_overlapPhiiiiS_' to stream 0, gridDim= (384,1,1) blockDim = (128,1,1) 
kernel '_Z12sha1_overlapPhiiiiS_' transfer to GPU hardware scheduler
GPGPU-Sim uArch: Shader 1 bind to kernel 1 '_Z12sha1_overlapPhiiiiS_'
GPGPU-Sim uArch: CTA/core = 3, limited by: shmem
GPGPU-Sim uArch: core:  1, cta: 0 initialized @(1,0)
GPGPU-Sim uArch: Shader 2 bind to kernel 1 '_Z12sha1_overlapPhiiiiS_'
GPGPU-Sim uArch: core:  2, cta: 0 initialized @(1,0)
GPGPU-Sim uArch: Shader 3 bind to kernel 1 '_Z12sha1_overlapPhiiiiS_'
GPGPU-Sim uArch: core:  3, cta: 0 initialized @(1,0)
GPGPU-Sim uArch: Shader 4 bind to kernel 1 '_Z12sha1_overlapPhiiiiS_'
GPGPU-Sim uArch: core:  4, cta: 0 initialized @(1,0)
GPGPU-Sim uArch: Shader 5 bind to kernel 1 '_Z12sha1_overlapPhiiiiS_'
GPGPU-Sim uArch: core:  5, cta: 0 initialized @(1,0)
GPGPU-Sim uArch: Shader 6 bind to kernel 1 '_Z12sha1_overlapPhiiiiS_'
GPGPU-Sim uArch: core:  6, cta: 0 initialized @(1,0)
GPGPU-Sim uArch: Shader 7 bind to kernel 1 '_Z12sha1_overlapPhiiiiS_'
GPGPU-Sim uArch: core:  7, cta: 0 initialized @(1,0)
GPGPU-Sim uArch: Shader 8 bind to kernel 1 '_Z12sha1_overlapPhiiiiS_'
GPGPU-Sim uArch: core:  8, cta: 0 initialized @(1,0)
GPGPU-Sim uArch: Shader 9 bind to kernel 1 '_Z12sha1_overlapPhiiiiS_'
GPGPU-Sim uArch: core:  9, cta: 0 initialized @(1,0)
GPGPU-Sim uArch: Shader 10 bind to kernel 1 '_Z12sha1_overlapPhiiiiS_'
GPGPU-Sim uArch: core: 10, cta: 0 initialized @(1,0)
GPGPU-Sim uArch: Shader 11 bind to kernel 1 '_Z12sha1_overlapPhiiiiS_'
GPGPU-Sim uArch: core: 11, cta: 0 initialized @(1,0)
GPGPU-Sim uArch: Shader 12 bind to kernel 1 '_Z12sha1_overlapPhiiiiS_'
GPGPU-Sim uArch: core: 12, cta: 0 initialized @(1,0)
GPGPU-Sim uArch: Shader 13 bind to kernel 1 '_Z12sha1_overlapPhiiiiS_'
GPGPU-Sim uArch: core: 13, cta: 0 initialized @(1,0)
GPGPU-Sim uArch: Shader 14 bind to kernel 1 '_Z12sha1_overlapPhiiiiS_'
GPGPU-Sim uArch: core: 14, cta: 0 initialized @(1,0)
GPGPU-Sim uArch: Shader 0 bind to kernel 1 '_Z12sha1_overlapPhiiiiS_'
GPGPU-Sim uArch: core:  0, cta: 0 initialized @(1,0)
GPGPU-Sim uArch: core:  1, cta: 1 initialized @(2,0)
GPGPU-Sim uArch: core:  2, cta: 1 initialized @(2,0)
GPGPU-Sim uArch: core:  3, cta: 1 initialized @(2,0)
GPGPU-Sim uArch: core:  4, cta: 1 initialized @(2,0)
GPGPU-Sim uArch: core:  5, cta: 1 initialized @(2,0)
GPGPU-Sim uArch: core:  6, cta: 1 initialized @(2,0)
GPGPU-Sim uArch: core:  7, cta: 1 initialized @(2,0)
GPGPU-Sim uArch: core:  8, cta: 1 initialized @(2,0)
GPGPU-Sim uArch: core:  9, cta: 1 initialized @(2,0)
GPGPU-Sim uArch: core: 10, cta: 1 initialized @(2,0)
GPGPU-Sim uArch: core: 11, cta: 1 initialized @(2,0)
GPGPU-Sim uArch: core: 12, cta: 1 initialized @(2,0)
GPGPU-Sim uArch: core: 13, cta: 1 initialized @(2,0)
GPGPU-Sim uArch: core: 14, cta: 1 initialized @(2,0)
GPGPU-Sim uArch: core:  0, cta: 1 initialized @(2,0)
GPGPU-Sim uArch: core:  1, cta: 2 initialized @(3,0)
GPGPU-Sim uArch: core:  2, cta: 2 initialized @(3,0)
GPGPU-Sim uArch: core:  3, cta: 2 initialized @(3,0)
GPGPU-Sim uArch: core:  4, cta: 2 initialized @(3,0)
GPGPU-Sim uArch: core:  5, cta: 2 initialized @(3,0)
GPGPU-Sim uArch: core:  6, cta: 2 initialized @(3,0)
GPGPU-Sim uArch: core:  7, cta: 2 initialized @(3,0)
GPGPU-Sim uArch: core:  8, cta: 2 initialized @(3,0)
GPGPU-Sim uArch: core:  9, cta: 2 initialized @(3,0)
GPGPU-Sim uArch: core: 10, cta: 2 initialized @(3,0)
GPGPU-Sim uArch: core: 11, cta: 2 initialized @(3,0)
GPGPU-Sim uArch: core: 12, cta: 2 initialized @(3,0)
GPGPU-Sim uArch: core: 13, cta: 2 initialized @(3,0)
GPGPU-Sim uArch: core: 14, cta: 2 initialized @(3,0)
GPGPU-Sim uArch: core:  0, cta: 2 initialized @(3,0)
GPGPU-Sim uArch: cycles simulated: 500  inst.: 19200 (ipc=38.4) sim_rate=2133 (inst/sec) elapsed = 0:0:00:09 / Tue Mar 22 12:46:22 2016
GPGPU-Sim PTX: 100000 instructions simulated : ctaid=(21,0,0) tid=(31,0,0)
GPGPU-Sim uArch: cycles simulated: 1500  inst.: 165120 (ipc=110.1) sim_rate=16512 (inst/sec) elapsed = 0:0:00:10 / Tue Mar 22 12:46:23 2016
GPGPU-Sim PTX: 200000 instructions simulated : ctaid=(24,0,0) tid=(63,0,0)
GPGPU-Sim PTX: 300000 instructions simulated : ctaid=(20,0,0) tid=(63,0,0)
GPGPU-Sim PTX: 400000 instructions simulated : ctaid=(11,0,0) tid=(95,0,0)
GPGPU-Sim uArch: cycles simulated: 3000  inst.: 391552 (ipc=130.5) sim_rate=30119 (inst/sec) elapsed = 0:0:00:13 / Tue Mar 22 12:46:26 2016
GPGPU-Sim PTX: 500000 instructions simulated : ctaid=(12,0,0) tid=(63,0,0)
GPGPU-Sim PTX: 600000 instructions simulated : ctaid=(6,0,0) tid=(127,0,0)
GPGPU-Sim PTX: 700000 instructions simulated : ctaid=(22,0,0) tid=(95,0,0)
GPGPU-Sim PTX: 800000 instructions simulated : ctaid=(7,0,0) tid=(63,0,0)
GPGPU-Sim uArch: cycles simulated: 4000  inst.: 818048 (ipc=204.5) sim_rate=58432 (inst/sec) elapsed = 0:0:00:14 / Tue Mar 22 12:46:27 2016
GPGPU-Sim PTX: 900000 instructions simulated : ctaid=(15,0,0) tid=(127,0,0)
GPGPU-Sim PTX: 1000000 instructions simulated : ctaid=(20,0,0) tid=(95,0,0)
GPGPU-Sim PTX: 1100000 instructions simulated : ctaid=(22,0,0) tid=(127,0,0)
GPGPU-Sim uArch: cycles simulated: 6000  inst.: 1157600 (ipc=192.9) sim_rate=77173 (inst/sec) elapsed = 0:0:00:15 / Tue Mar 22 12:46:28 2016
GPGPU-Sim PTX: 1200000 instructions simulated : ctaid=(23,0,0) tid=(127,0,0)
GPGPU-Sim PTX: 1300000 instructions simulated : ctaid=(16,0,0) tid=(95,0,0)
GPGPU-Sim PTX: 1400000 instructions simulated : ctaid=(1,0,0) tid=(63,0,0)
GPGPU-Sim PTX: 1500000 instructions simulated : ctaid=(27,0,0) tid=(95,0,0)
GPGPU-Sim uArch: cycles simulated: 8000  inst.: 1516800 (ipc=189.6) sim_rate=94800 (inst/sec) elapsed = 0:0:00:16 / Tue Mar 22 12:46:29 2016
GPGPU-Sim PTX: 1600000 instructions simulated : ctaid=(0,0,0) tid=(95,0,0)
GPGPU-Sim PTX: 1700000 instructions simulated : ctaid=(9,0,0) tid=(63,0,0)
GPGPU-Sim PTX: 1800000 instructions simulated : ctaid=(5,0,0) tid=(95,0,0)
GPGPU-Sim PTX: 1900000 instructions simulated : ctaid=(28,0,0) tid=(127,0,0)
GPGPU-Sim uArch: cycles simulated: 10500  inst.: 1947648 (ipc=185.5) sim_rate=114567 (inst/sec) elapsed = 0:0:00:17 / Tue Mar 22 12:46:30 2016
GPGPU-Sim PTX: 2000000 instructions simulated : ctaid=(0,0,0) tid=(95,0,0)
GPGPU-Sim PTX: 2100000 instructions simulated : ctaid=(0,0,0) tid=(31,0,0)
GPGPU-Sim PTX: 2200000 instructions simulated : ctaid=(25,0,0) tid=(63,0,0)
GPGPU-Sim PTX: 2300000 instructions simulated : ctaid=(14,0,0) tid=(31,0,0)
GPGPU-Sim uArch: cycles simulated: 12500  inst.: 2315520 (ipc=185.2) sim_rate=128640 (inst/sec) elapsed = 0:0:00:18 / Tue Mar 22 12:46:31 2016
GPGPU-Sim PTX: 2400000 instructions simulated : ctaid=(2,0,0) tid=(95,0,0)
GPGPU-Sim PTX: 2500000 instructions simulated : ctaid=(9,0,0) tid=(63,0,0)
GPGPU-Sim PTX: 2600000 instructions simulated : ctaid=(20,0,0) tid=(63,0,0)
GPGPU-Sim PTX: 2700000 instructions simulated : ctaid=(15,0,0) tid=(63,0,0)
GPGPU-Sim uArch: cycles simulated: 15000  inst.: 2745600 (ipc=183.0) sim_rate=144505 (inst/sec) elapsed = 0:0:00:19 / Tue Mar 22 12:46:32 2016
GPGPU-Sim PTX: 2800000 instructions simulated : ctaid=(10,0,0) tid=(95,0,0)
GPGPU-Sim PTX: 2900000 instructions simulated : ctaid=(16,0,0) tid=(31,0,0)
GPGPU-Sim PTX: 3000000 instructions simulated : ctaid=(25,0,0) tid=(95,0,0)
GPGPU-Sim PTX: 3100000 instructions simulated : ctaid=(20,0,0) tid=(63,0,0)
GPGPU-Sim uArch: cycles simulated: 17500  inst.: 3180960 (ipc=181.8) sim_rate=159048 (inst/sec) elapsed = 0:0:00:20 / Tue Mar 22 12:46:33 2016
GPGPU-Sim PTX: 3200000 instructions simulated : ctaid=(15,0,0) tid=(127,0,0)
GPGPU-Sim PTX: 3300000 instructions simulated : ctaid=(13,0,0) tid=(63,0,0)
GPGPU-Sim PTX: 3400000 instructions simulated : ctaid=(11,0,0) tid=(95,0,0)
GPGPU-Sim PTX: 3500000 instructions simulated : ctaid=(18,0,0) tid=(127,0,0)
GPGPU-Sim PTX: 3600000 instructions simulated : ctaid=(17,0,0) tid=(127,0,0)
GPGPU-Sim uArch: cycles simulated: 20000  inst.: 3644800 (ipc=182.2) sim_rate=173561 (inst/sec) elapsed = 0:0:00:21 / Tue Mar 22 12:46:34 2016
GPGPU-Sim PTX: 3700000 instructions simulated : ctaid=(17,0,0) tid=(127,0,0)
GPGPU-Sim PTX: 3800000 instructions simulated : ctaid=(24,0,0) tid=(95,0,0)
GPGPU-Sim PTX: 3900000 instructions simulated : ctaid=(18,0,0) tid=(31,0,0)
GPGPU-Sim uArch: cycles simulated: 22000  inst.: 3977856 (ipc=180.8) sim_rate=180811 (inst/sec) elapsed = 0:0:00:22 / Tue Mar 22 12:46:35 2016
GPGPU-Sim PTX: 4000000 instructions simulated : ctaid=(0,0,0) tid=(63,0,0)
GPGPU-Sim PTX: 4100000 instructions simulated : ctaid=(16,0,0) tid=(63,0,0)
GPGPU-Sim PTX: 4200000 instructions simulated : ctaid=(15,0,0) tid=(31,0,0)
GPGPU-Sim PTX: 4300000 instructions simulated : ctaid=(29,0,0) tid=(127,0,0)
GPGPU-Sim PTX: 4400000 instructions simulated : ctaid=(23,0,0) tid=(127,0,0)
GPGPU-Sim uArch: cycles simulated: 24500  inst.: 4451264 (ipc=181.7) sim_rate=193533 (inst/sec) elapsed = 0:0:00:23 / Tue Mar 22 12:46:36 2016
GPGPU-Sim PTX: 4500000 instructions simulated : ctaid=(5,0,0) tid=(127,0,0)
GPGPU-Sim PTX: 4600000 instructions simulated : ctaid=(28,0,0) tid=(127,0,0)
GPGPU-Sim PTX: 4700000 instructions simulated : ctaid=(17,0,0) tid=(95,0,0)
GPGPU-Sim PTX: 4800000 instructions simulated : ctaid=(1,0,0) tid=(31,0,0)
GPGPU-Sim PTX: 4900000 instructions simulated : ctaid=(21,0,0) tid=(127,0,0)
GPGPU-Sim uArch: cycles simulated: 27000  inst.: 4896000 (ipc=181.3) sim_rate=204000 (inst/sec) elapsed = 0:0:00:24 / Tue Mar 22 12:46:37 2016
GPGPU-Sim PTX: 5000000 instructions simulated : ctaid=(10,0,0) tid=(31,0,0)
GPGPU-Sim PTX: 5100000 instructions simulated : ctaid=(14,0,0) tid=(127,0,0)
GPGPU-Sim PTX: 5200000 instructions simulated : ctaid=(17,0,0) tid=(63,0,0)
GPGPU-Sim uArch: cycles simulated: 29000  inst.: 5262368 (ipc=181.5) sim_rate=210494 (inst/sec) elapsed = 0:0:00:25 / Tue Mar 22 12:46:38 2016
GPGPU-Sim PTX: 5300000 instructions simulated : ctaid=(13,0,0) tid=(31,0,0)
GPGPU-Sim PTX: 5400000 instructions simulated : ctaid=(26,0,0) tid=(95,0,0)
GPGPU-Sim PTX: 5500000 instructions simulated : ctaid=(22,0,0) tid=(31,0,0)
GPGPU-Sim PTX: 5600000 instructions simulated : ctaid=(14,0,0) tid=(31,0,0)
GPGPU-Sim PTX: 5700000 instructions simulated : ctaid=(21,0,0) tid=(63,0,0)
GPGPU-Sim uArch: cycles simulated: 31500  inst.: 5694720 (ipc=180.8) sim_rate=219027 (inst/sec) elapsed = 0:0:00:26 / Tue Mar 22 12:46:39 2016
GPGPU-Sim PTX: 5800000 instructions simulated : ctaid=(18,0,0) tid=(31,0,0)
GPGPU-Sim PTX: 5900000 instructions simulated : ctaid=(1,0,0) tid=(63,0,0)
GPGPU-Sim PTX: 6000000 instructions simulated : ctaid=(13,0,0) tid=(31,0,0)
GPGPU-Sim PTX: 6100000 instructions simulated : ctaid=(12,0,0) tid=(63,0,0)
GPGPU-Sim uArch: cycles simulated: 34000  inst.: 6124800 (ipc=180.1) sim_rate=226844 (inst/sec) elapsed = 0:0:00:27 / Tue Mar 22 12:46:40 2016
GPGPU-Sim PTX: 6200000 instructions simulated : ctaid=(25,0,0) tid=(127,0,0)
GPGPU-Sim PTX: 6300000 instructions simulated : ctaid=(4,0,0) tid=(95,0,0)
GPGPU-Sim PTX: 6400000 instructions simulated : ctaid=(22,0,0) tid=(127,0,0)
GPGPU-Sim PTX: 6500000 instructions simulated : ctaid=(9,0,0) tid=(63,0,0)
GPGPU-Sim uArch: cycles simulated: 36500  inst.: 6554880 (ipc=179.6) sim_rate=234102 (inst/sec) elapsed = 0:0:00:28 / Tue Mar 22 12:46:41 2016
GPGPU-Sim PTX: 6600000 instructions simulated : ctaid=(25,0,0) tid=(31,0,0)
GPGPU-Sim PTX: 6700000 instructions simulated : ctaid=(15,0,0) tid=(95,0,0)
GPGPU-Sim PTX: 6800000 instructions simulated : ctaid=(8,0,0) tid=(127,0,0)
GPGPU-Sim PTX: 6900000 instructions simulated : ctaid=(9,0,0) tid=(31,0,0)
GPGPU-Sim PTX: 7000000 instructions simulated : ctaid=(26,0,0) tid=(127,0,0)
GPGPU-Sim uArch: cycles simulated: 39000  inst.: 6985632 (ipc=179.1) sim_rate=240883 (inst/sec) elapsed = 0:0:00:29 / Tue Mar 22 12:46:42 2016
GPGPU-Sim PTX: 7100000 instructions simulated : ctaid=(25,0,0) tid=(31,0,0)
GPGPU-Sim PTX: 7200000 instructions simulated : ctaid=(16,0,0) tid=(127,0,0)
GPGPU-Sim PTX: 7300000 instructions simulated : ctaid=(21,0,0) tid=(31,0,0)
GPGPU-Sim PTX: 7400000 instructions simulated : ctaid=(13,0,0) tid=(31,0,0)
GPGPU-Sim uArch: cycles simulated: 41500  inst.: 7421152 (ipc=178.8) sim_rate=247371 (inst/sec) elapsed = 0:0:00:30 / Tue Mar 22 12:46:43 2016
GPGPU-Sim PTX: 7500000 instructions simulated : ctaid=(19,0,0) tid=(63,0,0)
GPGPU-Sim uArch: cycles simulated: 42000  inst.: 7537760 (ipc=179.5) sim_rate=243153 (inst/sec) elapsed = 0:0:00:31 / Tue Mar 22 12:46:44 2016
GPGPU-Sim PTX: 7600000 instructions simulated : ctaid=(20,0,0) tid=(127,0,0)
GPGPU-Sim PTX: 7700000 instructions simulated : ctaid=(0,0,0) tid=(31,0,0)
GPGPU-Sim PTX: 7800000 instructions simulated : ctaid=(14,0,0) tid=(31,0,0)
GPGPU-Sim PTX: 7900000 instructions simulated : ctaid=(29,0,0) tid=(95,0,0)
GPGPU-Sim uArch: cycles simulated: 44500  inst.: 7968000 (ipc=179.1) sim_rate=249000 (inst/sec) elapsed = 0:0:00:32 / Tue Mar 22 12:46:45 2016
GPGPU-Sim PTX: 8000000 instructions simulated : ctaid=(7,0,0) tid=(127,0,0)
GPGPU-Sim PTX: 8100000 instructions simulated : ctaid=(12,0,0) tid=(95,0,0)
GPGPU-Sim PTX: 8200000 instructions simulated : ctaid=(24,0,0) tid=(63,0,0)
GPGPU-Sim PTX: 8300000 instructions simulated : ctaid=(29,0,0) tid=(31,0,0)
GPGPU-Sim PTX: 8400000 instructions simulated : ctaid=(27,0,0) tid=(127,0,0)
GPGPU-Sim uArch: cycles simulated: 47000  inst.: 8398080 (ipc=178.7) sim_rate=254487 (inst/sec) elapsed = 0:0:00:33 / Tue Mar 22 12:46:46 2016
GPGPU-Sim PTX: 8500000 instructions simulated : ctaid=(22,0,0) tid=(31,0,0)
GPGPU-Sim PTX: 8600000 instructions simulated : ctaid=(4,0,0) tid=(31,0,0)
GPGPU-Sim PTX: 8700000 instructions simulated : ctaid=(20,0,0) tid=(31,0,0)
GPGPU-Sim PTX: 8800000 instructions simulated : ctaid=(2,0,0) tid=(95,0,0)
GPGPU-Sim uArch: cycles simulated: 49500  inst.: 8838016 (ipc=178.5) sim_rate=259941 (inst/sec) elapsed = 0:0:00:34 / Tue Mar 22 12:46:47 2016
GPGPU-Sim PTX: 8900000 instructions simulated : ctaid=(12,0,0) tid=(31,0,0)
GPGPU-Sim PTX: 9000000 instructions simulated : ctaid=(15,0,0) tid=(63,0,0)
GPGPU-Sim PTX: 9100000 instructions simulated : ctaid=(0,0,0) tid=(127,0,0)
GPGPU-Sim PTX: 9200000 instructions simulated : ctaid=(26,0,0) tid=(31,0,0)
GPGPU-Sim PTX: 9300000 instructions simulated : ctaid=(13,0,0) tid=(63,0,0)
GPGPU-Sim uArch: cycles simulated: 52000  inst.: 9300960 (ipc=178.9) sim_rate=265741 (inst/sec) elapsed = 0:0:00:35 / Tue Mar 22 12:46:48 2016
GPGPU-Sim PTX: 9400000 instructions simulated : ctaid=(0,0,0) tid=(127,0,0)
GPGPU-Sim PTX: 9500000 instructions simulated : ctaid=(10,0,0) tid=(127,0,0)
GPGPU-Sim PTX: 9600000 instructions simulated : ctaid=(21,0,0) tid=(31,0,0)
GPGPU-Sim PTX: 9700000 instructions simulated : ctaid=(24,0,0) tid=(95,0,0)
GPGPU-Sim uArch: cycles simulated: 54500  inst.: 9747840 (ipc=178.9) sim_rate=270773 (inst/sec) elapsed = 0:0:00:36 / Tue Mar 22 12:46:49 2016
GPGPU-Sim PTX: 9800000 instructions simulated : ctaid=(11,0,0) tid=(31,0,0)
GPGPU-Sim uArch: Shader 0 finished CTA #0 (55499,0), 2 CTAs running
GPGPU-Sim uArch: core:  0, cta: 0 initialized @(55500,0)
GPGPU-Sim uArch: Shader 6 finished CTA #0 (55530,0), 2 CTAs running
GPGPU-Sim uArch: core:  6, cta: 0 initialized @(55531,0)
GPGPU-Sim uArch: Shader 4 finished CTA #0 (55573,0), 2 CTAs running
GPGPU-Sim uArch: core:  4, cta: 0 initialized @(55574,0)
GPGPU-Sim uArch: Shader 1 finished CTA #0 (55608,0), 2 CTAs running
GPGPU-Sim uArch: core:  1, cta: 0 initialized @(55609,0)
GPGPU-Sim uArch: Shader 8 finished CTA #0 (55613,0), 2 CTAs running
GPGPU-Sim uArch: core:  8, cta: 0 initialized @(55614,0)
GPGPU-Sim uArch: Shader 0 finished CTA #1 (55619,0), 2 CTAs running
GPGPU-Sim uArch: core:  0, cta: 1 initialized @(55620,0)
GPGPU-Sim uArch: Shader 2 finished CTA #0 (55624,0), 2 CTAs running
GPGPU-Sim uArch: core:  2, cta: 0 initialized @(55625,0)
GPGPU-Sim uArch: Shader 6 finished CTA #1 (55637,0), 2 CTAs running
GPGPU-Sim uArch: core:  6, cta: 1 initialized @(55638,0)
GPGPU-Sim uArch: Shader 12 finished CTA #0 (55645,0), 2 CTAs running
GPGPU-Sim uArch: core: 12, cta: 0 initialized @(55646,0)
GPGPU-Sim uArch: Shader 10 finished CTA #0 (55647,0), 2 CTAs running
GPGPU-Sim uArch: core: 10, cta: 0 initialized @(55648,0)
GPGPU-Sim uArch: Shader 7 finished CTA #0 (55650,0), 2 CTAs running
GPGPU-Sim uArch: core:  7, cta: 0 initialized @(55651,0)
GPGPU-Sim uArch: Shader 13 finished CTA #0 (55656,0), 2 CTAs running
GPGPU-Sim uArch: core: 13, cta: 0 initialized @(55657,0)
GPGPU-Sim uArch: Shader 3 finished CTA #0 (55661,0), 2 CTAs running
GPGPU-Sim uArch: core:  3, cta: 0 initialized @(55662,0)
GPGPU-Sim uArch: Shader 5 finished CTA #0 (55667,0), 2 CTAs running
GPGPU-Sim uArch: core:  5, cta: 0 initialized @(55668,0)
GPGPU-Sim uArch: Shader 4 finished CTA #1 (55668,0), 2 CTAs running
GPGPU-Sim uArch: core:  4, cta: 1 initialized @(55669,0)
GPGPU-Sim uArch: Shader 9 finished CTA #0 (55670,0), 2 CTAs running
GPGPU-Sim uArch: core:  9, cta: 0 initialized @(55671,0)
GPGPU-Sim uArch: Shader 14 finished CTA #0 (55705,0), 2 CTAs running
GPGPU-Sim uArch: core: 14, cta: 0 initialized @(55706,0)
GPGPU-Sim uArch: Shader 11 finished CTA #0 (55706,0), 2 CTAs running
GPGPU-Sim uArch: core: 11, cta: 0 initialized @(55707,0)
GPGPU-Sim PTX: 9900000 instructions simulated : ctaid=(54,0,0) tid=(95,0,0)
GPGPU-Sim uArch: Shader 1 finished CTA #1 (55721,0), 2 CTAs running
GPGPU-Sim uArch: core:  1, cta: 1 initialized @(55722,0)
GPGPU-Sim uArch: Shader 10 finished CTA #1 (55728,0), 2 CTAs running
GPGPU-Sim uArch: core: 10, cta: 1 initialized @(55729,0)
GPGPU-Sim uArch: Shader 12 finished CTA #1 (55735,0), 2 CTAs running
GPGPU-Sim uArch: core: 12, cta: 1 initialized @(55736,0)
GPGPU-Sim uArch: Shader 3 finished CTA #1 (55766,0), 2 CTAs running
GPGPU-Sim uArch: core:  3, cta: 1 initialized @(55767,0)
GPGPU-Sim uArch: Shader 8 finished CTA #1 (55772,0), 2 CTAs running
GPGPU-Sim uArch: core:  8, cta: 1 initialized @(55773,0)
GPGPU-Sim uArch: Shader 9 finished CTA #1 (55778,0), 2 CTAs running
GPGPU-Sim uArch: core:  9, cta: 1 initialized @(55779,0)
GPGPU-Sim uArch: Shader 2 finished CTA #1 (55791,0), 2 CTAs running
GPGPU-Sim uArch: core:  2, cta: 1 initialized @(55792,0)
GPGPU-Sim uArch: Shader 7 finished CTA #1 (55797,0), 2 CTAs running
GPGPU-Sim uArch: core:  7, cta: 1 initialized @(55798,0)
GPGPU-Sim uArch: Shader 13 finished CTA #1 (55800,0), 2 CTAs running
GPGPU-Sim uArch: core: 13, cta: 1 initialized @(55801,0)
GPGPU-Sim uArch: Shader 5 finished CTA #1 (55801,0), 2 CTAs running
GPGPU-Sim uArch: core:  5, cta: 1 initialized @(55802,0)
GPGPU-Sim uArch: Shader 11 finished CTA #1 (55819,0), 2 CTAs running
GPGPU-Sim uArch: core: 11, cta: 1 initialized @(55820,0)
GPGPU-Sim uArch: Shader 14 finished CTA #1 (55821,0), 2 CTAs running
GPGPU-Sim uArch: core: 14, cta: 1 initialized @(55822,0)
GPGPU-Sim uArch: cycles simulated: 56000  inst.: 9959936 (ipc=177.9) sim_rate=262103 (inst/sec) elapsed = 0:0:00:38 / Tue Mar 22 12:46:51 2016
GPGPU-Sim PTX: 10000000 instructions simulated : ctaid=(36,0,0) tid=(63,0,0)
GPGPU-Sim PTX: 10100000 instructions simulated : ctaid=(57,0,0) tid=(63,0,0)
GPGPU-Sim PTX: 10200000 instructions simulated : ctaid=(33,0,0) tid=(127,0,0)
GPGPU-Sim PTX: 10300000 instructions simulated : ctaid=(45,0,0) tid=(63,0,0)
GPGPU-Sim uArch: cycles simulated: 57500  inst.: 10339584 (ipc=179.8) sim_rate=265117 (inst/sec) elapsed = 0:0:00:39 / Tue Mar 22 12:46:52 2016
GPGPU-Sim PTX: 10400000 instructions simulated : ctaid=(51,0,0) tid=(63,0,0)
GPGPU-Sim PTX: 10500000 instructions simulated : ctaid=(44,0,0) tid=(31,0,0)
GPGPU-Sim PTX: 10600000 instructions simulated : ctaid=(55,0,0) tid=(127,0,0)
GPGPU-Sim PTX: 10700000 instructions simulated : ctaid=(39,0,0) tid=(31,0,0)
GPGPU-Sim PTX: 10800000 instructions simulated : ctaid=(30,0,0) tid=(127,0,0)
GPGPU-Sim uArch: cycles simulated: 58500  inst.: 10800704 (ipc=184.6) sim_rate=270017 (inst/sec) elapsed = 0:0:00:40 / Tue Mar 22 12:46:53 2016
GPGPU-Sim PTX: 10900000 instructions simulated : ctaid=(49,0,0) tid=(95,0,0)
GPGPU-Sim PTX: 11000000 instructions simulated : ctaid=(36,0,0) tid=(31,0,0)
GPGPU-Sim PTX: 11100000 instructions simulated : ctaid=(31,0,0) tid=(95,0,0)
GPGPU-Sim PTX: 11200000 instructions simulated : ctaid=(37,0,0) tid=(95,0,0)
GPGPU-Sim PTX: 11300000 instructions simulated : ctaid=(45,0,0) tid=(31,0,0)
GPGPU-Sim uArch: cycles simulated: 60500  inst.: 11302560 (ipc=186.8) sim_rate=275672 (inst/sec) elapsed = 0:0:00:41 / Tue Mar 22 12:46:54 2016
GPGPU-Sim PTX: 11400000 instructions simulated : ctaid=(54,0,0) tid=(127,0,0)
GPGPU-Sim PTX: 11500000 instructions simulated : ctaid=(42,0,0) tid=(127,0,0)
GPGPU-Sim PTX: 11600000 instructions simulated : ctaid=(51,0,0) tid=(95,0,0)
GPGPU-Sim PTX: 11700000 instructions simulated : ctaid=(39,0,0) tid=(95,0,0)
GPGPU-Sim uArch: cycles simulated: 62000  inst.: 11705184 (ipc=188.8) sim_rate=278694 (inst/sec) elapsed = 0:0:00:42 / Tue Mar 22 12:46:55 2016
GPGPU-Sim PTX: 11800000 instructions simulated : ctaid=(44,0,0) tid=(31,0,0)
GPGPU-Sim PTX: 11900000 instructions simulated : ctaid=(54,0,0) tid=(95,0,0)
GPGPU-Sim PTX: 12000000 instructions simulated : ctaid=(53,0,0) tid=(31,0,0)
GPGPU-Sim PTX: 12100000 instructions simulated : ctaid=(40,0,0) tid=(127,0,0)
GPGPU-Sim uArch: cycles simulated: 63500  inst.: 12092640 (ipc=190.4) sim_rate=281224 (inst/sec) elapsed = 0:0:00:43 / Tue Mar 22 12:46:56 2016
GPGPU-Sim PTX: 12200000 instructions simulated : ctaid=(31,0,0) tid=(63,0,0)
GPGPU-Sim PTX: 12300000 instructions simulated : ctaid=(61,0,0) tid=(63,0,0)
GPGPU-Sim PTX: 12400000 instructions simulated : ctaid=(38,0,0) tid=(95,0,0)
GPGPU-Sim PTX: 12500000 instructions simulated : ctaid=(60,0,0) tid=(31,0,0)
GPGPU-Sim PTX: 12600000 instructions simulated : ctaid=(40,0,0) tid=(63,0,0)
GPGPU-Sim uArch: cycles simulated: 65500  inst.: 12617344 (ipc=192.6) sim_rate=286757 (inst/sec) elapsed = 0:0:00:44 / Tue Mar 22 12:46:57 2016
GPGPU-Sim PTX: 12700000 instructions simulated : ctaid=(58,0,0) tid=(63,0,0)
GPGPU-Sim PTX: 12800000 instructions simulated : ctaid=(37,0,0) tid=(95,0,0)
GPGPU-Sim PTX: 12900000 instructions simulated : ctaid=(36,0,0) tid=(95,0,0)
GPGPU-Sim PTX: 13000000 instructions simulated : ctaid=(30,0,0) tid=(31,0,0)
GPGPU-Sim PTX: 13100000 instructions simulated : ctaid=(33,0,0) tid=(95,0,0)
GPGPU-Sim uArch: cycles simulated: 67500  inst.: 13153696 (ipc=194.9) sim_rate=292304 (inst/sec) elapsed = 0:0:00:45 / Tue Mar 22 12:46:58 2016
GPGPU-Sim PTX: 13200000 instructions simulated : ctaid=(40,0,0) tid=(63,0,0)
GPGPU-Sim PTX: 13300000 instructions simulated : ctaid=(41,0,0) tid=(63,0,0)
GPGPU-Sim PTX: 13400000 instructions simulated : ctaid=(42,0,0) tid=(95,0,0)
GPGPU-Sim PTX: 13500000 instructions simulated : ctaid=(41,0,0) tid=(127,0,0)
GPGPU-Sim PTX: 13600000 instructions simulated : ctaid=(39,0,0) tid=(127,0,0)
GPGPU-Sim PTX: 13700000 instructions simulated : ctaid=(55,0,0) tid=(31,0,0)
GPGPU-Sim uArch: cycles simulated: 69500  inst.: 13679936 (ipc=196.8) sim_rate=297389 (inst/sec) elapsed = 0:0:00:46 / Tue Mar 22 12:46:59 2016
GPGPU-Sim PTX: 13800000 instructions simulated : ctaid=(58,0,0) tid=(31,0,0)
GPGPU-Sim PTX: 13900000 instructions simulated : ctaid=(61,0,0) tid=(95,0,0)
GPGPU-Sim PTX: 14000000 instructions simulated : ctaid=(34,0,0) tid=(95,0,0)
GPGPU-Sim PTX: 14100000 instructions simulated : ctaid=(37,0,0) tid=(63,0,0)
GPGPU-Sim uArch: cycles simulated: 71000  inst.: 14084352 (ipc=198.4) sim_rate=299667 (inst/sec) elapsed = 0:0:00:47 / Tue Mar 22 12:47:00 2016
GPGPU-Sim PTX: 14200000 instructions simulated : ctaid=(43,0,0) tid=(95,0,0)
GPGPU-Sim PTX: 14300000 instructions simulated : ctaid=(57,0,0) tid=(31,0,0)
GPGPU-Sim PTX: 14400000 instructions simulated : ctaid=(39,0,0) tid=(95,0,0)
GPGPU-Sim PTX: 14500000 instructions simulated : ctaid=(55,0,0) tid=(63,0,0)
GPGPU-Sim PTX: 14600000 instructions simulated : ctaid=(39,0,0) tid=(95,0,0)
GPGPU-Sim uArch: cycles simulated: 73000  inst.: 14619232 (ipc=200.3) sim_rate=304567 (inst/sec) elapsed = 0:0:00:48 / Tue Mar 22 12:47:01 2016
GPGPU-Sim PTX: 14700000 instructions simulated : ctaid=(46,0,0) tid=(31,0,0)
GPGPU-Sim PTX: 14800000 instructions simulated : ctaid=(32,0,0) tid=(95,0,0)
GPGPU-Sim PTX: 14900000 instructions simulated : ctaid=(46,0,0) tid=(31,0,0)
GPGPU-Sim PTX: 15000000 instructions simulated : ctaid=(42,0,0) tid=(95,0,0)
GPGPU-Sim PTX: 15100000 instructions simulated : ctaid=(55,0,0) tid=(95,0,0)
GPGPU-Sim uArch: cycles simulated: 75000  inst.: 15149504 (ipc=202.0) sim_rate=309173 (inst/sec) elapsed = 0:0:00:49 / Tue Mar 22 12:47:02 2016
GPGPU-Sim PTX: 15200000 instructions simulated : ctaid=(48,0,0) tid=(31,0,0)
GPGPU-Sim PTX: 15300000 instructions simulated : ctaid=(44,0,0) tid=(63,0,0)
GPGPU-Sim PTX: 15400000 instructions simulated : ctaid=(38,0,0) tid=(31,0,0)
GPGPU-Sim PTX: 15500000 instructions simulated : ctaid=(48,0,0) tid=(127,0,0)
GPGPU-Sim uArch: cycles simulated: 76500  inst.: 15550176 (ipc=203.3) sim_rate=311003 (inst/sec) elapsed = 0:0:00:50 / Tue Mar 22 12:47:03 2016
GPGPU-Sim PTX: 15600000 instructions simulated : ctaid=(61,0,0) tid=(63,0,0)
GPGPU-Sim PTX: 15700000 instructions simulated : ctaid=(54,0,0) tid=(95,0,0)
GPGPU-Sim PTX: 15800000 instructions simulated : ctaid=(35,0,0) tid=(63,0,0)
GPGPU-Sim PTX: 15900000 instructions simulated : ctaid=(32,0,0) tid=(63,0,0)
GPGPU-Sim PTX: 16000000 instructions simulated : ctaid=(48,0,0) tid=(63,0,0)
GPGPU-Sim PTX: 16100000 instructions simulated : ctaid=(56,0,0) tid=(127,0,0)
GPGPU-Sim uArch: cycles simulated: 78500  inst.: 16074400 (ipc=204.8) sim_rate=315184 (inst/sec) elapsed = 0:0:00:51 / Tue Mar 22 12:47:04 2016
GPGPU-Sim PTX: 16200000 instructions simulated : ctaid=(32,0,0) tid=(127,0,0)
GPGPU-Sim PTX: 16300000 instructions simulated : ctaid=(54,0,0) tid=(95,0,0)
GPGPU-Sim PTX: 16400000 instructions simulated : ctaid=(58,0,0) tid=(31,0,0)
GPGPU-Sim PTX: 16500000 instructions simulated : ctaid=(49,0,0) tid=(127,0,0)
GPGPU-Sim PTX: 16600000 instructions simulated : ctaid=(43,0,0) tid=(63,0,0)
GPGPU-Sim uArch: cycles simulated: 80500  inst.: 16611552 (ipc=206.4) sim_rate=319452 (inst/sec) elapsed = 0:0:00:52 / Tue Mar 22 12:47:05 2016
GPGPU-Sim PTX: 16700000 instructions simulated : ctaid=(62,0,0) tid=(95,0,0)
GPGPU-Sim PTX: 16800000 instructions simulated : ctaid=(48,0,0) tid=(63,0,0)
GPGPU-Sim PTX: 16900000 instructions simulated : ctaid=(33,0,0) tid=(63,0,0)
GPGPU-Sim PTX: 17000000 instructions simulated : ctaid=(34,0,0) tid=(63,0,0)
GPGPU-Sim PTX: 17100000 instructions simulated : ctaid=(35,0,0) tid=(95,0,0)
GPGPU-Sim uArch: cycles simulated: 82500  inst.: 17138752 (ipc=207.7) sim_rate=323372 (inst/sec) elapsed = 0:0:00:53 / Tue Mar 22 12:47:06 2016
GPGPU-Sim PTX: 17200000 instructions simulated : ctaid=(34,0,0) tid=(95,0,0)
GPGPU-Sim PTX: 17300000 instructions simulated : ctaid=(32,0,0) tid=(95,0,0)
GPGPU-Sim PTX: 17400000 instructions simulated : ctaid=(47,0,0) tid=(31,0,0)
GPGPU-Sim uArch: cycles simulated: 83500  inst.: 17402528 (ipc=208.4) sim_rate=322269 (inst/sec) elapsed = 0:0:00:54 / Tue Mar 22 12:47:07 2016
GPGPU-Sim PTX: 17500000 instructions simulated : ctaid=(58,0,0) tid=(31,0,0)
GPGPU-Sim PTX: 17600000 instructions simulated : ctaid=(48,0,0) tid=(63,0,0)
GPGPU-Sim PTX: 17700000 instructions simulated : ctaid=(43,0,0) tid=(63,0,0)
GPGPU-Sim PTX: 17800000 instructions simulated : ctaid=(55,0,0) tid=(127,0,0)
GPGPU-Sim uArch: cycles simulated: 85000  inst.: 17792000 (ipc=209.3) sim_rate=323490 (inst/sec) elapsed = 0:0:00:55 / Tue Mar 22 12:47:08 2016
GPGPU-Sim PTX: 17900000 instructions simulated : ctaid=(42,0,0) tid=(127,0,0)
GPGPU-Sim PTX: 18000000 instructions simulated : ctaid=(61,0,0) tid=(31,0,0)
GPGPU-Sim PTX: 18100000 instructions simulated : ctaid=(39,0,0) tid=(95,0,0)
GPGPU-Sim PTX: 18200000 instructions simulated : ctaid=(47,0,0) tid=(127,0,0)
GPGPU-Sim PTX: 18300000 instructions simulated : ctaid=(53,0,0) tid=(31,0,0)
GPGPU-Sim uArch: cycles simulated: 87000  inst.: 18330400 (ipc=210.7) sim_rate=327328 (inst/sec) elapsed = 0:0:00:56 / Tue Mar 22 12:47:09 2016
GPGPU-Sim PTX: 18400000 instructions simulated : ctaid=(30,0,0) tid=(31,0,0)
GPGPU-Sim PTX: 18500000 instructions simulated : ctaid=(33,0,0) tid=(63,0,0)
GPGPU-Sim PTX: 18600000 instructions simulated : ctaid=(34,0,0) tid=(63,0,0)
GPGPU-Sim PTX: 18700000 instructions simulated : ctaid=(33,0,0) tid=(63,0,0)
GPGPU-Sim PTX: 18800000 instructions simulated : ctaid=(40,0,0) tid=(95,0,0)
GPGPU-Sim uArch: cycles simulated: 89000  inst.: 18861184 (ipc=211.9) sim_rate=330897 (inst/sec) elapsed = 0:0:00:57 / Tue Mar 22 12:47:10 2016
GPGPU-Sim PTX: 18900000 instructions simulated : ctaid=(57,0,0) tid=(31,0,0)
GPGPU-Sim PTX: 19000000 instructions simulated : ctaid=(54,0,0) tid=(31,0,0)
GPGPU-Sim PTX: 19100000 instructions simulated : ctaid=(40,0,0) tid=(63,0,0)
GPGPU-Sim PTX: 19200000 instructions simulated : ctaid=(32,0,0) tid=(127,0,0)
GPGPU-Sim PTX: 19300000 instructions simulated : ctaid=(45,0,0) tid=(31,0,0)
GPGPU-Sim PTX: 19400000 instructions simulated : ctaid=(53,0,0) tid=(95,0,0)
GPGPU-Sim uArch: cycles simulated: 91000  inst.: 19385152 (ipc=213.0) sim_rate=334226 (inst/sec) elapsed = 0:0:00:58 / Tue Mar 22 12:47:11 2016
GPGPU-Sim PTX: 19500000 instructions simulated : ctaid=(33,0,0) tid=(127,0,0)
GPGPU-Sim PTX: 19600000 instructions simulated : ctaid=(43,0,0) tid=(127,0,0)
GPGPU-Sim uArch: Shader 0 finished CTA #2 (92444,0), 2 CTAs running
GPGPU-Sim uArch: core:  0, cta: 2 initialized @(92445,0)
GPGPU-Sim PTX: 19700000 instructions simulated : ctaid=(75,0,0) tid=(95,0,0)
GPGPU-Sim uArch: Shader 12 finished CTA #2 (92477,0), 2 CTAs running
GPGPU-Sim uArch: core: 12, cta: 2 initialized @(92478,0)
GPGPU-Sim uArch: cycles simulated: 92500  inst.: 19662240 (ipc=212.6) sim_rate=333258 (inst/sec) elapsed = 0:0:00:59 / Tue Mar 22 12:47:12 2016
GPGPU-Sim uArch: Shader 3 finished CTA #2 (92501,0), 2 CTAs running
GPGPU-Sim uArch: core:  3, cta: 2 initialized @(92502,0)
GPGPU-Sim uArch: Shader 4 finished CTA #2 (92511,0), 2 CTAs running
GPGPU-Sim uArch: core:  4, cta: 2 initialized @(92512,0)
GPGPU-Sim uArch: Shader 6 finished CTA #2 (92523,0), 2 CTAs running
GPGPU-Sim uArch: core:  6, cta: 2 initialized @(92524,0)
GPGPU-Sim uArch: Shader 8 finished CTA #2 (92547,0), 2 CTAs running
GPGPU-Sim uArch: core:  8, cta: 2 initialized @(92548,0)
GPGPU-Sim uArch: Shader 5 finished CTA #2 (92573,0), 2 CTAs running
GPGPU-Sim uArch: core:  5, cta: 2 initialized @(92574,0)
GPGPU-Sim uArch: Shader 2 finished CTA #2 (92577,0), 2 CTAs running
GPGPU-Sim uArch: core:  2, cta: 2 initialized @(92578,0)
GPGPU-Sim uArch: Shader 0 finished CTA #0 (92592,0), 2 CTAs running
GPGPU-Sim uArch: core:  0, cta: 0 initialized @(92593,0)
GPGPU-Sim uArch: Shader 12 finished CTA #0 (92602,0), 2 CTAs running
GPGPU-Sim uArch: core: 12, cta: 0 initialized @(92603,0)
GPGPU-Sim uArch: Shader 11 finished CTA #2 (92605,0), 2 CTAs running
GPGPU-Sim uArch: core: 11, cta: 2 initialized @(92606,0)
GPGPU-Sim uArch: Shader 4 finished CTA #0 (92609,0), 2 CTAs running
GPGPU-Sim uArch: core:  4, cta: 0 initialized @(92610,0)
GPGPU-Sim uArch: Shader 3 finished CTA #0 (92614,0), 2 CTAs running
GPGPU-Sim uArch: core:  3, cta: 0 initialized @(92615,0)
GPGPU-Sim uArch: Shader 14 finished CTA #2 (92641,0), 2 CTAs running
GPGPU-Sim uArch: core: 14, cta: 2 initialized @(92642,0)
GPGPU-Sim uArch: Shader 6 finished CTA #0 (92661,0), 2 CTAs running
GPGPU-Sim uArch: core:  6, cta: 0 initialized @(92662,0)
GPGPU-Sim uArch: Shader 2 finished CTA #0 (92670,0), 2 CTAs running
GPGPU-Sim uArch: core:  2, cta: 0 initialized @(92671,0)
GPGPU-Sim uArch: Shader 11 finished CTA #0 (92679,0), 2 CTAs running
GPGPU-Sim uArch: core: 11, cta: 0 initialized @(92680,0)
GPGPU-Sim uArch: Shader 5 finished CTA #0 (92680,0), 2 CTAs running
GPGPU-Sim uArch: Shader 8 finished CTA #0 (92680,0), 2 CTAs running
GPGPU-Sim uArch: core:  5, cta: 0 initialized @(92681,0)
GPGPU-Sim uArch: core:  8, cta: 0 initialized @(92681,0)
GPGPU-Sim uArch: Shader 1 finished CTA #2 (92688,0), 2 CTAs running
GPGPU-Sim uArch: core:  1, cta: 2 initialized @(92689,0)
GPGPU-Sim uArch: Shader 10 finished CTA #2 (92709,0), 2 CTAs running
GPGPU-Sim uArch: core: 10, cta: 2 initialized @(92710,0)
GPGPU-Sim uArch: Shader 14 finished CTA #0 (92730,0), 2 CTAs running
GPGPU-Sim uArch: core: 14, cta: 0 initialized @(92731,0)
GPGPU-Sim uArch: Shader 1 finished CTA #0 (92811,0), 2 CTAs running
GPGPU-Sim uArch: core:  1, cta: 0 initialized @(92812,0)
GPGPU-Sim uArch: Shader 10 finished CTA #0 (92832,0), 2 CTAs running
GPGPU-Sim uArch: core: 10, cta: 0 initialized @(92833,0)
GPGPU-Sim uArch: Shader 9 finished CTA #2 (92851,0), 2 CTAs running
GPGPU-Sim uArch: core:  9, cta: 2 initialized @(92852,0)
GPGPU-Sim uArch: Shader 7 finished CTA #2 (92867,0), 2 CTAs running
GPGPU-Sim uArch: core:  7, cta: 2 initialized @(92868,0)
GPGPU-Sim PTX: 19800000 instructions simulated : ctaid=(52,0,0) tid=(95,0,0)
GPGPU-Sim uArch: Shader 7 finished CTA #0 (92929,0), 2 CTAs running
GPGPU-Sim uArch: core:  7, cta: 0 initialized @(92930,0)
GPGPU-Sim uArch: Shader 13 finished CTA #2 (92930,0), 2 CTAs running
GPGPU-Sim uArch: core: 13, cta: 2 initialized @(92931,0)
GPGPU-Sim uArch: Shader 9 finished CTA #0 (92951,0), 2 CTAs running
GPGPU-Sim uArch: core:  9, cta: 0 initialized @(92952,0)
GPGPU-Sim uArch: Shader 13 finished CTA #0 (92993,0), 2 CTAs running
GPGPU-Sim uArch: core: 13, cta: 0 initialized @(92994,0)
GPGPU-Sim uArch: cycles simulated: 93000  inst.: 19786368 (ipc=212.8) sim_rate=329772 (inst/sec) elapsed = 0:0:01:00 / Tue Mar 22 12:47:13 2016
GPGPU-Sim PTX: 19900000 instructions simulated : ctaid=(75,0,0) tid=(31,0,0)
GPGPU-Sim uArch: cycles simulated: 93500  inst.: 19928096 (ipc=213.1) sim_rate=326690 (inst/sec) elapsed = 0:0:01:01 / Tue Mar 22 12:47:14 2016
GPGPU-Sim PTX: 20000000 instructions simulated : ctaid=(88,0,0) tid=(31,0,0)
GPGPU-Sim PTX: 20100000 instructions simulated : ctaid=(99,0,0) tid=(95,0,0)
GPGPU-Sim PTX: 20200000 instructions simulated : ctaid=(79,0,0) tid=(63,0,0)
GPGPU-Sim PTX: 20300000 instructions simulated : ctaid=(85,0,0) tid=(95,0,0)
GPGPU-Sim PTX: 20400000 instructions simulated : ctaid=(75,0,0) tid=(63,0,0)
GPGPU-Sim PTX: 20500000 instructions simulated : ctaid=(81,0,0) tid=(95,0,0)
GPGPU-Sim uArch: cycles simulated: 95000  inst.: 20451360 (ipc=215.3) sim_rate=329860 (inst/sec) elapsed = 0:0:01:02 / Tue Mar 22 12:47:15 2016
GPGPU-Sim PTX: 20600000 instructions simulated : ctaid=(79,0,0) tid=(63,0,0)
GPGPU-Sim PTX: 20700000 instructions simulated : ctaid=(76,0,0) tid=(127,0,0)
GPGPU-Sim PTX: 20800000 instructions simulated : ctaid=(100,0,0) tid=(31,0,0)
GPGPU-Sim PTX: 20900000 instructions simulated : ctaid=(66,0,0) tid=(95,0,0)
GPGPU-Sim PTX: 21000000 instructions simulated : ctaid=(99,0,0) tid=(63,0,0)
GPGPU-Sim uArch: cycles simulated: 97000  inst.: 20995296 (ipc=216.4) sim_rate=333258 (inst/sec) elapsed = 0:0:01:03 / Tue Mar 22 12:47:16 2016
GPGPU-Sim PTX: 21100000 instructions simulated : ctaid=(68,0,0) tid=(95,0,0)
GPGPU-Sim PTX: 21200000 instructions simulated : ctaid=(50,0,0) tid=(31,0,0)
GPGPU-Sim PTX: 21300000 instructions simulated : ctaid=(76,0,0) tid=(31,0,0)
GPGPU-Sim PTX: 21400000 instructions simulated : ctaid=(76,0,0) tid=(127,0,0)
GPGPU-Sim uArch: cycles simulated: 98500  inst.: 21399072 (ipc=217.2) sim_rate=334360 (inst/sec) elapsed = 0:0:01:04 / Tue Mar 22 12:47:17 2016
GPGPU-Sim PTX: 21500000 instructions simulated : ctaid=(50,0,0) tid=(95,0,0)
GPGPU-Sim PTX: 21600000 instructions simulated : ctaid=(80,0,0) tid=(127,0,0)
GPGPU-Sim PTX: 21700000 instructions simulated : ctaid=(64,0,0) tid=(63,0,0)
GPGPU-Sim PTX: 21800000 instructions simulated : ctaid=(63,0,0) tid=(31,0,0)
GPGPU-Sim PTX: 21900000 instructions simulated : ctaid=(99,0,0) tid=(95,0,0)
GPGPU-Sim uArch: cycles simulated: 100500  inst.: 21918848 (ipc=218.1) sim_rate=337213 (inst/sec) elapsed = 0:0:01:05 / Tue Mar 22 12:47:18 2016
GPGPU-Sim PTX: 22000000 instructions simulated : ctaid=(50,0,0) tid=(95,0,0)
GPGPU-Sim PTX: 22100000 instructions simulated : ctaid=(94,0,0) tid=(95,0,0)
GPGPU-Sim PTX: 22200000 instructions simulated : ctaid=(52,0,0) tid=(95,0,0)
GPGPU-Sim PTX: 22300000 instructions simulated : ctaid=(99,0,0) tid=(31,0,0)
GPGPU-Sim uArch: cycles simulated: 102000  inst.: 22312256 (ipc=218.7) sim_rate=338064 (inst/sec) elapsed = 0:0:01:06 / Tue Mar 22 12:47:19 2016
GPGPU-Sim PTX: 22400000 instructions simulated : ctaid=(67,0,0) tid=(63,0,0)
GPGPU-Sim PTX: 22500000 instructions simulated : ctaid=(79,0,0) tid=(95,0,0)
GPGPU-Sim PTX: 22600000 instructions simulated : ctaid=(68,0,0) tid=(95,0,0)
GPGPU-Sim PTX: 22700000 instructions simulated : ctaid=(82,0,0) tid=(127,0,0)
GPGPU-Sim PTX: 22800000 instructions simulated : ctaid=(79,0,0) tid=(95,0,0)
GPGPU-Sim PTX: 22900000 instructions simulated : ctaid=(63,0,0) tid=(95,0,0)
GPGPU-Sim uArch: cycles simulated: 104000  inst.: 22845344 (ipc=219.7) sim_rate=340975 (inst/sec) elapsed = 0:0:01:07 / Tue Mar 22 12:47:20 2016
GPGPU-Sim PTX: 23000000 instructions simulated : ctaid=(80,0,0) tid=(127,0,0)
GPGPU-Sim PTX: 23100000 instructions simulated : ctaid=(94,0,0) tid=(63,0,0)
GPGPU-Sim PTX: 23200000 instructions simulated : ctaid=(63,0,0) tid=(31,0,0)
GPGPU-Sim PTX: 23300000 instructions simulated : ctaid=(79,0,0) tid=(127,0,0)
GPGPU-Sim PTX: 23400000 instructions simulated : ctaid=(74,0,0) tid=(31,0,0)
GPGPU-Sim uArch: cycles simulated: 106000  inst.: 23372736 (ipc=220.5) sim_rate=343716 (inst/sec) elapsed = 0:0:01:08 / Tue Mar 22 12:47:21 2016
GPGPU-Sim PTX: 23500000 instructions simulated : ctaid=(67,0,0) tid=(95,0,0)
GPGPU-Sim PTX: 23600000 instructions simulated : ctaid=(102,0,0) tid=(127,0,0)
GPGPU-Sim uArch: cycles simulated: 107000  inst.: 23637536 (ipc=220.9) sim_rate=342572 (inst/sec) elapsed = 0:0:01:09 / Tue Mar 22 12:47:22 2016
GPGPU-Sim PTX: 23700000 instructions simulated : ctaid=(82,0,0) tid=(95,0,0)
GPGPU-Sim PTX: 23800000 instructions simulated : ctaid=(80,0,0) tid=(31,0,0)
GPGPU-Sim PTX: 23900000 instructions simulated : ctaid=(74,0,0) tid=(63,0,0)
GPGPU-Sim PTX: 24000000 instructions simulated : ctaid=(76,0,0) tid=(95,0,0)
GPGPU-Sim PTX: 24100000 instructions simulated : ctaid=(59,0,0) tid=(31,0,0)
GPGPU-Sim PTX: 24200000 instructions simulated : ctaid=(75,0,0) tid=(127,0,0)
GPGPU-Sim uArch: cycles simulated: 109000  inst.: 24173984 (ipc=221.8) sim_rate=345342 (inst/sec) elapsed = 0:0:01:10 / Tue Mar 22 12:47:23 2016
GPGPU-Sim PTX: 24300000 instructions simulated : ctaid=(70,0,0) tid=(31,0,0)
GPGPU-Sim PTX: 24400000 instructions simulated : ctaid=(102,0,0) tid=(63,0,0)
GPGPU-Sim PTX: 24500000 instructions simulated : ctaid=(71,0,0) tid=(31,0,0)
GPGPU-Sim PTX: 24600000 instructions simulated : ctaid=(80,0,0) tid=(127,0,0)
GPGPU-Sim PTX: 24700000 instructions simulated : ctaid=(59,0,0) tid=(95,0,0)
GPGPU-Sim uArch: cycles simulated: 111000  inst.: 24714016 (ipc=222.6) sim_rate=348084 (inst/sec) elapsed = 0:0:01:11 / Tue Mar 22 12:47:24 2016
GPGPU-Sim PTX: 24800000 instructions simulated : ctaid=(72,0,0) tid=(63,0,0)
GPGPU-Sim PTX: 24900000 instructions simulated : ctaid=(66,0,0) tid=(127,0,0)
GPGPU-Sim PTX: 25000000 instructions simulated : ctaid=(99,0,0) tid=(31,0,0)
GPGPU-Sim PTX: 25100000 instructions simulated : ctaid=(100,0,0) tid=(95,0,0)
GPGPU-Sim PTX: 25200000 instructions simulated : ctaid=(78,0,0) tid=(31,0,0)
GPGPU-Sim uArch: cycles simulated: 113000  inst.: 25236704 (ipc=223.3) sim_rate=350509 (inst/sec) elapsed = 0:0:01:12 / Tue Mar 22 12:47:25 2016
GPGPU-Sim PTX: 25300000 instructions simulated : ctaid=(94,0,0) tid=(127,0,0)
GPGPU-Sim PTX: 25400000 instructions simulated : ctaid=(70,0,0) tid=(63,0,0)
GPGPU-Sim PTX: 25500000 instructions simulated : ctaid=(71,0,0) tid=(95,0,0)
GPGPU-Sim PTX: 25600000 instructions simulated : ctaid=(74,0,0) tid=(31,0,0)
GPGPU-Sim uArch: cycles simulated: 114500  inst.: 25635104 (ipc=223.9) sim_rate=351165 (inst/sec) elapsed = 0:0:01:13 / Tue Mar 22 12:47:26 2016
GPGPU-Sim PTX: 25700000 instructions simulated : ctaid=(52,0,0) tid=(31,0,0)
GPGPU-Sim PTX: 25800000 instructions simulated : ctaid=(68,0,0) tid=(127,0,0)
GPGPU-Sim PTX: 25900000 instructions simulated : ctaid=(64,0,0) tid=(63,0,0)
GPGPU-Sim PTX: 26000000 instructions simulated : ctaid=(79,0,0) tid=(31,0,0)
GPGPU-Sim PTX: 26100000 instructions simulated : ctaid=(76,0,0) tid=(31,0,0)
GPGPU-Sim PTX: 26200000 instructions simulated : ctaid=(69,0,0) tid=(127,0,0)
GPGPU-Sim uArch: cycles simulated: 116500  inst.: 26164416 (ipc=224.6) sim_rate=353573 (inst/sec) elapsed = 0:0:01:14 / Tue Mar 22 12:47:27 2016
GPGPU-Sim PTX: 26300000 instructions simulated : ctaid=(78,0,0) tid=(95,0,0)
GPGPU-Sim PTX: 26400000 instructions simulated : ctaid=(65,0,0) tid=(127,0,0)
GPGPU-Sim PTX: 26500000 instructions simulated : ctaid=(67,0,0) tid=(63,0,0)
GPGPU-Sim PTX: 26600000 instructions simulated : ctaid=(71,0,0) tid=(31,0,0)
GPGPU-Sim PTX: 26700000 instructions simulated : ctaid=(73,0,0) tid=(31,0,0)
GPGPU-Sim uArch: cycles simulated: 118500  inst.: 26691616 (ipc=225.2) sim_rate=355888 (inst/sec) elapsed = 0:0:01:15 / Tue Mar 22 12:47:28 2016
GPGPU-Sim PTX: 26800000 instructions simulated : ctaid=(78,0,0) tid=(63,0,0)
GPGPU-Sim PTX: 26900000 instructions simulated : ctaid=(74,0,0) tid=(127,0,0)
GPGPU-Sim PTX: 27000000 instructions simulated : ctaid=(64,0,0) tid=(127,0,0)
GPGPU-Sim PTX: 27100000 instructions simulated : ctaid=(75,0,0) tid=(63,0,0)
GPGPU-Sim uArch: cycles simulated: 120000  inst.: 27086848 (ipc=225.7) sim_rate=356405 (inst/sec) elapsed = 0:0:01:16 / Tue Mar 22 12:47:29 2016
GPGPU-Sim PTX: 27200000 instructions simulated : ctaid=(63,0,0) tid=(95,0,0)
GPGPU-Sim PTX: 27300000 instructions simulated : ctaid=(77,0,0) tid=(63,0,0)
GPGPU-Sim PTX: 27400000 instructions simulated : ctaid=(94,0,0) tid=(31,0,0)
GPGPU-Sim uArch: cycles simulated: 121000  inst.: 27351264 (ipc=226.0) sim_rate=355211 (inst/sec) elapsed = 0:0:01:17 / Tue Mar 22 12:47:30 2016
GPGPU-Sim PTX: 27500000 instructions simulated : ctaid=(69,0,0) tid=(95,0,0)
GPGPU-Sim PTX: 27600000 instructions simulated : ctaid=(52,0,0) tid=(95,0,0)
GPGPU-Sim PTX: 27700000 instructions simulated : ctaid=(85,0,0) tid=(31,0,0)
GPGPU-Sim uArch: cycles simulated: 122500  inst.: 27738432 (ipc=226.4) sim_rate=355620 (inst/sec) elapsed = 0:0:01:18 / Tue Mar 22 12:47:31 2016
GPGPU-Sim PTX: 27800000 instructions simulated : ctaid=(65,0,0) tid=(127,0,0)
GPGPU-Sim PTX: 27900000 instructions simulated : ctaid=(59,0,0) tid=(95,0,0)
GPGPU-Sim PTX: 28000000 instructions simulated : ctaid=(88,0,0) tid=(95,0,0)
GPGPU-Sim PTX: 28100000 instructions simulated : ctaid=(65,0,0) tid=(31,0,0)
GPGPU-Sim PTX: 28200000 instructions simulated : ctaid=(94,0,0) tid=(31,0,0)
GPGPU-Sim PTX: 28300000 instructions simulated : ctaid=(95,0,0) tid=(95,0,0)
GPGPU-Sim uArch: cycles simulated: 124500  inst.: 28276800 (ipc=227.1) sim_rate=357934 (inst/sec) elapsed = 0:0:01:19 / Tue Mar 22 12:47:32 2016
GPGPU-Sim PTX: 28400000 instructions simulated : ctaid=(59,0,0) tid=(127,0,0)
GPGPU-Sim PTX: 28500000 instructions simulated : ctaid=(102,0,0) tid=(127,0,0)
GPGPU-Sim PTX: 28600000 instructions simulated : ctaid=(69,0,0) tid=(63,0,0)
GPGPU-Sim PTX: 28700000 instructions simulated : ctaid=(50,0,0) tid=(95,0,0)
GPGPU-Sim PTX: 28800000 instructions simulated : ctaid=(99,0,0) tid=(63,0,0)
GPGPU-Sim uArch: cycles simulated: 126500  inst.: 28806080 (ipc=227.7) sim_rate=360076 (inst/sec) elapsed = 0:0:01:20 / Tue Mar 22 12:47:33 2016
GPGPU-Sim PTX: 28900000 instructions simulated : ctaid=(64,0,0) tid=(63,0,0)
GPGPU-Sim PTX: 29000000 instructions simulated : ctaid=(102,0,0) tid=(31,0,0)
GPGPU-Sim PTX: 29100000 instructions simulated : ctaid=(85,0,0) tid=(31,0,0)
GPGPU-Sim PTX: 29200000 instructions simulated : ctaid=(59,0,0) tid=(127,0,0)
GPGPU-Sim PTX: 29300000 instructions simulated : ctaid=(72,0,0) tid=(31,0,0)
GPGPU-Sim uArch: cycles simulated: 128500  inst.: 29328576 (ipc=228.2) sim_rate=362081 (inst/sec) elapsed = 0:0:01:21 / Tue Mar 22 12:47:34 2016
GPGPU-Sim PTX: 29400000 instructions simulated : ctaid=(81,0,0) tid=(31,0,0)
GPGPU-Sim PTX: 29500000 instructions simulated : ctaid=(85,0,0) tid=(127,0,0)
GPGPU-Sim uArch: Shader 0 finished CTA #1 (129309,0), 2 CTAs running
GPGPU-Sim uArch: core:  0, cta: 1 initialized @(129310,0)
GPGPU-Sim uArch: Shader 3 finished CTA #1 (129315,0), 2 CTAs running
GPGPU-Sim uArch: core:  3, cta: 1 initialized @(129316,0)
GPGPU-Sim uArch: Shader 4 finished CTA #1 (129324,0), 2 CTAs running
GPGPU-Sim uArch: core:  4, cta: 1 initialized @(129325,0)
GPGPU-Sim uArch: Shader 4 finished CTA #2 (129396,0), 2 CTAs running
GPGPU-Sim uArch: core:  4, cta: 2 initialized @(129397,0)
GPGPU-Sim uArch: Shader 8 finished CTA #1 (129433,0), 2 CTAs running
GPGPU-Sim uArch: core:  8, cta: 1 initialized @(129434,0)
GPGPU-Sim uArch: Shader 3 finished CTA #2 (129434,0), 2 CTAs running
GPGPU-Sim uArch: core:  3, cta: 2 initialized @(129435,0)
GPGPU-Sim uArch: Shader 0 finished CTA #2 (129490,0), 2 CTAs running
GPGPU-Sim uArch: core:  0, cta: 2 initialized @(129491,0)
GPGPU-Sim uArch: cycles simulated: 129500  inst.: 29497472 (ipc=227.8) sim_rate=359725 (inst/sec) elapsed = 0:0:01:22 / Tue Mar 22 12:47:35 2016
GPGPU-Sim uArch: Shader 12 finished CTA #1 (129503,0), 2 CTAs running
GPGPU-Sim uArch: core: 12, cta: 1 initialized @(129504,0)
GPGPU-Sim uArch: Shader 5 finished CTA #1 (129511,0), 2 CTAs running
GPGPU-Sim uArch: Shader 8 finished CTA #2 (129511,0), 2 CTAs running
GPGPU-Sim uArch: core:  5, cta: 1 initialized @(129512,0)
GPGPU-Sim uArch: core:  8, cta: 2 initialized @(129512,0)
GPGPU-Sim uArch: Shader 11 finished CTA #1 (129524,0), 2 CTAs running
GPGPU-Sim uArch: core: 11, cta: 1 initialized @(129525,0)
GPGPU-Sim uArch: Shader 2 finished CTA #1 (129554,0), 2 CTAs running
GPGPU-Sim uArch: core:  2, cta: 1 initialized @(129555,0)
GPGPU-Sim uArch: Shader 11 finished CTA #2 (129601,0), 2 CTAs running
GPGPU-Sim uArch: core: 11, cta: 2 initialized @(129602,0)
GPGPU-Sim uArch: Shader 5 finished CTA #2 (129614,0), 2 CTAs running
GPGPU-Sim uArch: core:  5, cta: 2 initialized @(129615,0)
GPGPU-Sim uArch: Shader 14 finished CTA #1 (129657,0), 2 CTAs running
GPGPU-Sim uArch: core: 14, cta: 1 initialized @(129658,0)
GPGPU-Sim uArch: Shader 6 finished CTA #1 (129660,0), 2 CTAs running
GPGPU-Sim uArch: core:  6, cta: 1 initialized @(129661,0)
GPGPU-Sim uArch: Shader 13 finished CTA #1 (129708,0), 2 CTAs running
GPGPU-Sim uArch: core: 13, cta: 1 initialized @(129709,0)
GPGPU-Sim PTX: 29600000 instructions simulated : ctaid=(106,0,0) tid=(95,0,0)
GPGPU-Sim uArch: Shader 6 finished CTA #2 (129732,0), 2 CTAs running
GPGPU-Sim uArch: core:  6, cta: 2 initialized @(129733,0)
GPGPU-Sim uArch: Shader 12 finished CTA #2 (129741,0), 2 CTAs running
GPGPU-Sim uArch: core: 12, cta: 2 initialized @(129742,0)
GPGPU-Sim uArch: Shader 1 finished CTA #1 (129742,0), 2 CTAs running
GPGPU-Sim uArch: core:  1, cta: 1 initialized @(129743,0)
[...]
traffic_breakdown_memtocore[GLOBAL_ACC_W] = 196608 {8:24576,}
traffic_breakdown_memtocore[INST_ACC_R] = 4221984 {136:31044,}
maxmrqlatency = 156 
maxdqlatency = 0 
maxmflatency = 646 
averagemflatency = 246 
max_icnt2mem_latency = 385 
max_icnt2sh_latency = 533781 
mrq_lat_table:2559 	321 	237 	1671 	1736 	1628 	1208 	14 	0 	0 	0 	0 	0 	0 	0 	0 	0 	0 	0 	0 	0 	0 	0 	0 	0 	0 	0 	0 	0 	0 	0 	0 	
dq_lat_table:0 	0 	0 	0 	0 	0 	0 	0 	0 	0 	0 	0 	0 	0 	0 	0 	0 	0 	0 	0 	0 	0 	0 	0 	0 	0 	0 	0 	0 	0 	0 	0 	
mf_lat_table:0 	0 	0 	0 	0 	0 	0 	16439 	9833 	204 	0 	0 	0 	0 	0 	0 	0 	0 	0 	0 	0 	0 	0 	0 	0 	0 	0 	0 	0 	0 	0 	0 	
icnt2mem_lat_table:0 	0 	0 	33440 	2437 	11200 	9251 	1050 	142 	0 	0 	0 	0 	0 	0 	0 	0 	0 	0 	0 	0 	0 	0 	0 	
icnt2sh_lat_table:0 	0 	0 	778 	793 	329 	0 	0 	0 	0 	0 	0 	0 	0 	0 	1920 	3840 	5760 	12800 	256 	0 	0 	0 	0 	
mf_lat_pw_table:0 	0 	0 	0 	0 	0 	0 	86 	17 	0 	0 	0 	0 	0 	0 	0 	0 	0 	0 	0 	0 	0 	0 	0 	0 	0 	0 	0 	0 	0 	0 	0 	
maximum concurrent accesses to same row:
dram[0]:         7         8         6         5        10        10         0         0         0         0         0         0         0         0         0         0 
dram[1]:         8         8         6         4        10        10         0         0         0         0         0         0         0         0         0         0 
dram[2]:         8         8         6         4        10        12         0         0         0         0         0         0         0         0         0         0 
dram[3]:         8         8         6         4        10        12         0         0         0         0         0         0         0         0         0         0 
dram[4]:         8         8         6         4        10        12         0         0         0         0         0         0         0         0         0         0 
dram[5]:         7         8         6         4        10        12         0         0         0         0         0         0         0         0         0         0 
maximum service time to same row:
dram[0]:    202251    198194    279004    275747    420065    421502     57094     57138    168363    131401    278535    278001     55057     55009     92063     92113 
dram[1]:    202019    160835    279178    273916    421538    421009     57102     57146    168369    131406    279013    278009     55002     55025     92006     92035 
dram[2]:    201409    160159    278517    273265    421566    421043     57104     57219    167744    131482    277922    278331     55038     55037     92018     92047 
dram[3]:    200043    159506    276574    273484    420844    421168     57110     57227    167751    131487    277929    278994     55010     54991     92012     92103 
dram[4]:    199455    158819    275917    272804    420890    421189     57147     57177    168079    131800    278256    278203     55035     55003     92024     92122 
dram[5]:    198419    194714    276401    271223    421491    421629     57154     57184    168140    168159    279019    278210     54997     55037     92072     92038 
average row accesses per activate:
dram[0]: 42.250000 84.000000 83.000000 82.500000 60.000000 60.000000 32.000000 32.000000 32.000000 32.000000 32.000000 32.000000 72.000000 72.000000 160.000000 160.000000 
dram[1]: 84.000000 84.000000 83.000000 82.000000 60.000000 60.000000 32.000000 32.000000 32.000000 32.000000 32.000000 32.000000 72.000000 72.000000 160.000000 160.000000 
dram[2]: 84.000000 84.000000 83.000000 82.000000 60.000000 61.000000 32.000000 32.000000 32.000000 32.000000 32.000000 32.000000 72.000000 71.000000 160.000000 160.000000 
dram[3]: 84.000000 84.000000 83.000000 82.000000 60.000000 56.000000 32.000000 32.000000 32.000000 32.000000 32.000000 32.000000 72.000000 80.000000 160.000000 160.000000 
dram[4]: 84.000000 84.000000 83.000000 82.000000 60.000000 56.000000 32.000000 32.000000 32.000000 32.000000 32.000000 32.000000 72.000000 80.000000 160.000000 160.000000 
dram[5]: 83.500000 84.000000 83.000000 82.000000 60.000000 56.000000 32.000000 32.000000 32.000000 32.000000 32.000000 32.000000 72.000000 80.000000 160.000000 160.000000 
average row locality = 9374/134 = 69.955223
number of total memory accesses made:
dram[0]:         0         0         0         0         0         0         0         0         0         0         0         0         0         0         0         0 
dram[1]:         0         0         0         0         0         0         0         0         0         0         0         0         0         0         0         0 
dram[2]:         0         0         0         0         0         0         0         0         0         0         0         0         0         0         0         0 
dram[3]:         0         0         0         0         0         0         0         0         0         0         0         0         0         0         0         0 
dram[4]:         0         0         0         0         0         0         0         0         0         0         0         0         0         0         0         0 
dram[5]:         0         0         0         0         0         0         0         0         0         0         0         0         0         0         0         0 
total accesses: 0
min_bank_accesses = 0!
min_chip_accesses = 0!
number of total read accesses:
dram[0]:        41        40        38        37        32        32        32        32        32        32        32        32        32        32        32        32 
dram[1]:        40        40        38        36        32        32        32        32        32        32        32        32        32        32        32        32 
dram[2]:        40        40        38        36        32        34        32        32        32        32        32        32        32        31        32        32 
dram[3]:        40        40        38        36        32        32        32        32        32        32        32        32        32        32        32        32 
dram[4]:        40        40        38        36        32        32        32        32        32        32        32        32        32        32        32        32 
dram[5]:        39        40        38        36        32        32        32        32        32        32        32        32        32        32        32        32 
total reads: 3230
bank skew: 41/31 = 1.32
chip skew: 540/537 = 1.01
number of total write accesses:
dram[0]:       128       128       128       128        88        88         0         0         0         0         0         0        40        40       128       128 
dram[1]:       128       128       128       128        88        88         0         0         0         0         0         0        40        40       128       128 
dram[2]:       128       128       128       128        88        88         0         0         0         0         0         0        40        40       128       128 
dram[3]:       128       128       128       128        88        80         0         0         0         0         0         0        40        48       128       128 
dram[4]:       128       128       128       128        88        80         0         0         0         0         0         0        40        48       128       128 
dram[5]:       128       128       128       128        88        80         0         0         0         0         0         0        40        48       128       128 
total reads: 6144
min_bank_accesses = 0!
chip skew: 1024/1024 = 1.00
average mf latency per bank:
dram[0]:        835       719       708       685       681       717       339       339       330       333       321       344       728       767       857       923
dram[1]:        729       713       778       719       646       660       271       276       274       274       280       276       679       742       745       859
dram[2]:        739       715       779       713       650       666       334       345       340       338       346       320       720       730       751       829
dram[3]:        723       783       704       721       679       684       274       280       275       274       274       276       727       774       835       894
dram[4]:        737       775       703       720       685       681       345       346       327       343       307       337       720       793       815       875
dram[5]:        723       759       673       706       706       669       273       280       274       273       273       271       724       785       945       838
maximum mf latency per bank:
dram[0]:        482       448       388       407       371       442       288       304       294       285       301       285       550       611       542       535
dram[1]:        415       439       623       527       352       364       288       307       301       303       323       314       557       599       446       516
dram[2]:        443       421       540       494       372       382       286       305       286       285       288       284       585       576       402       493
dram[3]:        456       473       389       425       375       427       292       307       298       298       292       299       589       623       547       522
dram[4]:        398       497       360       412       390       400       306       303       301       308       284       280       534       646       532       520
dram[5]:        496       457       403       408       439       426       300       306       304       297       293       282       585       602       529       527

Number of Memory Banks Accessed per Memory Operation per Warp (from 0):
0	0	0	0	0	0	0	0	0	0	0	0	0	0	0	0	0	0	0	0	0	0	0	0	0	0	0	0	0	0	0	0	0	0	0	0	0	0	0	0	0	0	0	0	0	0	0	0	0	0	0	0	0	0	0	0	0	0	0	0	0	0	0	0	0	0	0	0	0	0	0	0	0	0	0	0	0	0	0	0	0	0	0	0	0	0	0	0	0	0	0	0	0	0	0	0	
Average # of Memory Banks Accessed per Memory Operation per Warp=-nan

position of mrq chosen
0	0	0	0	0	0	0	0	0	0	0	0	0	0	0	0	

average position of mrq chosen = -nan
Memory Partition 0: 
Cache L2_bank_000:
MSHR contents

Cache L2_bank_001:
MSHR contents

In Dram Latency Queue (total = 0): 
DRAM[0]: 16 bks, busW=4 BL=8 CL=12, tRRD=2 tCCD=6, tRCD=12 tRAS=28 tRP=12 tRC=40
n_cmd=704591 n_nop=702455 n_act=24 n_pre=8 n_req=1564 n_rd=1080 n_write=1024 bw_util=0.005972
n_activity=12201 dram_eff=0.3449
bk0: 82a 703019i bk1: 80a 703083i bk2: 76a 703295i bk3: 74a 703295i bk4: 64a 703646i bk5: 64a 703553i bk6: 64a 704437i bk7: 64a 704409i bk8: 64a 704424i bk9: 64a 704439i bk10: 64a 704418i bk11: 64a 704398i bk12: 64a 704048i bk13: 64a 704000i bk14: 64a 703197i bk15: 64a 703112i 
dram_util_bins: 0 0 0 0 0 0 0 0 0 0
dram_eff_bins: 0 0 0 0 0 0 0 0 0 0
mrqq: max=16 avg=0.083701
Memory Partition 1: 
Cache L2_bank_002:
MSHR contents

Cache L2_bank_003:
MSHR contents

In Dram Latency Queue (total = 0): 
DRAM[1]: 16 bks, busW=4 BL=8 CL=12, tRRD=2 tCCD=6, tRCD=12 tRAS=28 tRP=12 tRC=40
n_cmd=704591 n_nop=702463 n_act=22 n_pre=6 n_req=1562 n_rd=1076 n_write=1024 bw_util=0.005961
n_activity=11567 dram_eff=0.3631
bk0: 80a 703194i bk1: 80a 703090i bk2: 76a 703200i bk3: 72a 703214i bk4: 64a 703704i bk5: 64a 703656i bk6: 64a 704426i bk7: 64a 704401i bk8: 64a 704422i bk9: 64a 704431i bk10: 64a 704396i bk11: 64a 704328i bk12: 64a 703982i bk13: 64a 703947i bk14: 64a 703184i bk15: 64a 703095i 
dram_util_bins: 0 0 0 0 0 0 0 0 0 0
dram_eff_bins: 0 0 0 0 0 0 0 0 0 0
mrqq: max=16 avg=0.0679415
Memory Partition 2: 
Cache L2_bank_004:
MSHR contents

Cache L2_bank_005:
MSHR contents

In Dram Latency Queue (total = 0): 
DRAM[2]: 16 bks, busW=4 BL=8 CL=12, tRRD=2 tCCD=6, tRCD=12 tRAS=28 tRP=12 tRC=40
n_cmd=704591 n_nop=702461 n_act=22 n_pre=6 n_req=1563 n_rd=1078 n_write=1024 bw_util=0.005967
n_activity=12173 dram_eff=0.3454
bk0: 80a 703229i bk1: 80a 703182i bk2: 76a 703286i bk3: 72a 703286i bk4: 64a 703728i bk5: 68a 703652i bk6: 64a 704420i bk7: 64a 704389i bk8: 64a 704427i bk9: 64a 704429i bk10: 64a 704430i bk11: 64a 704418i bk12: 64a 703979i bk13: 62a 703935i bk14: 64a 703195i bk15: 64a 703103i 
dram_util_bins: 0 0 0 0 0 0 0 0 0 0
dram_eff_bins: 0 0 0 0 0 0 0 0 0 0
mrqq: max=16 avg=0.0675981
Memory Partition 3: 
Cache L2_bank_006:
MSHR contents

Cache L2_bank_007:
MSHR contents

In Dram Latency Queue (total = 0): 
DRAM[3]: 16 bks, busW=4 BL=8 CL=12, tRRD=2 tCCD=6, tRCD=12 tRAS=28 tRP=12 tRC=40
n_cmd=704591 n_nop=702463 n_act=22 n_pre=6 n_req=1562 n_rd=1076 n_write=1024 bw_util=0.005961
n_activity=11566 dram_eff=0.3631
bk0: 80a 703163i bk1: 80a 703085i bk2: 76a 703339i bk3: 72a 703222i bk4: 64a 703634i bk5: 64a 703717i bk6: 64a 704406i bk7: 64a 704373i bk8: 64a 704432i bk9: 64a 704414i bk10: 64a 704417i bk11: 64a 704394i bk12: 64a 703948i bk13: 64a 703855i bk14: 64a 703173i bk15: 64a 703155i 
dram_util_bins: 0 0 0 0 0 0 0 0 0 0
dram_eff_bins: 0 0 0 0 0 0 0 0 0 0
mrqq: max=16 avg=0.0735519
Memory Partition 4: 
Cache L2_bank_008:
MSHR contents

Cache L2_bank_009:
MSHR contents

In Dram Latency Queue (total = 0): 
DRAM[4]: 16 bks, busW=4 BL=8 CL=12, tRRD=2 tCCD=6, tRCD=12 tRAS=28 tRP=12 tRC=40
n_cmd=704591 n_nop=702463 n_act=22 n_pre=6 n_req=1562 n_rd=1076 n_write=1024 bw_util=0.005961
n_activity=12102 dram_eff=0.3471
bk0: 80a 703154i bk1: 80a 703133i bk2: 76a 703374i bk3: 72a 703287i bk4: 64a 703679i bk5: 64a 703762i bk6: 64a 704424i bk7: 64a 704385i bk8: 64a 704433i bk9: 64a 704409i bk10: 64a 704414i bk11: 64a 704439i bk12: 64a 703968i bk13: 64a 703900i bk14: 64a 703156i bk15: 64a 703189i 
dram_util_bins: 0 0 0 0 0 0 0 0 0 0
dram_eff_bins: 0 0 0 0 0 0 0 0 0 0
mrqq: max=16 avg=0.0711292
Memory Partition 5: 
Cache L2_bank_010:
MSHR contents

Cache L2_bank_011:
MSHR contents

In Dram Latency Queue (total = 0): 
DRAM[5]: 16 bks, busW=4 BL=8 CL=12, tRRD=2 tCCD=6, tRCD=12 tRAS=28 tRP=12 tRC=40
n_cmd=704591 n_nop=702465 n_act=22 n_pre=6 n_req=1561 n_rd=1074 n_write=1024 bw_util=0.005955
n_activity=11394 dram_eff=0.3683
bk0: 78a 703124i bk1: 80a 703085i bk2: 76a 703276i bk3: 72a 703255i bk4: 64a 703589i bk5: 64a 703555i bk6: 64a 704421i bk7: 64a 704406i bk8: 64a 704419i bk9: 64a 704401i bk10: 64a 704411i bk11: 64a 704438i bk12: 64a 704030i bk13: 64a 703856i bk14: 64a 703094i bk15: 64a 703100i 
dram_util_bins: 0 0 0 0 0 0 0 0 0 0
dram_eff_bins: 0 0 0 0 0 0 0 0 0 0
mrqq: max=16 avg=0.0796859

========= L2 cache stats =========
L2_cache_bank[0]: Access = 5029, Miss = 271, Miss_rate = 0.054, Pending_hits = 432, Reservation_fails = 1717
L2_cache_bank[1]: Access = 4824, Miss = 269, Miss_rate = 0.056, Pending_hits = 424, Reservation_fails = 1431
L2_cache_bank[2]: Access = 4962, Miss = 270, Miss_rate = 0.054, Pending_hits = 426, Reservation_fails = 1736
L2_cache_bank[3]: Access = 4564, Miss = 268, Miss_rate = 0.059, Pending_hits = 420, Reservation_fails = 1453
L2_cache_bank[4]: Access = 5025, Miss = 270, Miss_rate = 0.054, Pending_hits = 428, Reservation_fails = 1497
L2_cache_bank[5]: Access = 4622, Miss = 269, Miss_rate = 0.058, Pending_hits = 421, Reservation_fails = 1339
L2_cache_bank[6]: Access = 4962, Miss = 270, Miss_rate = 0.054, Pending_hits = 426, Reservation_fails = 1771
L2_cache_bank[7]: Access = 4564, Miss = 268, Miss_rate = 0.059, Pending_hits = 420, Reservation_fails = 1928
L2_cache_bank[8]: Access = 5013, Miss = 270, Miss_rate = 0.054, Pending_hits = 428, Reservation_fails = 1407
L2_cache_bank[9]: Access = 4628, Miss = 268, Miss_rate = 0.058, Pending_hits = 420, Reservation_fails = 1627
L2_cache_bank[10]: Access = 4763, Miss = 269, Miss_rate = 0.056, Pending_hits = 423, Reservation_fails = 1851
L2_cache_bank[11]: Access = 4564, Miss = 268, Miss_rate = 0.059, Pending_hits = 420, Reservation_fails = 1739
L2_total_cache_accesses = 57520
L2_total_cache_misses = 3230
L2_total_cache_miss_rate = 0.0562
L2_total_cache_pending_hits = 5088
L2_total_cache_reservation_fails = 19496
L2_total_cache_breakdown:
	L2_cache_stats_breakdown[GLOBAL_ACC_R][HIT] = 339
	L2_cache_stats_breakdown[GLOBAL_ACC_R][HIT_RESERVED] = 9
	L2_cache_stats_breakdown[GLOBAL_ACC_R][MISS] = 1537
	L2_cache_stats_breakdown[CONST_ACC_R][HIT] = 11
	L2_cache_stats_breakdown[CONST_ACC_R][HIT_RESERVED] = 3
	L2_cache_stats_breakdown[CONST_ACC_R][MISS] = 1
	L2_cache_stats_breakdown[CONST_ACC_R][RESERVATION_FAIL] = 109
	L2_cache_stats_breakdown[GLOBAL_ACC_W][HIT] = 18432
	L2_cache_stats_breakdown[GLOBAL_ACC_W][HIT_RESERVED] = 4608
	L2_cache_stats_breakdown[GLOBAL_ACC_W][MISS] = 1536
	L2_cache_stats_breakdown[GLOBAL_ACC_W][RESERVATION_FAIL] = 4925
	L2_cache_stats_breakdown[INST_ACC_R][HIT] = 30420
	L2_cache_stats_breakdown[INST_ACC_R][HIT_RESERVED] = 468
	L2_cache_stats_breakdown[INST_ACC_R][MISS] = 156
	L2_cache_stats_breakdown[INST_ACC_R][RESERVATION_FAIL] = 14462
L2_cache_data_port_util = 0.022
L2_cache_fill_port_util = 0.002

icnt_total_pkts_mem_to_simt=189266
icnt_total_pkts_simt_to_mem=82096
LD_mem_lat_dist  0 0 0 0 0 0 0 0 0 0 0 0 0 0 0 0 0 0 0 0 0 0 0 0 0 0 0
ST_mem_lat_dist  0 0 0 0 0 0 0 0 0 0 0 0 0 0 0 0 0 0 0 0 0 0 0 0 0 0 0
----------------------------Interconnect-DETAILS--------------------------------
Class 0:
Packet latency average = 15.5964
	minimum = 6
	maximum = 308
Network latency average = 11.7381
	minimum = 6
	maximum = 267
Slowest packet = 15200
Flit latency average = 9.37095
	minimum = 6
	maximum = 266
Slowest flit = 38468
Fragmentation average = 0.00113873
	minimum = 0
	maximum = 110
Injected packet rate average = 0.00798217
	minimum = 0.00702909 (at node 7)
	maximum = 0.00942145 (at node 15)
Accepted packet rate average = 0.00798217
	minimum = 0.00702909 (at node 7)
	maximum = 0.00942145 (at node 15)
Injected flit rate average = 0.0188287
	minimum = 0.0100266 (at node 7)
	maximum = 0.0317227 (at node 19)
Accepted flit rate average= 0.0188287
	minimum = 0.0123871 (at node 18)
	maximum = 0.0249184 (at node 3)
Injected packet length average = 2.35885
Accepted packet length average = 2.35885
Total in-flight flits = 0 (0 measured)
====== Overall Traffic Statistics ======
====== Traffic class 0 ======
Packet latency average = 15.5964 (1 samples)
	minimum = 6 (1 samples)
	maximum = 308 (1 samples)
Network latency average = 11.7381 (1 samples)
	minimum = 6 (1 samples)
	maximum = 267 (1 samples)
Flit latency average = 9.37095 (1 samples)
	minimum = 6 (1 samples)
	maximum = 266 (1 samples)
Fragmentation average = 0.00113873 (1 samples)
	minimum = 0 (1 samples)
	maximum = 110 (1 samples)
Injected packet rate average = 0.00798217 (1 samples)
	minimum = 0.00702909 (1 samples)
	maximum = 0.00942145 (1 samples)
Accepted packet rate average = 0.00798217 (1 samples)
	minimum = 0.00702909 (1 samples)
	maximum = 0.00942145 (1 samples)
Injected flit rate average = 0.0188287 (1 samples)
	minimum = 0.0100266 (1 samples)
	maximum = 0.0317227 (1 samples)
Accepted flit rate average = 0.0188287 (1 samples)
	minimum = 0.0123871 (1 samples)
	maximum = 0.0249184 (1 samples)
Injected packet size average = 2.35885 (1 samples)
Accepted packet size average = 2.35885 (1 samples)
Hops average = 1 (1 samples)
----------------------------END-of-Interconnect-DETAILS-------------------------
GPGPU-Sim API: Stream Manager State


gpgpu_simulation_time = 0 days, 0 hrs, 5 min, 12 sec (312 sec)
gpgpu_simulation_rate = 402983 (inst/sec)
gpgpu_simulation_rate = 1710 (cycle/sec)
GPGPU-Sim: detected inactive GPU simulation thread

== GPU Timing ==
GPU init                 : 0.009000
Host input buffer alloc  : 0.010000
-----
Host output buffer alloc : 0.007000
GPU memory alloc         : 0.002000
Data copy in             : 6.713000
Kernel execution         : 303435.625000
Data copy out            : 6.670000
Last hasing stage        : 0.000000
GPU Proc. Time (gpu init and input alloc are not included):  303449.031250 

== CPU Execution Context ==
Threads       : 128
Blocks        : 384
Total Threads : 49152
Total Size    : 196656
Chunk Size    : 52
Padding       : 0

CPU Processing time(ms):    28.398001 

Output size: 196608
Test PASSED
CPU GPU
FD FD
DD DD
2 2
F9 F9
