

        *** GPGPU-Sim Simulator Version 3.2.2  [build 0] ***


GPGPU-Sim PTX: simulation mode 0 (can change with PTX_SIM_MODE_FUNC environment variable:
               1=functional simulation only, 0=detailed performance simulator)
GPGPU-Sim: Configuration options:

-network_mode                           1 # Interconnection network mode
-inter_config_file   config_fermi_islip.icnt # Interconnection network config file
-gpgpu_ptx_use_cuobjdump                    1 # Use cuobjdump to extract ptx and sass from binaries
-gpgpu_experimental_lib_support                    0 # Try to extract code from cuda libraries [Broken because of unknown cudaGetExportTable]
-gpgpu_ptx_convert_to_ptxplus                    0 # Convert SASS (native ISA) to ptxplus and run ptxplus
-gpgpu_ptx_force_max_capability                   20 # Force maximum compute capability
-gpgpu_ptx_inst_debug_to_file                    0 # Dump executed instructions' debug information to file
-gpgpu_ptx_inst_debug_file       inst_debug.txt # Executed instructions' debug output file
-gpgpu_ptx_inst_debug_thread_uid                    1 # Thread UID for executed instructions' debug output
-gpgpu_simd_model                       1 # 1 = post-dominator
-gpgpu_shader_core_pipeline              1536:32 # shader core pipeline config, i.e., {<nthread>:<warpsize>}
-gpgpu_tex_cache:l1  4:128:24,L:R:m:N:L,F:128:4,128:2 # per-shader L1 texture cache  (READ-ONLY) config  {<nsets>:<bsize>:<assoc>,<rep>:<wr>:<alloc>:<wr_alloc>,<mshr>:<N>:<merge>,<mq>:<rf>}
-gpgpu_const_cache:l1 64:64:2,L:R:f:N:L,A:2:32,4 # per-shader L1 constant memory cache  (READ-ONLY) config  {<nsets>:<bsize>:<assoc>,<rep>:<wr>:<alloc>:<wr_alloc>,<mshr>:<N>:<merge>,<mq>} 
-gpgpu_cache:il1     4:128:4,L:R:f:N:L,A:2:32,4 # shader L1 instruction cache config  {<nsets>:<bsize>:<assoc>,<rep>:<wr>:<alloc>:<wr_alloc>,<mshr>:<N>:<merge>,<mq>} 
-gpgpu_cache:dl1     32:128:4,L:L:m:N:H,A:32:8,8:2,0,1:0:1:1:0:1,1:4:8:16:32:64,/sciclone/data10/hwang07/GPU_RESEARCH/swl/swl_outputs/RESULTS/lrr/ # per-shader L1 data cache config  {<nsets>:<bsize>:<assoc>,<rep>:<wr>:<alloc>:<wr_alloc>,<mshr>:<N>:<merge>,<mq> | none}
-gpgpu_cache:dl1PrefL1                 none # per-shader L1 data cache config  {<nsets>:<bsize>:<assoc>,<rep>:<wr>:<alloc>:<wr_alloc>,<mshr>:<N>:<merge>,<mq> | none}
-gpgpu_cache:dl1PreShared                 none # per-shader L1 data cache config  {<nsets>:<bsize>:<assoc>,<rep>:<wr>:<alloc>:<wr_alloc>,<mshr>:<N>:<merge>,<mq> | none}
-gmem_skip_L1D                          0 # global memory access skip L1D cache (implements -Xptxas -dlcm=cg, default=no skip)
-gpgpu_perfect_mem                      0 # enable perfect memory mode (no cache miss)
-n_regfile_gating_group                    4 # group of lanes that should be read/written together)
-gpgpu_clock_gated_reg_file                    0 # enable clock gated reg file for power calculations
-gpgpu_clock_gated_lanes                    0 # enable clock gated lanes for power calculations
-gpgpu_shader_registers                32768 # Number of registers per shader core. Limits number of concurrent CTAs. (default 8192)
-gpgpu_shader_cta                       8 # Maximum number of concurrent CTAs in shader (default 8)
-gpgpu_num_cta_barriers                   16 # Maximum number of named barriers per CTA (default 16)
-gpgpu_n_clusters                      15 # number of processing clusters
-gpgpu_n_cores_per_cluster                    1 # number of simd cores per cluster
-gpgpu_n_cluster_ejection_buffer_size                    8 # number of packets in ejection buffer
-gpgpu_n_ldst_response_buffer_size                    2 # number of response packets in ld/st unit ejection buffer
-gpgpu_shmem_size                   16384 # Size of shared memory per shader core (default 16kB)
-gpgpu_shmem_size                   49152 # Size of shared memory per shader core (default 16kB)
-gpgpu_shmem_size_PrefL1                16384 # Size of shared memory per shader core (default 16kB)
-gpgpu_shmem_size_PrefShared                16384 # Size of shared memory per shader core (default 16kB)
-gpgpu_shmem_num_banks                   32 # Number of banks in the shared memory in each shader core (default 16)
-gpgpu_shmem_limited_broadcast                    0 # Limit shared memory to do one broadcast per cycle (default on)
-gpgpu_shmem_warp_parts                    1 # Number of portions a warp is divided into for shared memory bank conflict check 
-gpgpu_warpdistro_shader                   -1 # Specify which shader core to collect the warp size distribution from
-gpgpu_warp_issue_shader                    0 # Specify which shader core to collect the warp issue distribution from
-gpgpu_local_mem_map                    1 # Mapping from local memory space address to simulated GPU physical address space (default = enabled)
-gpgpu_num_reg_banks                   16 # Number of register banks (default = 8)
-gpgpu_reg_bank_use_warp_id                    0 # Use warp ID in mapping registers to banks (default = off)
-gpgpu_operand_collector_num_units_sp                    6 # number of collector units (default = 4)
-gpgpu_operand_collector_num_units_sfu                    8 # number of collector units (default = 4)
-gpgpu_operand_collector_num_units_mem                    2 # number of collector units (default = 2)
-gpgpu_operand_collector_num_units_gen                    0 # number of collector units (default = 0)
-gpgpu_operand_collector_num_in_ports_sp                    2 # number of collector unit in ports (default = 1)
-gpgpu_operand_collector_num_in_ports_sfu                    1 # number of collector unit in ports (default = 1)
-gpgpu_operand_collector_num_in_ports_mem                    1 # number of collector unit in ports (default = 1)
-gpgpu_operand_collector_num_in_ports_gen                    0 # number of collector unit in ports (default = 0)
-gpgpu_operand_collector_num_out_ports_sp                    2 # number of collector unit in ports (default = 1)
-gpgpu_operand_collector_num_out_ports_sfu                    1 # number of collector unit in ports (default = 1)
-gpgpu_operand_collector_num_out_ports_mem                    1 # number of collector unit in ports (default = 1)
-gpgpu_operand_collector_num_out_ports_gen                    0 # number of collector unit in ports (default = 0)
-gpgpu_coalesce_arch                   13 # Coalescing arch (default = 13, anything else is off for now)
-gpgpu_num_sched_per_core                    2 # Number of warp schedulers per core
-gpgpu_max_insn_issue_per_warp                    1 # Max number of instructions that can be issued per warp in one cycle by scheduler
-gpgpu_simt_core_sim_order                    1 # Select the simulation order of cores in a cluster (0=Fix, 1=Round-Robin)
-gpgpu_pipeline_widths        2,1,1,2,1,1,2 # Pipeline widths ID_OC_SP,ID_OC_SFU,ID_OC_MEM,OC_EX_SP,OC_EX_SFU,OC_EX_MEM,EX_WB
-gpgpu_num_sp_units                     2 # Number of SP units (default=1)
-gpgpu_num_sfu_units                    1 # Number of SF units (default=1)
-gpgpu_num_mem_units                    1 # Number if ldst units (default=1) WARNING: not hooked up to anything
-gpgpu_scheduler                      lrr # Scheduler configuration: < lrr | gto | two_level_active > If two_level_active:<num_active_warps>:<inner_prioritization>:<outer_prioritization>For complete list of prioritization values see shader.h enum scheduler_prioritization_typeDefault: gto
-gpgpu_dram_scheduler                    1 # 0 = fifo, 1 = FR-FCFS (defaul)
-gpgpu_dram_partition_queues              8:8:8:8 # i2$:$2d:d2$:$2i
-l2_ideal                               0 # Use a ideal L2 cache that always hit
-gpgpu_cache:dl2     64:128:8,L:B:m:W:L,A:32:4,4:0,32 # unified banked L2 data cache config  {<nsets>:<bsize>:<assoc>,<rep>:<wr>:<alloc>:<wr_alloc>,<mshr>:<N>:<merge>,<mq>}
-gpgpu_cache:dl2_texture_only                    0 # L2 cache used for texture only
-gpgpu_n_mem                            6 # number of memory modules (e.g. memory controllers) in gpu
-gpgpu_n_sub_partition_per_mchannel                    2 # number of memory subpartition in each memory module
-gpgpu_n_mem_per_ctrlr                    2 # number of memory chips per memory controller
-gpgpu_memlatency_stat                   14 # track and display latency statistics 0x2 enables MC, 0x4 enables queue logs
-gpgpu_frfcfs_dram_sched_queue_size                   16 # 0 = unlimited (default); # entries per chip
-gpgpu_dram_return_queue_size                  116 # 0 = unlimited (default); # entries per chip
-gpgpu_dram_buswidth                    4 # default = 4 bytes (8 bytes per cycle at DDR)
-gpgpu_dram_burst_length                    8 # Burst length of each DRAM request (default = 4 data bus cycle)
-dram_data_command_freq_ratio                    4 # Frequency ratio between DRAM data bus and command bus (default = 2 times, i.e. DDR)
-gpgpu_dram_timing_opt nbk=16:CCD=2:RRD=6:RCD=12:RAS=28:RP=12:RC=40: CL=12:WL=4:CDLR=5:WR=12:nbkgrp=4:CCDL=3:RTPL=2 # DRAM timing parameters = {nbk:tCCD:tRRD:tRCD:tRAS:tRP:tRC:CL:WL:tCDLR:tWR:nbkgrp:tCCDL:tRTPL}
-rop_latency                          120 # ROP queue latency (default 85)
-dram_latency                         100 # DRAM latency (default 30)
-gpgpu_mem_addr_mapping dramid@8;00000000.00000000.00000000.00000000.0000RRRR.RRRRRRRR.BBBCCCCB.CCSSSSSS # mapping memory address to dram model {dramid@<start bit>;<memory address map>}
-gpgpu_mem_addr_test                    0 # run sweep test to check address mapping for aliased address
-gpgpu_mem_address_mask                    1 # 0 = old addressing mask, 1 = new addressing mask, 2 = new add. mask + flipped bank sel and chip sel bits
-gpuwattch_xml_file  gpuwattch_gtx480.xml # GPUWattch XML file
-power_simulation_enabled                    0 # Turn on power simulator (1=On, 0=Off)
-power_per_cycle_dump                    0 # Dump detailed power output each cycle
-power_trace_enabled                    0 # produce a file for the power trace (1=On, 0=Off)
-power_trace_zlevel                     6 # Compression level of the power trace output log (0=no comp, 9=highest)
-steady_power_levels_enabled                    0 # produce a file for the steady power levels (1=On, 0=Off)
-steady_state_definition                  8:4 # allowed deviation:number of samples
-gpgpu_max_cycle                        0 # terminates gpu simulation early (0 = no limit)
-gpgpu_max_insn                         0 # terminates gpu simulation early (0 = no limit)
-gpgpu_max_cta                          0 # terminates gpu simulation early (0 = no limit)
-gpgpu_runtime_stat                   500 # display runtime statistics such as dram utilization {<freq>:<flag>}
-liveness_message_freq                    1 # Minimum number of seconds between simulation liveness messages (0 = always print)
-gpgpu_flush_l1_cache                    0 # Flush L1 cache at the end of each kernel call
-gpgpu_flush_l2_cache                    0 # Flush L2 cache at the end of each kernel call
-gpgpu_deadlock_detect                    1 # Stop the simulation at deadlock (1=on (default), 0=off)
-gpgpu_ptx_instruction_classification                    0 # if enabled will classify ptx instruction types per kernel (Max 255 kernels now)
-gpgpu_ptx_sim_mode                     0 # Select between Performance (default) or Functional simulation (1)
-gpgpu_clock_domains 700.0:700.0:700.0:924.0 # Clock Domain Frequencies in MhZ {<Core Clock>:<ICNT Clock>:<L2 Clock>:<DRAM Clock>}
-gpgpu_max_concurrent_kernel                    8 # maximum kernels that can run concurrently on GPU
-gpgpu_cflog_interval                    0 # Interval between each snapshot in control flow logger
-visualizer_enabled                     0 # Turn on visualizer output (1=On, 0=Off)
-visualizer_outputfile                 NULL # Specifies the output log file for visualizer
-visualizer_zlevel                      6 # Compression level of the visualizer output log (0=no comp, 9=highest)
-trace_enabled                          0 # Turn on traces
-trace_components                    none # comma seperated list of traces to enable. Complete list found in trace_streams.tup. Default none
-trace_sampling_core                    0 # The core which is printed using CORE_DPRINTF. Default 0
-trace_sampling_memory_partition                   -1 # The memory partition which is printed using MEMPART_DPRINTF. Default -1 (i.e. all)
-enable_ptx_file_line_stats                    1 # Turn on PTX source line statistic profiling. (1 = On)
-ptx_line_stats_filename gpgpu_inst_stats.txt # Output file for PTX source line statistics.
-save_embedded_ptx                      0 # saves ptx files embedded in binary as <n>.ptx
-keep                                   0 # keep intermediate files created by GPGPU-Sim when interfacing with external programs
-gpgpu_ptx_save_converted_ptxplus                    0 # Saved converted ptxplus to a file
-ptx_opcode_latency_int         4,13,4,5,145 # Opcode latencies for integers <ADD,MAX,MUL,MAD,DIV>Default 1,1,19,25,145
-ptx_opcode_latency_fp          4,13,4,5,39 # Opcode latencies for single precision floating points <ADD,MAX,MUL,MAD,DIV>Default 1,1,1,1,30
-ptx_opcode_latency_dp         8,19,8,8,330 # Opcode latencies for double precision floating points <ADD,MAX,MUL,MAD,DIV>Default 8,8,8,8,335
-ptx_opcode_initiation_int            1,2,2,1,8 # Opcode initiation intervals for integers <ADD,MAX,MUL,MAD,DIV>Default 1,1,4,4,32
-ptx_opcode_initiation_fp            1,2,1,1,4 # Opcode initiation intervals for single precision floating points <ADD,MAX,MUL,MAD,DIV>Default 1,1,1,1,5
-ptx_opcode_initiation_dp         8,16,8,8,130 # Opcode initiation intervals for double precision floating points <ADD,MAX,MUL,MAD,DIV>Default 8,8,8,8,130
DRAM Timing Options:
nbk                                    16 # number of banks
CCD                                     2 # column to column delay
RRD                                     6 # minimal delay between activation of rows in different banks
RCD                                    12 # row to column delay
RAS                                    28 # time needed to activate row
RP                                     12 # time needed to precharge (deactivate) row
RC                                     40 # row cycle time
CDLR                                    5 # switching from write to read (changes tWTR)
WR                                     12 # last data-in to row precharge
CL                                     12 # CAS latency
WL                                      4 # Write latency
nbkgrp                                  4 # number of bank groups
CCDL                                    3 # column to column delay between accesses to different bank groups
RTPL                                    2 # read to precharge delay between accesses to different bank groups
Total number of memory sub partition = 12
addr_dec_mask[CHIP]  = 0000000000000000 	high:64 low:0
addr_dec_mask[BK]    = 000000000000e100 	high:16 low:8
addr_dec_mask[ROW]   = 000000000fff0000 	high:28 low:16
addr_dec_mask[COL]   = 0000000000001eff 	high:13 low:0
addr_dec_mask[BURST] = 000000000000003f 	high:6 low:0
sub_partition_id_mask = 0000000000000100
GPGPU-Sim uArch: clock freqs: 700000000.000000:700000000.000000:700000000.000000:924000000.000000
GPGPU-Sim uArch: clock periods: 0.00000000142857142857:0.00000000142857142857:0.00000000142857142857:0.00000000108225108225
*** Initializing Memory Statistics ***
GPGPU-Sim uArch: interconnect node map (shaderID+MemID to icntID)
GPGPU-Sim uArch: Memory nodes ID start from index: 15
GPGPU-Sim uArch:    0   1   2   3   4
GPGPU-Sim uArch:    5   6   7   8   9
GPGPU-Sim uArch:   10  11  12  13  14
GPGPU-Sim uArch:   15  16  17  18  19
GPGPU-Sim uArch:   20  21  22  23  24
GPGPU-Sim uArch:   25  26
GPGPU-Sim uArch: interconnect node reverse map (icntID to shaderID+MemID)
GPGPU-Sim uArch: Memory nodes start from ID: 15
GPGPU-Sim uArch:    0   1   2   3   4
GPGPU-Sim uArch:    5   6   7   8   9
GPGPU-Sim uArch:   10  11  12  13  14
GPGPU-Sim uArch:   15  16  17  18  19
GPGPU-Sim uArch:   20  21  22  23  24
GPGPU-Sim uArch:   25  26
a694f6f961931330989587dbd586e872  /sciclone/data10/hwang07/adwait/applications/benchmarks/CUDA/KMN/gpgpu_ptx_sim__KMN
GPGPU-Sim uArch: performance model initialization complete.
GPGPU-Sim PTX: __cudaRegisterFatBinary, fat_cubin_handle = 1, filename=kmeans_cuda.cu
self exe links to: /sciclone/data10/hwang07/adwait/applications/benchmarks/CUDA/KMN/gpgpu_ptx_sim__KMN
Running md5sum using "md5sum /sciclone/data10/hwang07/adwait/applications/benchmarks/CUDA/KMN/gpgpu_ptx_sim__KMN "
Parsing file _cuobjdump_complete_output_wVRrKt
######### cuobjdump parser ########
## Adding new section ELF
Adding arch: sm_20
Adding identifier: kmeans_cuda.cu
## Adding new section PTX
Adding ptx filename: _cuobjdump_1.ptx
Adding arch: sm_20
Adding identifier: kmeans_cuda.cu
Done parsing!!!
GPGPU-Sim PTX: __cudaRegisterFunction _Z11kmeansPointPfiiiPiS_S_S0_ : hostFun 0x0x402a5e, fat_cubin_handle = 1
GPGPU-Sim PTX: instruction assembly for function '_Z14invert_mappingPfS_ii'...   done.
GPGPU-Sim PTX: finding reconvergence points for '_Z14invert_mappingPfS_ii'...
GPGPU-Sim PTX: Finding dominators for '_Z14invert_mappingPfS_ii'...
GPGPU-Sim PTX: Finding immediate dominators for '_Z14invert_mappingPfS_ii'...
GPGPU-Sim PTX: Finding postdominators for '_Z14invert_mappingPfS_ii'...
GPGPU-Sim PTX: Finding immediate postdominators for '_Z14invert_mappingPfS_ii'...
GPGPU-Sim PTX: pre-decoding instructions for '_Z14invert_mappingPfS_ii'...
GPGPU-Sim PTX: reconvergence points for _Z14invert_mappingPfS_ii...
GPGPU-Sim PTX:  1 (potential) branch divergence @  PC=0x038 (_1.ptx:70) @%p1 bra $Lt_0_2050;
GPGPU-Sim PTX:    immediate post dominator      @  PC=0x110 (_1.ptx:103) exit;
GPGPU-Sim PTX:  2 (potential) branch divergence @  PC=0x058 (_1.ptx:74) @%p2 bra $Lt_0_2562;
GPGPU-Sim PTX:    immediate post dominator      @  PC=0x110 (_1.ptx:103) exit;
GPGPU-Sim PTX:  3 (potential) branch divergence @  PC=0x108 (_1.ptx:99) @%p3 bra $Lt_0_3074;
GPGPU-Sim PTX:    immediate post dominator      @  PC=0x110 (_1.ptx:103) exit;
GPGPU-Sim PTX: ... end of reconvergence points for _Z14invert_mappingPfS_ii
GPGPU-Sim PTX: ... done pre-decoding instructions for '_Z14invert_mappingPfS_ii'.
GPGPU-Sim PTX: instruction assembly for function '_Z11kmeansPointPfiiiPiS_S_S0_'...   done.
GPGPU-Sim PTX: finding reconvergence points for '_Z11kmeansPointPfiiiPiS_S_S0_'...
GPGPU-Sim PTX: Finding dominators for '_Z11kmeansPointPfiiiPiS_S_S0_'...
GPGPU-Sim PTX: Finding immediate dominators for '_Z11kmeansPointPfiiiPiS_S_S0_'...
GPGPU-Sim PTX: Finding postdominators for '_Z11kmeansPointPfiiiPiS_S_S0_'...
GPGPU-Sim PTX: Finding immediate postdominators for '_Z11kmeansPointPfiiiPiS_S_S0_'...
GPGPU-Sim PTX: pre-decoding instructions for '_Z11kmeansPointPfiiiPiS_S_S0_'...
GPGPU-Sim PTX: reconvergence points for _Z11kmeansPointPfiiiPiS_S_S0_...
GPGPU-Sim PTX:  1 (potential) branch divergence @  PC=0x180 (_1.ptx:136) @!%p1 bra $Lt_1_4866;
GPGPU-Sim PTX:    immediate post dominator      @  PC=0x320 (_1.ptx:202) @!%p1 bra $Lt_1_7682;
GPGPU-Sim PTX:  2 (potential) branch divergence @  PC=0x1a0 (_1.ptx:140) @%p2 bra $Lt_1_8194;
GPGPU-Sim PTX:    immediate post dominator      @  PC=0x320 (_1.ptx:202) @!%p1 bra $Lt_1_7682;
GPGPU-Sim PTX:  3 (potential) branch divergence @  PC=0x1e8 (_1.ptx:151) @!%p3 bra $Lt_1_8450;
GPGPU-Sim PTX:    immediate post dominator      @  PC=0x2c8 (_1.ptx:185) setp.lt.f32 %p5, %f2, %f1;
GPGPU-Sim PTX:  4 (potential) branch divergence @  PC=0x2b0 (_1.ptx:180) @%p4 bra $Lt_1_6402;
GPGPU-Sim PTX:    immediate post dominator      @  PC=0x2b8 (_1.ptx:181) bra.uni $Lt_1_5890;
GPGPU-Sim PTX:  5 (potential) branch divergence @  PC=0x2b8 (_1.ptx:181) bra.uni $Lt_1_5890;
GPGPU-Sim PTX:    immediate post dominator      @  PC=0x2c8 (_1.ptx:185) setp.lt.f32 %p5, %f2, %f1;
GPGPU-Sim PTX:  6 (potential) branch divergence @  PC=0x2d0 (_1.ptx:186) @!%p5 bra $Lt_1_6914;
GPGPU-Sim PTX:    immediate post dominator      @  PC=0x2e8 (_1.ptx:192) add.s32 %r18, %r18, 1;
GPGPU-Sim PTX:  7 (potential) branch divergence @  PC=0x2f8 (_1.ptx:194) @%p6 bra $Lt_1_5634;
GPGPU-Sim PTX:    immediate post dominator      @  PC=0x300 (_1.ptx:195) bra.uni $Lt_1_4610;
GPGPU-Sim PTX:  8 (potential) branch divergence @  PC=0x300 (_1.ptx:195) bra.uni $Lt_1_4610;
GPGPU-Sim PTX:    immediate post dominator      @  PC=0x320 (_1.ptx:202) @!%p1 bra $Lt_1_7682;
GPGPU-Sim PTX:  9 (potential) branch divergence @  PC=0x310 (_1.ptx:198) bra.uni $Lt_1_4610;
GPGPU-Sim PTX:    immediate post dominator      @  PC=0x320 (_1.ptx:202) @!%p1 bra $Lt_1_7682;
GPGPU-Sim PTX: 10 (potential) branch divergence @  PC=0x320 (_1.ptx:202) @!%p1 bra $Lt_1_7682;
GPGPU-Sim PTX:    immediate post dominator      @  PC=0x350 (_1.ptx:211) exit;
GPGPU-Sim PTX: ... end of reconvergence points for _Z11kmeansPointPfiiiPiS_S_S0_
GPGPU-Sim PTX: ... done pre-decoding instructions for '_Z11kmeansPointPfiiiPiS_S_S0_'.
GPGPU-Sim PTX: allocating global region for "t_features" from 0x100 to 0x104 (global memory space)
GPGPU-Sim PTX: allocating global region for "t_features_flipped" from 0x104 to 0x108 (global memory space)
GPGPU-Sim PTX: allocating global region for "t_clusters" from 0x108 to 0x10c (global memory space)
GPGPU-Sim PTX: finished parsing EMBEDDED .ptx file _1.ptx
Adding _cuobjdump_1.ptx with cubin handle 1
GPGPU-Sim PTX: extracting embedded .ptx to temporary file "_ptx_EaeU0z"
Running: cat _ptx_EaeU0z | sed 's/.version 1.5/.version 1.4/' | sed 's/, texmode_independent//' | sed 's/\(\.extern \.const\[1\] .b8 \w\+\)\[\]/\1\[1\]/' | sed 's/const\[.\]/const\[0\]/g' > _ptx2_ppuuBH
GPGPU-Sim PTX: generating ptxinfo using "$CUDA_INSTALL_PATH/bin/ptxas --gpu-name=sm_20 -v _ptx2_ppuuBH --output-file  /dev/null 2> _ptx_EaeU0zinfo"
GPGPU-Sim PTX: Kernel '_Z11kmeansPointPfiiiPiS_S_S0_' : regs=15, lmem=0, smem=0, cmem=88
GPGPU-Sim PTX: Kernel '_Z14invert_mappingPfS_ii' : regs=10, lmem=0, smem=0, cmem=56
GPGPU-Sim PTX: removing ptxinfo using "rm -f _ptx_EaeU0z _ptx2_ppuuBH _ptx_EaeU0zinfo"
GPGPU-Sim PTX: loading globals with explicit initializers... 
GPGPU-Sim PTX: finished loading globals (0 bytes total).
GPGPU-Sim PTX: loading constants with explicit initializers...  done.
GPGPU-Sim PTX: __cudaRegisterFunction _Z14invert_mappingPfS_ii : hostFun 0x0x4028ce, fat_cubin_handle = 1
GPGPU-Sim PTX: in __cudaRegisterTexture:
GPGPU-Sim PTX:   int dim = 1
GPGPU-Sim PTX:   int norm = 0
GPGPU-Sim PTX:   int ext = 0
GPGPU-Sim PTX:   Execution warning: Not finished implementing "void __cudaRegisterTexture(void**, const textureReference*, const void**, const char*, int, int, int)"
GPGPU-Sim PTX: in __cudaRegisterTexture:
GPGPU-Sim PTX:   int dim = 1
GPGPU-Sim PTX:   int norm = 0
GPGPU-Sim PTX:   int ext = 0
GPGPU-Sim PTX:   Execution warning: Not finished implementing "void __cudaRegisterTexture(void**, const textureReference*, const void**, const char*, int, int, int)"
GPGPU-Sim PTX: in __cudaRegisterTexture:
GPGPU-Sim PTX:   int dim = 1
GPGPU-Sim PTX:   int norm = 0
GPGPU-Sim PTX:   int ext = 0
GPGPU-Sim PTX:   Execution warning: Not finished implementing "void __cudaRegisterTexture(void**, const textureReference*, const void**, const char*, int, int, int)"

I/O completed

Number of objects: 28672
Number of features: 138

GPGPU-Sim PTX: cudaLaunch for 0x0x402a5e (mode=performance simulation) on stream 0
GPGPU-Sim PTX: pushing kernel '_Z11kmeansPointPfiiiPiS_S_S0_' to stream 0, gridDim= (11,11,1) blockDim = (256,1,1) 
kernel '_Z11kmeansPointPfiiiPiS_S_S0_' transfer to GPU hardware scheduler
GPGPU-Sim uArch: Shader 1 bind to kernel 1 '_Z11kmeansPointPfiiiPiS_S_S0_'
GPGPU-Sim uArch: CTA/core = 6, limited by: threads
GPGPU-Sim uArch: core:  1, cta: 0 initialized @(1,0)
GPGPU-Sim uArch: Shader 2 bind to kernel 1 '_Z11kmeansPointPfiiiPiS_S_S0_'
GPGPU-Sim uArch: core:  2, cta: 0 initialized @(1,0)
GPGPU-Sim uArch: Shader 3 bind to kernel 1 '_Z11kmeansPointPfiiiPiS_S_S0_'
GPGPU-Sim uArch: core:  3, cta: 0 initialized @(1,0)
GPGPU-Sim uArch: Shader 4 bind to kernel 1 '_Z11kmeansPointPfiiiPiS_S_S0_'
GPGPU-Sim uArch: core:  4, cta: 0 initialized @(1,0)
GPGPU-Sim uArch: Shader 5 bind to kernel 1 '_Z11kmeansPointPfiiiPiS_S_S0_'
GPGPU-Sim uArch: core:  5, cta: 0 initialized @(1,0)
GPGPU-Sim uArch: Shader 6 bind to kernel 1 '_Z11kmeansPointPfiiiPiS_S_S0_'
GPGPU-Sim uArch: core:  6, cta: 0 initialized @(1,0)
GPGPU-Sim uArch: Shader 7 bind to kernel 1 '_Z11kmeansPointPfiiiPiS_S_S0_'
GPGPU-Sim uArch: core:  7, cta: 0 initialized @(1,0)
GPGPU-Sim uArch: Shader 8 bind to kernel 1 '_Z11kmeansPointPfiiiPiS_S_S0_'
GPGPU-Sim uArch: core:  8, cta: 0 initialized @(1,0)
GPGPU-Sim uArch: Shader 9 bind to kernel 1 '_Z11kmeansPointPfiiiPiS_S_S0_'
GPGPU-Sim uArch: core:  9, cta: 0 initialized @(1,0)
GPGPU-Sim uArch: Shader 10 bind to kernel 1 '_Z11kmeansPointPfiiiPiS_S_S0_'
GPGPU-Sim uArch: core: 10, cta: 0 initialized @(1,0)
GPGPU-Sim uArch: Shader 11 bind to kernel 1 '_Z11kmeansPointPfiiiPiS_S_S0_'
GPGPU-Sim uArch: core: 11, cta: 0 initialized @(1,0)
GPGPU-Sim uArch: Shader 12 bind to kernel 1 '_Z11kmeansPointPfiiiPiS_S_S0_'
GPGPU-Sim uArch: core: 12, cta: 0 initialized @(1,0)
GPGPU-Sim uArch: Shader 13 bind to kernel 1 '_Z11kmeansPointPfiiiPiS_S_S0_'
GPGPU-Sim uArch: core: 13, cta: 0 initialized @(1,0)
GPGPU-Sim uArch: Shader 14 bind to kernel 1 '_Z11kmeansPointPfiiiPiS_S_S0_'
GPGPU-Sim uArch: core: 14, cta: 0 initialized @(1,0)
GPGPU-Sim uArch: Shader 0 bind to kernel 1 '_Z11kmeansPointPfiiiPiS_S_S0_'
GPGPU-Sim uArch: core:  0, cta: 0 initialized @(1,0)
GPGPU-Sim uArch: core:  1, cta: 1 initialized @(2,0)
GPGPU-Sim uArch: core:  2, cta: 1 initialized @(2,0)
GPGPU-Sim uArch: core:  3, cta: 1 initialized @(2,0)
GPGPU-Sim uArch: core:  4, cta: 1 initialized @(2,0)
GPGPU-Sim uArch: core:  5, cta: 1 initialized @(2,0)
GPGPU-Sim uArch: core:  6, cta: 1 initialized @(2,0)
GPGPU-Sim uArch: core:  7, cta: 1 initialized @(2,0)
GPGPU-Sim uArch: core:  8, cta: 1 initialized @(2,0)
GPGPU-Sim uArch: core:  9, cta: 1 initialized @(2,0)
GPGPU-Sim uArch: core: 10, cta: 1 initialized @(2,0)
GPGPU-Sim uArch: core: 11, cta: 1 initialized @(2,0)
GPGPU-Sim uArch: core: 12, cta: 1 initialized @(2,0)
GPGPU-Sim uArch: core: 13, cta: 1 initialized @(2,0)
GPGPU-Sim uArch: core: 14, cta: 1 initialized @(2,0)
GPGPU-Sim uArch: core:  0, cta: 1 initialized @(2,0)
GPGPU-Sim uArch: core:  1, cta: 2 initialized @(3,0)
GPGPU-Sim uArch: core:  2, cta: 2 initialized @(3,0)
GPGPU-Sim uArch: core:  3, cta: 2 initialized @(3,0)
GPGPU-Sim uArch: core:  4, cta: 2 initialized @(3,0)
GPGPU-Sim uArch: core:  5, cta: 2 initialized @(3,0)
GPGPU-Sim uArch: core:  6, cta: 2 initialized @(3,0)
GPGPU-Sim uArch: core:  7, cta: 2 initialized @(3,0)
GPGPU-Sim uArch: core:  8, cta: 2 initialized @(3,0)
GPGPU-Sim uArch: core:  9, cta: 2 initialized @(3,0)
GPGPU-Sim uArch: core: 10, cta: 2 initialized @(3,0)
GPGPU-Sim uArch: core: 11, cta: 2 initialized @(3,0)
GPGPU-Sim uArch: core: 12, cta: 2 initialized @(3,0)
GPGPU-Sim uArch: core: 13, cta: 2 initialized @(3,0)
GPGPU-Sim uArch: core: 14, cta: 2 initialized @(3,0)
GPGPU-Sim uArch: core:  0, cta: 2 initialized @(3,0)
GPGPU-Sim uArch: core:  1, cta: 3 initialized @(4,0)
GPGPU-Sim uArch: core:  2, cta: 3 initialized @(4,0)
GPGPU-Sim uArch: core:  3, cta: 3 initialized @(4,0)
GPGPU-Sim uArch: core:  4, cta: 3 initialized @(4,0)
GPGPU-Sim uArch: core:  5, cta: 3 initialized @(4,0)
GPGPU-Sim uArch: core:  6, cta: 3 initialized @(4,0)
GPGPU-Sim uArch: core:  7, cta: 3 initialized @(4,0)
GPGPU-Sim uArch: core:  8, cta: 3 initialized @(4,0)
GPGPU-Sim uArch: core:  9, cta: 3 initialized @(4,0)
GPGPU-Sim uArch: core: 10, cta: 3 initialized @(4,0)
GPGPU-Sim uArch: core: 11, cta: 3 initialized @(4,0)
GPGPU-Sim uArch: core: 12, cta: 3 initialized @(4,0)
GPGPU-Sim uArch: core: 13, cta: 3 initialized @(4,0)
GPGPU-Sim uArch: core: 14, cta: 3 initialized @(4,0)
GPGPU-Sim uArch: core:  0, cta: 3 initialized @(4,0)
GPGPU-Sim uArch: core:  1, cta: 4 initialized @(5,0)
GPGPU-Sim uArch: core:  2, cta: 4 initialized @(5,0)
GPGPU-Sim uArch: core:  3, cta: 4 initialized @(5,0)
GPGPU-Sim uArch: core:  4, cta: 4 initialized @(5,0)
GPGPU-Sim uArch: core:  5, cta: 4 initialized @(5,0)
GPGPU-Sim uArch: core:  6, cta: 4 initialized @(5,0)
GPGPU-Sim uArch: core:  7, cta: 4 initialized @(5,0)
GPGPU-Sim uArch: core:  8, cta: 4 initialized @(5,0)
GPGPU-Sim uArch: core:  9, cta: 4 initialized @(5,0)
GPGPU-Sim uArch: core: 10, cta: 4 initialized @(5,0)
GPGPU-Sim uArch: core: 11, cta: 4 initialized @(5,0)
GPGPU-Sim uArch: core: 12, cta: 4 initialized @(5,0)
GPGPU-Sim uArch: core: 13, cta: 4 initialized @(5,0)
GPGPU-Sim uArch: core: 14, cta: 4 initialized @(5,0)
GPGPU-Sim uArch: core:  0, cta: 4 initialized @(5,0)
GPGPU-Sim uArch: core:  1, cta: 5 initialized @(6,0)
GPGPU-Sim uArch: core:  2, cta: 5 initialized @(6,0)
GPGPU-Sim uArch: core:  3, cta: 5 initialized @(6,0)
GPGPU-Sim uArch: core:  4, cta: 5 initialized @(6,0)
GPGPU-Sim uArch: core:  5, cta: 5 initialized @(6,0)
GPGPU-Sim uArch: core:  6, cta: 5 initialized @(6,0)
GPGPU-Sim uArch: core:  7, cta: 5 initialized @(6,0)
GPGPU-Sim uArch: core:  8, cta: 5 initialized @(6,0)
GPGPU-Sim uArch: core:  9, cta: 5 initialized @(6,0)
GPGPU-Sim uArch: core: 10, cta: 5 initialized @(6,0)
GPGPU-Sim uArch: core: 11, cta: 5 initialized @(6,0)
GPGPU-Sim uArch: core: 12, cta: 5 initialized @(6,0)
GPGPU-Sim uArch: core: 13, cta: 5 initialized @(6,0)
GPGPU-Sim uArch: core: 14, cta: 5 initialized @(6,0)
GPGPU-Sim uArch: core:  0, cta: 5 initialized @(6,0)
GPGPU-Sim PTX: 100000 instructions simulated : ctaid=(10,4,0) tid=(191,0,0)
GPGPU-Sim uArch: cycles simulated: 500  inst.: 150272 (ipc=300.5) sim_rate=37568 (inst/sec) elapsed = 0:0:00:04 / Tue Mar 22 07:38:38 2016
GPGPU-Sim PTX: 200000 instructions simulated : ctaid=(8,4,0) tid=(191,0,0)
GPGPU-Sim PTX: 300000 instructions simulated : ctaid=(2,1,0) tid=(95,0,0)
GPGPU-Sim uArch: cycles simulated: 1000  inst.: 299520 (ipc=299.5) sim_rate=59904 (inst/sec) elapsed = 0:0:00:05 / Tue Mar 22 07:38:39 2016
GPGPU-Sim PTX: 400000 instructions simulated : ctaid=(0,4,0) tid=(159,0,0)
GPGPU-Sim PTX: 500000 instructions simulated : ctaid=(1,7,0) tid=(191,0,0)
GPGPU-Sim PTX: 600000 instructions simulated : ctaid=(1,2,0) tid=(223,0,0)
GPGPU-Sim uArch: cycles simulated: 1500  inst.: 613696 (ipc=409.1) sim_rate=102282 (inst/sec) elapsed = 0:0:00:06 / Tue Mar 22 07:38:40 2016
GPGPU-Sim PTX: 700000 instructions simulated : ctaid=(8,2,0) tid=(31,0,0)
GPGPU-Sim PTX: 800000 instructions simulated : ctaid=(0,2,0) tid=(255,0,0)
GPGPU-Sim PTX: 900000 instructions simulated : ctaid=(5,6,0) tid=(223,0,0)
GPGPU-Sim uArch: cycles simulated: 2500  inst.: 897632 (ipc=359.1) sim_rate=128233 (inst/sec) elapsed = 0:0:00:07 / Tue Mar 22 07:38:41 2016
GPGPU-Sim uArch: cycles simulated: 3500  inst.: 908160 (ipc=259.5) sim_rate=113520 (inst/sec) elapsed = 0:0:00:08 / Tue Mar 22 07:38:42 2016
GPGPU-Sim uArch: cycles simulated: 4500  inst.: 914400 (ipc=203.2) sim_rate=101600 (inst/sec) elapsed = 0:0:00:09 / Tue Mar 22 07:38:43 2016
GPGPU-Sim PTX: 1000000 instructions simulated : ctaid=(0,1,0) tid=(223,0,0)
GPGPU-Sim uArch: cycles simulated: 6000  inst.: 930240 (ipc=155.0) sim_rate=93024 (inst/sec) elapsed = 0:0:00:10 / Tue Mar 22 07:38:44 2016
GPGPU-Sim uArch: cycles simulated: 7000  inst.: 943264 (ipc=134.8) sim_rate=85751 (inst/sec) elapsed = 0:0:00:11 / Tue Mar 22 07:38:45 2016
GPGPU-Sim uArch: cycles simulated: 8000  inst.: 949632 (ipc=118.7) sim_rate=79136 (inst/sec) elapsed = 0:0:00:12 / Tue Mar 22 07:38:46 2016
GPGPU-Sim uArch: cycles simulated: 9500  inst.: 969664 (ipc=102.1) sim_rate=74589 (inst/sec) elapsed = 0:0:00:13 / Tue Mar 22 07:38:47 2016
GPGPU-Sim uArch: cycles simulated: 10500  inst.: 978048 (ipc=93.1) sim_rate=69860 (inst/sec) elapsed = 0:0:00:14 / Tue Mar 22 07:38:48 2016
GPGPU-Sim uArch: cycles simulated: 12000  inst.: 1000224 (ipc=83.4) sim_rate=66681 (inst/sec) elapsed = 0:0:00:15 / Tue Mar 22 07:38:49 2016
GPGPU-Sim uArch: cycles simulated: 13000  inst.: 1009696 (ipc=77.7) sim_rate=63106 (inst/sec) elapsed = 0:0:00:16 / Tue Mar 22 07:38:50 2016
GPGPU-Sim PTX: 1100000 instructions simulated : ctaid=(10,7,0) tid=(223,0,0)
GPGPU-Sim uArch: cycles simulated: 14500  inst.: 1030624 (ipc=71.1) sim_rate=60624 (inst/sec) elapsed = 0:0:00:17 / Tue Mar 22 07:38:51 2016
GPGPU-Sim uArch: cycles simulated: 15500  inst.: 1042080 (ipc=67.2) sim_rate=57893 (inst/sec) elapsed = 0:0:00:18 / Tue Mar 22 07:38:52 2016
GPGPU-Sim uArch: cycles simulated: 16500  inst.: 1054592 (ipc=63.9) sim_rate=55504 (inst/sec) elapsed = 0:0:00:19 / Tue Mar 22 07:38:53 2016
GPGPU-Sim uArch: cycles simulated: 18000  inst.: 1072128 (ipc=59.6) sim_rate=53606 (inst/sec) elapsed = 0:0:00:20 / Tue Mar 22 07:38:54 2016
GPGPU-Sim uArch: cycles simulated: 19500  inst.: 1091072 (ipc=56.0) sim_rate=51955 (inst/sec) elapsed = 0:0:00:21 / Tue Mar 22 07:38:55 2016
GPGPU-Sim uArch: cycles simulated: 20500  inst.: 1097824 (ipc=53.6) sim_rate=49901 (inst/sec) elapsed = 0:0:00:22 / Tue Mar 22 07:38:56 2016
GPGPU-Sim uArch: cycles simulated: 22000  inst.: 1111808 (ipc=50.5) sim_rate=48339 (inst/sec) elapsed = 0:0:00:23 / Tue Mar 22 07:38:57 2016
GPGPU-Sim PTX: 1200000 instructions simulated : ctaid=(6,7,0) tid=(159,0,0)
GPGPU-Sim uArch: cycles simulated: 23500  inst.: 1130496 (ipc=48.1) sim_rate=47104 (inst/sec) elapsed = 0:0:00:24 / Tue Mar 22 07:38:58 2016
GPGPU-Sim uArch: cycles simulated: 25500  inst.: 1155072 (ipc=45.3) sim_rate=46202 (inst/sec) elapsed = 0:0:00:25 / Tue Mar 22 07:38:59 2016
GPGPU-Sim uArch: cycles simulated: 27000  inst.: 1178208 (ipc=43.6) sim_rate=45315 (inst/sec) elapsed = 0:0:00:26 / Tue Mar 22 07:39:00 2016
GPGPU-Sim uArch: cycles simulated: 28000  inst.: 1189856 (ipc=42.5) sim_rate=44068 (inst/sec) elapsed = 0:0:00:27 / Tue Mar 22 07:39:01 2016
GPGPU-Sim uArch: cycles simulated: 29500  inst.: 1209888 (ipc=41.0) sim_rate=43210 (inst/sec) elapsed = 0:0:00:28 / Tue Mar 22 07:39:02 2016
GPGPU-Sim PTX: 1300000 instructions simulated : ctaid=(10,3,0) tid=(95,0,0)
GPGPU-Sim uArch: cycles simulated: 31000  inst.: 1227296 (ipc=39.6) sim_rate=42320 (inst/sec) elapsed = 0:0:00:29 / Tue Mar 22 07:39:03 2016
GPGPU-Sim uArch: cycles simulated: 32500  inst.: 1245952 (ipc=38.3) sim_rate=41531 (inst/sec) elapsed = 0:0:00:30 / Tue Mar 22 07:39:04 2016
GPGPU-Sim uArch: cycles simulated: 34000  inst.: 1262336 (ipc=37.1) sim_rate=40720 (inst/sec) elapsed = 0:0:00:31 / Tue Mar 22 07:39:05 2016
GPGPU-Sim uArch: cycles simulated: 35500  inst.: 1279808 (ipc=36.1) sim_rate=39994 (inst/sec) elapsed = 0:0:00:32 / Tue Mar 22 07:39:06 2016
GPGPU-Sim uArch: cycles simulated: 36500  inst.: 1293536 (ipc=35.4) sim_rate=39198 (inst/sec) elapsed = 0:0:00:33 / Tue Mar 22 07:39:07 2016
GPGPU-Sim uArch: cycles simulated: 38000  inst.: 1315936 (ipc=34.6) sim_rate=38704 (inst/sec) elapsed = 0:0:00:34 / Tue Mar 22 07:39:08 2016
GPGPU-Sim PTX: 1400000 instructions simulated : ctaid=(2,1,0) tid=(31,0,0)
GPGPU-Sim uArch: cycles simulated: 39500  inst.: 1331872 (ipc=33.7) sim_rate=38053 (inst/sec) elapsed = 0:0:00:35 / Tue Mar 22 07:39:09 2016
GPGPU-Sim uArch: cycles simulated: 41000  inst.: 1346912 (ipc=32.9) sim_rate=37414 (inst/sec) elapsed = 0:0:00:36 / Tue Mar 22 07:39:10 2016
GPGPU-Sim uArch: cycles simulated: 42500  inst.: 1369888 (ipc=32.2) sim_rate=37024 (inst/sec) elapsed = 0:0:00:37 / Tue Mar 22 07:39:11 2016
GPGPU-Sim uArch: cycles simulated: 44000  inst.: 1389280 (ipc=31.6) sim_rate=36560 (inst/sec) elapsed = 0:0:00:38 / Tue Mar 22 07:39:12 2016
GPGPU-Sim uArch: cycles simulated: 45500  inst.: 1403136 (ipc=30.8) sim_rate=35977 (inst/sec) elapsed = 0:0:00:39 / Tue Mar 22 07:39:13 2016
GPGPU-Sim uArch: cycles simulated: 47000  inst.: 1425792 (ipc=30.3) sim_rate=35644 (inst/sec) elapsed = 0:0:00:40 / Tue Mar 22 07:39:14 2016
GPGPU-Sim PTX: 1500000 instructions simulated : ctaid=(5,6,0) tid=(31,0,0)
GPGPU-Sim uArch: cycles simulated: 48500  inst.: 1444960 (ipc=29.8) sim_rate=35242 (inst/sec) elapsed = 0:0:00:41 / Tue Mar 22 07:39:15 2016
GPGPU-Sim uArch: cycles simulated: 50000  inst.: 1463616 (ipc=29.3) sim_rate=34848 (inst/sec) elapsed = 0:0:00:42 / Tue Mar 22 07:39:16 2016
GPGPU-Sim uArch: cycles simulated: 51500  inst.: 1480768 (ipc=28.8) sim_rate=34436 (inst/sec) elapsed = 0:0:00:43 / Tue Mar 22 07:39:17 2016
GPGPU-Sim uArch: cycles simulated: 53000  inst.: 1503200 (ipc=28.4) sim_rate=34163 (inst/sec) elapsed = 0:0:00:44 / Tue Mar 22 07:39:18 2016
GPGPU-Sim uArch: cycles simulated: 54000  inst.: 1512832 (ipc=28.0) sim_rate=33618 (inst/sec) elapsed = 0:0:00:45 / Tue Mar 22 07:39:19 2016
GPGPU-Sim PTX: 1600000 instructions simulated : ctaid=(1,0,0) tid=(159,0,0)
GPGPU-Sim uArch: cycles simulated: 55500  inst.: 1534912 (ipc=27.7) sim_rate=33367 (inst/sec) elapsed = 0:0:00:46 / Tue Mar 22 07:39:20 2016
GPGPU-Sim uArch: cycles simulated: 57000  inst.: 1555712 (ipc=27.3) sim_rate=33100 (inst/sec) elapsed = 0:0:00:47 / Tue Mar 22 07:39:21 2016
GPGPU-Sim uArch: cycles simulated: 58500  inst.: 1574048 (ipc=26.9) sim_rate=32792 (inst/sec) elapsed = 0:0:00:48 / Tue Mar 22 07:39:22 2016
GPGPU-Sim uArch: cycles simulated: 60000  inst.: 1593056 (ipc=26.6) sim_rate=32511 (inst/sec) elapsed = 0:0:00:49 / Tue Mar 22 07:39:23 2016
GPGPU-Sim uArch: cycles simulated: 61500  inst.: 1613056 (ipc=26.2) sim_rate=32261 (inst/sec) elapsed = 0:0:00:50 / Tue Mar 22 07:39:24 2016
GPGPU-Sim PTX: 1700000 instructions simulated : ctaid=(5,4,0) tid=(95,0,0)
GPGPU-Sim uArch: cycles simulated: 62500  inst.: 1629280 (ipc=26.1) sim_rate=31946 (inst/sec) elapsed = 0:0:00:51 / Tue Mar 22 07:39:25 2016
GPGPU-Sim uArch: cycles simulated: 63500  inst.: 1640224 (ipc=25.8) sim_rate=31542 (inst/sec) elapsed = 0:0:00:52 / Tue Mar 22 07:39:26 2016
GPGPU-Sim uArch: cycles simulated: 64500  inst.: 1654752 (ipc=25.7) sim_rate=31221 (inst/sec) elapsed = 0:0:00:53 / Tue Mar 22 07:39:27 2016
GPGPU-Sim uArch: cycles simulated: 65500  inst.: 1662784 (ipc=25.4) sim_rate=30792 (inst/sec) elapsed = 0:0:00:54 / Tue Mar 22 07:39:28 2016
GPGPU-Sim uArch: cycles simulated: 66500  inst.: 1684864 (ipc=25.3) sim_rate=30633 (inst/sec) elapsed = 0:0:00:55 / Tue Mar 22 07:39:29 2016
GPGPU-Sim uArch: cycles simulated: 67500  inst.: 1695840 (ipc=25.1) sim_rate=30282 (inst/sec) elapsed = 0:0:00:56 / Tue Mar 22 07:39:30 2016
GPGPU-Sim uArch: cycles simulated: 68500  inst.: 1713504 (ipc=25.0) sim_rate=30061 (inst/sec) elapsed = 0:0:00:57 / Tue Mar 22 07:39:31 2016
GPGPU-Sim uArch: cycles simulated: 69500  inst.: 1725088 (ipc=24.8) sim_rate=29742 (inst/sec) elapsed = 0:0:00:58 / Tue Mar 22 07:39:32 2016
GPGPU-Sim PTX: 1800000 instructions simulated : ctaid=(4,7,0) tid=(159,0,0)
GPGPU-Sim uArch: cycles simulated: 71000  inst.: 1746144 (ipc=24.6) sim_rate=29595 (inst/sec) elapsed = 0:0:00:59 / Tue Mar 22 07:39:33 2016
GPGPU-Sim uArch: cycles simulated: 72500  inst.: 1758624 (ipc=24.3) sim_rate=29310 (inst/sec) elapsed = 0:0:01:00 / Tue Mar 22 07:39:34 2016
GPGPU-Sim uArch: cycles simulated: 73500  inst.: 1775872 (ipc=24.2) sim_rate=29112 (inst/sec) elapsed = 0:0:01:01 / Tue Mar 22 07:39:35 2016
GPGPU-Sim uArch: cycles simulated: 75000  inst.: 1789920 (ipc=23.9) sim_rate=28869 (inst/sec) elapsed = 0:0:01:02 / Tue Mar 22 07:39:36 2016
GPGPU-Sim uArch: cycles simulated: 76500  inst.: 1809856 (ipc=23.7) sim_rate=28727 (inst/sec) elapsed = 0:0:01:03 / Tue Mar 22 07:39:37 2016
GPGPU-Sim PTX: 1900000 instructions simulated : ctaid=(2,5,0) tid=(95,0,0)
GPGPU-Sim uArch: cycles simulated: 78000  inst.: 1828480 (ipc=23.4) sim_rate=28570 (inst/sec) elapsed = 0:0:01:04 / Tue Mar 22 07:39:38 2016
GPGPU-Sim uArch: cycles simulated: 79500  inst.: 1848832 (ipc=23.3) sim_rate=28443 (inst/sec) elapsed = 0:0:01:05 / Tue Mar 22 07:39:39 2016
GPGPU-Sim uArch: cycles simulated: 80500  inst.: 1862560 (ipc=23.1) sim_rate=28220 (inst/sec) elapsed = 0:0:01:06 / Tue Mar 22 07:39:40 2016
GPGPU-Sim uArch: cycles simulated: 81500  inst.: 1869440 (ipc=22.9) sim_rate=27902 (inst/sec) elapsed = 0:0:01:07 / Tue Mar 22 07:39:41 2016
GPGPU-Sim uArch: cycles simulated: 82500  inst.: 1882432 (ipc=22.8) sim_rate=27682 (inst/sec) elapsed = 0:0:01:08 / Tue Mar 22 07:39:42 2016
GPGPU-Sim uArch: cycles simulated: 83500  inst.: 1894432 (ipc=22.7) sim_rate=27455 (inst/sec) elapsed = 0:0:01:09 / Tue Mar 22 07:39:43 2016
GPGPU-Sim uArch: cycles simulated: 84500  inst.: 1907744 (ipc=22.6) sim_rate=27253 (inst/sec) elapsed = 0:0:01:10 / Tue Mar 22 07:39:44 2016
GPGPU-Sim uArch: cycles simulated: 85500  inst.: 1915392 (ipc=22.4) sim_rate=26977 (inst/sec) elapsed = 0:0:01:11 / Tue Mar 22 07:39:45 2016
GPGPU-Sim uArch: cycles simulated: 86500  inst.: 1926272 (ipc=22.3) sim_rate=26753 (inst/sec) elapsed = 0:0:01:12 / Tue Mar 22 07:39:46 2016
GPGPU-Sim PTX: 2000000 instructions simulated : ctaid=(2,4,0) tid=(223,0,0)
GPGPU-Sim uArch: cycles simulated: 87500  inst.: 1938816 (ipc=22.2) sim_rate=26559 (inst/sec) elapsed = 0:0:01:13 / Tue Mar 22 07:39:47 2016
GPGPU-Sim uArch: cycles simulated: 89000  inst.: 1957888 (ipc=22.0) sim_rate=26457 (inst/sec) elapsed = 0:0:01:14 / Tue Mar 22 07:39:48 2016
GPGPU-Sim uArch: cycles simulated: 90500  inst.: 1975392 (ipc=21.8) sim_rate=26338 (inst/sec) elapsed = 0:0:01:15 / Tue Mar 22 07:39:49 2016
GPGPU-Sim uArch: cycles simulated: 92000  inst.: 1995232 (ipc=21.7) sim_rate=26253 (inst/sec) elapsed = 0:0:01:16 / Tue Mar 22 07:39:50 2016
GPGPU-Sim uArch: cycles simulated: 93000  inst.: 2006304 (ipc=21.6) sim_rate=26055 (inst/sec) elapsed = 0:0:01:17 / Tue Mar 22 07:39:51 2016
GPGPU-Sim uArch: cycles simulated: 94000  inst.: 2021792 (ipc=21.5) sim_rate=25920 (inst/sec) elapsed = 0:0:01:18 / Tue Mar 22 07:39:52 2016
GPGPU-Sim PTX: 2100000 instructions simulated : ctaid=(10,1,0) tid=(31,0,0)
GPGPU-Sim uArch: cycles simulated: 95500  inst.: 2038880 (ipc=21.3) sim_rate=25808 (inst/sec) elapsed = 0:0:01:19 / Tue Mar 22 07:39:53 2016
GPGPU-Sim uArch: cycles simulated: 97000  inst.: 2060096 (ipc=21.2) sim_rate=25751 (inst/sec) elapsed = 0:0:01:20 / Tue Mar 22 07:39:54 2016
GPGPU-Sim uArch: cycles simulated: 98500  inst.: 2074368 (ipc=21.1) sim_rate=25609 (inst/sec) elapsed = 0:0:01:21 / Tue Mar 22 07:39:55 2016
GPGPU-Sim uArch: cycles simulated: 99500  inst.: 2089120 (ipc=21.0) sim_rate=25477 (inst/sec) elapsed = 0:0:01:22 / Tue Mar 22 07:39:56 2016
GPGPU-Sim uArch: cycles simulated: 101000  inst.: 2103904 (ipc=20.8) sim_rate=25348 (inst/sec) elapsed = 0:0:01:23 / Tue Mar 22 07:39:57 2016
GPGPU-Sim uArch: cycles simulated: 102000  inst.: 2117312 (ipc=20.8) sim_rate=25206 (inst/sec) elapsed = 0:0:01:24 / Tue Mar 22 07:39:58 2016
GPGPU-Sim PTX: 2200000 instructions simulated : ctaid=(8,7,0) tid=(223,0,0)
GPGPU-Sim uArch: cycles simulated: 103500  inst.: 2134272 (ipc=20.6) sim_rate=25109 (inst/sec) elapsed = 0:0:01:25 / Tue Mar 22 07:39:59 2016
GPGPU-Sim uArch: cycles simulated: 104500  inst.: 2150080 (ipc=20.6) sim_rate=25000 (inst/sec) elapsed = 0:0:01:26 / Tue Mar 22 07:40:00 2016
GPGPU-Sim uArch: cycles simulated: 105500  inst.: 2157696 (ipc=20.5) sim_rate=24801 (inst/sec) elapsed = 0:0:01:27 / Tue Mar 22 07:40:01 2016
GPGPU-Sim uArch: cycles simulated: 106500  inst.: 2172448 (ipc=20.4) sim_rate=24686 (inst/sec) elapsed = 0:0:01:28 / Tue Mar 22 07:40:02 2016
GPGPU-Sim uArch: cycles simulated: 107500  inst.: 2180992 (ipc=20.3) sim_rate=24505 (inst/sec) elapsed = 0:0:01:29 / Tue Mar 22 07:40:03 2016
GPGPU-Sim uArch: cycles simulated: 108500  inst.: 2196704 (ipc=20.2) sim_rate=24407 (inst/sec) elapsed = 0:0:01:30 / Tue Mar 22 07:40:04 2016
GPGPU-Sim uArch: cycles simulated: 109500  inst.: 2207424 (ipc=20.2) sim_rate=24257 (inst/sec) elapsed = 0:0:01:31 / Tue Mar 22 07:40:05 2016
GPGPU-Sim uArch: cycles simulated: 110500  inst.: 2217504 (ipc=20.1) sim_rate=24103 (inst/sec) elapsed = 0:0:01:32 / Tue Mar 22 07:40:06 2016
GPGPU-Sim PTX: 2300000 instructions simulated : ctaid=(4,5,0) tid=(95,0,0)
GPGPU-Sim uArch: cycles simulated: 111500  inst.: 2232032 (ipc=20.0) sim_rate=24000 (inst/sec) elapsed = 0:0:01:33 / Tue Mar 22 07:40:07 2016
GPGPU-Sim uArch: cycles simulated: 112500  inst.: 2244128 (ipc=19.9) sim_rate=23873 (inst/sec) elapsed = 0:0:01:34 / Tue Mar 22 07:40:08 2016
GPGPU-Sim uArch: cycles simulated: 113500  inst.: 2258528 (ipc=19.9) sim_rate=23773 (inst/sec) elapsed = 0:0:01:35 / Tue Mar 22 07:40:09 2016
GPGPU-Sim uArch: cycles simulated: 114500  inst.: 2268320 (ipc=19.8) sim_rate=23628 (inst/sec) elapsed = 0:0:01:36 / Tue Mar 22 07:40:10 2016
GPGPU-Sim uArch: cycles simulated: 115500  inst.: 2284160 (ipc=19.8) sim_rate=23548 (inst/sec) elapsed = 0:0:01:37 / Tue Mar 22 07:40:11 2016
GPGPU-Sim uArch: cycles simulated: 116500  inst.: 2295328 (ipc=19.7) sim_rate=23421 (inst/sec) elapsed = 0:0:01:38 / Tue Mar 22 07:40:12 2016
GPGPU-Sim uArch: cycles simulated: 117500  inst.: 2300224 (ipc=19.6) sim_rate=23234 (inst/sec) elapsed = 0:0:01:39 / Tue Mar 22 07:40:13 2016
GPGPU-Sim uArch: cycles simulated: 118500  inst.: 2316064 (ipc=19.5) sim_rate=23160 (inst/sec) elapsed = 0:0:01:40 / Tue Mar 22 07:40:14 2016
GPGPU-Sim uArch: cycles simulated: 119500  inst.: 2325792 (ipc=19.5) sim_rate=23027 (inst/sec) elapsed = 0:0:01:41 / Tue Mar 22 07:40:15 2016
GPGPU-Sim PTX: 2400000 instructions simulated : ctaid=(4,4,0) tid=(95,0,0)
GPGPU-Sim uArch: cycles simulated: 121000  inst.: 2343680 (ipc=19.4) sim_rate=22977 (inst/sec) elapsed = 0:0:01:42 / Tue Mar 22 07:40:16 2016
GPGPU-Sim uArch: cycles simulated: 122000  inst.: 2356832 (ipc=19.3) sim_rate=22881 (inst/sec) elapsed = 0:0:01:43 / Tue Mar 22 07:40:17 2016
GPGPU-Sim uArch: cycles simulated: 123000  inst.: 2369984 (ipc=19.3) sim_rate=22788 (inst/sec) elapsed = 0:0:01:44 / Tue Mar 22 07:40:18 2016
GPGPU-Sim uArch: cycles simulated: 124500  inst.: 2384064 (ipc=19.1) sim_rate=22705 (inst/sec) elapsed = 0:0:01:45 / Tue Mar 22 07:40:19 2016
GPGPU-Sim uArch: cycles simulated: 125500  inst.: 2397152 (ipc=19.1) sim_rate=22614 (inst/sec) elapsed = 0:0:01:46 / Tue Mar 22 07:40:20 2016
GPGPU-Sim uArch: cycles simulated: 127000  inst.: 2414752 (ipc=19.0) sim_rate=22567 (inst/sec) elapsed = 0:0:01:47 / Tue Mar 22 07:40:21 2016
GPGPU-Sim PTX: 2500000 instructions simulated : ctaid=(7,7,0) tid=(31,0,0)
GPGPU-Sim uArch: cycles simulated: 128500  inst.: 2438112 (ipc=19.0) sim_rate=22575 (inst/sec) elapsed = 0:0:01:48 / Tue Mar 22 07:40:22 2016
GPGPU-Sim uArch: cycles simulated: 129500  inst.: 2446048 (ipc=18.9) sim_rate=22440 (inst/sec) elapsed = 0:0:01:49 / Tue Mar 22 07:40:23 2016
GPGPU-Sim uArch: cycles simulated: 130500  inst.: 2462624 (ipc=18.9) sim_rate=22387 (inst/sec) elapsed = 0:0:01:50 / Tue Mar 22 07:40:24 2016
GPGPU-Sim uArch: cycles simulated: 132000  inst.: 2478496 (ipc=18.8) sim_rate=22328 (inst/sec) elapsed = 0:0:01:51 / Tue Mar 22 07:40:25 2016
GPGPU-Sim uArch: cycles simulated: 133000  inst.: 2489664 (ipc=18.7) sim_rate=22229 (inst/sec) elapsed = 0:0:01:52 / Tue Mar 22 07:40:26 2016
GPGPU-Sim uArch: cycles simulated: 134500  inst.: 2507360 (ipc=18.6) sim_rate=22189 (inst/sec) elapsed = 0:0:01:53 / Tue Mar 22 07:40:27 2016
GPGPU-Sim uArch: cycles simulated: 135500  inst.: 2518208 (ipc=18.6) sim_rate=22089 (inst/sec) elapsed = 0:0:01:54 / Tue Mar 22 07:40:28 2016
GPGPU-Sim PTX: 2600000 instructions simulated : ctaid=(7,5,0) tid=(31,0,0)
GPGPU-Sim uArch: cycles simulated: 137000  inst.: 2538560 (ipc=18.5) sim_rate=22074 (inst/sec) elapsed = 0:0:01:55 / Tue Mar 22 07:40:29 2016
GPGPU-Sim uArch: cycles simulated: 138000  inst.: 2549472 (ipc=18.5) sim_rate=21978 (inst/sec) elapsed = 0:0:01:56 / Tue Mar 22 07:40:30 2016
GPGPU-Sim uArch: cycles simulated: 139500  inst.: 2570720 (ipc=18.4) sim_rate=21971 (inst/sec) elapsed = 0:0:01:57 / Tue Mar 22 07:40:31 2016
GPGPU-Sim uArch: cycles simulated: 140500  inst.: 2583744 (ipc=18.4) sim_rate=21896 (inst/sec) elapsed = 0:0:01:58 / Tue Mar 22 07:40:32 2016
GPGPU-Sim uArch: cycles simulated: 141500  inst.: 2591136 (ipc=18.3) sim_rate=21774 (inst/sec) elapsed = 0:0:01:59 / Tue Mar 22 07:40:33 2016
GPGPU-Sim uArch: cycles simulated: 142500  inst.: 2606176 (ipc=18.3) sim_rate=21718 (inst/sec) elapsed = 0:0:02:00 / Tue Mar 22 07:40:34 2016
GPGPU-Sim uArch: cycles simulated: 144000  inst.: 2621120 (ipc=18.2) sim_rate=21662 (inst/sec) elapsed = 0:0:02:01 / Tue Mar 22 07:40:35 2016
GPGPU-Sim PTX: 2700000 instructions simulated : ctaid=(8,2,0) tid=(159,0,0)
GPGPU-Sim uArch: cycles simulated: 145500  inst.: 2642816 (ipc=18.2) sim_rate=21662 (inst/sec) elapsed = 0:0:02:02 / Tue Mar 22 07:40:36 2016
GPGPU-Sim uArch: cycles simulated: 146500  inst.: 2655200 (ipc=18.1) sim_rate=21586 (inst/sec) elapsed = 0:0:02:03 / Tue Mar 22 07:40:37 2016
GPGPU-Sim uArch: cycles simulated: 148000  inst.: 2673024 (ipc=18.1) sim_rate=21556 (inst/sec) elapsed = 0:0:02:04 / Tue Mar 22 07:40:38 2016
GPGPU-Sim uArch: cycles simulated: 149500  inst.: 2694208 (ipc=18.0) sim_rate=21553 (inst/sec) elapsed = 0:0:02:05 / Tue Mar 22 07:40:39 2016
GPGPU-Sim uArch: cycles simulated: 151000  inst.: 2714272 (ipc=18.0) sim_rate=21541 (inst/sec) elapsed = 0:0:02:06 / Tue Mar 22 07:40:40 2016
GPGPU-Sim PTX: 2800000 instructions simulated : ctaid=(4,3,0) tid=(31,0,0)
GPGPU-Sim uArch: cycles simulated: 152500  inst.: 2734144 (ipc=17.9) sim_rate=21528 (inst/sec) elapsed = 0:0:02:07 / Tue Mar 22 07:40:41 2016
GPGPU-Sim uArch: cycles simulated: 154000  inst.: 2756896 (ipc=17.9) sim_rate=21538 (inst/sec) elapsed = 0:0:02:08 / Tue Mar 22 07:40:42 2016
GPGPU-Sim uArch: cycles simulated: 155500  inst.: 2776544 (ipc=17.9) sim_rate=21523 (inst/sec) elapsed = 0:0:02:09 / Tue Mar 22 07:40:43 2016
GPGPU-Sim uArch: cycles simulated: 157000  inst.: 2796672 (ipc=17.8) sim_rate=21512 (inst/sec) elapsed = 0:0:02:10 / Tue Mar 22 07:40:44 2016
GPGPU-Sim uArch: cycles simulated: 158500  inst.: 2818176 (ipc=17.8) sim_rate=21512 (inst/sec) elapsed = 0:0:02:11 / Tue Mar 22 07:40:45 2016
GPGPU-Sim PTX: 2900000 instructions simulated : ctaid=(0,8,0) tid=(95,0,0)
GPGPU-Sim uArch: cycles simulated: 160000  inst.: 2830432 (ipc=17.7) sim_rate=21442 (inst/sec) elapsed = 0:0:02:12 / Tue Mar 22 07:40:46 2016
GPGPU-Sim uArch: cycles simulated: 161500  inst.: 2857856 (ipc=17.7) sim_rate=21487 (inst/sec) elapsed = 0:0:02:13 / Tue Mar 22 07:40:47 2016
GPGPU-Sim uArch: cycles simulated: 163000  inst.: 2876736 (ipc=17.6) sim_rate=21468 (inst/sec) elapsed = 0:0:02:14 / Tue Mar 22 07:40:48 2016
GPGPU-Sim uArch: cycles simulated: 164500  inst.: 2894336 (ipc=17.6) sim_rate=21439 (inst/sec) elapsed = 0:0:02:15 / Tue Mar 22 07:40:49 2016
GPGPU-Sim uArch: cycles simulated: 166000  inst.: 2921952 (ipc=17.6) sim_rate=21484 (inst/sec) elapsed = 0:0:02:16 / Tue Mar 22 07:40:50 2016
GPGPU-Sim PTX: 3000000 instructions simulated : ctaid=(7,4,0) tid=(223,0,0)
GPGPU-Sim uArch: cycles simulated: 167500  inst.: 2940800 (ipc=17.6) sim_rate=21465 (inst/sec) elapsed = 0:0:02:17 / Tue Mar 22 07:40:51 2016
GPGPU-Sim uArch: cycles simulated: 169000  inst.: 2961888 (ipc=17.5) sim_rate=21462 (inst/sec) elapsed = 0:0:02:18 / Tue Mar 22 07:40:52 2016
GPGPU-Sim uArch: cycles simulated: 170500  inst.: 2982336 (ipc=17.5) sim_rate=21455 (inst/sec) elapsed = 0:0:02:19 / Tue Mar 22 07:40:53 2016
GPGPU-Sim uArch: cycles simulated: 172000  inst.: 3006080 (ipc=17.5) sim_rate=21472 (inst/sec) elapsed = 0:0:02:20 / Tue Mar 22 07:40:54 2016
GPGPU-Sim uArch: cycles simulated: 173500  inst.: 3022912 (ipc=17.4) sim_rate=21439 (inst/sec) elapsed = 0:0:02:21 / Tue Mar 22 07:40:55 2016
GPGPU-Sim PTX: 3100000 instructions simulated : ctaid=(9,4,0) tid=(159,0,0)
GPGPU-Sim uArch: cycles simulated: 175000  inst.: 3039456 (ipc=17.4) sim_rate=21404 (inst/sec) elapsed = 0:0:02:22 / Tue Mar 22 07:40:56 2016
GPGPU-Sim uArch: cycles simulated: 176500  inst.: 3064448 (ipc=17.4) sim_rate=21429 (inst/sec) elapsed = 0:0:02:23 / Tue Mar 22 07:40:57 2016
GPGPU-Sim uArch: cycles simulated: 178000  inst.: 3084896 (ipc=17.3) sim_rate=21422 (inst/sec) elapsed = 0:0:02:24 / Tue Mar 22 07:40:58 2016
GPGPU-Sim uArch: cycles simulated: 179500  inst.: 3101760 (ipc=17.3) sim_rate=21391 (inst/sec) elapsed = 0:0:02:25 / Tue Mar 22 07:40:59 2016
GPGPU-Sim uArch: cycles simulated: 181000  inst.: 3122720 (ipc=17.3) sim_rate=21388 (inst/sec) elapsed = 0:0:02:26 / Tue Mar 22 07:41:00 2016
GPGPU-Sim PTX: 3200000 instructions simulated : ctaid=(9,3,0) tid=(223,0,0)
GPGPU-Sim uArch: cycles simulated: 182500  inst.: 3146720 (ipc=17.2) sim_rate=21406 (inst/sec) elapsed = 0:0:02:27 / Tue Mar 22 07:41:01 2016
GPGPU-Sim uArch: cycles simulated: 184000  inst.: 3166880 (ipc=17.2) sim_rate=21397 (inst/sec) elapsed = 0:0:02:28 / Tue Mar 22 07:41:02 2016
GPGPU-Sim uArch: cycles simulated: 185000  inst.: 3178304 (ipc=17.2) sim_rate=21330 (inst/sec) elapsed = 0:0:02:29 / Tue Mar 22 07:41:03 2016
GPGPU-Sim uArch: cycles simulated: 186500  inst.: 3199360 (ipc=17.2) sim_rate=21329 (inst/sec) elapsed = 0:0:02:30 / Tue Mar 22 07:41:04 2016
GPGPU-Sim uArch: cycles simulated: 188500  inst.: 3221728 (ipc=17.1) sim_rate=21335 (inst/sec) elapsed = 0:0:02:31 / Tue Mar 22 07:41:05 2016
GPGPU-Sim PTX: 3300000 instructions simulated : ctaid=(4,2,0) tid=(223,0,0)
GPGPU-Sim uArch: cycles simulated: 190000  inst.: 3242464 (ipc=17.1) sim_rate=21332 (inst/sec) elapsed = 0:0:02:32 / Tue Mar 22 07:41:06 2016
GPGPU-Sim uArch: cycles simulated: 191000  inst.: 3260256 (ipc=17.1) sim_rate=21308 (inst/sec) elapsed = 0:0:02:33 / Tue Mar 22 07:41:07 2016
GPGPU-Sim uArch: cycles simulated: 192000  inst.: 3272160 (ipc=17.0) sim_rate=21247 (inst/sec) elapsed = 0:0:02:34 / Tue Mar 22 07:41:08 2016
GPGPU-Sim uArch: cycles simulated: 193500  inst.: 3293888 (ipc=17.0) sim_rate=21250 (inst/sec) elapsed = 0:0:02:35 / Tue Mar 22 07:41:09 2016
GPGPU-Sim uArch: cycles simulated: 194500  inst.: 3304512 (ipc=17.0) sim_rate=21182 (inst/sec) elapsed = 0:0:02:36 / Tue Mar 22 07:41:10 2016
GPGPU-Sim uArch: cycles simulated: 196000  inst.: 3325216 (ipc=17.0) sim_rate=21179 (inst/sec) elapsed = 0:0:02:37 / Tue Mar 22 07:41:11 2016
GPGPU-Sim PTX: 3400000 instructions simulated : ctaid=(0,2,0) tid=(31,0,0)
GPGPU-Sim uArch: cycles simulated: 197500  inst.: 3345664 (ipc=16.9) sim_rate=21175 (inst/sec) elapsed = 0:0:02:38 / Tue Mar 22 07:41:12 2016
GPGPU-Sim uArch: cycles simulated: 199000  inst.: 3362080 (ipc=16.9) sim_rate=21145 (inst/sec) elapsed = 0:0:02:39 / Tue Mar 22 07:41:13 2016
GPGPU-Sim uArch: cycles simulated: 200500  inst.: 3390080 (ipc=16.9) sim_rate=21188 (inst/sec) elapsed = 0:0:02:40 / Tue Mar 22 07:41:14 2016
GPGPU-Sim uArch: cycles simulated: 202000  inst.: 3407392 (ipc=16.9) sim_rate=21163 (inst/sec) elapsed = 0:0:02:41 / Tue Mar 22 07:41:15 2016
GPGPU-Sim uArch: cycles simulated: 203500  inst.: 3423904 (ipc=16.8) sim_rate=21135 (inst/sec) elapsed = 0:0:02:42 / Tue Mar 22 07:41:16 2016
GPGPU-Sim PTX: 3500000 instructions simulated : ctaid=(2,5,0) tid=(223,0,0)
GPGPU-Sim uArch: cycles simulated: 205000  inst.: 3448640 (ipc=16.8) sim_rate=21157 (inst/sec) elapsed = 0:0:02:43 / Tue Mar 22 07:41:17 2016
GPGPU-Sim uArch: cycles simulated: 206500  inst.: 3460928 (ipc=16.8) sim_rate=21103 (inst/sec) elapsed = 0:0:02:44 / Tue Mar 22 07:41:18 2016
GPGPU-Sim uArch: cycles simulated: 208000  inst.: 3481760 (ipc=16.7) sim_rate=21101 (inst/sec) elapsed = 0:0:02:45 / Tue Mar 22 07:41:19 2016
GPGPU-Sim uArch: cycles simulated: 209000  inst.: 3494784 (ipc=16.7) sim_rate=21052 (inst/sec) elapsed = 0:0:02:46 / Tue Mar 22 07:41:20 2016
GPGPU-Sim uArch: cycles simulated: 210500  inst.: 3511136 (ipc=16.7) sim_rate=21024 (inst/sec) elapsed = 0:0:02:47 / Tue Mar 22 07:41:21 2016
GPGPU-Sim PTX: 3600000 instructions simulated : ctaid=(0,8,0) tid=(159,0,0)
GPGPU-Sim uArch: cycles simulated: 212000  inst.: 3530752 (ipc=16.7) sim_rate=21016 (inst/sec) elapsed = 0:0:02:48 / Tue Mar 22 07:41:22 2016
GPGPU-Sim uArch: cycles simulated: 213500  inst.: 3548256 (ipc=16.6) sim_rate=20995 (inst/sec) elapsed = 0:0:02:49 / Tue Mar 22 07:41:23 2016
GPGPU-Sim uArch: cycles simulated: 215000  inst.: 3570240 (ipc=16.6) sim_rate=21001 (inst/sec) elapsed = 0:0:02:50 / Tue Mar 22 07:41:24 2016
GPGPU-Sim uArch: cycles simulated: 216000  inst.: 3580160 (ipc=16.6) sim_rate=20936 (inst/sec) elapsed = 0:0:02:51 / Tue Mar 22 07:41:25 2016
GPGPU-Sim uArch: cycles simulated: 217500  inst.: 3599232 (ipc=16.5) sim_rate=20925 (inst/sec) elapsed = 0:0:02:52 / Tue Mar 22 07:41:26 2016
GPGPU-Sim uArch: cycles simulated: 219000  inst.: 3615744 (ipc=16.5) sim_rate=20900 (inst/sec) elapsed = 0:0:02:53 / Tue Mar 22 07:41:27 2016
GPGPU-Sim PTX: 3700000 instructions simulated : ctaid=(9,5,0) tid=(223,0,0)
GPGPU-Sim uArch: cycles simulated: 220500  inst.: 3635456 (ipc=16.5) sim_rate=20893 (inst/sec) elapsed = 0:0:02:54 / Tue Mar 22 07:41:28 2016
GPGPU-Sim uArch: cycles simulated: 222000  inst.: 3654592 (ipc=16.5) sim_rate=20883 (inst/sec) elapsed = 0:0:02:55 / Tue Mar 22 07:41:29 2016
GPGPU-Sim uArch: cycles simulated: 223500  inst.: 3672032 (ipc=16.4) sim_rate=20863 (inst/sec) elapsed = 0:0:02:56 / Tue Mar 22 07:41:30 2016
GPGPU-Sim uArch: cycles simulated: 225000  inst.: 3692352 (ipc=16.4) sim_rate=20860 (inst/sec) elapsed = 0:0:02:57 / Tue Mar 22 07:41:31 2016
GPGPU-Sim uArch: cycles simulated: 226500  inst.: 3708256 (ipc=16.4) sim_rate=20832 (inst/sec) elapsed = 0:0:02:58 / Tue Mar 22 07:41:32 2016
GPGPU-Sim uArch: cycles simulated: 228000  inst.: 3727264 (ipc=16.3) sim_rate=20822 (inst/sec) elapsed = 0:0:02:59 / Tue Mar 22 07:41:33 2016
GPGPU-Sim PTX: 3800000 instructions simulated : ctaid=(0,4,0) tid=(159,0,0)
GPGPU-Sim uArch: cycles simulated: 229500  inst.: 3744896 (ipc=16.3) sim_rate=20804 (inst/sec) elapsed = 0:0:03:00 / Tue Mar 22 07:41:34 2016
GPGPU-Sim uArch: cycles simulated: 231000  inst.: 3761120 (ipc=16.3) sim_rate=20779 (inst/sec) elapsed = 0:0:03:01 / Tue Mar 22 07:41:35 2016
GPGPU-Sim uArch: cycles simulated: 232500  inst.: 3780544 (ipc=16.3) sim_rate=20772 (inst/sec) elapsed = 0:0:03:02 / Tue Mar 22 07:41:36 2016
GPGPU-Sim uArch: cycles simulated: 234000  inst.: 3797248 (ipc=16.2) sim_rate=20749 (inst/sec) elapsed = 0:0:03:03 / Tue Mar 22 07:41:37 2016
GPGPU-Sim uArch: cycles simulated: 235500  inst.: 3815776 (ipc=16.2) sim_rate=20737 (inst/sec) elapsed = 0:0:03:04 / Tue Mar 22 07:41:38 2016
GPGPU-Sim PTX: 3900000 instructions simulated : ctaid=(10,1,0) tid=(159,0,0)
GPGPU-Sim uArch: cycles simulated: 237000  inst.: 3833376 (ipc=16.2) sim_rate=20720 (inst/sec) elapsed = 0:0:03:05 / Tue Mar 22 07:41:39 2016
GPGPU-Sim uArch: cycles simulated: 238500  inst.: 3851136 (ipc=16.1) sim_rate=20705 (inst/sec) elapsed = 0:0:03:06 / Tue Mar 22 07:41:40 2016
GPGPU-Sim uArch: cycles simulated: 240000  inst.: 3868416 (ipc=16.1) sim_rate=20686 (inst/sec) elapsed = 0:0:03:07 / Tue Mar 22 07:41:41 2016
GPGPU-Sim uArch: cycles simulated: 241500  inst.: 3890976 (ipc=16.1) sim_rate=20696 (inst/sec) elapsed = 0:0:03:08 / Tue Mar 22 07:41:42 2016
GPGPU-Sim uArch: cycles simulated: 242500  inst.: 3897120 (ipc=16.1) sim_rate=20619 (inst/sec) elapsed = 0:0:03:09 / Tue Mar 22 07:41:43 2016
GPGPU-Sim uArch: cycles simulated: 244000  inst.: 3917568 (ipc=16.1) sim_rate=20618 (inst/sec) elapsed = 0:0:03:10 / Tue Mar 22 07:41:44 2016
GPGPU-Sim PTX: 4000000 instructions simulated : ctaid=(9,5,0) tid=(159,0,0)
GPGPU-Sim uArch: cycles simulated: 245500  inst.: 3932768 (ipc=16.0) sim_rate=20590 (inst/sec) elapsed = 0:0:03:11 / Tue Mar 22 07:41:45 2016
GPGPU-Sim uArch: cycles simulated: 247000  inst.: 3952448 (ipc=16.0) sim_rate=20585 (inst/sec) elapsed = 0:0:03:12 / Tue Mar 22 07:41:46 2016
GPGPU-Sim uArch: cycles simulated: 248500  inst.: 3973984 (ipc=16.0) sim_rate=20590 (inst/sec) elapsed = 0:0:03:13 / Tue Mar 22 07:41:47 2016
GPGPU-Sim uArch: cycles simulated: 250500  inst.: 3996608 (ipc=16.0) sim_rate=20601 (inst/sec) elapsed = 0:0:03:14 / Tue Mar 22 07:41:48 2016
GPGPU-Sim uArch: cycles simulated: 252000  inst.: 4015776 (ipc=15.9) sim_rate=20593 (inst/sec) elapsed = 0:0:03:15 / Tue Mar 22 07:41:49 2016
GPGPU-Sim PTX: 4100000 instructions simulated : ctaid=(10,0,0) tid=(95,0,0)
GPGPU-Sim uArch: cycles simulated: 253500  inst.: 4038112 (ipc=15.9) sim_rate=20602 (inst/sec) elapsed = 0:0:03:16 / Tue Mar 22 07:41:50 2016
GPGPU-Sim uArch: cycles simulated: 255000  inst.: 4060608 (ipc=15.9) sim_rate=20612 (inst/sec) elapsed = 0:0:03:17 / Tue Mar 22 07:41:51 2016
GPGPU-Sim uArch: cycles simulated: 256500  inst.: 4079104 (ipc=15.9) sim_rate=20601 (inst/sec) elapsed = 0:0:03:18 / Tue Mar 22 07:41:52 2016
GPGPU-Sim uArch: cycles simulated: 257500  inst.: 4097824 (ipc=15.9) sim_rate=20592 (inst/sec) elapsed = 0:0:03:19 / Tue Mar 22 07:41:53 2016
GPGPU-Sim uArch: cycles simulated: 258500  inst.: 4106272 (ipc=15.9) sim_rate=20531 (inst/sec) elapsed = 0:0:03:20 / Tue Mar 22 07:41:54 2016
GPGPU-Sim uArch: cycles simulated: 259500  inst.: 4122016 (ipc=15.9) sim_rate=20507 (inst/sec) elapsed = 0:0:03:21 / Tue Mar 22 07:41:55 2016
GPGPU-Sim PTX: 4200000 instructions simulated : ctaid=(0,4,0) tid=(159,0,0)
GPGPU-Sim uArch: cycles simulated: 261000  inst.: 4141088 (ipc=15.9) sim_rate=20500 (inst/sec) elapsed = 0:0:03:22 / Tue Mar 22 07:41:56 2016
GPGPU-Sim uArch: cycles simulated: 262500  inst.: 4162112 (ipc=15.9) sim_rate=20503 (inst/sec) elapsed = 0:0:03:23 / Tue Mar 22 07:41:57 2016
GPGPU-Sim uArch: cycles simulated: 263500  inst.: 4177280 (ipc=15.9) sim_rate=20476 (inst/sec) elapsed = 0:0:03:24 / Tue Mar 22 07:41:58 2016
GPGPU-Sim uArch: cycles simulated: 264500  inst.: 4190528 (ipc=15.8) sim_rate=20441 (inst/sec) elapsed = 0:0:03:25 / Tue Mar 22 07:41:59 2016
GPGPU-Sim uArch: cycles simulated: 265500  inst.: 4200128 (ipc=15.8) sim_rate=20388 (inst/sec) elapsed = 0:0:03:26 / Tue Mar 22 07:42:00 2016
GPGPU-Sim uArch: cycles simulated: 266500  inst.: 4219424 (ipc=15.8) sim_rate=20383 (inst/sec) elapsed = 0:0:03:27 / Tue Mar 22 07:42:01 2016
GPGPU-Sim PTX: 4300000 instructions simulated : ctaid=(7,3,0) tid=(223,0,0)
GPGPU-Sim uArch: cycles simulated: 268000  inst.: 4237760 (ipc=15.8) sim_rate=20373 (inst/sec) elapsed = 0:0:03:28 / Tue Mar 22 07:42:02 2016
GPGPU-Sim uArch: cycles simulated: 269000  inst.: 4249568 (ipc=15.8) sim_rate=20332 (inst/sec) elapsed = 0:0:03:29 / Tue Mar 22 07:42:03 2016
GPGPU-Sim uArch: cycles simulated: 270000  inst.: 4265280 (ipc=15.8) sim_rate=20310 (inst/sec) elapsed = 0:0:03:30 / Tue Mar 22 07:42:04 2016
GPGPU-Sim uArch: cycles simulated: 271000  inst.: 4278336 (ipc=15.8) sim_rate=20276 (inst/sec) elapsed = 0:0:03:31 / Tue Mar 22 07:42:05 2016
GPGPU-Sim uArch: cycles simulated: 272500  inst.: 4300704 (ipc=15.8) sim_rate=20286 (inst/sec) elapsed = 0:0:03:32 / Tue Mar 22 07:42:06 2016
GPGPU-Sim uArch: cycles simulated: 274000  inst.: 4319904 (ipc=15.8) sim_rate=20281 (inst/sec) elapsed = 0:0:03:33 / Tue Mar 22 07:42:07 2016
GPGPU-Sim PTX: 4400000 instructions simulated : ctaid=(10,4,0) tid=(223,0,0)
GPGPU-Sim uArch: cycles simulated: 275500  inst.: 4339840 (ipc=15.8) sim_rate=20279 (inst/sec) elapsed = 0:0:03:34 / Tue Mar 22 07:42:08 2016
GPGPU-Sim uArch: cycles simulated: 277000  inst.: 4360352 (ipc=15.7) sim_rate=20280 (inst/sec) elapsed = 0:0:03:35 / Tue Mar 22 07:42:09 2016
GPGPU-Sim uArch: cycles simulated: 278500  inst.: 4381024 (ipc=15.7) sim_rate=20282 (inst/sec) elapsed = 0:0:03:36 / Tue Mar 22 07:42:10 2016
GPGPU-Sim uArch: cycles simulated: 280000  inst.: 4402048 (ipc=15.7) sim_rate=20285 (inst/sec) elapsed = 0:0:03:37 / Tue Mar 22 07:42:11 2016
GPGPU-Sim uArch: cycles simulated: 281500  inst.: 4419680 (ipc=15.7) sim_rate=20273 (inst/sec) elapsed = 0:0:03:38 / Tue Mar 22 07:42:12 2016
GPGPU-Sim PTX: 4500000 instructions simulated : ctaid=(3,3,0) tid=(159,0,0)
GPGPU-Sim uArch: cycles simulated: 283000  inst.: 4441216 (ipc=15.7) sim_rate=20279 (inst/sec) elapsed = 0:0:03:39 / Tue Mar 22 07:42:13 2016
GPGPU-Sim uArch: cycles simulated: 284500  inst.: 4463648 (ipc=15.7) sim_rate=20289 (inst/sec) elapsed = 0:0:03:40 / Tue Mar 22 07:42:14 2016
GPGPU-Sim uArch: cycles simulated: 286000  inst.: 4484128 (ipc=15.7) sim_rate=20290 (inst/sec) elapsed = 0:0:03:41 / Tue Mar 22 07:42:15 2016
GPGPU-Sim uArch: cycles simulated: 287500  inst.: 4502240 (ipc=15.7) sim_rate=20280 (inst/sec) elapsed = 0:0:03:42 / Tue Mar 22 07:42:16 2016
GPGPU-Sim uArch: cycles simulated: 289000  inst.: 4523776 (ipc=15.7) sim_rate=20285 (inst/sec) elapsed = 0:0:03:43 / Tue Mar 22 07:42:17 2016
GPGPU-Sim PTX: 4600000 instructions simulated : ctaid=(1,0,0) tid=(95,0,0)
GPGPU-Sim uArch: cycles simulated: 290500  inst.: 4546912 (ipc=15.7) sim_rate=20298 (inst/sec) elapsed = 0:0:03:44 / Tue Mar 22 07:42:18 2016
GPGPU-Sim uArch: cycles simulated: 291500  inst.: 4560896 (ipc=15.6) sim_rate=20270 (inst/sec) elapsed = 0:0:03:45 / Tue Mar 22 07:42:19 2016
GPGPU-Sim uArch: cycles simulated: 293000  inst.: 4579520 (ipc=15.6) sim_rate=20263 (inst/sec) elapsed = 0:0:03:46 / Tue Mar 22 07:42:20 2016
GPGPU-Sim uArch: cycles simulated: 294500  inst.: 4601216 (ipc=15.6) sim_rate=20269 (inst/sec) elapsed = 0:0:03:47 / Tue Mar 22 07:42:21 2016
GPGPU-Sim uArch: cycles simulated: 296000  inst.: 4624320 (ipc=15.6) sim_rate=20282 (inst/sec) elapsed = 0:0:03:48 / Tue Mar 22 07:42:22 2016
GPGPU-Sim PTX: 4700000 instructions simulated : ctaid=(4,7,0) tid=(95,0,0)
GPGPU-Sim uArch: cycles simulated: 297500  inst.: 4643104 (ipc=15.6) sim_rate=20275 (inst/sec) elapsed = 0:0:03:49 / Tue Mar 22 07:42:23 2016
GPGPU-Sim uArch: cycles simulated: 299000  inst.: 4662112 (ipc=15.6) sim_rate=20270 (inst/sec) elapsed = 0:0:03:50 / Tue Mar 22 07:42:24 2016
GPGPU-Sim uArch: cycles simulated: 300500  inst.: 4686336 (ipc=15.6) sim_rate=20287 (inst/sec) elapsed = 0:0:03:51 / Tue Mar 22 07:42:25 2016
GPGPU-Sim uArch: cycles simulated: 302000  inst.: 4704608 (ipc=15.6) sim_rate=20278 (inst/sec) elapsed = 0:0:03:52 / Tue Mar 22 07:42:26 2016
GPGPU-Sim uArch: cycles simulated: 303500  inst.: 4724672 (ipc=15.6) sim_rate=20277 (inst/sec) elapsed = 0:0:03:53 / Tue Mar 22 07:42:27 2016
GPGPU-Sim PTX: 4800000 instructions simulated : ctaid=(6,3,0) tid=(159,0,0)
GPGPU-Sim uArch: cycles simulated: 305000  inst.: 4745664 (ipc=15.6) sim_rate=20280 (inst/sec) elapsed = 0:0:03:54 / Tue Mar 22 07:42:28 2016
GPGPU-Sim uArch: cycles simulated: 306500  inst.: 4765792 (ipc=15.5) sim_rate=20279 (inst/sec) elapsed = 0:0:03:55 / Tue Mar 22 07:42:29 2016
GPGPU-Sim uArch: cycles simulated: 308000  inst.: 4784960 (ipc=15.5) sim_rate=20275 (inst/sec) elapsed = 0:0:03:56 / Tue Mar 22 07:42:30 2016
GPGPU-Sim uArch: cycles simulated: 309500  inst.: 4809376 (ipc=15.5) sim_rate=20292 (inst/sec) elapsed = 0:0:03:57 / Tue Mar 22 07:42:31 2016
GPGPU-Sim PTX: 4900000 instructions simulated : ctaid=(10,7,0) tid=(31,0,0)
GPGPU-Sim uArch: cycles simulated: 311000  inst.: 4829536 (ipc=15.5) sim_rate=20292 (inst/sec) elapsed = 0:0:03:58 / Tue Mar 22 07:42:32 2016
GPGPU-Sim uArch: cycles simulated: 312500  inst.: 4847104 (ipc=15.5) sim_rate=20280 (inst/sec) elapsed = 0:0:03:59 / Tue Mar 22 07:42:33 2016
GPGPU-Sim uArch: cycles simulated: 314000  inst.: 4869728 (ipc=15.5) sim_rate=20290 (inst/sec) elapsed = 0:0:04:00 / Tue Mar 22 07:42:34 2016
GPGPU-Sim uArch: cycles simulated: 315500  inst.: 4890592 (ipc=15.5) sim_rate=20292 (inst/sec) elapsed = 0:0:04:01 / Tue Mar 22 07:42:35 2016
GPGPU-Sim uArch: cycles simulated: 317000  inst.: 4906624 (ipc=15.5) sim_rate=20275 (inst/sec) elapsed = 0:0:04:02 / Tue Mar 22 07:42:36 2016
GPGPU-Sim PTX: 5000000 instructions simulated : ctaid=(2,7,0) tid=(159,0,0)
GPGPU-Sim uArch: cycles simulated: 318500  inst.: 4929696 (ipc=15.5) sim_rate=20286 (inst/sec) elapsed = 0:0:04:03 / Tue Mar 22 07:42:37 2016
GPGPU-Sim uArch: cycles simulated: 320000  inst.: 4952576 (ipc=15.5) sim_rate=20297 (inst/sec) elapsed = 0:0:04:04 / Tue Mar 22 07:42:38 2016
GPGPU-Sim uArch: cycles simulated: 321500  inst.: 4964416 (ipc=15.4) sim_rate=20262 (inst/sec) elapsed = 0:0:04:05 / Tue Mar 22 07:42:39 2016
GPGPU-Sim uArch: cycles simulated: 323000  inst.: 4989728 (ipc=15.4) sim_rate=20283 (inst/sec) elapsed = 0:0:04:06 / Tue Mar 22 07:42:40 2016
GPGPU-Sim uArch: cycles simulated: 324500  inst.: 5010880 (ipc=15.4) sim_rate=20286 (inst/sec) elapsed = 0:0:04:07 / Tue Mar 22 07:42:41 2016
GPGPU-Sim uArch: cycles simulated: 325500  inst.: 5021376 (ipc=15.4) sim_rate=20247 (inst/sec) elapsed = 0:0:04:08 / Tue Mar 22 07:42:42 2016
GPGPU-Sim PTX: 5100000 instructions simulated : ctaid=(9,3,0) tid=(159,0,0)
GPGPU-Sim uArch: cycles simulated: 327000  inst.: 5045568 (ipc=15.4) sim_rate=20263 (inst/sec) elapsed = 0:0:04:09 / Tue Mar 22 07:42:43 2016
GPGPU-Sim uArch: cycles simulated: 328500  inst.: 5064544 (ipc=15.4) sim_rate=20258 (inst/sec) elapsed = 0:0:04:10 / Tue Mar 22 07:42:44 2016
GPGPU-Sim uArch: cycles simulated: 330000  inst.: 5083488 (ipc=15.4) sim_rate=20252 (inst/sec) elapsed = 0:0:04:11 / Tue Mar 22 07:42:45 2016
GPGPU-Sim uArch: cycles simulated: 331000  inst.: 5097792 (ipc=15.4) sim_rate=20229 (inst/sec) elapsed = 0:0:04:12 / Tue Mar 22 07:42:46 2016
GPGPU-Sim uArch: cycles simulated: 332000  inst.: 5111200 (ipc=15.4) sim_rate=20202 (inst/sec) elapsed = 0:0:04:13 / Tue Mar 22 07:42:47 2016
GPGPU-Sim PTX: 5200000 instructions simulated : ctaid=(4,5,0) tid=(31,0,0)
GPGPU-Sim uArch: cycles simulated: 333500  inst.: 5130528 (ipc=15.4) sim_rate=20198 (inst/sec) elapsed = 0:0:04:14 / Tue Mar 22 07:42:48 2016
GPGPU-Sim uArch: cycles simulated: 335000  inst.: 5151680 (ipc=15.4) sim_rate=20202 (inst/sec) elapsed = 0:0:04:15 / Tue Mar 22 07:42:49 2016
GPGPU-Sim uArch: cycles simulated: 336500  inst.: 5169280 (ipc=15.4) sim_rate=20192 (inst/sec) elapsed = 0:0:04:16 / Tue Mar 22 07:42:50 2016
GPGPU-Sim uArch: cycles simulated: 338000  inst.: 5192736 (ipc=15.4) sim_rate=20205 (inst/sec) elapsed = 0:0:04:17 / Tue Mar 22 07:42:51 2016
GPGPU-Sim uArch: cycles simulated: 339500  inst.: 5211616 (ipc=15.4) sim_rate=20200 (inst/sec) elapsed = 0:0:04:18 / Tue Mar 22 07:42:52 2016
GPGPU-Sim PTX: 5300000 instructions simulated : ctaid=(10,1,0) tid=(31,0,0)
GPGPU-Sim uArch: cycles simulated: 341000  inst.: 5230976 (ipc=15.3) sim_rate=20196 (inst/sec) elapsed = 0:0:04:19 / Tue Mar 22 07:42:53 2016
GPGPU-Sim uArch: cycles simulated: 342500  inst.: 5248288 (ipc=15.3) sim_rate=20185 (inst/sec) elapsed = 0:0:04:20 / Tue Mar 22 07:42:54 2016
GPGPU-Sim uArch: cycles simulated: 344000  inst.: 5262560 (ipc=15.3) sim_rate=20163 (inst/sec) elapsed = 0:0:04:21 / Tue Mar 22 07:42:55 2016
GPGPU-Sim uArch: cycles simulated: 345500  inst.: 5285952 (ipc=15.3) sim_rate=20175 (inst/sec) elapsed = 0:0:04:22 / Tue Mar 22 07:42:56 2016
GPGPU-Sim uArch: cycles simulated: 347000  inst.: 5302720 (ipc=15.3) sim_rate=20162 (inst/sec) elapsed = 0:0:04:23 / Tue Mar 22 07:42:57 2016
GPGPU-Sim uArch: cycles simulated: 348000  inst.: 5316640 (ipc=15.3) sim_rate=20138 (inst/sec) elapsed = 0:0:04:24 / Tue Mar 22 07:42:58 2016
GPGPU-Sim PTX: 5400000 instructions simulated : ctaid=(3,6,0) tid=(31,0,0)
GPGPU-Sim uArch: cycles simulated: 349500  inst.: 5343040 (ipc=15.3) sim_rate=20162 (inst/sec) elapsed = 0:0:04:25 / Tue Mar 22 07:42:59 2016
GPGPU-Sim uArch: cycles simulated: 351000  inst.: 5359808 (ipc=15.3) sim_rate=20149 (inst/sec) elapsed = 0:0:04:26 / Tue Mar 22 07:43:00 2016
GPGPU-Sim uArch: cycles simulated: 352000  inst.: 5378848 (ipc=15.3) sim_rate=20145 (inst/sec) elapsed = 0:0:04:27 / Tue Mar 22 07:43:01 2016
GPGPU-Sim uArch: cycles simulated: 353500  inst.: 5405856 (ipc=15.3) sim_rate=20171 (inst/sec) elapsed = 0:0:04:28 / Tue Mar 22 07:43:02 2016
GPGPU-Sim uArch: cycles simulated: 355000  inst.: 5423104 (ipc=15.3) sim_rate=20160 (inst/sec) elapsed = 0:0:04:29 / Tue Mar 22 07:43:03 2016
GPGPU-Sim PTX: 5500000 instructions simulated : ctaid=(5,4,0) tid=(159,0,0)
GPGPU-Sim uArch: cycles simulated: 356500  inst.: 5442720 (ipc=15.3) sim_rate=20158 (inst/sec) elapsed = 0:0:04:30 / Tue Mar 22 07:43:04 2016
GPGPU-Sim uArch: cycles simulated: 358000  inst.: 5469184 (ipc=15.3) sim_rate=20181 (inst/sec) elapsed = 0:0:04:31 / Tue Mar 22 07:43:05 2016
GPGPU-Sim uArch: cycles simulated: 359500  inst.: 5489344 (ipc=15.3) sim_rate=20181 (inst/sec) elapsed = 0:0:04:32 / Tue Mar 22 07:43:06 2016
GPGPU-Sim uArch: cycles simulated: 361000  inst.: 5508224 (ipc=15.3) sim_rate=20176 (inst/sec) elapsed = 0:0:04:33 / Tue Mar 22 07:43:07 2016
GPGPU-Sim PTX: 5600000 instructions simulated : ctaid=(0,2,0) tid=(223,0,0)
GPGPU-Sim uArch: cycles simulated: 362500  inst.: 5527712 (ipc=15.2) sim_rate=20174 (inst/sec) elapsed = 0:0:04:34 / Tue Mar 22 07:43:08 2016
GPGPU-Sim uArch: cycles simulated: 363500  inst.: 5534208 (ipc=15.2) sim_rate=20124 (inst/sec) elapsed = 0:0:04:35 / Tue Mar 22 07:43:09 2016
GPGPU-Sim uArch: cycles simulated: 365000  inst.: 5560352 (ipc=15.2) sim_rate=20146 (inst/sec) elapsed = 0:0:04:36 / Tue Mar 22 07:43:10 2016
GPGPU-Sim uArch: cycles simulated: 366500  inst.: 5584256 (ipc=15.2) sim_rate=20159 (inst/sec) elapsed = 0:0:04:37 / Tue Mar 22 07:43:11 2016
GPGPU-Sim uArch: cycles simulated: 368000  inst.: 5601440 (ipc=15.2) sim_rate=20149 (inst/sec) elapsed = 0:0:04:38 / Tue Mar 22 07:43:12 2016
GPGPU-Sim uArch: cycles simulated: 369500  inst.: 5616864 (ipc=15.2) sim_rate=20132 (inst/sec) elapsed = 0:0:04:39 / Tue Mar 22 07:43:13 2016
GPGPU-Sim PTX: 5700000 instructions simulated : ctaid=(9,3,0) tid=(223,0,0)
GPGPU-Sim uArch: cycles simulated: 371000  inst.: 5644192 (ipc=15.2) sim_rate=20157 (inst/sec) elapsed = 0:0:04:40 / Tue Mar 22 07:43:14 2016
GPGPU-Sim uArch: cycles simulated: 372500  inst.: 5655264 (ipc=15.2) sim_rate=20125 (inst/sec) elapsed = 0:0:04:41 / Tue Mar 22 07:43:15 2016
GPGPU-Sim uArch: cycles simulated: 374000  inst.: 5675488 (ipc=15.2) sim_rate=20125 (inst/sec) elapsed = 0:0:04:42 / Tue Mar 22 07:43:16 2016
GPGPU-Sim uArch: cycles simulated: 375000  inst.: 5699584 (ipc=15.2) sim_rate=20139 (inst/sec) elapsed = 0:0:04:43 / Tue Mar 22 07:43:17 2016
GPGPU-Sim uArch: cycles simulated: 376500  inst.: 5714144 (ipc=15.2) sim_rate=20120 (inst/sec) elapsed = 0:0:04:44 / Tue Mar 22 07:43:18 2016
GPGPU-Sim PTX: 5800000 instructions simulated : ctaid=(8,3,0) tid=(31,0,0)
GPGPU-Sim uArch: cycles simulated: 378000  inst.: 5737600 (ipc=15.2) sim_rate=20131 (inst/sec) elapsed = 0:0:04:45 / Tue Mar 22 07:43:19 2016
GPGPU-Sim uArch: cycles simulated: 379500  inst.: 5761856 (ipc=15.2) sim_rate=20146 (inst/sec) elapsed = 0:0:04:46 / Tue Mar 22 07:43:20 2016
GPGPU-Sim uArch: cycles simulated: 381000  inst.: 5776768 (ipc=15.2) sim_rate=20128 (inst/sec) elapsed = 0:0:04:47 / Tue Mar 22 07:43:21 2016
GPGPU-Sim uArch: cycles simulated: 382500  inst.: 5797664 (ipc=15.2) sim_rate=20130 (inst/sec) elapsed = 0:0:04:48 / Tue Mar 22 07:43:22 2016
GPGPU-Sim uArch: cycles simulated: 384000  inst.: 5823296 (ipc=15.2) sim_rate=20149 (inst/sec) elapsed = 0:0:04:49 / Tue Mar 22 07:43:23 2016
GPGPU-Sim PTX: 5900000 instructions simulated : ctaid=(5,1,0) tid=(31,0,0)
GPGPU-Sim uArch: cycles simulated: 385500  inst.: 5843776 (ipc=15.2) sim_rate=20150 (inst/sec) elapsed = 0:0:04:50 / Tue Mar 22 07:43:24 2016
GPGPU-Sim uArch: cycles simulated: 387000  inst.: 5863200 (ipc=15.2) sim_rate=20148 (inst/sec) elapsed = 0:0:04:51 / Tue Mar 22 07:43:25 2016
GPGPU-Sim uArch: cycles simulated: 388000  inst.: 5879552 (ipc=15.2) sim_rate=20135 (inst/sec) elapsed = 0:0:04:52 / Tue Mar 22 07:43:26 2016
GPGPU-Sim uArch: cycles simulated: 389500  inst.: 5897856 (ipc=15.1) sim_rate=20129 (inst/sec) elapsed = 0:0:04:53 / Tue Mar 22 07:43:27 2016
GPGPU-Sim uArch: cycles simulated: 391000  inst.: 5918944 (ipc=15.1) sim_rate=20132 (inst/sec) elapsed = 0:0:04:54 / Tue Mar 22 07:43:28 2016
GPGPU-Sim PTX: 6000000 instructions simulated : ctaid=(2,1,0) tid=(223,0,0)
GPGPU-Sim uArch: cycles simulated: 392500  inst.: 5940192 (ipc=15.1) sim_rate=20136 (inst/sec) elapsed = 0:0:04:55 / Tue Mar 22 07:43:29 2016
GPGPU-Sim uArch: cycles simulated: 394000  inst.: 5960576 (ipc=15.1) sim_rate=20137 (inst/sec) elapsed = 0:0:04:56 / Tue Mar 22 07:43:30 2016
GPGPU-Sim uArch: cycles simulated: 395500  inst.: 5982208 (ipc=15.1) sim_rate=20142 (inst/sec) elapsed = 0:0:04:57 / Tue Mar 22 07:43:31 2016
GPGPU-Sim uArch: cycles simulated: 397000  inst.: 6003200 (ipc=15.1) sim_rate=20144 (inst/sec) elapsed = 0:0:04:58 / Tue Mar 22 07:43:32 2016
GPGPU-Sim uArch: cycles simulated: 398500  inst.: 6019360 (ipc=15.1) sim_rate=20131 (inst/sec) elapsed = 0:0:04:59 / Tue Mar 22 07:43:33 2016
GPGPU-Sim PTX: 6100000 instructions simulated : ctaid=(7,3,0) tid=(223,0,0)
GPGPU-Sim uArch: cycles simulated: 400000  inst.: 6041408 (ipc=15.1) sim_rate=20138 (inst/sec) elapsed = 0:0:05:00 / Tue Mar 22 07:43:34 2016
GPGPU-Sim uArch: cycles simulated: 401500  inst.: 6064160 (ipc=15.1) sim_rate=20146 (inst/sec) elapsed = 0:0:05:01 / Tue Mar 22 07:43:35 2016
GPGPU-Sim uArch: cycles simulated: 402500  inst.: 6073856 (ipc=15.1) sim_rate=20112 (inst/sec) elapsed = 0:0:05:02 / Tue Mar 22 07:43:36 2016
GPGPU-Sim uArch: cycles simulated: 404000  inst.: 6099168 (ipc=15.1) sim_rate=20129 (inst/sec) elapsed = 0:0:05:03 / Tue Mar 22 07:43:37 2016
GPGPU-Sim uArch: cycles simulated: 405500  inst.: 6117984 (ipc=15.1) sim_rate=20124 (inst/sec) elapsed = 0:0:05:04 / Tue Mar 22 07:43:38 2016
GPGPU-Sim PTX: 6200000 instructions simulated : ctaid=(6,7,0) tid=(159,0,0)
GPGPU-Sim uArch: cycles simulated: 407000  inst.: 6138656 (ipc=15.1) sim_rate=20126 (inst/sec) elapsed = 0:0:05:05 / Tue Mar 22 07:43:39 2016
GPGPU-Sim uArch: cycles simulated: 408500  inst.: 6161536 (ipc=15.1) sim_rate=20135 (inst/sec) elapsed = 0:0:05:06 / Tue Mar 22 07:43:40 2016
GPGPU-Sim uArch: cycles simulated: 410000  inst.: 6182368 (ipc=15.1) sim_rate=20138 (inst/sec) elapsed = 0:0:05:07 / Tue Mar 22 07:43:41 2016
GPGPU-Sim uArch: cycles simulated: 411500  inst.: 6202880 (ipc=15.1) sim_rate=20139 (inst/sec) elapsed = 0:0:05:08 / Tue Mar 22 07:43:42 2016
GPGPU-Sim uArch: cycles simulated: 413000  inst.: 6222656 (ipc=15.1) sim_rate=20138 (inst/sec) elapsed = 0:0:05:09 / Tue Mar 22 07:43:43 2016
GPGPU-Sim PTX: 6300000 instructions simulated : ctaid=(5,7,0) tid=(159,0,0)
GPGPU-Sim uArch: cycles simulated: 414000  inst.: 6240544 (ipc=15.1) sim_rate=20130 (inst/sec) elapsed = 0:0:05:10 / Tue Mar 22 07:43:44 2016
GPGPU-Sim uArch: cycles simulated: 415500  inst.: 6259296 (ipc=15.1) sim_rate=20126 (inst/sec) elapsed = 0:0:05:11 / Tue Mar 22 07:43:45 2016
GPGPU-Sim uArch: cycles simulated: 417000  inst.: 6280448 (ipc=15.1) sim_rate=20129 (inst/sec) elapsed = 0:0:05:12 / Tue Mar 22 07:43:46 2016
GPGPU-Sim uArch: cycles simulated: 418500  inst.: 6301632 (ipc=15.1) sim_rate=20133 (inst/sec) elapsed = 0:0:05:13 / Tue Mar 22 07:43:47 2016
GPGPU-Sim uArch: cycles simulated: 419500  inst.: 6313792 (ipc=15.1) sim_rate=20107 (inst/sec) elapsed = 0:0:05:14 / Tue Mar 22 07:43:48 2016
GPGPU-Sim PTX: 6400000 instructions simulated : ctaid=(2,4,0) tid=(159,0,0)
GPGPU-Sim uArch: cycles simulated: 421000  inst.: 6337568 (ipc=15.1) sim_rate=20119 (inst/sec) elapsed = 0:0:05:15 / Tue Mar 22 07:43:49 2016
GPGPU-Sim uArch: cycles simulated: 422500  inst.: 6356896 (ipc=15.0) sim_rate=20116 (inst/sec) elapsed = 0:0:05:16 / Tue Mar 22 07:43:50 2016
GPGPU-Sim uArch: cycles simulated: 424000  inst.: 6377504 (ipc=15.0) sim_rate=20118 (inst/sec) elapsed = 0:0:05:17 / Tue Mar 22 07:43:51 2016
GPGPU-Sim uArch: cycles simulated: 425500  inst.: 6399808 (ipc=15.0) sim_rate=20125 (inst/sec) elapsed = 0:0:05:18 / Tue Mar 22 07:43:52 2016
GPGPU-Sim uArch: cycles simulated: 427000  inst.: 6418272 (ipc=15.0) sim_rate=20119 (inst/sec) elapsed = 0:0:05:19 / Tue Mar 22 07:43:53 2016
GPGPU-Sim PTX: 6500000 instructions simulated : ctaid=(10,4,0) tid=(159,0,0)
GPGPU-Sim uArch: cycles simulated: 428500  inst.: 6440544 (ipc=15.0) sim_rate=20126 (inst/sec) elapsed = 0:0:05:20 / Tue Mar 22 07:43:54 2016
GPGPU-Sim uArch: cycles simulated: 430000  inst.: 6464032 (ipc=15.0) sim_rate=20137 (inst/sec) elapsed = 0:0:05:21 / Tue Mar 22 07:43:55 2016
GPGPU-Sim uArch: cycles simulated: 431500  inst.: 6483136 (ipc=15.0) sim_rate=20133 (inst/sec) elapsed = 0:0:05:22 / Tue Mar 22 07:43:56 2016
GPGPU-Sim uArch: cycles simulated: 433000  inst.: 6503168 (ipc=15.0) sim_rate=20133 (inst/sec) elapsed = 0:0:05:23 / Tue Mar 22 07:43:57 2016
[...]
averagemflatency = 393 
max_icnt2mem_latency = 959 
max_icnt2sh_latency = 40913953 
mrq_lat_table:16350727 	636235 	827809 	1649863 	3475756 	3950739 	3191530 	823461 	14217 	28 	0 	0 	0 	0 	0 	0 	0 	0 	0 	0 	0 	0 	0 	0 	0 	0 	0 	0 	0 	0 	0 	0 	
dq_lat_table:0 	0 	0 	0 	0 	0 	0 	0 	0 	0 	0 	0 	0 	0 	0 	0 	0 	0 	0 	0 	0 	0 	0 	0 	0 	0 	0 	0 	0 	0 	0 	0 	
mf_lat_table:0 	0 	0 	0 	0 	0 	0 	6534065 	24418451 	8655178 	35240 	0 	0 	0 	0 	0 	0 	0 	0 	0 	0 	0 	0 	0 	0 	0 	0 	0 	0 	0 	0 	0 	
icnt2mem_lat_table:0 	0 	0 	26219788 	1467822 	2469530 	3966082 	4075541 	1405300 	38946 	0 	0 	0 	0 	0 	0 	0 	0 	0 	0 	0 	0 	0 	0 	
icnt2sh_lat_table:0 	0 	0 	4540368 	21566741 	12347218 	1161115 	25700 	0 	0 	0 	0 	0 	0 	0 	0 	0 	0 	0 	0 	0 	0 	360 	436 	
mf_lat_pw_table:460 	536 	0 	0 	0 	0 	0 	20731 	57722 	3370 	0 	0 	0 	0 	0 	0 	0 	0 	0 	0 	0 	0 	0 	0 	0 	0 	0 	0 	0 	0 	0 	0 	
maximum concurrent accesses to same row:
dram[0]:         7         6         6         6         6         6         8         6         7         7         7         6         6         6         6        12 
dram[1]:         6         6         6         7         7         6         8         8         7         7         6         7         7         8         6         8 
dram[2]:         6         6         6         6         6         6         6         6         6         6         6         6         6         7         6         6 
dram[3]:         7         7         8         6         6         9         9         7         7         6         6         7        10         8         6         6 
dram[4]:         6         6         6         6         6         6         7         6         6         6         7         6         6         6         6         6 
dram[5]:         7         7         7         7         7         7         8         9         7         7         7         8         6         7         8         6 
maximum service time to same row:
dram[0]:   1935111   1918662     70988    676897     94601     96539     76541     63655    110418     91456    233301    124820    102497    105609     66875     68031 
dram[1]:   1864462   1864476     72930    977519     99837     99623     82356     58781     85017    106506    390919    117194     88619    111994     60485     64531 
dram[2]:   1854999   1915682     89979   1200754    169892    397141     89435     92310    108016     85171     76833    236984    228903    338894     66251     94451 
dram[3]:   1902372   1907048    103591   1451877    157184    395515     90224     85775    283942     71841     66294    356728    344378    347331     58872     93306 
dram[4]:   1884921   1933616    253627     72851    167894    399469     92998    109678    108815    125406     62728    235315    228573    337423     60729     91938 
dram[5]:   1823860   1835565    447660     49590    100098     97308     61284     85159    106062     78421    122740    128178    112706     97450     66252     59003 
average row accesses per activate:
dram[0]:  1.275403  1.285178  1.285725  1.295479  1.290359  1.301887  1.294984  1.314090  1.270543  1.278741  1.285387  1.293578  1.297819  1.306486  1.300955  1.314481 
dram[1]:  1.275859  1.283037  1.285471  1.295252  1.288603  1.300474  1.293297  1.310582  1.270708  1.277792  1.284984  1.290424  1.296139  1.304781  1.300429  1.311882 
dram[2]:  1.266213  1.277929  1.276613  1.289883  1.281233  1.292078  1.283089  1.298299  1.261228  1.271801  1.275956  1.283454  1.284817  1.294352  1.289524  1.305241 
dram[3]:  1.270133  1.278567  1.280911  1.291755  1.288288  1.294520  1.289007  1.302581  1.266572  1.275450  1.281623  1.285219  1.290110  1.298277  1.295682  1.308833 
dram[4]:  1.272694  1.281036  1.285344  1.293636  1.290116  1.294181  1.291205  1.304786  1.268573  1.275160  1.283074  1.284351  1.293545  1.298805  1.298097  1.308622 
dram[5]:  1.275908  1.278015  1.284083  1.289096  1.287878  1.290091  1.294080  1.297498  1.268923  1.270521  1.281753  1.284824  1.293147  1.294689  1.295043  1.306191 
average row locality = 30920365/23997897 = 1.288461
number of total memory accesses made:
dram[0]:         0         0         0         0         0         0         0         0         0         0         0         0         0         0         0         0 
dram[1]:         0         0         0         0         0         0         0         0         0         0         0         0         0         0         0         0 
dram[2]:         0         0         0         0         0         0         0         0         0         0         0         0         0         0         0         0 
dram[3]:         0         0         0         0         0         0         0         0         0         0         0         0         0         0         0         0 
dram[4]:         0         0         0         0         0         0         0         0         0         0         0         0         0         0         0         0 
dram[5]:         0         0         0         0         0         0         0         0         0         0         0         0         0         0         0         0 
total accesses: 0
min_bank_accesses = 0!
min_chip_accesses = 0!
number of total read accesses:
dram[0]:    318936    318903    319621    319079    321751    321786    328566    328935    328720    328277    322852    323044    318958    319003    319526    319259 
dram[1]:    319337    319615    319712    319597    322438    322385    329272    329428    329262    328878    323496    323512    319582    319457    320038    319580 
dram[2]:    317863    317849    318155    318049    320571    321411    327887    327744    327430    327612    321967    321187    317913    317984    318344    318424 
dram[3]:    318625    318367    318715    318738    321312    322070    328484    328292    328160    328209    322559    321702    318481    318477    318688    318765 
dram[4]:    317874    317761    318129    318008    320577    321375    327855    327637    327378    327414    321782    321143    317601    317748    318228    318185 
dram[5]:    319685    319234    319548    319795    322580    323093    329601    329331    328972    329427    323608    322974    319589    319522    319892    320188 
total reads: 30918573
bank skew: 329601/317601 = 1.04
chip skew: 5167039/5138695 = 1.01
number of total write accesses:
dram[0]:        64        64         0         0         0         0         0         0         0         0         0         0        20        20        64        64 
dram[1]:        64        64         0         0         0         0         0         0         0         0         0         0        20        20        64        64 
dram[2]:        64        64         0         0         0         0         0         0         0         0         0         0        20        24        64        64 
dram[3]:        64        64         0         0         0         0         0         0         0         0         0         0        20        24        64        64 
dram[4]:        64        64         0         0         0         0         0         0         0         0         0         0        20        24        64        64 
dram[5]:        64        64         0         0         0         0         0         0         0         0         0         0        20        24        64        64 
total reads: 1792
min_bank_accesses = 0!
chip skew: 300/296 = 1.01
average mf latency per bank:
dram[0]:        507       514       531       531       514       520       519       528       506       512       510       516       514       522       517       526
dram[1]:        495       499       515       518       502       507       506       513       494       498       497       502       502       507       505       512
dram[2]:        486       493       506       515       495       503       496       506       484       493       486       496       490       501       495       506
dram[3]:        501       504       523       529       512       515       512       517       500       504       500       506       504       511       509       516
dram[4]:        489       500       510       520       499       510       500       513       489       500       490       502       494       507       498       513
dram[5]:        490       489       509       492       497       496       502       502       489       486       492       491       497       497       500       501
maximum mf latency per bank:
dram[0]:       1315      1338      1337      1318      1279      1321      1236      1385      1275      1271      1296      1251      1226      1290      1351      1243
dram[1]:       1327      1295      1243      1231      1233      1245      1304      1335      1266      1260      1231      1239      1260      1270      1245      1311
dram[2]:       1264      1358      1372      1365      1345      1357      1383      1281      1235      1282      1479      1257      1318      1368      1448      1371
dram[3]:       1319      1275      1311      1397      1289      1343      1300      1481      1255      1351      1274      1308      1284      1313      1329      1260
dram[4]:       1344      1297      1270      1273      1243      1304      1268      1382      1221      1300      1282      1305      1316      1394      1307      1347
dram[5]:       1228      1288      1250      1390      1278      1258      1354      1284      1234      1286      1196      1282      1239      1276      1270      1350

Number of Memory Banks Accessed per Memory Operation per Warp (from 0):
0	0	0	0	0	0	0	0	0	0	0	0	0	0	0	0	0	0	0	0	0	0	0	0	0	0	0	0	0	0	0	0	0	0	0	0	0	0	0	0	0	0	0	0	0	0	0	0	0	0	0	0	0	0	0	0	0	0	0	0	0	0	0	0	0	0	0	0	0	0	0	0	0	0	0	0	0	0	0	0	0	0	0	0	0	0	0	0	0	0	0	0	0	0	0	0	
Average # of Memory Banks Accessed per Memory Operation per Warp=-nan

position of mrq chosen
0	0	0	0	0	0	0	0	0	0	0	0	0	0	0	0	

average position of mrq chosen = -nan
Memory Partition 0: 
Cache L2_bank_000:
MSHR contents

Cache L2_bank_001:
MSHR contents
MSHR: tag=0x81e4ba80, atomic=0 1 entries : 0x7f55554becd0 :  mf: uid=498437983, sid09:w37, part=0, addr=0x81e4ba80, load , size=128, unknown  status = IN_PARTITION_DRAM (40913951), 

In Dram Latency Queue (total = 0): 
DRAM[0]: 16 bks, busW=4 BL=8 CL=12, tRRD=2 tCCD=6, tRCD=12 tRAS=28 tRP=12 tRC=40
n_cmd=54006418 n_nop=35714114 n_act=3988648 n_pre=3988632 n_req=5157512 n_rd=10314432 n_write=592 bw_util=0.382
n_activity=37746129 dram_eff=0.5465
bk0: 637872a 42138076i bk1: 637806a 42057945i bk2: 639242a 41866006i bk3: 638158a 41790876i bk4: 643502a 41440143i bk5: 643572a 41282078i bk6: 657132a 40681054i bk7: 657870a 40394440i bk8: 657440a 41738795i bk9: 656554a 41656652i bk10: 645704a 41689336i bk11: 646088a 41576735i bk12: 637916a 41550028i bk13: 638006a 41367290i bk14: 639052a 41058437i bk15: 638518a 40767154i 
dram_util_bins: 0 0 0 0 0 0 0 0 0 0
dram_eff_bins: 0 0 0 0 0 0 0 0 0 0
mrqq: max=16 avg=2.90693
Memory Partition 1: 
Cache L2_bank_002:
MSHR contents

Cache L2_bank_003:
MSHR contents

In Dram Latency Queue (total = 0): 
DRAM[1]: 16 bks, busW=4 BL=8 CL=12, tRRD=2 tCCD=6, tRCD=12 tRAS=28 tRP=12 tRC=40
n_cmd=54006418 n_nop=35676220 n_act=3999222 n_pre=3999206 n_req=5165885 n_rd=10331178 n_write=592 bw_util=0.3826
n_activity=37800451 dram_eff=0.5466
bk0: 638674a 42103606i bk1: 639230a 42014800i bk2: 639424a 41835398i bk3: 639194a 41750917i bk4: 644876a 41381654i bk5: 644770a 41250388i bk6: 658544a 40647580i bk7: 658856a 40369026i bk8: 658524a 41697133i bk9: 657756a 41611381i bk10: 646992a 41643384i bk11: 647024a 41519626i bk12: 639164a 41505806i bk13: 638914a 41335603i bk14: 640076a 41013898i bk15: 639160a 40732628i 
dram_util_bins: 0 0 0 0 0 0 0 0 0 0
dram_eff_bins: 0 0 0 0 0 0 0 0 0 0
mrqq: max=16 avg=2.83773
Memory Partition 2: 
Cache L2_bank_004:
MSHR contents

Cache L2_bank_005:
MSHR contents

In Dram Latency Queue (total = 0): 
DRAM[2]: 16 bks, busW=4 BL=8 CL=12, tRRD=2 tCCD=6, tRCD=12 tRAS=28 tRP=12 tRC=40
n_cmd=54006418 n_nop=35712140 n_act=4006457 n_pre=4006441 n_req=5140690 n_rd=10280780 n_write=600 bw_util=0.3807
n_activity=37793645 dram_eff=0.5441
bk0: 635726a 42097325i bk1: 635698a 42042543i bk2: 636310a 41837101i bk3: 636098a 41772243i bk4: 641142a 41415797i bk5: 642822a 41235186i bk6: 655774a 40659819i bk7: 655488a 40387863i bk8: 654860a 41676631i bk9: 655224a 41595273i bk10: 643934a 41647561i bk11: 642374a 41576000i bk12: 635826a 41513071i bk13: 635968a 41351532i bk14: 636688a 41044423i bk15: 636848a 40790514i 
dram_util_bins: 0 0 0 0 0 0 0 0 0 0
dram_eff_bins: 0 0 0 0 0 0 0 0 0 0
mrqq: max=16 avg=2.7912
Memory Partition 3: 
Cache L2_bank_006:
MSHR contents

Cache L2_bank_007:
MSHR contents

In Dram Latency Queue (total = 0): 
DRAM[3]: 16 bks, busW=4 BL=8 CL=12, tRRD=2 tCCD=6, tRCD=12 tRAS=28 tRP=12 tRC=40
n_cmd=54006418 n_nop=35704894 n_act=4000826 n_pre=4000810 n_req=5149944 n_rd=10299288 n_write=600 bw_util=0.3814
n_activity=37918291 dram_eff=0.5433
bk0: 637250a 42112590i bk1: 636734a 42063494i bk2: 637430a 41865614i bk3: 637476a 41786524i bk4: 642624a 41452294i bk5: 644140a 41257044i bk6: 656968a 40682418i bk7: 656584a 40408093i bk8: 656320a 41707208i bk9: 656418a 41623841i bk10: 645118a 41645594i bk11: 643404a 41590974i bk12: 636962a 41522020i bk13: 636954a 41370824i bk14: 637376a 41053550i bk15: 637530a 40773939i 
dram_util_bins: 0 0 0 0 0 0 0 0 0 0
dram_eff_bins: 0 0 0 0 0 0 0 0 0 0
mrqq: max=16 avg=2.7943
Memory Partition 4: 
Cache L2_bank_008:
MSHR contents

Cache L2_bank_009:
MSHR contents

In Dram Latency Queue (total = 0): 
DRAM[4]: 16 bks, busW=4 BL=8 CL=12, tRRD=2 tCCD=6, tRCD=12 tRAS=28 tRP=12 tRC=40
n_cmd=54006418 n_nop=35753768 n_act=3987338 n_pre=3987322 n_req=5138995 n_rd=10277390 n_write=600 bw_util=0.3806
n_activity=37791314 dram_eff=0.5439
bk0: 635748a 42126781i bk1: 635522a 42070358i bk2: 636258a 41870918i bk3: 636016a 41794901i bk4: 641154a 41465164i bk5: 642750a 41227327i bk6: 655710a 40667868i bk7: 655274a 40399652i bk8: 654756a 41728845i bk9: 654828a 41636255i bk10: 643564a 41676515i bk11: 642286a 41578892i bk12: 635202a 41551527i bk13: 635496a 41365353i bk14: 636456a 41051429i bk15: 636370a 40791782i 
dram_util_bins: 0 0 0 0 0 0 0 0 0 0
dram_eff_bins: 0 0 0 0 0 0 0 0 0 0
mrqq: max=16 avg=2.82729
Memory Partition 5: 
Cache L2_bank_010:
MSHR contents

Cache L2_bank_011:
MSHR contents

In Dram Latency Queue (total = 0): 
DRAM[5]: 16 bks, busW=4 BL=8 CL=12, tRRD=2 tCCD=6, tRCD=12 tRAS=28 tRP=12 tRC=40
n_cmd=54006418 n_nop=35640942 n_act=4015407 n_pre=4015391 n_req=5167339 n_rd=10334078 n_write=600 bw_util=0.3827
n_activity=37848502 dram_eff=0.5461
bk0: 639370a 42075319i bk1: 638468a 42005875i bk2: 639096a 41816566i bk3: 639590a 41719918i bk4: 645160a 41384383i bk5: 646186a 41170357i bk6: 659202a 40630513i bk7: 658662a 40313303i bk8: 657944a 41664201i bk9: 658854a 41546869i bk10: 647216a 41594180i bk11: 645948a 41517396i bk12: 639178a 41464587i bk13: 639044a 41276964i bk14: 639784a 40987035i bk15: 640376a 40714906i 
dram_util_bins: 0 0 0 0 0 0 0 0 0 0
dram_eff_bins: 0 0 0 0 0 0 0 0 0 0
mrqq: max=16 avg=2.82028

========= L2 cache stats =========
L2_cache_bank[0]: Access = 3310818, Miss = 2578930, Miss_rate = 0.779, Pending_hits = 53, Reservation_fails = 1877287
L2_cache_bank[1]: Access = 3304776, Miss = 2578286, Miss_rate = 0.780, Pending_hits = 0, Reservation_fails = 2089192
L2_cache_bank[2]: Access = 3304247, Miss = 2583137, Miss_rate = 0.782, Pending_hits = 8, Reservation_fails = 1575987
L2_cache_bank[3]: Access = 3305664, Miss = 2582452, Miss_rate = 0.781, Pending_hits = 5, Reservation_fails = 1756650
L2_cache_bank[4]: Access = 3304208, Miss = 2570130, Miss_rate = 0.778, Pending_hits = 6, Reservation_fails = 1416876
L2_cache_bank[5]: Access = 3305105, Miss = 2570260, Miss_rate = 0.778, Pending_hits = 0, Reservation_fails = 1627307
L2_cache_bank[6]: Access = 3305077, Miss = 2575024, Miss_rate = 0.779, Pending_hits = 2, Reservation_fails = 1622450
L2_cache_bank[7]: Access = 3305907, Miss = 2574620, Miss_rate = 0.779, Pending_hits = 1, Reservation_fails = 1783620
L2_cache_bank[8]: Access = 3304225, Miss = 2569424, Miss_rate = 0.778, Pending_hits = 1, Reservation_fails = 1471070
L2_cache_bank[9]: Access = 3302332, Miss = 2569271, Miss_rate = 0.778, Pending_hits = 0, Reservation_fails = 1685552
L2_cache_bank[10]: Access = 3304542, Miss = 2583475, Miss_rate = 0.782, Pending_hits = 3, Reservation_fails = 1535971
L2_cache_bank[11]: Access = 3286108, Miss = 2583564, Miss_rate = 0.786, Pending_hits = 0, Reservation_fails = 1655943
L2_total_cache_accesses = 39643009
L2_total_cache_misses = 30918573
L2_total_cache_miss_rate = 0.7799
L2_total_cache_pending_hits = 79
L2_total_cache_reservation_fails = 20097905
L2_total_cache_breakdown:
	L2_cache_stats_breakdown[GLOBAL_ACC_R][HIT] = 8724292
	L2_cache_stats_breakdown[GLOBAL_ACC_R][HIT_RESERVED] = 64
	L2_cache_stats_breakdown[GLOBAL_ACC_R][MISS] = 30916771
	L2_cache_stats_breakdown[GLOBAL_ACC_R][RESERVATION_FAIL] = 20097142
	L2_cache_stats_breakdown[CONST_ACC_R][HIT] = 11
	L2_cache_stats_breakdown[CONST_ACC_R][HIT_RESERVED] = 3
	L2_cache_stats_breakdown[CONST_ACC_R][MISS] = 1
	L2_cache_stats_breakdown[CONST_ACC_R][RESERVATION_FAIL] = 93
	L2_cache_stats_breakdown[GLOBAL_ACC_W][MISS] = 1792
	L2_cache_stats_breakdown[GLOBAL_ACC_W][RESERVATION_FAIL] = 228
	L2_cache_stats_breakdown[INST_ACC_R][HIT] = 54
	L2_cache_stats_breakdown[INST_ACC_R][HIT_RESERVED] = 12
	L2_cache_stats_breakdown[INST_ACC_R][MISS] = 9
	L2_cache_stats_breakdown[INST_ACC_R][RESERVATION_FAIL] = 442
L2_cache_data_port_util = 0.071
L2_cache_fill_port_util = 0.252

icnt_total_pkts_mem_to_simt=198207847
icnt_total_pkts_simt_to_mem=39650177
LD_mem_lat_dist  0 0 0 0 0 0 0 0 0 0 0 0 0 0 0 0 0 0 0 0 0 0 0 0 0 0 0
ST_mem_lat_dist  0 0 0 0 0 0 0 0 0 0 0 0 0 0 0 0 0 0 0 0 0 0 0 0 0 0 0
----------------------------Interconnect-DETAILS--------------------------------
Class 0:
Packet latency average = 29.5121
	minimum = 6
	maximum = 659
Network latency average = 23.325
	minimum = 6
	maximum = 659
Slowest packet = 44503632
Flit latency average = 17.5002
	minimum = 6
	maximum = 659
Slowest flit = 133509986
Fragmentation average = 5.8561e-05
	minimum = 0
	maximum = 340
Injected packet rate average = 0.0721946
	minimum = 0.0522748 (at node 6)
	maximum = 0.0958587 (at node 9)
Accepted packet rate average = 0.0721946
	minimum = 0.0522748 (at node 6)
	maximum = 0.0958587 (at node 9)
Injected flit rate average = 0.216584
	minimum = 0.0522843 (at node 6)
	maximum = 0.40691 (at node 15)
Accepted flit rate average= 0.216584
	minimum = 0.0808108 (at node 26)
	maximum = 0.479276 (at node 9)
Injected packet length average = 3
Accepted packet length average = 3
Total in-flight flits = 0 (0 measured)
====== Overall Traffic Statistics ======
====== Traffic class 0 ======
Packet latency average = 29.5717 (2 samples)
	minimum = 6 (2 samples)
	maximum = 647 (2 samples)
Network latency average = 23.361 (2 samples)
	minimum = 6 (2 samples)
	maximum = 647 (2 samples)
Flit latency average = 17.4607 (2 samples)
	minimum = 6 (2 samples)
	maximum = 647 (2 samples)
Fragmentation average = 4.54108e-05 (2 samples)
	minimum = 0 (2 samples)
	maximum = 283.5 (2 samples)
Injected packet rate average = 0.0717749 (2 samples)
	minimum = 0.0520518 (2 samples)
	maximum = 0.0954394 (2 samples)
Accepted packet rate average = 0.0717749 (2 samples)
	minimum = 0.0520518 (2 samples)
	maximum = 0.0954394 (2 samples)
Injected flit rate average = 0.215325 (2 samples)
	minimum = 0.0520612 (2 samples)
	maximum = 0.404602 (2 samples)
Accepted flit rate average = 0.215325 (2 samples)
	minimum = 0.0803345 (2 samples)
	maximum = 0.47718 (2 samples)
Injected packet size average = 3 (2 samples)
Accepted packet size average = 3 (2 samples)
Hops average = 1 (2 samples)
----------------------------END-of-Interconnect-DETAILS-------------------------
GPGPU-Sim: synchronize waiting for inactive GPU simulation
GPGPU-Sim API: Stream Manager State
