

        *** GPGPU-Sim Simulator Version 3.2.2  [build 0] ***


GPGPU-Sim PTX: simulation mode 0 (can change with PTX_SIM_MODE_FUNC environment variable:
               1=functional simulation only, 0=detailed performance simulator)
GPGPU-Sim: Configuration options:

-network_mode                           1 # Interconnection network mode
-inter_config_file   config_fermi_islip.icnt # Interconnection network config file
-gpgpu_ptx_use_cuobjdump                    1 # Use cuobjdump to extract ptx and sass from binaries
-gpgpu_experimental_lib_support                    0 # Try to extract code from cuda libraries [Broken because of unknown cudaGetExportTable]
-gpgpu_ptx_convert_to_ptxplus                    0 # Convert SASS (native ISA) to ptxplus and run ptxplus
-gpgpu_ptx_force_max_capability                   20 # Force maximum compute capability
-gpgpu_ptx_inst_debug_to_file                    0 # Dump executed instructions' debug information to file
-gpgpu_ptx_inst_debug_file       inst_debug.txt # Executed instructions' debug output file
-gpgpu_ptx_inst_debug_thread_uid                    1 # Thread UID for executed instructions' debug output
-gpgpu_simd_model                       1 # 1 = post-dominator
-gpgpu_shader_core_pipeline              1536:32 # shader core pipeline config, i.e., {<nthread>:<warpsize>}
-gpgpu_tex_cache:l1  4:128:24,L:R:m:N:L,F:128:4,128:2 # per-shader L1 texture cache  (READ-ONLY) config  {<nsets>:<bsize>:<assoc>,<rep>:<wr>:<alloc>:<wr_alloc>,<mshr>:<N>:<merge>,<mq>:<rf>}
-gpgpu_const_cache:l1 64:64:2,L:R:f:N:L,A:2:32,4 # per-shader L1 constant memory cache  (READ-ONLY) config  {<nsets>:<bsize>:<assoc>,<rep>:<wr>:<alloc>:<wr_alloc>,<mshr>:<N>:<merge>,<mq>} 
-gpgpu_cache:il1     4:128:4,L:R:f:N:L,A:2:32,4 # shader L1 instruction cache config  {<nsets>:<bsize>:<assoc>,<rep>:<wr>:<alloc>:<wr_alloc>,<mshr>:<N>:<merge>,<mq>} 
-gpgpu_cache:dl1     32:128:4,L:L:m:N:H,A:32:8,8:2,0,0:0:1:1:0:1,1:4:8:16:32:64,/sciclone/data10/hwang07/GPU_RESEARCH/swl/swl_outputs/RESULTS/ # per-shader L1 data cache config  {<nsets>:<bsize>:<assoc>,<rep>:<wr>:<alloc>:<wr_alloc>,<mshr>:<N>:<merge>,<mq> | none}
-gpgpu_cache:dl1PrefL1                 none # per-shader L1 data cache config  {<nsets>:<bsize>:<assoc>,<rep>:<wr>:<alloc>:<wr_alloc>,<mshr>:<N>:<merge>,<mq> | none}
-gpgpu_cache:dl1PreShared                 none # per-shader L1 data cache config  {<nsets>:<bsize>:<assoc>,<rep>:<wr>:<alloc>:<wr_alloc>,<mshr>:<N>:<merge>,<mq> | none}
-gmem_skip_L1D                          0 # global memory access skip L1D cache (implements -Xptxas -dlcm=cg, default=no skip)
-gpgpu_perfect_mem                      0 # enable perfect memory mode (no cache miss)
-n_regfile_gating_group                    4 # group of lanes that should be read/written together)
-gpgpu_clock_gated_reg_file                    0 # enable clock gated reg file for power calculations
-gpgpu_clock_gated_lanes                    0 # enable clock gated lanes for power calculations
-gpgpu_shader_registers                32768 # Number of registers per shader core. Limits number of concurrent CTAs. (default 8192)
-gpgpu_shader_cta                       8 # Maximum number of concurrent CTAs in shader (default 8)
-gpgpu_num_cta_barriers                   16 # Maximum number of named barriers per CTA (default 16)
-gpgpu_n_clusters                      15 # number of processing clusters
-gpgpu_n_cores_per_cluster                    1 # number of simd cores per cluster
-gpgpu_n_cluster_ejection_buffer_size                    8 # number of packets in ejection buffer
-gpgpu_n_ldst_response_buffer_size                    2 # number of response packets in ld/st unit ejection buffer
-gpgpu_shmem_size                   16384 # Size of shared memory per shader core (default 16kB)
-gpgpu_shmem_size                   49152 # Size of shared memory per shader core (default 16kB)
-gpgpu_shmem_size_PrefL1                16384 # Size of shared memory per shader core (default 16kB)
-gpgpu_shmem_size_PrefShared                16384 # Size of shared memory per shader core (default 16kB)
-gpgpu_shmem_num_banks                   32 # Number of banks in the shared memory in each shader core (default 16)
-gpgpu_shmem_limited_broadcast                    0 # Limit shared memory to do one broadcast per cycle (default on)
-gpgpu_shmem_warp_parts                    1 # Number of portions a warp is divided into for shared memory bank conflict check 
-gpgpu_warpdistro_shader                   -1 # Specify which shader core to collect the warp size distribution from
-gpgpu_warp_issue_shader                    0 # Specify which shader core to collect the warp issue distribution from
-gpgpu_local_mem_map                    1 # Mapping from local memory space address to simulated GPU physical address space (default = enabled)
-gpgpu_num_reg_banks                   16 # Number of register banks (default = 8)
-gpgpu_reg_bank_use_warp_id                    0 # Use warp ID in mapping registers to banks (default = off)
-gpgpu_operand_collector_num_units_sp                    6 # number of collector units (default = 4)
-gpgpu_operand_collector_num_units_sfu                    8 # number of collector units (default = 4)
-gpgpu_operand_collector_num_units_mem                    2 # number of collector units (default = 2)
-gpgpu_operand_collector_num_units_gen                    0 # number of collector units (default = 0)
-gpgpu_operand_collector_num_in_ports_sp                    2 # number of collector unit in ports (default = 1)
-gpgpu_operand_collector_num_in_ports_sfu                    1 # number of collector unit in ports (default = 1)
-gpgpu_operand_collector_num_in_ports_mem                    1 # number of collector unit in ports (default = 1)
-gpgpu_operand_collector_num_in_ports_gen                    0 # number of collector unit in ports (default = 0)
-gpgpu_operand_collector_num_out_ports_sp                    2 # number of collector unit in ports (default = 1)
-gpgpu_operand_collector_num_out_ports_sfu                    1 # number of collector unit in ports (default = 1)
-gpgpu_operand_collector_num_out_ports_mem                    1 # number of collector unit in ports (default = 1)
-gpgpu_operand_collector_num_out_ports_gen                    0 # number of collector unit in ports (default = 0)
-gpgpu_coalesce_arch                   13 # Coalescing arch (default = 13, anything else is off for now)
-gpgpu_num_sched_per_core                    2 # Number of warp schedulers per core
-gpgpu_max_insn_issue_per_warp                    1 # Max number of instructions that can be issued per warp in one cycle by scheduler
-gpgpu_simt_core_sim_order                    1 # Select the simulation order of cores in a cluster (0=Fix, 1=Round-Robin)
-gpgpu_pipeline_widths        2,1,1,2,1,1,2 # Pipeline widths ID_OC_SP,ID_OC_SFU,ID_OC_MEM,OC_EX_SP,OC_EX_SFU,OC_EX_MEM,EX_WB
-gpgpu_num_sp_units                     2 # Number of SP units (default=1)
-gpgpu_num_sfu_units                    1 # Number of SF units (default=1)
-gpgpu_num_mem_units                    1 # Number if ldst units (default=1) WARNING: not hooked up to anything
-gpgpu_scheduler      warp_limiting:2:1:0 # Scheduler configuration: < lrr | gto | two_level_active > If two_level_active:<num_active_warps>:<inner_prioritization>:<outer_prioritization>For complete list of prioritization values see shader.h enum scheduler_prioritization_typeDefault: gto
-gpgpu_dram_scheduler                    1 # 0 = fifo, 1 = FR-FCFS (defaul)
-gpgpu_dram_partition_queues              8:8:8:8 # i2$:$2d:d2$:$2i
-l2_ideal                               0 # Use a ideal L2 cache that always hit
-gpgpu_cache:dl2     64:128:8,L:B:m:W:L,A:32:4,4:0,32 # unified banked L2 data cache config  {<nsets>:<bsize>:<assoc>,<rep>:<wr>:<alloc>:<wr_alloc>,<mshr>:<N>:<merge>,<mq>}
-gpgpu_cache:dl2_texture_only                    0 # L2 cache used for texture only
-gpgpu_n_mem                            6 # number of memory modules (e.g. memory controllers) in gpu
-gpgpu_n_sub_partition_per_mchannel                    2 # number of memory subpartition in each memory module
-gpgpu_n_mem_per_ctrlr                    2 # number of memory chips per memory controller
-gpgpu_memlatency_stat                   14 # track and display latency statistics 0x2 enables MC, 0x4 enables queue logs
-gpgpu_frfcfs_dram_sched_queue_size                   16 # 0 = unlimited (default); # entries per chip
-gpgpu_dram_return_queue_size                  116 # 0 = unlimited (default); # entries per chip
-gpgpu_dram_buswidth                    4 # default = 4 bytes (8 bytes per cycle at DDR)
-gpgpu_dram_burst_length                    8 # Burst length of each DRAM request (default = 4 data bus cycle)
-dram_data_command_freq_ratio                    4 # Frequency ratio between DRAM data bus and command bus (default = 2 times, i.e. DDR)
-gpgpu_dram_timing_opt nbk=16:CCD=2:RRD=6:RCD=12:RAS=28:RP=12:RC=40: CL=12:WL=4:CDLR=5:WR=12:nbkgrp=4:CCDL=3:RTPL=2 # DRAM timing parameters = {nbk:tCCD:tRRD:tRCD:tRAS:tRP:tRC:CL:WL:tCDLR:tWR:nbkgrp:tCCDL:tRTPL}
-rop_latency                          120 # ROP queue latency (default 85)
-dram_latency                         100 # DRAM latency (default 30)
-gpgpu_mem_addr_mapping dramid@8;00000000.00000000.00000000.00000000.0000RRRR.RRRRRRRR.BBBCCCCB.CCSSSSSS # mapping memory address to dram model {dramid@<start bit>;<memory address map>}
-gpgpu_mem_addr_test                    0 # run sweep test to check address mapping for aliased address
-gpgpu_mem_address_mask                    1 # 0 = old addressing mask, 1 = new addressing mask, 2 = new add. mask + flipped bank sel and chip sel bits
-gpuwattch_xml_file  gpuwattch_gtx480.xml # GPUWattch XML file
-power_simulation_enabled                    0 # Turn on power simulator (1=On, 0=Off)
-power_per_cycle_dump                    0 # Dump detailed power output each cycle
-power_trace_enabled                    0 # produce a file for the power trace (1=On, 0=Off)
-power_trace_zlevel                     6 # Compression level of the power trace output log (0=no comp, 9=highest)
-steady_power_levels_enabled                    0 # produce a file for the steady power levels (1=On, 0=Off)
-steady_state_definition                  8:4 # allowed deviation:number of samples
-gpgpu_max_cycle                        0 # terminates gpu simulation early (0 = no limit)
-gpgpu_max_insn                         0 # terminates gpu simulation early (0 = no limit)
-gpgpu_max_cta                          0 # terminates gpu simulation early (0 = no limit)
-gpgpu_runtime_stat                   500 # display runtime statistics such as dram utilization {<freq>:<flag>}
-liveness_message_freq                    1 # Minimum number of seconds between simulation liveness messages (0 = always print)
-gpgpu_flush_l1_cache                    0 # Flush L1 cache at the end of each kernel call
-gpgpu_flush_l2_cache                    0 # Flush L2 cache at the end of each kernel call
-gpgpu_deadlock_detect                    1 # Stop the simulation at deadlock (1=on (default), 0=off)
-gpgpu_ptx_instruction_classification                    0 # if enabled will classify ptx instruction types per kernel (Max 255 kernels now)
-gpgpu_ptx_sim_mode                     0 # Select between Performance (default) or Functional simulation (1)
-gpgpu_clock_domains 700.0:700.0:700.0:924.0 # Clock Domain Frequencies in MhZ {<Core Clock>:<ICNT Clock>:<L2 Clock>:<DRAM Clock>}
-gpgpu_max_concurrent_kernel                    8 # maximum kernels that can run concurrently on GPU
-gpgpu_cflog_interval                    0 # Interval between each snapshot in control flow logger
-visualizer_enabled                     0 # Turn on visualizer output (1=On, 0=Off)
-visualizer_outputfile                 NULL # Specifies the output log file for visualizer
-visualizer_zlevel                      6 # Compression level of the visualizer output log (0=no comp, 9=highest)
-trace_enabled                          0 # Turn on traces
-trace_components                    none # comma seperated list of traces to enable. Complete list found in trace_streams.tup. Default none
-trace_sampling_core                    0 # The core which is printed using CORE_DPRINTF. Default 0
-trace_sampling_memory_partition                   -1 # The memory partition which is printed using MEMPART_DPRINTF. Default -1 (i.e. all)
-enable_ptx_file_line_stats                    1 # Turn on PTX source line statistic profiling. (1 = On)
-ptx_line_stats_filename gpgpu_inst_stats.txt # Output file for PTX source line statistics.
-save_embedded_ptx                      0 # saves ptx files embedded in binary as <n>.ptx
-keep                                   0 # keep intermediate files created by GPGPU-Sim when interfacing with external programs
-gpgpu_ptx_save_converted_ptxplus                    0 # Saved converted ptxplus to a file
-ptx_opcode_latency_int         4,13,4,5,145 # Opcode latencies for integers <ADD,MAX,MUL,MAD,DIV>Default 1,1,19,25,145
-ptx_opcode_latency_fp          4,13,4,5,39 # Opcode latencies for single precision floating points <ADD,MAX,MUL,MAD,DIV>Default 1,1,1,1,30
-ptx_opcode_latency_dp         8,19,8,8,330 # Opcode latencies for double precision floating points <ADD,MAX,MUL,MAD,DIV>Default 8,8,8,8,335
-ptx_opcode_initiation_int            1,2,2,1,8 # Opcode initiation intervals for integers <ADD,MAX,MUL,MAD,DIV>Default 1,1,4,4,32
-ptx_opcode_initiation_fp            1,2,1,1,4 # Opcode initiation intervals for single precision floating points <ADD,MAX,MUL,MAD,DIV>Default 1,1,1,1,5
-ptx_opcode_initiation_dp         8,16,8,8,130 # Opcode initiation intervals for double precision floating points <ADD,MAX,MUL,MAD,DIV>Default 8,8,8,8,130
DRAM Timing Options:
nbk                                    16 # number of banks
CCD                                     2 # column to column delay
RRD                                     6 # minimal delay between activation of rows in different banks
RCD                                    12 # row to column delay
RAS                                    28 # time needed to activate row
RP                                     12 # time needed to precharge (deactivate) row
RC                                     40 # row cycle time
CDLR                                    5 # switching from write to read (changes tWTR)
WR                                     12 # last data-in to row precharge
CL                                     12 # CAS latency
WL                                      4 # Write latency
nbkgrp                                  4 # number of bank groups
CCDL                                    3 # column to column delay between accesses to different bank groups
RTPL                                    2 # read to precharge delay between accesses to different bank groups
Total number of memory sub partition = 12
addr_dec_mask[CHIP]  = 0000000000000000 	high:64 low:0
addr_dec_mask[BK]    = 000000000000e100 	high:16 low:8
addr_dec_mask[ROW]   = 000000000fff0000 	high:28 low:16
addr_dec_mask[COL]   = 0000000000001eff 	high:13 low:0
addr_dec_mask[BURST] = 000000000000003f 	high:6 low:0
sub_partition_id_mask = 0000000000000100
GPGPU-Sim uArch: clock freqs: 700000000.000000:700000000.000000:700000000.000000:924000000.000000
GPGPU-Sim uArch: clock periods: 0.00000000142857142857:0.00000000142857142857:0.00000000142857142857:0.00000000108225108225
*** Initializing Memory Statistics ***
GPGPU-Sim uArch: interconnect node map (shaderID+MemID to icntID)
GPGPU-Sim uArch: Memory nodes ID start from index: 15
GPGPU-Sim uArch:    0   1   2   3   4
GPGPU-Sim uArch:    5   6   7   8   9
GPGPU-Sim uArch:   10  11  12  13  14
GPGPU-Sim uArch:   15  16  17  18  19
GPGPU-Sim uArch:   20  21  22  23  24
GPGPU-Sim uArch:   25  26
GPGPU-Sim uArch: interconnect node reverse map (icntID to shaderID+MemID)
GPGPU-Sim uArch: Memory nodes start from ID: 15
GPGPU-Sim uArch:    0   1   2   3   4
GPGPU-Sim uArch:    5   6   7   8   9
GPGPU-Sim uArch:   10  11  12  13  14
GPGPU-Sim uArch:   15  16  17  18  19
GPGPU-Sim uArch:   20  21  22  23  24
GPGPU-Sim uArch:   25  26
e389dacb331e7fcddf4abf4a164344f1  /sciclone/data10/hwang07/adwait/applications/benchmarks/CUDA/BlackScholes/gpgpu_ptx_sim__BlackScholes
GPGPU-Sim uArch: performance model initialization complete.
GPGPU-Sim PTX: __cudaRegisterFatBinary, fat_cubin_handle = 1, filename=BlackScholes.cu
self exe links to: /sciclone/data10/hwang07/adwait/applications/benchmarks/CUDA/BlackScholes/gpgpu_ptx_sim__BlackScholes
Running md5sum using "md5sum /sciclone/data10/hwang07/adwait/applications/benchmarks/CUDA/BlackScholes/gpgpu_ptx_sim__BlackScholes "
Parsing file _cuobjdump_complete_output_E9xyhL
######### cuobjdump parser ########
## Adding new section ELF
Adding arch: sm_20
Adding identifier: BlackScholes.cu
## Adding new section PTX
Adding ptx filename: _cuobjdump_1.ptx
Adding arch: sm_20
Adding identifier: BlackScholes.cu
Done parsing!!!
GPGPU-Sim PTX: __cudaRegisterFunction _Z15BlackScholesGPUPfS_S_S_S_ffi : hostFun 0x0x405752, fat_cubin_handle = 1
GPGPU-Sim PTX: instruction assembly for function '_Z15BlackScholesGPUPfS_S_S_S_ffi'...   done.
GPGPU-Sim PTX: finding reconvergence points for '_Z15BlackScholesGPUPfS_S_S_S_ffi'...
GPGPU-Sim PTX: Finding dominators for '_Z15BlackScholesGPUPfS_S_S_S_ffi'...
GPGPU-Sim PTX: Finding immediate dominators for '_Z15BlackScholesGPUPfS_S_S_S_ffi'...
GPGPU-Sim PTX: Finding postdominators for '_Z15BlackScholesGPUPfS_S_S_S_ffi'...
GPGPU-Sim PTX: Finding immediate postdominators for '_Z15BlackScholesGPUPfS_S_S_S_ffi'...
GPGPU-Sim PTX: pre-decoding instructions for '_Z15BlackScholesGPUPfS_S_S_S_ffi'...
GPGPU-Sim PTX: reconvergence points for _Z15BlackScholesGPUPfS_S_S_S_ffi...
GPGPU-Sim PTX:  1 (potential) branch divergence @  PC=0x040 (_1.ptx:76) @%p1 bra $Lt_0_2818;
GPGPU-Sim PTX:    immediate post dominator      @  PC=0x3f8 (_1.ptx:200) exit;
GPGPU-Sim PTX:  2 (potential) branch divergence @  PC=0x3f0 (_1.ptx:197) @%p4 bra $Lt_0_3330;
GPGPU-Sim PTX:    immediate post dominator      @  PC=0x3f8 (_1.ptx:200) exit;
GPGPU-Sim PTX: ... end of reconvergence points for _Z15BlackScholesGPUPfS_S_S_S_ffi
GPGPU-Sim PTX: ... done pre-decoding instructions for '_Z15BlackScholesGPUPfS_S_S_S_ffi'.
GPGPU-Sim PTX: finished parsing EMBEDDED .ptx file _1.ptx
Adding _cuobjdump_1.ptx with cubin handle 1
GPGPU-Sim PTX: extracting embedded .ptx to temporary file "_ptx_jNp9jX"
Running: cat _ptx_jNp9jX | sed 's/.version 1.5/.version 1.4/' | sed 's/, texmode_independent//' | sed 's/\(\.extern \.const\[1\] .b8 \w\+\)\[\]/\1\[1\]/' | sed 's/const\[.\]/const\[0\]/g' > _ptx2_saNOma
GPGPU-Sim PTX: generating ptxinfo using "$CUDA_INSTALL_PATH/bin/ptxas --gpu-name=sm_20 -v _ptx2_saNOma --output-file  /dev/null 2> _ptx_jNp9jXinfo"
GPGPU-Sim PTX: Kernel '_Z15BlackScholesGPUPfS_S_S_S_ffi' : regs=31, lmem=0, smem=0, cmem=128
GPGPU-Sim PTX: removing ptxinfo using "rm -f _ptx_jNp9jX _ptx2_saNOma _ptx_jNp9jXinfo"
GPGPU-Sim PTX: loading globals with explicit initializers... 
GPGPU-Sim PTX: finished loading globals (0 bytes total).
GPGPU-Sim PTX: loading constants with explicit initializers...  done.
Initializing data...
...allocating CPU memory for options.
...allocating GPU memory for options.
...generating input data in CPU mem.
...copying input data to GPU mem.
Data init done.
Executing Black-Scholes GPU kernel (1 iterations)...
GPGPU-Sim: synchronize waiting for inactive GPU simulation
GPGPU-Sim API: Stream Manager State
GPGPU-Sim: detected inactive GPU simulation thread

GPGPU-Sim PTX: cudaLaunch for 0x0x405752 (mode=performance simulation) on stream 0
GPGPU-Sim PTX: pushing kernel '_Z15BlackScholesGPUPfS_S_S_S_ffi' to stream 0, gridDim= (480,1,1) blockDim = (128,1,1) 
kernel '_Z15BlackScholesGPUPfS_S_S_S_ffi' transfer to GPU hardware scheduler
GPGPU-Sim uArch: Shader 1 bind to kernel 1 '_Z15BlackScholesGPUPfS_S_S_S_ffi'
GPGPU-Sim uArch: CTA/core = 8, limited by: regs cta_limit
GPGPU-Sim uArch: core:  1, cta: 0 initialized @(1,0)
GPGPU-Sim uArch: Shader 2 bind to kernel 1 '_Z15BlackScholesGPUPfS_S_S_S_ffi'
GPGPU-Sim uArch: core:  2, cta: 0 initialized @(1,0)
GPGPU-Sim uArch: Shader 3 bind to kernel 1 '_Z15BlackScholesGPUPfS_S_S_S_ffi'
GPGPU-Sim uArch: core:  3, cta: 0 initialized @(1,0)
GPGPU-Sim uArch: Shader 4 bind to kernel 1 '_Z15BlackScholesGPUPfS_S_S_S_ffi'
GPGPU-Sim uArch: core:  4, cta: 0 initialized @(1,0)
GPGPU-Sim uArch: Shader 5 bind to kernel 1 '_Z15BlackScholesGPUPfS_S_S_S_ffi'
GPGPU-Sim uArch: core:  5, cta: 0 initialized @(1,0)
GPGPU-Sim uArch: Shader 6 bind to kernel 1 '_Z15BlackScholesGPUPfS_S_S_S_ffi'
GPGPU-Sim uArch: core:  6, cta: 0 initialized @(1,0)
GPGPU-Sim uArch: Shader 7 bind to kernel 1 '_Z15BlackScholesGPUPfS_S_S_S_ffi'
GPGPU-Sim uArch: core:  7, cta: 0 initialized @(1,0)
GPGPU-Sim uArch: Shader 8 bind to kernel 1 '_Z15BlackScholesGPUPfS_S_S_S_ffi'
GPGPU-Sim uArch: core:  8, cta: 0 initialized @(1,0)
GPGPU-Sim uArch: Shader 9 bind to kernel 1 '_Z15BlackScholesGPUPfS_S_S_S_ffi'
GPGPU-Sim uArch: core:  9, cta: 0 initialized @(1,0)
GPGPU-Sim uArch: Shader 10 bind to kernel 1 '_Z15BlackScholesGPUPfS_S_S_S_ffi'
GPGPU-Sim uArch: core: 10, cta: 0 initialized @(1,0)
GPGPU-Sim uArch: Shader 11 bind to kernel 1 '_Z15BlackScholesGPUPfS_S_S_S_ffi'
GPGPU-Sim uArch: core: 11, cta: 0 initialized @(1,0)
GPGPU-Sim uArch: Shader 12 bind to kernel 1 '_Z15BlackScholesGPUPfS_S_S_S_ffi'
GPGPU-Sim uArch: core: 12, cta: 0 initialized @(1,0)
GPGPU-Sim uArch: Shader 13 bind to kernel 1 '_Z15BlackScholesGPUPfS_S_S_S_ffi'
GPGPU-Sim uArch: core: 13, cta: 0 initialized @(1,0)
GPGPU-Sim uArch: Shader 14 bind to kernel 1 '_Z15BlackScholesGPUPfS_S_S_S_ffi'
GPGPU-Sim uArch: core: 14, cta: 0 initialized @(1,0)
GPGPU-Sim uArch: Shader 0 bind to kernel 1 '_Z15BlackScholesGPUPfS_S_S_S_ffi'
GPGPU-Sim uArch: core:  0, cta: 0 initialized @(1,0)
GPGPU-Sim uArch: core:  1, cta: 1 initialized @(2,0)
GPGPU-Sim uArch: core:  2, cta: 1 initialized @(2,0)
GPGPU-Sim uArch: core:  3, cta: 1 initialized @(2,0)
GPGPU-Sim uArch: core:  4, cta: 1 initialized @(2,0)
GPGPU-Sim uArch: core:  5, cta: 1 initialized @(2,0)
GPGPU-Sim uArch: core:  6, cta: 1 initialized @(2,0)
GPGPU-Sim uArch: core:  7, cta: 1 initialized @(2,0)
GPGPU-Sim uArch: core:  8, cta: 1 initialized @(2,0)
GPGPU-Sim uArch: core:  9, cta: 1 initialized @(2,0)
GPGPU-Sim uArch: core: 10, cta: 1 initialized @(2,0)
GPGPU-Sim uArch: core: 11, cta: 1 initialized @(2,0)
GPGPU-Sim uArch: core: 12, cta: 1 initialized @(2,0)
GPGPU-Sim uArch: core: 13, cta: 1 initialized @(2,0)
GPGPU-Sim uArch: core: 14, cta: 1 initialized @(2,0)
GPGPU-Sim uArch: core:  0, cta: 1 initialized @(2,0)
GPGPU-Sim uArch: core:  1, cta: 2 initialized @(3,0)
GPGPU-Sim uArch: core:  2, cta: 2 initialized @(3,0)
GPGPU-Sim uArch: core:  3, cta: 2 initialized @(3,0)
GPGPU-Sim uArch: core:  4, cta: 2 initialized @(3,0)
GPGPU-Sim uArch: core:  5, cta: 2 initialized @(3,0)
GPGPU-Sim uArch: core:  6, cta: 2 initialized @(3,0)
GPGPU-Sim uArch: core:  7, cta: 2 initialized @(3,0)
GPGPU-Sim uArch: core:  8, cta: 2 initialized @(3,0)
GPGPU-Sim uArch: core:  9, cta: 2 initialized @(3,0)
GPGPU-Sim uArch: core: 10, cta: 2 initialized @(3,0)
GPGPU-Sim uArch: core: 11, cta: 2 initialized @(3,0)
GPGPU-Sim uArch: core: 12, cta: 2 initialized @(3,0)
GPGPU-Sim uArch: core: 13, cta: 2 initialized @(3,0)
GPGPU-Sim uArch: core: 14, cta: 2 initialized @(3,0)
GPGPU-Sim uArch: core:  0, cta: 2 initialized @(3,0)
GPGPU-Sim uArch: core:  1, cta: 3 initialized @(4,0)
GPGPU-Sim uArch: core:  2, cta: 3 initialized @(4,0)
GPGPU-Sim uArch: core:  3, cta: 3 initialized @(4,0)
GPGPU-Sim uArch: core:  4, cta: 3 initialized @(4,0)
GPGPU-Sim uArch: core:  5, cta: 3 initialized @(4,0)
GPGPU-Sim uArch: core:  6, cta: 3 initialized @(4,0)
GPGPU-Sim uArch: core:  7, cta: 3 initialized @(4,0)
GPGPU-Sim uArch: core:  8, cta: 3 initialized @(4,0)
GPGPU-Sim uArch: core:  9, cta: 3 initialized @(4,0)
GPGPU-Sim uArch: core: 10, cta: 3 initialized @(4,0)
GPGPU-Sim uArch: core: 11, cta: 3 initialized @(4,0)
GPGPU-Sim uArch: core: 12, cta: 3 initialized @(4,0)
GPGPU-Sim uArch: core: 13, cta: 3 initialized @(4,0)
GPGPU-Sim uArch: core: 14, cta: 3 initialized @(4,0)
GPGPU-Sim uArch: core:  0, cta: 3 initialized @(4,0)
GPGPU-Sim uArch: core:  1, cta: 4 initialized @(5,0)
GPGPU-Sim uArch: core:  2, cta: 4 initialized @(5,0)
GPGPU-Sim uArch: core:  3, cta: 4 initialized @(5,0)
GPGPU-Sim uArch: core:  4, cta: 4 initialized @(5,0)
GPGPU-Sim uArch: core:  5, cta: 4 initialized @(5,0)
GPGPU-Sim uArch: core:  6, cta: 4 initialized @(5,0)
GPGPU-Sim uArch: core:  7, cta: 4 initialized @(5,0)
GPGPU-Sim uArch: core:  8, cta: 4 initialized @(5,0)
GPGPU-Sim uArch: core:  9, cta: 4 initialized @(5,0)
GPGPU-Sim uArch: core: 10, cta: 4 initialized @(5,0)
GPGPU-Sim uArch: core: 11, cta: 4 initialized @(5,0)
GPGPU-Sim uArch: core: 12, cta: 4 initialized @(5,0)
GPGPU-Sim uArch: core: 13, cta: 4 initialized @(5,0)
GPGPU-Sim uArch: core: 14, cta: 4 initialized @(5,0)
GPGPU-Sim uArch: core:  0, cta: 4 initialized @(5,0)
GPGPU-Sim uArch: core:  1, cta: 5 initialized @(6,0)
GPGPU-Sim uArch: core:  2, cta: 5 initialized @(6,0)
GPGPU-Sim uArch: core:  3, cta: 5 initialized @(6,0)
GPGPU-Sim uArch: core:  4, cta: 5 initialized @(6,0)
GPGPU-Sim uArch: core:  5, cta: 5 initialized @(6,0)
GPGPU-Sim uArch: core:  6, cta: 5 initialized @(6,0)
GPGPU-Sim uArch: core:  7, cta: 5 initialized @(6,0)
GPGPU-Sim uArch: core:  8, cta: 5 initialized @(6,0)
GPGPU-Sim uArch: core:  9, cta: 5 initialized @(6,0)
GPGPU-Sim uArch: core: 10, cta: 5 initialized @(6,0)
GPGPU-Sim uArch: core: 11, cta: 5 initialized @(6,0)
GPGPU-Sim uArch: core: 12, cta: 5 initialized @(6,0)
GPGPU-Sim uArch: core: 13, cta: 5 initialized @(6,0)
GPGPU-Sim uArch: core: 14, cta: 5 initialized @(6,0)
GPGPU-Sim uArch: core:  0, cta: 5 initialized @(6,0)
GPGPU-Sim uArch: core:  1, cta: 6 initialized @(7,0)
GPGPU-Sim uArch: core:  2, cta: 6 initialized @(7,0)
GPGPU-Sim uArch: core:  3, cta: 6 initialized @(7,0)
GPGPU-Sim uArch: core:  4, cta: 6 initialized @(7,0)
GPGPU-Sim uArch: core:  5, cta: 6 initialized @(7,0)
GPGPU-Sim uArch: core:  6, cta: 6 initialized @(7,0)
GPGPU-Sim uArch: core:  7, cta: 6 initialized @(7,0)
GPGPU-Sim uArch: core:  8, cta: 6 initialized @(7,0)
GPGPU-Sim uArch: core:  9, cta: 6 initialized @(7,0)
GPGPU-Sim uArch: core: 10, cta: 6 initialized @(7,0)
GPGPU-Sim uArch: core: 11, cta: 6 initialized @(7,0)
GPGPU-Sim uArch: core: 12, cta: 6 initialized @(7,0)
GPGPU-Sim uArch: core: 13, cta: 6 initialized @(7,0)
GPGPU-Sim uArch: core: 14, cta: 6 initialized @(7,0)
GPGPU-Sim uArch: core:  0, cta: 6 initialized @(7,0)
GPGPU-Sim uArch: core:  1, cta: 7 initialized @(8,0)
GPGPU-Sim uArch: core:  2, cta: 7 initialized @(8,0)
GPGPU-Sim uArch: core:  3, cta: 7 initialized @(8,0)
GPGPU-Sim uArch: core:  4, cta: 7 initialized @(8,0)
GPGPU-Sim uArch: core:  5, cta: 7 initialized @(8,0)
GPGPU-Sim uArch: core:  6, cta: 7 initialized @(8,0)
GPGPU-Sim uArch: core:  7, cta: 7 initialized @(8,0)
GPGPU-Sim uArch: core:  8, cta: 7 initialized @(8,0)
GPGPU-Sim uArch: core:  9, cta: 7 initialized @(8,0)
GPGPU-Sim uArch: core: 10, cta: 7 initialized @(8,0)
GPGPU-Sim uArch: core: 11, cta: 7 initialized @(8,0)
GPGPU-Sim uArch: core: 12, cta: 7 initialized @(8,0)
GPGPU-Sim uArch: core: 13, cta: 7 initialized @(8,0)
GPGPU-Sim uArch: core: 14, cta: 7 initialized @(8,0)
GPGPU-Sim uArch: core:  0, cta: 7 initialized @(8,0)
GPGPU-Sim uArch: cycles simulated: 500  inst.: 5760 (ipc=11.5) sim_rate=2880 (inst/sec) elapsed = 0:0:00:02 / Tue Mar 22 06:59:43 2016
GPGPU-Sim uArch: cycles simulated: 1500  inst.: 29920 (ipc=19.9) sim_rate=9973 (inst/sec) elapsed = 0:0:00:03 / Tue Mar 22 06:59:44 2016
GPGPU-Sim PTX: 100000 instructions simulated : ctaid=(10,0,0) tid=(63,0,0)
GPGPU-Sim PTX: 200000 instructions simulated : ctaid=(10,0,0) tid=(63,0,0)
GPGPU-Sim uArch: cycles simulated: 5000  inst.: 293792 (ipc=58.8) sim_rate=73448 (inst/sec) elapsed = 0:0:00:04 / Tue Mar 22 06:59:45 2016
GPGPU-Sim PTX: 300000 instructions simulated : ctaid=(6,0,0) tid=(31,0,0)
GPGPU-Sim PTX: 400000 instructions simulated : ctaid=(0,0,0) tid=(63,0,0)
GPGPU-Sim PTX: 500000 instructions simulated : ctaid=(6,0,0) tid=(31,0,0)
GPGPU-Sim PTX: 600000 instructions simulated : ctaid=(9,0,0) tid=(63,0,0)
GPGPU-Sim uArch: cycles simulated: 8000  inst.: 644480 (ipc=80.6) sim_rate=128896 (inst/sec) elapsed = 0:0:00:05 / Tue Mar 22 06:59:46 2016
GPGPU-Sim PTX: 700000 instructions simulated : ctaid=(3,0,0) tid=(31,0,0)
GPGPU-Sim PTX: 800000 instructions simulated : ctaid=(9,0,0) tid=(31,0,0)
GPGPU-Sim PTX: 900000 instructions simulated : ctaid=(8,0,0) tid=(31,0,0)
GPGPU-Sim PTX: 1000000 instructions simulated : ctaid=(1,0,0) tid=(63,0,0)
GPGPU-Sim uArch: cycles simulated: 11000  inst.: 1013632 (ipc=92.1) sim_rate=168938 (inst/sec) elapsed = 0:0:00:06 / Tue Mar 22 06:59:47 2016
GPGPU-Sim PTX: 1100000 instructions simulated : ctaid=(13,0,0) tid=(63,0,0)
GPGPU-Sim PTX: 1200000 instructions simulated : ctaid=(6,0,0) tid=(31,0,0)
GPGPU-Sim PTX: 1300000 instructions simulated : ctaid=(5,0,0) tid=(31,0,0)
GPGPU-Sim uArch: cycles simulated: 13500  inst.: 1324896 (ipc=98.1) sim_rate=189270 (inst/sec) elapsed = 0:0:00:07 / Tue Mar 22 06:59:48 2016
GPGPU-Sim PTX: 1400000 instructions simulated : ctaid=(14,0,0) tid=(31,0,0)
GPGPU-Sim PTX: 1500000 instructions simulated : ctaid=(1,0,0) tid=(31,0,0)
GPGPU-Sim PTX: 1600000 instructions simulated : ctaid=(3,0,0) tid=(31,0,0)
GPGPU-Sim uArch: cycles simulated: 16500  inst.: 1693184 (ipc=102.6) sim_rate=211648 (inst/sec) elapsed = 0:0:00:08 / Tue Mar 22 06:59:49 2016
GPGPU-Sim PTX: 1700000 instructions simulated : ctaid=(6,0,0) tid=(31,0,0)
GPGPU-Sim PTX: 1800000 instructions simulated : ctaid=(13,0,0) tid=(31,0,0)
GPGPU-Sim PTX: 1900000 instructions simulated : ctaid=(12,0,0) tid=(31,0,0)
GPGPU-Sim PTX: 2000000 instructions simulated : ctaid=(4,0,0) tid=(31,0,0)
GPGPU-Sim uArch: cycles simulated: 19500  inst.: 2059840 (ipc=105.6) sim_rate=228871 (inst/sec) elapsed = 0:0:00:09 / Tue Mar 22 06:59:50 2016
GPGPU-Sim PTX: 2100000 instructions simulated : ctaid=(0,0,0) tid=(63,0,0)
GPGPU-Sim PTX: 2200000 instructions simulated : ctaid=(9,0,0) tid=(31,0,0)
GPGPU-Sim PTX: 2300000 instructions simulated : ctaid=(5,0,0) tid=(63,0,0)
GPGPU-Sim PTX: 2400000 instructions simulated : ctaid=(11,0,0) tid=(31,0,0)
GPGPU-Sim uArch: cycles simulated: 22500  inst.: 2427584 (ipc=107.9) sim_rate=242758 (inst/sec) elapsed = 0:0:00:10 / Tue Mar 22 06:59:51 2016
GPGPU-Sim PTX: 2500000 instructions simulated : ctaid=(5,0,0) tid=(31,0,0)
GPGPU-Sim PTX: 2600000 instructions simulated : ctaid=(10,0,0) tid=(31,0,0)
GPGPU-Sim PTX: 2700000 instructions simulated : ctaid=(1,0,0) tid=(31,0,0)
GPGPU-Sim uArch: cycles simulated: 25500  inst.: 2795744 (ipc=109.6) sim_rate=254158 (inst/sec) elapsed = 0:0:00:11 / Tue Mar 22 06:59:52 2016
GPGPU-Sim PTX: 2800000 instructions simulated : ctaid=(5,0,0) tid=(63,0,0)
GPGPU-Sim PTX: 2900000 instructions simulated : ctaid=(7,0,0) tid=(31,0,0)
GPGPU-Sim PTX: 3000000 instructions simulated : ctaid=(0,0,0) tid=(63,0,0)
GPGPU-Sim PTX: 3100000 instructions simulated : ctaid=(14,0,0) tid=(127,0,0)
GPGPU-Sim uArch: cycles simulated: 28000  inst.: 3114656 (ipc=111.2) sim_rate=259554 (inst/sec) elapsed = 0:0:00:12 / Tue Mar 22 06:59:53 2016
GPGPU-Sim PTX: 3200000 instructions simulated : ctaid=(12,0,0) tid=(95,0,0)
GPGPU-Sim PTX: 3300000 instructions simulated : ctaid=(6,0,0) tid=(127,0,0)
GPGPU-Sim PTX: 3400000 instructions simulated : ctaid=(7,0,0) tid=(127,0,0)
GPGPU-Sim uArch: cycles simulated: 31000  inst.: 3486720 (ipc=112.5) sim_rate=268209 (inst/sec) elapsed = 0:0:00:13 / Tue Mar 22 06:59:54 2016
GPGPU-Sim PTX: 3500000 instructions simulated : ctaid=(6,0,0) tid=(95,0,0)
GPGPU-Sim PTX: 3600000 instructions simulated : ctaid=(0,0,0) tid=(95,0,0)
GPGPU-Sim PTX: 3700000 instructions simulated : ctaid=(4,0,0) tid=(127,0,0)
GPGPU-Sim PTX: 3800000 instructions simulated : ctaid=(12,0,0) tid=(95,0,0)
GPGPU-Sim uArch: cycles simulated: 33500  inst.: 3796960 (ipc=113.3) sim_rate=271211 (inst/sec) elapsed = 0:0:00:14 / Tue Mar 22 06:59:55 2016
GPGPU-Sim PTX: 3900000 instructions simulated : ctaid=(6,0,0) tid=(127,0,0)
GPGPU-Sim PTX: 4000000 instructions simulated : ctaid=(14,0,0) tid=(127,0,0)
GPGPU-Sim PTX: 4100000 instructions simulated : ctaid=(5,0,0) tid=(95,0,0)
GPGPU-Sim uArch: cycles simulated: 36500  inst.: 4165216 (ipc=114.1) sim_rate=277681 (inst/sec) elapsed = 0:0:00:15 / Tue Mar 22 06:59:56 2016
GPGPU-Sim PTX: 4200000 instructions simulated : ctaid=(13,0,0) tid=(127,0,0)
GPGPU-Sim PTX: 4300000 instructions simulated : ctaid=(8,0,0) tid=(95,0,0)
GPGPU-Sim PTX: 4400000 instructions simulated : ctaid=(8,0,0) tid=(95,0,0)
GPGPU-Sim PTX: 4500000 instructions simulated : ctaid=(13,0,0) tid=(127,0,0)
GPGPU-Sim uArch: cycles simulated: 39500  inst.: 4532928 (ipc=114.8) sim_rate=283308 (inst/sec) elapsed = 0:0:00:16 / Tue Mar 22 06:59:57 2016
GPGPU-Sim PTX: 4600000 instructions simulated : ctaid=(0,0,0) tid=(127,0,0)
GPGPU-Sim PTX: 4700000 instructions simulated : ctaid=(13,0,0) tid=(95,0,0)
GPGPU-Sim PTX: 4800000 instructions simulated : ctaid=(3,0,0) tid=(95,0,0)
GPGPU-Sim uArch: cycles simulated: 42000  inst.: 4839552 (ipc=115.2) sim_rate=284679 (inst/sec) elapsed = 0:0:00:17 / Tue Mar 22 06:59:58 2016
GPGPU-Sim PTX: 4900000 instructions simulated : ctaid=(9,0,0) tid=(95,0,0)
GPGPU-Sim PTX: 5000000 instructions simulated : ctaid=(6,0,0) tid=(127,0,0)
GPGPU-Sim PTX: 5100000 instructions simulated : ctaid=(12,0,0) tid=(95,0,0)
GPGPU-Sim uArch: cycles simulated: 44500  inst.: 5139488 (ipc=115.5) sim_rate=285527 (inst/sec) elapsed = 0:0:00:18 / Tue Mar 22 06:59:59 2016
GPGPU-Sim PTX: 5200000 instructions simulated : ctaid=(5,0,0) tid=(127,0,0)
GPGPU-Sim PTX: 5300000 instructions simulated : ctaid=(2,0,0) tid=(95,0,0)
GPGPU-Sim PTX: 5400000 instructions simulated : ctaid=(5,0,0) tid=(95,0,0)
GPGPU-Sim uArch: cycles simulated: 47000  inst.: 5445504 (ipc=115.9) sim_rate=286605 (inst/sec) elapsed = 0:0:00:19 / Tue Mar 22 07:00:00 2016
GPGPU-Sim PTX: 5500000 instructions simulated : ctaid=(14,0,0) tid=(127,0,0)
GPGPU-Sim PTX: 5600000 instructions simulated : ctaid=(11,0,0) tid=(95,0,0)
GPGPU-Sim PTX: 5700000 instructions simulated : ctaid=(14,0,0) tid=(127,0,0)
GPGPU-Sim uArch: cycles simulated: 49500  inst.: 5755264 (ipc=116.3) sim_rate=287763 (inst/sec) elapsed = 0:0:00:20 / Tue Mar 22 07:00:01 2016
GPGPU-Sim PTX: 5800000 instructions simulated : ctaid=(1,0,0) tid=(95,0,0)
GPGPU-Sim PTX: 5900000 instructions simulated : ctaid=(9,0,0) tid=(127,0,0)
GPGPU-Sim PTX: 6000000 instructions simulated : ctaid=(3,0,0) tid=(95,0,0)
GPGPU-Sim PTX: 6100000 instructions simulated : ctaid=(7,0,0) tid=(95,0,0)
GPGPU-Sim uArch: cycles simulated: 52500  inst.: 6122112 (ipc=116.6) sim_rate=291529 (inst/sec) elapsed = 0:0:00:21 / Tue Mar 22 07:00:02 2016
GPGPU-Sim uArch: Shader 5 finished CTA #0 (52930,0), 7 CTAs running
GPGPU-Sim uArch: core:  5, cta: 0 initialized @(52931,0)
GPGPU-Sim uArch: Shader 1 finished CTA #0 (52973,0), 7 CTAs running
GPGPU-Sim uArch: core:  1, cta: 0 initialized @(52974,0)
GPGPU-Sim PTX: 6200000 instructions simulated : ctaid=(12,0,0) tid=(95,0,0)
GPGPU-Sim uArch: Shader 4 finished CTA #0 (53000,0), 7 CTAs running
GPGPU-Sim uArch: core:  4, cta: 0 initialized @(53001,0)
GPGPU-Sim uArch: Shader 3 finished CTA #0 (53103,0), 7 CTAs running
GPGPU-Sim uArch: core:  3, cta: 0 initialized @(53104,0)
GPGPU-Sim uArch: Shader 12 finished CTA #0 (53138,0), 7 CTAs running
GPGPU-Sim uArch: core: 12, cta: 0 initialized @(53139,0)
GPGPU-Sim uArch: Shader 0 finished CTA #0 (53165,0), 7 CTAs running
GPGPU-Sim uArch: core:  0, cta: 0 initialized @(53166,0)
GPGPU-Sim uArch: Shader 6 finished CTA #0 (53169,0), 7 CTAs running
GPGPU-Sim uArch: core:  6, cta: 0 initialized @(53170,0)
GPGPU-Sim uArch: Shader 9 finished CTA #0 (53218,0), 7 CTAs running
GPGPU-Sim uArch: core:  9, cta: 0 initialized @(53219,0)
GPGPU-Sim uArch: Shader 2 finished CTA #0 (53433,0), 7 CTAs running
GPGPU-Sim uArch: core:  2, cta: 0 initialized @(53434,0)
GPGPU-Sim uArch: Shader 11 finished CTA #0 (53469,0), 7 CTAs running
GPGPU-Sim uArch: core: 11, cta: 0 initialized @(53470,0)
GPGPU-Sim uArch: Shader 14 finished CTA #0 (53495,0), 7 CTAs running
GPGPU-Sim uArch: core: 14, cta: 0 initialized @(53496,0)
GPGPU-Sim uArch: Shader 10 finished CTA #0 (53501,0), 7 CTAs running
GPGPU-Sim uArch: core: 10, cta: 0 initialized @(53502,0)
GPGPU-Sim uArch: Shader 8 finished CTA #0 (53539,0), 7 CTAs running
GPGPU-Sim uArch: core:  8, cta: 0 initialized @(53540,0)
GPGPU-Sim uArch: Shader 7 finished CTA #0 (53636,0), 7 CTAs running
GPGPU-Sim uArch: core:  7, cta: 0 initialized @(53637,0)
GPGPU-Sim uArch: Shader 13 finished CTA #0 (53759,0), 7 CTAs running
GPGPU-Sim uArch: core: 13, cta: 0 initialized @(53760,0)
GPGPU-Sim PTX: 6300000 instructions simulated : ctaid=(28,0,0) tid=(31,0,0)
GPGPU-Sim PTX: 6400000 instructions simulated : ctaid=(16,0,0) tid=(63,0,0)
GPGPU-Sim uArch: cycles simulated: 55000  inst.: 6448320 (ipc=117.2) sim_rate=293105 (inst/sec) elapsed = 0:0:00:22 / Tue Mar 22 07:00:03 2016
GPGPU-Sim PTX: 6500000 instructions simulated : ctaid=(21,0,0) tid=(63,0,0)
GPGPU-Sim PTX: 6600000 instructions simulated : ctaid=(21,0,0) tid=(31,0,0)
GPGPU-Sim PTX: 6700000 instructions simulated : ctaid=(24,0,0) tid=(31,0,0)
GPGPU-Sim uArch: cycles simulated: 57500  inst.: 6750688 (ipc=117.4) sim_rate=293508 (inst/sec) elapsed = 0:0:00:23 / Tue Mar 22 07:00:04 2016
GPGPU-Sim PTX: 6800000 instructions simulated : ctaid=(22,0,0) tid=(31,0,0)
GPGPU-Sim PTX: 6900000 instructions simulated : ctaid=(19,0,0) tid=(63,0,0)
GPGPU-Sim PTX: 7000000 instructions simulated : ctaid=(19,0,0) tid=(31,0,0)
GPGPU-Sim uArch: cycles simulated: 60000  inst.: 7051488 (ipc=117.5) sim_rate=293812 (inst/sec) elapsed = 0:0:00:24 / Tue Mar 22 07:00:05 2016
GPGPU-Sim PTX: 7100000 instructions simulated : ctaid=(29,0,0) tid=(63,0,0)
GPGPU-Sim PTX: 7200000 instructions simulated : ctaid=(19,0,0) tid=(31,0,0)
GPGPU-Sim PTX: 7300000 instructions simulated : ctaid=(17,0,0) tid=(63,0,0)
GPGPU-Sim uArch: cycles simulated: 62500  inst.: 7366176 (ipc=117.9) sim_rate=294647 (inst/sec) elapsed = 0:0:00:25 / Tue Mar 22 07:00:06 2016
GPGPU-Sim PTX: 7400000 instructions simulated : ctaid=(17,0,0) tid=(63,0,0)
GPGPU-Sim PTX: 7500000 instructions simulated : ctaid=(23,0,0) tid=(63,0,0)
GPGPU-Sim PTX: 7600000 instructions simulated : ctaid=(28,0,0) tid=(31,0,0)
GPGPU-Sim uArch: cycles simulated: 65000  inst.: 7674144 (ipc=118.1) sim_rate=295159 (inst/sec) elapsed = 0:0:00:26 / Tue Mar 22 07:00:07 2016
GPGPU-Sim PTX: 7700000 instructions simulated : ctaid=(21,0,0) tid=(31,0,0)
GPGPU-Sim PTX: 7800000 instructions simulated : ctaid=(24,0,0) tid=(63,0,0)
GPGPU-Sim PTX: 7900000 instructions simulated : ctaid=(21,0,0) tid=(63,0,0)
GPGPU-Sim uArch: cycles simulated: 67500  inst.: 7971296 (ipc=118.1) sim_rate=295233 (inst/sec) elapsed = 0:0:00:27 / Tue Mar 22 07:00:08 2016
GPGPU-Sim PTX: 8000000 instructions simulated : ctaid=(21,0,0) tid=(31,0,0)
GPGPU-Sim PTX: 8100000 instructions simulated : ctaid=(27,0,0) tid=(63,0,0)
GPGPU-Sim PTX: 8200000 instructions simulated : ctaid=(15,0,0) tid=(63,0,0)
GPGPU-Sim uArch: cycles simulated: 70000  inst.: 8278432 (ipc=118.3) sim_rate=295658 (inst/sec) elapsed = 0:0:00:28 / Tue Mar 22 07:00:09 2016
GPGPU-Sim PTX: 8300000 instructions simulated : ctaid=(24,0,0) tid=(31,0,0)
GPGPU-Sim PTX: 8400000 instructions simulated : ctaid=(26,0,0) tid=(31,0,0)
GPGPU-Sim PTX: 8500000 instructions simulated : ctaid=(29,0,0) tid=(63,0,0)
GPGPU-Sim uArch: cycles simulated: 72500  inst.: 8591072 (ipc=118.5) sim_rate=296243 (inst/sec) elapsed = 0:0:00:29 / Tue Mar 22 07:00:10 2016
GPGPU-Sim PTX: 8600000 instructions simulated : ctaid=(19,0,0) tid=(31,0,0)
GPGPU-Sim PTX: 8700000 instructions simulated : ctaid=(23,0,0) tid=(31,0,0)
GPGPU-Sim PTX: 8800000 instructions simulated : ctaid=(26,0,0) tid=(63,0,0)
GPGPU-Sim PTX: 8900000 instructions simulated : ctaid=(20,0,0) tid=(63,0,0)
GPGPU-Sim uArch: cycles simulated: 75500  inst.: 8957504 (ipc=118.6) sim_rate=298583 (inst/sec) elapsed = 0:0:00:30 / Tue Mar 22 07:00:11 2016
GPGPU-Sim PTX: 9000000 instructions simulated : ctaid=(28,0,0) tid=(63,0,0)
GPGPU-Sim PTX: 9100000 instructions simulated : ctaid=(18,0,0) tid=(63,0,0)
GPGPU-Sim PTX: 9200000 instructions simulated : ctaid=(25,0,0) tid=(63,0,0)
GPGPU-Sim uArch: cycles simulated: 78000  inst.: 9266464 (ipc=118.8) sim_rate=298918 (inst/sec) elapsed = 0:0:00:31 / Tue Mar 22 07:00:12 2016
GPGPU-Sim PTX: 9300000 instructions simulated : ctaid=(16,0,0) tid=(63,0,0)
GPGPU-Sim PTX: 9400000 instructions simulated : ctaid=(27,0,0) tid=(95,0,0)
GPGPU-Sim PTX: 9500000 instructions simulated : ctaid=(18,0,0) tid=(127,0,0)
GPGPU-Sim uArch: cycles simulated: 80500  inst.: 9576736 (ipc=119.0) sim_rate=299273 (inst/sec) elapsed = 0:0:00:32 / Tue Mar 22 07:00:13 2016
GPGPU-Sim PTX: 9600000 instructions simulated : ctaid=(25,0,0) tid=(127,0,0)
GPGPU-Sim PTX: 9700000 instructions simulated : ctaid=(25,0,0) tid=(127,0,0)
GPGPU-Sim PTX: 9800000 instructions simulated : ctaid=(17,0,0) tid=(95,0,0)
GPGPU-Sim uArch: cycles simulated: 83000  inst.: 9882496 (ipc=119.1) sim_rate=299469 (inst/sec) elapsed = 0:0:00:33 / Tue Mar 22 07:00:14 2016
GPGPU-Sim PTX: 9900000 instructions simulated : ctaid=(15,0,0) tid=(95,0,0)
GPGPU-Sim PTX: 10000000 instructions simulated : ctaid=(28,0,0) tid=(127,0,0)
GPGPU-Sim PTX: 10100000 instructions simulated : ctaid=(15,0,0) tid=(95,0,0)
GPGPU-Sim PTX: 10200000 instructions simulated : ctaid=(18,0,0) tid=(127,0,0)
GPGPU-Sim uArch: cycles simulated: 85500  inst.: 10195616 (ipc=119.2) sim_rate=299871 (inst/sec) elapsed = 0:0:00:34 / Tue Mar 22 07:00:15 2016
GPGPU-Sim PTX: 10300000 instructions simulated : ctaid=(20,0,0) tid=(95,0,0)
GPGPU-Sim PTX: 10400000 instructions simulated : ctaid=(20,0,0) tid=(95,0,0)
GPGPU-Sim PTX: 10500000 instructions simulated : ctaid=(20,0,0) tid=(95,0,0)
GPGPU-Sim uArch: cycles simulated: 88000  inst.: 10500256 (ipc=119.3) sim_rate=300007 (inst/sec) elapsed = 0:0:00:35 / Tue Mar 22 07:00:16 2016
GPGPU-Sim PTX: 10600000 instructions simulated : ctaid=(22,0,0) tid=(95,0,0)
GPGPU-Sim PTX: 10700000 instructions simulated : ctaid=(22,0,0) tid=(95,0,0)
GPGPU-Sim PTX: 10800000 instructions simulated : ctaid=(19,0,0) tid=(127,0,0)
GPGPU-Sim uArch: cycles simulated: 90500  inst.: 10801504 (ipc=119.4) sim_rate=300041 (inst/sec) elapsed = 0:0:00:36 / Tue Mar 22 07:00:17 2016
GPGPU-Sim PTX: 10900000 instructions simulated : ctaid=(24,0,0) tid=(127,0,0)
GPGPU-Sim PTX: 11000000 instructions simulated : ctaid=(28,0,0) tid=(95,0,0)
GPGPU-Sim PTX: 11100000 instructions simulated : ctaid=(18,0,0) tid=(95,0,0)
GPGPU-Sim uArch: cycles simulated: 93500  inst.: 11168384 (ipc=119.4) sim_rate=301848 (inst/sec) elapsed = 0:0:00:37 / Tue Mar 22 07:00:18 2016
GPGPU-Sim PTX: 11200000 instructions simulated : ctaid=(24,0,0) tid=(95,0,0)
GPGPU-Sim PTX: 11300000 instructions simulated : ctaid=(15,0,0) tid=(127,0,0)
GPGPU-Sim PTX: 11400000 instructions simulated : ctaid=(24,0,0) tid=(127,0,0)
GPGPU-Sim uArch: cycles simulated: 96000  inst.: 11477728 (ipc=119.6) sim_rate=302045 (inst/sec) elapsed = 0:0:00:38 / Tue Mar 22 07:00:19 2016
GPGPU-Sim PTX: 11500000 instructions simulated : ctaid=(27,0,0) tid=(95,0,0)
GPGPU-Sim PTX: 11600000 instructions simulated : ctaid=(19,0,0) tid=(127,0,0)
GPGPU-Sim PTX: 11700000 instructions simulated : ctaid=(17,0,0) tid=(95,0,0)
GPGPU-Sim uArch: cycles simulated: 98500  inst.: 11788960 (ipc=119.7) sim_rate=302281 (inst/sec) elapsed = 0:0:00:39 / Tue Mar 22 07:00:20 2016
GPGPU-Sim PTX: 11800000 instructions simulated : ctaid=(26,0,0) tid=(95,0,0)
GPGPU-Sim PTX: 11900000 instructions simulated : ctaid=(26,0,0) tid=(127,0,0)
GPGPU-Sim PTX: 12000000 instructions simulated : ctaid=(26,0,0) tid=(95,0,0)
GPGPU-Sim uArch: cycles simulated: 101000  inst.: 12087904 (ipc=119.7) sim_rate=302197 (inst/sec) elapsed = 0:0:00:40 / Tue Mar 22 07:00:21 2016
GPGPU-Sim PTX: 12100000 instructions simulated : ctaid=(25,0,0) tid=(95,0,0)
GPGPU-Sim PTX: 12200000 instructions simulated : ctaid=(22,0,0) tid=(95,0,0)
GPGPU-Sim PTX: 12300000 instructions simulated : ctaid=(28,0,0) tid=(95,0,0)
GPGPU-Sim uArch: Shader 5 finished CTA #1 (103328,0), 7 CTAs running
GPGPU-Sim uArch: core:  5, cta: 1 initialized @(103329,0)
GPGPU-Sim uArch: Shader 1 finished CTA #1 (103341,0), 7 CTAs running
GPGPU-Sim uArch: core:  1, cta: 1 initialized @(103342,0)
GPGPU-Sim PTX: 12400000 instructions simulated : ctaid=(22,0,0) tid=(95,0,0)
GPGPU-Sim uArch: Shader 4 finished CTA #1 (103407,0), 7 CTAs running
GPGPU-Sim uArch: core:  4, cta: 1 initialized @(103408,0)
GPGPU-Sim uArch: Shader 3 finished CTA #1 (103470,0), 7 CTAs running
GPGPU-Sim uArch: core:  3, cta: 1 initialized @(103471,0)
GPGPU-Sim uArch: cycles simulated: 103500  inst.: 12403328 (ipc=119.8) sim_rate=302520 (inst/sec) elapsed = 0:0:00:41 / Tue Mar 22 07:00:22 2016
GPGPU-Sim uArch: Shader 12 finished CTA #1 (103535,0), 7 CTAs running
GPGPU-Sim uArch: core: 12, cta: 1 initialized @(103536,0)
GPGPU-Sim uArch: Shader 9 finished CTA #1 (103539,0), 7 CTAs running
GPGPU-Sim uArch: core:  9, cta: 1 initialized @(103540,0)
GPGPU-Sim uArch: Shader 6 finished CTA #1 (103566,0), 7 CTAs running
GPGPU-Sim uArch: core:  6, cta: 1 initialized @(103567,0)
GPGPU-Sim uArch: Shader 0 finished CTA #1 (103597,0), 7 CTAs running
GPGPU-Sim uArch: core:  0, cta: 1 initialized @(103598,0)
GPGPU-Sim uArch: Shader 11 finished CTA #1 (103879,0), 7 CTAs running
GPGPU-Sim uArch: core: 11, cta: 1 initialized @(103880,0)
GPGPU-Sim uArch: Shader 2 finished CTA #1 (103884,0), 7 CTAs running
GPGPU-Sim uArch: core:  2, cta: 1 initialized @(103885,0)
GPGPU-Sim uArch: Shader 8 finished CTA #1 (103932,0), 7 CTAs running
GPGPU-Sim uArch: core:  8, cta: 1 initialized @(103933,0)
GPGPU-Sim uArch: Shader 10 finished CTA #1 (103939,0), 7 CTAs running
GPGPU-Sim uArch: core: 10, cta: 1 initialized @(103940,0)
GPGPU-Sim uArch: Shader 14 finished CTA #1 (103976,0), 7 CTAs running
GPGPU-Sim uArch: core: 14, cta: 1 initialized @(103977,0)
GPGPU-Sim uArch: Shader 7 finished CTA #1 (104019,0), 7 CTAs running
GPGPU-Sim uArch: core:  7, cta: 1 initialized @(104020,0)
GPGPU-Sim PTX: 12500000 instructions simulated : ctaid=(31,0,0) tid=(63,0,0)
GPGPU-Sim uArch: Shader 13 finished CTA #1 (104235,0), 7 CTAs running
GPGPU-Sim uArch: core: 13, cta: 1 initialized @(104236,0)
GPGPU-Sim PTX: 12600000 instructions simulated : ctaid=(40,0,0) tid=(63,0,0)
GPGPU-Sim PTX: 12700000 instructions simulated : ctaid=(43,0,0) tid=(63,0,0)
GPGPU-Sim uArch: cycles simulated: 106000  inst.: 12714080 (ipc=119.9) sim_rate=302716 (inst/sec) elapsed = 0:0:00:42 / Tue Mar 22 07:00:23 2016
GPGPU-Sim PTX: 12800000 instructions simulated : ctaid=(42,0,0) tid=(31,0,0)
GPGPU-Sim PTX: 12900000 instructions simulated : ctaid=(36,0,0) tid=(31,0,0)
GPGPU-Sim PTX: 13000000 instructions simulated : ctaid=(43,0,0) tid=(63,0,0)
GPGPU-Sim uArch: cycles simulated: 108500  inst.: 13023712 (ipc=120.0) sim_rate=302877 (inst/sec) elapsed = 0:0:00:43 / Tue Mar 22 07:00:24 2016
GPGPU-Sim PTX: 13100000 instructions simulated : ctaid=(41,0,0) tid=(63,0,0)
GPGPU-Sim PTX: 13200000 instructions simulated : ctaid=(38,0,0) tid=(63,0,0)
GPGPU-Sim PTX: 13300000 instructions simulated : ctaid=(41,0,0) tid=(31,0,0)
GPGPU-Sim uArch: cycles simulated: 111000  inst.: 13328544 (ipc=120.1) sim_rate=302921 (inst/sec) elapsed = 0:0:00:44 / Tue Mar 22 07:00:25 2016
GPGPU-Sim PTX: 13400000 instructions simulated : ctaid=(34,0,0) tid=(63,0,0)
GPGPU-Sim PTX: 13500000 instructions simulated : ctaid=(35,0,0) tid=(63,0,0)
GPGPU-Sim PTX: 13600000 instructions simulated : ctaid=(38,0,0) tid=(63,0,0)
GPGPU-Sim uArch: cycles simulated: 113500  inst.: 13634304 (ipc=120.1) sim_rate=302984 (inst/sec) elapsed = 0:0:00:45 / Tue Mar 22 07:00:26 2016
GPGPU-Sim PTX: 13700000 instructions simulated : ctaid=(38,0,0) tid=(63,0,0)
GPGPU-Sim PTX: 13800000 instructions simulated : ctaid=(43,0,0) tid=(63,0,0)
GPGPU-Sim PTX: 13900000 instructions simulated : ctaid=(37,0,0) tid=(31,0,0)
GPGPU-Sim uArch: cycles simulated: 116000  inst.: 13948480 (ipc=120.2) sim_rate=303227 (inst/sec) elapsed = 0:0:00:46 / Tue Mar 22 07:00:27 2016
GPGPU-Sim PTX: 14000000 instructions simulated : ctaid=(40,0,0) tid=(31,0,0)
GPGPU-Sim PTX: 14100000 instructions simulated : ctaid=(31,0,0) tid=(63,0,0)
GPGPU-Sim PTX: 14200000 instructions simulated : ctaid=(37,0,0) tid=(63,0,0)
GPGPU-Sim uArch: cycles simulated: 118500  inst.: 14256096 (ipc=120.3) sim_rate=303321 (inst/sec) elapsed = 0:0:00:47 / Tue Mar 22 07:00:28 2016
GPGPU-Sim PTX: 14300000 instructions simulated : ctaid=(30,0,0) tid=(31,0,0)
GPGPU-Sim PTX: 14400000 instructions simulated : ctaid=(37,0,0) tid=(63,0,0)
GPGPU-Sim PTX: 14500000 instructions simulated : ctaid=(32,0,0) tid=(63,0,0)
GPGPU-Sim uArch: cycles simulated: 121000  inst.: 14556736 (ipc=120.3) sim_rate=303265 (inst/sec) elapsed = 0:0:00:48 / Tue Mar 22 07:00:29 2016
GPGPU-Sim PTX: 14600000 instructions simulated : ctaid=(36,0,0) tid=(63,0,0)
GPGPU-Sim PTX: 14700000 instructions simulated : ctaid=(42,0,0) tid=(63,0,0)
GPGPU-Sim PTX: 14800000 instructions simulated : ctaid=(38,0,0) tid=(63,0,0)
GPGPU-Sim uArch: cycles simulated: 123000  inst.: 14807232 (ipc=120.4) sim_rate=302188 (inst/sec) elapsed = 0:0:00:49 / Tue Mar 22 07:00:30 2016
GPGPU-Sim PTX: 14900000 instructions simulated : ctaid=(36,0,0) tid=(63,0,0)
GPGPU-Sim PTX: 15000000 instructions simulated : ctaid=(42,0,0) tid=(63,0,0)
GPGPU-Sim PTX: 15100000 instructions simulated : ctaid=(34,0,0) tid=(63,0,0)
GPGPU-Sim uArch: cycles simulated: 125500  inst.: 15107360 (ipc=120.4) sim_rate=302147 (inst/sec) elapsed = 0:0:00:50 / Tue Mar 22 07:00:31 2016
GPGPU-Sim PTX: 15200000 instructions simulated : ctaid=(34,0,0) tid=(31,0,0)
GPGPU-Sim PTX: 15300000 instructions simulated : ctaid=(43,0,0) tid=(63,0,0)
GPGPU-Sim PTX: 15400000 instructions simulated : ctaid=(43,0,0) tid=(63,0,0)
GPGPU-Sim uArch: cycles simulated: 128000  inst.: 15416704 (ipc=120.4) sim_rate=302288 (inst/sec) elapsed = 0:0:00:51 / Tue Mar 22 07:00:32 2016
GPGPU-Sim PTX: 15500000 instructions simulated : ctaid=(34,0,0) tid=(63,0,0)
GPGPU-Sim PTX: 15600000 instructions simulated : ctaid=(40,0,0) tid=(127,0,0)
GPGPU-Sim PTX: 15700000 instructions simulated : ctaid=(34,0,0) tid=(127,0,0)
GPGPU-Sim uArch: cycles simulated: 130500  inst.: 15742016 (ipc=120.6) sim_rate=302731 (inst/sec) elapsed = 0:0:00:52 / Tue Mar 22 07:00:33 2016
GPGPU-Sim PTX: 15800000 instructions simulated : ctaid=(33,0,0) tid=(95,0,0)
GPGPU-Sim PTX: 15900000 instructions simulated : ctaid=(30,0,0) tid=(127,0,0)
GPGPU-Sim PTX: 16000000 instructions simulated : ctaid=(37,0,0) tid=(127,0,0)
GPGPU-Sim uArch: cycles simulated: 133000  inst.: 16047232 (ipc=120.7) sim_rate=302777 (inst/sec) elapsed = 0:0:00:53 / Tue Mar 22 07:00:34 2016
GPGPU-Sim PTX: 16100000 instructions simulated : ctaid=(31,0,0) tid=(95,0,0)
GPGPU-Sim PTX: 16200000 instructions simulated : ctaid=(39,0,0) tid=(127,0,0)
GPGPU-Sim PTX: 16300000 instructions simulated : ctaid=(43,0,0) tid=(127,0,0)
GPGPU-Sim uArch: cycles simulated: 135500  inst.: 16351808 (ipc=120.7) sim_rate=302811 (inst/sec) elapsed = 0:0:00:54 / Tue Mar 22 07:00:35 2016
GPGPU-Sim PTX: 16400000 instructions simulated : ctaid=(35,0,0) tid=(127,0,0)
GPGPU-Sim PTX: 16500000 instructions simulated : ctaid=(38,0,0) tid=(95,0,0)
GPGPU-Sim PTX: 16600000 instructions simulated : ctaid=(32,0,0) tid=(127,0,0)
GPGPU-Sim uArch: cycles simulated: 138000  inst.: 16662432 (ipc=120.7) sim_rate=302953 (inst/sec) elapsed = 0:0:00:55 / Tue Mar 22 07:00:36 2016
GPGPU-Sim PTX: 16700000 instructions simulated : ctaid=(41,0,0) tid=(95,0,0)
GPGPU-Sim PTX: 16800000 instructions simulated : ctaid=(44,0,0) tid=(95,0,0)
GPGPU-Sim PTX: 16900000 instructions simulated : ctaid=(33,0,0) tid=(127,0,0)
GPGPU-Sim uArch: cycles simulated: 140500  inst.: 16967456 (ipc=120.8) sim_rate=302990 (inst/sec) elapsed = 0:0:00:56 / Tue Mar 22 07:00:37 2016
GPGPU-Sim PTX: 17000000 instructions simulated : ctaid=(30,0,0) tid=(127,0,0)
GPGPU-Sim PTX: 17100000 instructions simulated : ctaid=(34,0,0) tid=(95,0,0)
GPGPU-Sim PTX: 17200000 instructions simulated : ctaid=(33,0,0) tid=(127,0,0)
GPGPU-Sim uArch: cycles simulated: 143000  inst.: 17271584 (ipc=120.8) sim_rate=303010 (inst/sec) elapsed = 0:0:00:57 / Tue Mar 22 07:00:38 2016
GPGPU-Sim PTX: 17300000 instructions simulated : ctaid=(43,0,0) tid=(95,0,0)
GPGPU-Sim PTX: 17400000 instructions simulated : ctaid=(30,0,0) tid=(95,0,0)
GPGPU-Sim PTX: 17500000 instructions simulated : ctaid=(31,0,0) tid=(127,0,0)
GPGPU-Sim PTX: 17600000 instructions simulated : ctaid=(42,0,0) tid=(95,0,0)
GPGPU-Sim uArch: cycles simulated: 146000  inst.: 17638144 (ipc=120.8) sim_rate=304105 (inst/sec) elapsed = 0:0:00:58 / Tue Mar 22 07:00:39 2016
GPGPU-Sim PTX: 17700000 instructions simulated : ctaid=(33,0,0) tid=(95,0,0)
GPGPU-Sim PTX: 17800000 instructions simulated : ctaid=(35,0,0) tid=(127,0,0)
GPGPU-Sim PTX: 17900000 instructions simulated : ctaid=(32,0,0) tid=(95,0,0)
GPGPU-Sim uArch: cycles simulated: 148500  inst.: 17946528 (ipc=120.9) sim_rate=304178 (inst/sec) elapsed = 0:0:00:59 / Tue Mar 22 07:00:40 2016
GPGPU-Sim PTX: 18000000 instructions simulated : ctaid=(34,0,0) tid=(95,0,0)
GPGPU-Sim PTX: 18100000 instructions simulated : ctaid=(40,0,0) tid=(127,0,0)
GPGPU-Sim PTX: 18200000 instructions simulated : ctaid=(40,0,0) tid=(95,0,0)
GPGPU-Sim uArch: cycles simulated: 151000  inst.: 18251936 (ipc=120.9) sim_rate=304198 (inst/sec) elapsed = 0:0:01:00 / Tue Mar 22 07:00:41 2016
GPGPU-Sim PTX: 18300000 instructions simulated : ctaid=(35,0,0) tid=(127,0,0)
GPGPU-Sim PTX: 18400000 instructions simulated : ctaid=(30,0,0) tid=(95,0,0)
GPGPU-Sim PTX: 18500000 instructions simulated : ctaid=(36,0,0) tid=(127,0,0)
GPGPU-Sim uArch: cycles simulated: 153500  inst.: 18560672 (ipc=120.9) sim_rate=304273 (inst/sec) elapsed = 0:0:01:01 / Tue Mar 22 07:00:42 2016
GPGPU-Sim uArch: Shader 4 finished CTA #2 (153506,0), 7 CTAs running
GPGPU-Sim uArch: core:  4, cta: 2 initialized @(153507,0)
GPGPU-Sim uArch: Shader 1 finished CTA #2 (153539,0), 7 CTAs running
GPGPU-Sim uArch: core:  1, cta: 2 initialized @(153540,0)
GPGPU-Sim PTX: 18600000 instructions simulated : ctaid=(42,0,0) tid=(95,0,0)
GPGPU-Sim uArch: Shader 3 finished CTA #2 (153835,0), 7 CTAs running
GPGPU-Sim uArch: core:  3, cta: 2 initialized @(153836,0)
GPGPU-Sim uArch: Shader 6 finished CTA #2 (153840,0), 7 CTAs running
GPGPU-Sim uArch: core:  6, cta: 2 initialized @(153841,0)
GPGPU-Sim uArch: Shader 12 finished CTA #2 (153871,0), 7 CTAs running
GPGPU-Sim uArch: core: 12, cta: 2 initialized @(153872,0)
GPGPU-Sim uArch: Shader 9 finished CTA #2 (153897,0), 7 CTAs running
GPGPU-Sim uArch: core:  9, cta: 2 initialized @(153898,0)
GPGPU-Sim uArch: Shader 0 finished CTA #2 (153941,0), 7 CTAs running
GPGPU-Sim uArch: core:  0, cta: 2 initialized @(153942,0)
GPGPU-Sim uArch: Shader 5 finished CTA #2 (154084,0), 7 CTAs running
GPGPU-Sim uArch: core:  5, cta: 2 initialized @(154085,0)
GPGPU-Sim uArch: Shader 11 finished CTA #2 (154128,0), 7 CTAs running
GPGPU-Sim uArch: core: 11, cta: 2 initialized @(154129,0)
GPGPU-Sim uArch: Shader 8 finished CTA #2 (154210,0), 7 CTAs running
GPGPU-Sim uArch: core:  8, cta: 2 initialized @(154211,0)
GPGPU-Sim uArch: Shader 2 finished CTA #2 (154232,0), 7 CTAs running
GPGPU-Sim uArch: core:  2, cta: 2 initialized @(154233,0)
GPGPU-Sim uArch: Shader 14 finished CTA #2 (154276,0), 7 CTAs running
GPGPU-Sim uArch: core: 14, cta: 2 initialized @(154277,0)
GPGPU-Sim uArch: Shader 10 finished CTA #2 (154296,0), 7 CTAs running
GPGPU-Sim uArch: core: 10, cta: 2 initialized @(154297,0)
GPGPU-Sim uArch: Shader 7 finished CTA #2 (154327,0), 7 CTAs running
GPGPU-Sim uArch: core:  7, cta: 2 initialized @(154328,0)
GPGPU-Sim PTX: 18700000 instructions simulated : ctaid=(45,0,0) tid=(63,0,0)
GPGPU-Sim uArch: Shader 13 finished CTA #2 (154508,0), 7 CTAs running
GPGPU-Sim uArch: core: 13, cta: 2 initialized @(154509,0)
GPGPU-Sim PTX: 18800000 instructions simulated : ctaid=(49,0,0) tid=(31,0,0)
GPGPU-Sim uArch: cycles simulated: 155500  inst.: 18821600 (ipc=121.0) sim_rate=303574 (inst/sec) elapsed = 0:0:01:02 / Tue Mar 22 07:00:43 2016
GPGPU-Sim PTX: 18900000 instructions simulated : ctaid=(52,0,0) tid=(31,0,0)
GPGPU-Sim PTX: 19000000 instructions simulated : ctaid=(45,0,0) tid=(63,0,0)
GPGPU-Sim PTX: 19100000 instructions simulated : ctaid=(49,0,0) tid=(31,0,0)
GPGPU-Sim uArch: cycles simulated: 158000  inst.: 19125856 (ipc=121.0) sim_rate=303585 (inst/sec) elapsed = 0:0:01:03 / Tue Mar 22 07:00:44 2016
GPGPU-Sim PTX: 19200000 instructions simulated : ctaid=(45,0,0) tid=(31,0,0)
GPGPU-Sim PTX: 19300000 instructions simulated : ctaid=(55,0,0) tid=(63,0,0)
GPGPU-Sim PTX: 19400000 instructions simulated : ctaid=(58,0,0) tid=(31,0,0)
GPGPU-Sim uArch: cycles simulated: 160500  inst.: 19428736 (ipc=121.1) sim_rate=303574 (inst/sec) elapsed = 0:0:01:04 / Tue Mar 22 07:00:45 2016
GPGPU-Sim PTX: 19500000 instructions simulated : ctaid=(53,0,0) tid=(31,0,0)
GPGPU-Sim PTX: 19600000 instructions simulated : ctaid=(56,0,0) tid=(31,0,0)
GPGPU-Sim PTX: 19700000 instructions simulated : ctaid=(59,0,0) tid=(31,0,0)
GPGPU-Sim uArch: cycles simulated: 163000  inst.: 19743328 (ipc=121.1) sim_rate=303743 (inst/sec) elapsed = 0:0:01:05 / Tue Mar 22 07:00:46 2016
GPGPU-Sim PTX: 19800000 instructions simulated : ctaid=(50,0,0) tid=(63,0,0)
GPGPU-Sim PTX: 19900000 instructions simulated : ctaid=(53,0,0) tid=(31,0,0)
GPGPU-Sim PTX: 20000000 instructions simulated : ctaid=(59,0,0) tid=(31,0,0)
GPGPU-Sim uArch: cycles simulated: 165500  inst.: 20046816 (ipc=121.1) sim_rate=303739 (inst/sec) elapsed = 0:0:01:06 / Tue Mar 22 07:00:47 2016
GPGPU-Sim PTX: 20100000 instructions simulated : ctaid=(47,0,0) tid=(31,0,0)
GPGPU-Sim PTX: 20200000 instructions simulated : ctaid=(48,0,0) tid=(31,0,0)
GPGPU-Sim PTX: 20300000 instructions simulated : ctaid=(54,0,0) tid=(31,0,0)
GPGPU-Sim uArch: cycles simulated: 168000  inst.: 20348800 (ipc=121.1) sim_rate=303713 (inst/sec) elapsed = 0:0:01:07 / Tue Mar 22 07:00:48 2016
GPGPU-Sim PTX: 20400000 instructions simulated : ctaid=(54,0,0) tid=(31,0,0)
GPGPU-Sim PTX: 20500000 instructions simulated : ctaid=(51,0,0) tid=(31,0,0)
GPGPU-Sim PTX: 20600000 instructions simulated : ctaid=(57,0,0) tid=(31,0,0)
GPGPU-Sim uArch: cycles simulated: 170500  inst.: 20664416 (ipc=121.2) sim_rate=303888 (inst/sec) elapsed = 0:0:01:08 / Tue Mar 22 07:00:49 2016
GPGPU-Sim PTX: 20700000 instructions simulated : ctaid=(51,0,0) tid=(63,0,0)
GPGPU-Sim PTX: 20800000 instructions simulated : ctaid=(46,0,0) tid=(31,0,0)
GPGPU-Sim PTX: 20900000 instructions simulated : ctaid=(47,0,0) tid=(31,0,0)
GPGPU-Sim uArch: cycles simulated: 173000  inst.: 20972096 (ipc=121.2) sim_rate=303943 (inst/sec) elapsed = 0:0:01:09 / Tue Mar 22 07:00:50 2016
GPGPU-Sim PTX: 21000000 instructions simulated : ctaid=(53,0,0) tid=(63,0,0)
GPGPU-Sim PTX: 21100000 instructions simulated : ctaid=(50,0,0) tid=(31,0,0)
GPGPU-Sim PTX: 21200000 instructions simulated : ctaid=(54,0,0) tid=(31,0,0)
GPGPU-Sim uArch: cycles simulated: 175500  inst.: 21260128 (ipc=121.1) sim_rate=303716 (inst/sec) elapsed = 0:0:01:10 / Tue Mar 22 07:00:51 2016
GPGPU-Sim PTX: 21300000 instructions simulated : ctaid=(47,0,0) tid=(63,0,0)
GPGPU-Sim PTX: 21400000 instructions simulated : ctaid=(49,0,0) tid=(31,0,0)
GPGPU-Sim PTX: 21500000 instructions simulated : ctaid=(46,0,0) tid=(63,0,0)
GPGPU-Sim uArch: cycles simulated: 178000  inst.: 21556480 (ipc=121.1) sim_rate=303612 (inst/sec) elapsed = 0:0:01:11 / Tue Mar 22 07:00:52 2016
GPGPU-Sim PTX: 21600000 instructions simulated : ctaid=(57,0,0) tid=(31,0,0)
GPGPU-Sim PTX: 21700000 instructions simulated : ctaid=(48,0,0) tid=(95,0,0)
GPGPU-Sim PTX: 21800000 instructions simulated : ctaid=(45,0,0) tid=(95,0,0)
GPGPU-Sim uArch: cycles simulated: 180500  inst.: 21882624 (ipc=121.2) sim_rate=303925 (inst/sec) elapsed = 0:0:01:12 / Tue Mar 22 07:00:53 2016
GPGPU-Sim PTX: 21900000 instructions simulated : ctaid=(52,0,0) tid=(95,0,0)
GPGPU-Sim PTX: 22000000 instructions simulated : ctaid=(47,0,0) tid=(127,0,0)
GPGPU-Sim PTX: 22100000 instructions simulated : ctaid=(56,0,0) tid=(127,0,0)
GPGPU-Sim PTX: 22200000 instructions simulated : ctaid=(51,0,0) tid=(95,0,0)
GPGPU-Sim uArch: cycles simulated: 183000  inst.: 22198496 (ipc=121.3) sim_rate=304088 (inst/sec) elapsed = 0:0:01:13 / Tue Mar 22 07:00:54 2016
GPGPU-Sim PTX: 22300000 instructions simulated : ctaid=(57,0,0) tid=(95,0,0)
GPGPU-Sim PTX: 22400000 instructions simulated : ctaid=(46,0,0) tid=(127,0,0)
GPGPU-Sim PTX: 22500000 instructions simulated : ctaid=(51,0,0) tid=(127,0,0)
GPGPU-Sim uArch: cycles simulated: 185500  inst.: 22495840 (ipc=121.3) sim_rate=303997 (inst/sec) elapsed = 0:0:01:14 / Tue Mar 22 07:00:55 2016
GPGPU-Sim PTX: 22600000 instructions simulated : ctaid=(54,0,0) tid=(127,0,0)
GPGPU-Sim PTX: 22700000 instructions simulated : ctaid=(53,0,0) tid=(95,0,0)
GPGPU-Sim PTX: 22800000 instructions simulated : ctaid=(47,0,0) tid=(95,0,0)
GPGPU-Sim uArch: cycles simulated: 188000  inst.: 22797728 (ipc=121.3) sim_rate=303969 (inst/sec) elapsed = 0:0:01:15 / Tue Mar 22 07:00:56 2016
GPGPU-Sim PTX: 22900000 instructions simulated : ctaid=(47,0,0) tid=(95,0,0)
GPGPU-Sim PTX: 23000000 instructions simulated : ctaid=(48,0,0) tid=(127,0,0)
GPGPU-Sim PTX: 23100000 instructions simulated : ctaid=(54,0,0) tid=(95,0,0)
GPGPU-Sim uArch: cycles simulated: 190500  inst.: 23113408 (ipc=121.3) sim_rate=304123 (inst/sec) elapsed = 0:0:01:16 / Tue Mar 22 07:00:57 2016
GPGPU-Sim PTX: 23200000 instructions simulated : ctaid=(53,0,0) tid=(127,0,0)
GPGPU-Sim PTX: 23300000 instructions simulated : ctaid=(49,0,0) tid=(127,0,0)
GPGPU-Sim PTX: 23400000 instructions simulated : ctaid=(46,0,0) tid=(127,0,0)
GPGPU-Sim uArch: cycles simulated: 193000  inst.: 23420960 (ipc=121.4) sim_rate=304168 (inst/sec) elapsed = 0:0:01:17 / Tue Mar 22 07:00:58 2016
GPGPU-Sim PTX: 23500000 instructions simulated : ctaid=(55,0,0) tid=(95,0,0)
GPGPU-Sim PTX: 23600000 instructions simulated : ctaid=(58,0,0) tid=(95,0,0)
GPGPU-Sim PTX: 23700000 instructions simulated : ctaid=(57,0,0) tid=(95,0,0)
GPGPU-Sim uArch: cycles simulated: 195500  inst.: 23717568 (ipc=121.3) sim_rate=304071 (inst/sec) elapsed = 0:0:01:18 / Tue Mar 22 07:00:59 2016
GPGPU-Sim PTX: 23800000 instructions simulated : ctaid=(58,0,0) tid=(95,0,0)
GPGPU-Sim PTX: 23900000 instructions simulated : ctaid=(52,0,0) tid=(127,0,0)
GPGPU-Sim PTX: 24000000 instructions simulated : ctaid=(59,0,0) tid=(127,0,0)
GPGPU-Sim PTX: 24100000 instructions simulated : ctaid=(56,0,0) tid=(95,0,0)
GPGPU-Sim uArch: cycles simulated: 198500  inst.: 24086752 (ipc=121.3) sim_rate=304895 (inst/sec) elapsed = 0:0:01:19 / Tue Mar 22 07:01:00 2016
GPGPU-Sim PTX: 24200000 instructions simulated : ctaid=(47,0,0) tid=(127,0,0)
GPGPU-Sim PTX: 24300000 instructions simulated : ctaid=(47,0,0) tid=(127,0,0)
GPGPU-Sim PTX: 24400000 instructions simulated : ctaid=(53,0,0) tid=(127,0,0)
GPGPU-Sim uArch: cycles simulated: 201000  inst.: 24391872 (ipc=121.4) sim_rate=304898 (inst/sec) elapsed = 0:0:01:20 / Tue Mar 22 07:01:01 2016
GPGPU-Sim PTX: 24500000 instructions simulated : ctaid=(56,0,0) tid=(95,0,0)
GPGPU-Sim PTX: 24600000 instructions simulated : ctaid=(56,0,0) tid=(95,0,0)
GPGPU-Sim PTX: 24700000 instructions simulated : ctaid=(52,0,0) tid=(127,0,0)
GPGPU-Sim uArch: cycles simulated: 203500  inst.: 24700480 (ipc=121.4) sim_rate=304944 (inst/sec) elapsed = 0:0:01:21 / Tue Mar 22 07:01:02 2016
GPGPU-Sim uArch: Shader 4 finished CTA #3 (203921,0), 7 CTAs running
GPGPU-Sim uArch: core:  4, cta: 3 initialized @(203922,0)
GPGPU-Sim uArch: Shader 1 finished CTA #3 (204035,0), 7 CTAs running
GPGPU-Sim uArch: core:  1, cta: 3 initialized @(204036,0)
GPGPU-Sim PTX: 24800000 instructions simulated : ctaid=(69,0,0) tid=(31,0,0)
GPGPU-Sim uArch: Shader 9 finished CTA #3 (204317,0), 7 CTAs running
GPGPU-Sim uArch: core:  9, cta: 3 initialized @(204318,0)
GPGPU-Sim uArch: Shader 0 finished CTA #3 (204353,0), 7 CTAs running
GPGPU-Sim uArch: core:  0, cta: 3 initialized @(204354,0)
GPGPU-Sim uArch: Shader 3 finished CTA #3 (204379,0), 7 CTAs running
GPGPU-Sim uArch: core:  3, cta: 3 initialized @(204380,0)
GPGPU-Sim uArch: Shader 6 finished CTA #3 (204419,0), 7 CTAs running
GPGPU-Sim uArch: core:  6, cta: 3 initialized @(204420,0)
GPGPU-Sim uArch: Shader 12 finished CTA #3 (204424,0), 7 CTAs running
GPGPU-Sim uArch: core: 12, cta: 3 initialized @(204425,0)
GPGPU-Sim uArch: Shader 5 finished CTA #3 (204708,0), 7 CTAs running
GPGPU-Sim uArch: core:  5, cta: 3 initialized @(204709,0)
GPGPU-Sim uArch: Shader 14 finished CTA #3 (204713,0), 7 CTAs running
GPGPU-Sim uArch: core: 14, cta: 3 initialized @(204714,0)
GPGPU-Sim uArch: Shader 8 finished CTA #3 (204762,0), 7 CTAs running
GPGPU-Sim uArch: core:  8, cta: 3 initialized @(204763,0)
GPGPU-Sim uArch: Shader 11 finished CTA #3 (204766,0), 7 CTAs running
GPGPU-Sim uArch: core: 11, cta: 3 initialized @(204767,0)
GPGPU-Sim uArch: Shader 2 finished CTA #3 (204793,0), 7 CTAs running
GPGPU-Sim uArch: core:  2, cta: 3 initialized @(204794,0)
GPGPU-Sim uArch: Shader 10 finished CTA #3 (204813,0), 7 CTAs running
GPGPU-Sim uArch: core: 10, cta: 3 initialized @(204814,0)
GPGPU-Sim uArch: Shader 7 finished CTA #3 (204822,0), 7 CTAs running
GPGPU-Sim uArch: core:  7, cta: 3 initialized @(204823,0)
GPGPU-Sim uArch: Shader 13 finished CTA #3 (204853,0), 7 CTAs running
GPGPU-Sim uArch: core: 13, cta: 3 initialized @(204854,0)
GPGPU-Sim PTX: 24900000 instructions simulated : ctaid=(71,0,0) tid=(63,0,0)
GPGPU-Sim PTX: 25000000 instructions simulated : ctaid=(67,0,0) tid=(63,0,0)
GPGPU-Sim uArch: cycles simulated: 206000  inst.: 25023136 (ipc=121.5) sim_rate=305160 (inst/sec) elapsed = 0:0:01:22 / Tue Mar 22 07:01:03 2016
GPGPU-Sim PTX: 25100000 instructions simulated : ctaid=(73,0,0) tid=(63,0,0)
GPGPU-Sim PTX: 25200000 instructions simulated : ctaid=(70,0,0) tid=(63,0,0)
GPGPU-Sim PTX: 25300000 instructions simulated : ctaid=(64,0,0) tid=(63,0,0)
GPGPU-Sim uArch: cycles simulated: 208500  inst.: 25328512 (ipc=121.5) sim_rate=305162 (inst/sec) elapsed = 0:0:01:23 / Tue Mar 22 07:01:04 2016
GPGPU-Sim PTX: 25400000 instructions simulated : ctaid=(64,0,0) tid=(63,0,0)
GPGPU-Sim PTX: 25500000 instructions simulated : ctaid=(64,0,0) tid=(63,0,0)
GPGPU-Sim PTX: 25600000 instructions simulated : ctaid=(72,0,0) tid=(63,0,0)
GPGPU-Sim uArch: cycles simulated: 211000  inst.: 25636480 (ipc=121.5) sim_rate=305196 (inst/sec) elapsed = 0:0:01:24 / Tue Mar 22 07:01:05 2016
GPGPU-Sim PTX: 25700000 instructions simulated : ctaid=(68,0,0) tid=(31,0,0)
GPGPU-Sim PTX: 25800000 instructions simulated : ctaid=(65,0,0) tid=(31,0,0)
GPGPU-Sim PTX: 25900000 instructions simulated : ctaid=(74,0,0) tid=(31,0,0)
GPGPU-Sim uArch: cycles simulated: 213500  inst.: 25944672 (ipc=121.5) sim_rate=305231 (inst/sec) elapsed = 0:0:01:25 / Tue Mar 22 07:01:06 2016
GPGPU-Sim PTX: 26000000 instructions simulated : ctaid=(71,0,0) tid=(31,0,0)
GPGPU-Sim PTX: 26100000 instructions simulated : ctaid=(69,0,0) tid=(31,0,0)
GPGPU-Sim PTX: 26200000 instructions simulated : ctaid=(65,0,0) tid=(63,0,0)
GPGPU-Sim uArch: cycles simulated: 216000  inst.: 26255648 (ipc=121.6) sim_rate=305298 (inst/sec) elapsed = 0:0:01:26 / Tue Mar 22 07:01:07 2016
GPGPU-Sim PTX: 26300000 instructions simulated : ctaid=(67,0,0) tid=(31,0,0)
GPGPU-Sim PTX: 26400000 instructions simulated : ctaid=(64,0,0) tid=(31,0,0)
GPGPU-Sim PTX: 26500000 instructions simulated : ctaid=(73,0,0) tid=(31,0,0)
GPGPU-Sim uArch: cycles simulated: 218500  inst.: 26559776 (ipc=121.6) sim_rate=305284 (inst/sec) elapsed = 0:0:01:27 / Tue Mar 22 07:01:08 2016
GPGPU-Sim PTX: 26600000 instructions simulated : ctaid=(64,0,0) tid=(63,0,0)
GPGPU-Sim PTX: 26700000 instructions simulated : ctaid=(60,0,0) tid=(31,0,0)
GPGPU-Sim PTX: 26800000 instructions simulated : ctaid=(61,0,0) tid=(63,0,0)
GPGPU-Sim uArch: cycles simulated: 221000  inst.: 26860288 (ipc=121.5) sim_rate=305230 (inst/sec) elapsed = 0:0:01:28 / Tue Mar 22 07:01:09 2016
GPGPU-Sim PTX: 26900000 instructions simulated : ctaid=(74,0,0) tid=(31,0,0)
GPGPU-Sim PTX: 27000000 instructions simulated : ctaid=(63,0,0) tid=(31,0,0)
GPGPU-Sim PTX: 27100000 instructions simulated : ctaid=(67,0,0) tid=(63,0,0)
GPGPU-Sim uArch: cycles simulated: 223500  inst.: 27171456 (ipc=121.6) sim_rate=305297 (inst/sec) elapsed = 0:0:01:29 / Tue Mar 22 07:01:10 2016
GPGPU-Sim PTX: 27200000 instructions simulated : ctaid=(62,0,0) tid=(31,0,0)
GPGPU-Sim PTX: 27300000 instructions simulated : ctaid=(74,0,0) tid=(31,0,0)
GPGPU-Sim PTX: 27400000 instructions simulated : ctaid=(74,0,0) tid=(63,0,0)
GPGPU-Sim PTX: 27500000 instructions simulated : ctaid=(69,0,0) tid=(63,0,0)
GPGPU-Sim uArch: cycles simulated: 226000  inst.: 27483712 (ipc=121.6) sim_rate=305374 (inst/sec) elapsed = 0:0:01:30 / Tue Mar 22 07:01:11 2016
GPGPU-Sim PTX: 27600000 instructions simulated : ctaid=(63,0,0) tid=(63,0,0)
GPGPU-Sim PTX: 27700000 instructions simulated : ctaid=(70,0,0) tid=(31,0,0)
GPGPU-Sim PTX: 27800000 instructions simulated : ctaid=(70,0,0) tid=(31,0,0)
GPGPU-Sim uArch: cycles simulated: 228500  inst.: 27784288 (ipc=121.6) sim_rate=305321 (inst/sec) elapsed = 0:0:01:31 / Tue Mar 22 07:01:12 2016
GPGPU-Sim PTX: 27900000 instructions simulated : ctaid=(63,0,0) tid=(127,0,0)
GPGPU-Sim PTX: 28000000 instructions simulated : ctaid=(62,0,0) tid=(127,0,0)
GPGPU-Sim uArch: cycles simulated: 230500  inst.: 28051456 (ipc=121.7) sim_rate=304907 (inst/sec) elapsed = 0:0:01:32 / Tue Mar 22 07:01:13 2016
GPGPU-Sim PTX: 28100000 instructions simulated : ctaid=(71,0,0) tid=(127,0,0)
GPGPU-Sim PTX: 28200000 instructions simulated : ctaid=(63,0,0) tid=(95,0,0)
GPGPU-Sim PTX: 28300000 instructions simulated : ctaid=(69,0,0) tid=(127,0,0)
GPGPU-Sim uArch: cycles simulated: 233000  inst.: 28357152 (ipc=121.7) sim_rate=304915 (inst/sec) elapsed = 0:0:01:33 / Tue Mar 22 07:01:14 2016
GPGPU-Sim PTX: 28400000 instructions simulated : ctaid=(73,0,0) tid=(95,0,0)
GPGPU-Sim PTX: 28500000 instructions simulated : ctaid=(66,0,0) tid=(127,0,0)
GPGPU-Sim PTX: 28600000 instructions simulated : ctaid=(72,0,0) tid=(127,0,0)
GPGPU-Sim PTX: 28700000 instructions simulated : ctaid=(70,0,0) tid=(127,0,0)
GPGPU-Sim uArch: cycles simulated: 236000  inst.: 28727840 (ipc=121.7) sim_rate=305615 (inst/sec) elapsed = 0:0:01:34 / Tue Mar 22 07:01:15 2016
GPGPU-Sim PTX: 28800000 instructions simulated : ctaid=(60,0,0) tid=(95,0,0)
GPGPU-Sim PTX: 28900000 instructions simulated : ctaid=(64,0,0) tid=(127,0,0)
GPGPU-Sim PTX: 29000000 instructions simulated : ctaid=(74,0,0) tid=(95,0,0)
GPGPU-Sim uArch: cycles simulated: 238500  inst.: 29025728 (ipc=121.7) sim_rate=305533 (inst/sec) elapsed = 0:0:01:35 / Tue Mar 22 07:01:16 2016
GPGPU-Sim PTX: 29100000 instructions simulated : ctaid=(65,0,0) tid=(127,0,0)
GPGPU-Sim PTX: 29200000 instructions simulated : ctaid=(68,0,0) tid=(127,0,0)
GPGPU-Sim PTX: 29300000 instructions simulated : ctaid=(63,0,0) tid=(127,0,0)
GPGPU-Sim uArch: cycles simulated: 241000  inst.: 29335872 (ipc=121.7) sim_rate=305582 (inst/sec) elapsed = 0:0:01:36 / Tue Mar 22 07:01:17 2016
GPGPU-Sim PTX: 29400000 instructions simulated : ctaid=(69,0,0) tid=(95,0,0)
GPGPU-Sim PTX: 29500000 instructions simulated : ctaid=(62,0,0) tid=(95,0,0)
GPGPU-Sim PTX: 29600000 instructions simulated : ctaid=(61,0,0) tid=(127,0,0)
GPGPU-Sim uArch: cycles simulated: 243500  inst.: 29649952 (ipc=121.8) sim_rate=305669 (inst/sec) elapsed = 0:0:01:37 / Tue Mar 22 07:01:18 2016
GPGPU-Sim PTX: 29700000 instructions simulated : ctaid=(73,0,0) tid=(127,0,0)
GPGPU-Sim PTX: 29800000 instructions simulated : ctaid=(61,0,0) tid=(127,0,0)
GPGPU-Sim PTX: 29900000 instructions simulated : ctaid=(70,0,0) tid=(127,0,0)
GPGPU-Sim uArch: cycles simulated: 246000  inst.: 29947840 (ipc=121.7) sim_rate=305590 (inst/sec) elapsed = 0:0:01:38 / Tue Mar 22 07:01:19 2016
GPGPU-Sim PTX: 30000000 instructions simulated : ctaid=(66,0,0) tid=(95,0,0)
GPGPU-Sim PTX: 30100000 instructions simulated : ctaid=(66,0,0) tid=(95,0,0)
GPGPU-Sim PTX: 30200000 instructions simulated : ctaid=(73,0,0) tid=(127,0,0)
GPGPU-Sim uArch: cycles simulated: 248500  inst.: 30249632 (ipc=121.7) sim_rate=305551 (inst/sec) elapsed = 0:0:01:39 / Tue Mar 22 07:01:20 2016
GPGPU-Sim PTX: 30300000 instructions simulated : ctaid=(66,0,0) tid=(127,0,0)
GPGPU-Sim PTX: 30400000 instructions simulated : ctaid=(65,0,0) tid=(127,0,0)
GPGPU-Sim PTX: 30500000 instructions simulated : ctaid=(71,0,0) tid=(95,0,0)
GPGPU-Sim uArch: cycles simulated: 251000  inst.: 30565184 (ipc=121.8) sim_rate=305651 (inst/sec) elapsed = 0:0:01:40 / Tue Mar 22 07:01:21 2016
GPGPU-Sim PTX: 30600000 instructions simulated : ctaid=(63,0,0) tid=(95,0,0)
GPGPU-Sim PTX: 30700000 instructions simulated : ctaid=(65,0,0) tid=(95,0,0)
GPGPU-Sim PTX: 30800000 instructions simulated : ctaid=(65,0,0) tid=(95,0,0)
GPGPU-Sim uArch: cycles simulated: 253500  inst.: 30869664 (ipc=121.8) sim_rate=305640 (inst/sec) elapsed = 0:0:01:41 / Tue Mar 22 07:01:22 2016
GPGPU-Sim PTX: 30900000 instructions simulated : ctaid=(62,0,0) tid=(95,0,0)
GPGPU-Sim uArch: Shader 4 finished CTA #4 (253943,0), 7 CTAs running
GPGPU-Sim uArch: core:  4, cta: 4 initialized @(253944,0)
GPGPU-Sim PTX: 31000000 instructions simulated : ctaid=(67,0,0) tid=(127,0,0)
GPGPU-Sim uArch: Shader 1 finished CTA #4 (254447,0), 7 CTAs running
GPGPU-Sim uArch: core:  1, cta: 4 initialized @(254448,0)
GPGPU-Sim uArch: Shader 9 finished CTA #4 (254614,0), 7 CTAs running
GPGPU-Sim uArch: core:  9, cta: 4 initialized @(254615,0)
GPGPU-Sim uArch: Shader 12 finished CTA #4 (254619,0), 7 CTAs running
GPGPU-Sim uArch: core: 12, cta: 4 initialized @(254620,0)
GPGPU-Sim uArch: Shader 6 finished CTA #4 (254650,0), 7 CTAs running
GPGPU-Sim uArch: core:  6, cta: 4 initialized @(254651,0)
GPGPU-Sim uArch: Shader 0 finished CTA #4 (254676,0), 7 CTAs running
GPGPU-Sim uArch: core:  0, cta: 4 initialized @(254677,0)
GPGPU-Sim uArch: Shader 3 finished CTA #4 (254720,0), 7 CTAs running
GPGPU-Sim uArch: core:  3, cta: 4 initialized @(254721,0)
GPGPU-Sim uArch: Shader 5 finished CTA #4 (254997,0), 7 CTAs running
GPGPU-Sim uArch: core:  5, cta: 4 initialized @(254998,0)
GPGPU-Sim PTX: 31100000 instructions simulated : ctaid=(86,0,0) tid=(31,0,0)
GPGPU-Sim uArch: Shader 11 finished CTA #4 (255060,0), 7 CTAs running
GPGPU-Sim uArch: core: 11, cta: 4 initialized @(255061,0)
GPGPU-Sim uArch: Shader 14 finished CTA #4 (255086,0), 7 CTAs running
GPGPU-Sim uArch: core: 14, cta: 4 initialized @(255087,0)
GPGPU-Sim uArch: Shader 8 finished CTA #4 (255108,0), 7 CTAs running
GPGPU-Sim uArch: core:  8, cta: 4 initialized @(255109,0)
GPGPU-Sim uArch: Shader 7 finished CTA #4 (255121,0), 7 CTAs running
GPGPU-Sim uArch: core:  7, cta: 4 initialized @(255122,0)
GPGPU-Sim uArch: Shader 2 finished CTA #4 (255133,0), 7 CTAs running
GPGPU-Sim uArch: core:  2, cta: 4 initialized @(255134,0)
GPGPU-Sim uArch: Shader 13 finished CTA #4 (255143,0), 7 CTAs running
GPGPU-Sim uArch: core: 13, cta: 4 initialized @(255144,0)
GPGPU-Sim uArch: Shader 10 finished CTA #4 (255190,0), 7 CTAs running
GPGPU-Sim uArch: core: 10, cta: 4 initialized @(255191,0)
GPGPU-Sim PTX: 31200000 instructions simulated : ctaid=(77,0,0) tid=(31,0,0)
GPGPU-Sim uArch: cycles simulated: 256000  inst.: 31188576 (ipc=121.8) sim_rate=305770 (inst/sec) elapsed = 0:0:01:42 / Tue Mar 22 07:01:23 2016
GPGPU-Sim PTX: 31300000 instructions simulated : ctaid=(76,0,0) tid=(63,0,0)
GPGPU-Sim PTX: 31400000 instructions simulated : ctaid=(79,0,0) tid=(31,0,0)
GPGPU-Sim PTX: 31500000 instructions simulated : ctaid=(82,0,0) tid=(31,0,0)
GPGPU-Sim uArch: cycles simulated: 258500  inst.: 31491072 (ipc=121.8) sim_rate=305738 (inst/sec) elapsed = 0:0:01:43 / Tue Mar 22 07:01:24 2016
GPGPU-Sim PTX: 31600000 instructions simulated : ctaid=(82,0,0) tid=(63,0,0)
GPGPU-Sim PTX: 31700000 instructions simulated : ctaid=(75,0,0) tid=(63,0,0)
GPGPU-Sim PTX: 31800000 instructions simulated : ctaid=(81,0,0) tid=(31,0,0)
GPGPU-Sim uArch: cycles simulated: 261000  inst.: 31807168 (ipc=121.9) sim_rate=305838 (inst/sec) elapsed = 0:0:01:44 / Tue Mar 22 07:01:25 2016
GPGPU-Sim PTX: 31900000 instructions simulated : ctaid=(75,0,0) tid=(63,0,0)
GPGPU-Sim PTX: 32000000 instructions simulated : ctaid=(76,0,0) tid=(63,0,0)
GPGPU-Sim PTX: 32100000 instructions simulated : ctaid=(82,0,0) tid=(63,0,0)
GPGPU-Sim uArch: cycles simulated: 263500  inst.: 32112384 (ipc=121.9) sim_rate=305832 (inst/sec) elapsed = 0:0:01:45 / Tue Mar 22 07:01:26 2016
GPGPU-Sim PTX: 32200000 instructions simulated : ctaid=(77,0,0) tid=(31,0,0)
GPGPU-Sim PTX: 32300000 instructions simulated : ctaid=(77,0,0) tid=(63,0,0)
GPGPU-Sim PTX: 32400000 instructions simulated : ctaid=(83,0,0) tid=(31,0,0)
GPGPU-Sim uArch: cycles simulated: 266000  inst.: 32410048 (ipc=121.8) sim_rate=305755 (inst/sec) elapsed = 0:0:01:46 / Tue Mar 22 07:01:27 2016
GPGPU-Sim PTX: 32500000 instructions simulated : ctaid=(78,0,0) tid=(63,0,0)
GPGPU-Sim PTX: 32600000 instructions simulated : ctaid=(83,0,0) tid=(31,0,0)
GPGPU-Sim uArch: cycles simulated: 268000  inst.: 32670816 (ipc=121.9) sim_rate=305334 (inst/sec) elapsed = 0:0:01:47 / Tue Mar 22 07:01:28 2016
GPGPU-Sim PTX: 32700000 instructions simulated : ctaid=(88,0,0) tid=(63,0,0)
GPGPU-Sim PTX: 32800000 instructions simulated : ctaid=(79,0,0) tid=(31,0,0)
GPGPU-Sim PTX: 32900000 instructions simulated : ctaid=(75,0,0) tid=(63,0,0)
GPGPU-Sim PTX: 33000000 instructions simulated : ctaid=(79,0,0) tid=(31,0,0)
GPGPU-Sim uArch: cycles simulated: 271000  inst.: 33040384 (ipc=121.9) sim_rate=305929 (inst/sec) elapsed = 0:0:01:48 / Tue Mar 22 07:01:29 2016
GPGPU-Sim PTX: 33100000 instructions simulated : ctaid=(76,0,0) tid=(31,0,0)
GPGPU-Sim PTX: 33200000 instructions simulated : ctaid=(75,0,0) tid=(31,0,0)
GPGPU-Sim PTX: 33300000 instructions simulated : ctaid=(80,0,0) tid=(63,0,0)
GPGPU-Sim uArch: cycles simulated: 273500  inst.: 33337088 (ipc=121.9) sim_rate=305844 (inst/sec) elapsed = 0:0:01:49 / Tue Mar 22 07:01:30 2016
GPGPU-Sim PTX: 33400000 instructions simulated : ctaid=(81,0,0) tid=(31,0,0)
GPGPU-Sim PTX: 33500000 instructions simulated : ctaid=(77,0,0) tid=(63,0,0)
GPGPU-Sim PTX: 33600000 instructions simulated : ctaid=(75,0,0) tid=(31,0,0)
GPGPU-Sim uArch: cycles simulated: 276000  inst.: 33652768 (ipc=121.9) sim_rate=305934 (inst/sec) elapsed = 0:0:01:50 / Tue Mar 22 07:01:31 2016
GPGPU-Sim PTX: 33700000 instructions simulated : ctaid=(77,0,0) tid=(31,0,0)
GPGPU-Sim PTX: 33800000 instructions simulated : ctaid=(77,0,0) tid=(63,0,0)
GPGPU-Sim PTX: 33900000 instructions simulated : ctaid=(81,0,0) tid=(63,0,0)
GPGPU-Sim uArch: cycles simulated: 278500  inst.: 33968320 (ipc=122.0) sim_rate=306020 (inst/sec) elapsed = 0:0:01:51 / Tue Mar 22 07:01:32 2016
GPGPU-Sim PTX: 34000000 instructions simulated : ctaid=(82,0,0) tid=(31,0,0)
GPGPU-Sim PTX: 34100000 instructions simulated : ctaid=(80,0,0) tid=(95,0,0)
GPGPU-Sim PTX: 34200000 instructions simulated : ctaid=(75,0,0) tid=(127,0,0)
GPGPU-Sim PTX: 34300000 instructions simulated : ctaid=(78,0,0) tid=(95,0,0)
GPGPU-Sim uArch: cycles simulated: 281000  inst.: 34285728 (ipc=122.0) sim_rate=306122 (inst/sec) elapsed = 0:0:01:52 / Tue Mar 22 07:01:33 2016
GPGPU-Sim PTX: 34400000 instructions simulated : ctaid=(77,0,0) tid=(127,0,0)
GPGPU-Sim PTX: 34500000 instructions simulated : ctaid=(85,0,0) tid=(127,0,0)
GPGPU-Sim uArch: cycles simulated: 283000  inst.: 34530944 (ipc=122.0) sim_rate=305583 (inst/sec) elapsed = 0:0:01:53 / Tue Mar 22 07:01:34 2016
GPGPU-Sim PTX: 34600000 instructions simulated : ctaid=(82,0,0) tid=(95,0,0)
GPGPU-Sim PTX: 34700000 instructions simulated : ctaid=(82,0,0) tid=(95,0,0)
GPGPU-Sim PTX: 34800000 instructions simulated : ctaid=(85,0,0) tid=(127,0,0)
[...]
maxdqlatency = 0 
maxmflatency = 552 
averagemflatency = 289 
max_icnt2mem_latency = 44 
max_icnt2sh_latency = 1591207 
mrq_lat_table:175241 	9649 	11164 	34684 	113210 	58063 	27986 	7488 	24 	0 	0 	0 	0 	0 	0 	0 	0 	0 	0 	0 	0 	0 	0 	0 	0 	0 	0 	0 	0 	0 	0 	0 	
dq_lat_table:0 	0 	0 	0 	0 	0 	0 	0 	0 	0 	0 	0 	0 	0 	0 	0 	0 	0 	0 	0 	0 	0 	0 	0 	0 	0 	0 	0 	0 	0 	0 	0 	
mf_lat_table:0 	0 	0 	0 	0 	0 	0 	4895 	307598 	22 	0 	0 	0 	0 	0 	0 	0 	0 	0 	0 	0 	0 	0 	0 	0 	0 	0 	0 	0 	0 	0 	0 	
icnt2mem_lat_table:0 	0 	0 	295073 	17533 	29 	0 	0 	0 	0 	0 	0 	0 	0 	0 	0 	0 	0 	0 	0 	0 	0 	0 	0 	
icnt2sh_lat_table:0 	0 	0 	90167 	88690 	8658 	0 	0 	0 	0 	0 	60 	314 	657 	1281 	2582 	5149 	10305 	20636 	41436 	42580 	0 	0 	0 	
mf_lat_pw_table:0 	0 	0 	0 	0 	0 	0 	0 	3178 	0 	0 	0 	0 	0 	0 	0 	0 	0 	0 	0 	0 	0 	0 	0 	0 	0 	0 	0 	0 	0 	0 	0 	
maximum concurrent accesses to same row:
dram[0]:        12        12        12        12        12        12        12        12        12        12        12        12        12        12        12        12 
dram[1]:        12        12        12        12        12        12        12        12        12        12        12        12        12        12        12        12 
dram[2]:        12        12        12        12        12        12        12        12        12        12        12        12        12        12        12        12 
dram[3]:        12        12        12        12        12        12        12        12        12        12        12        12        12        12        12        12 
dram[4]:        12        12        12        12        12        12        12        12        12        12        12        12        12        12        12        12 
dram[5]:        12        12        12        12        12        12        12        12        12        12        12        12        12        12        12        12 
maximum service time to same row:
dram[0]:     30358     30403     30373     31163     30378     30401     29198     30270     30358     31175     30367     30383     28859     30317     30377     31145 
dram[1]:     30347     30306     30813     30984     30418     30331     29047     30189     30517     30995     30351     30304     31569     31081     30518     31022 
dram[2]:     29797     30109     30557     30548     30212     30200     29676     29917     30550     30535     29913     30184     29011     30535     30534     30547 
dram[3]:     30001     30257     30506     30547     30412     30300     29537     29847     30491     30564     30000     30269     30856     30872     30500     30553 
dram[4]:     30406     30558     30869     30561     30407     30593     30283     29597     30865     30559     30403     30572     30116     29994     30844     30566 
dram[5]:     30372     30553     30664     30481     30393     30582     30378     29547     30684     30488     30381     30561     31347     30810     30699     30583 
average row accesses per activate:
dram[0]:  2.833854  2.950521  2.844893  2.954813  2.846734  2.967911  2.881612  2.986945  2.842236  2.944659  2.844002  2.967575  2.881612  2.986945  2.838710  2.975293 
dram[1]:  2.885496  2.958225  2.883067  2.972332  2.890306  2.987475  2.916507  3.002625  2.890714  2.975293  2.883428  2.981107  2.907243  3.012508  2.883428  2.994764 
dram[2]:  2.854625  2.946684  2.837736  2.945170  2.846734  2.949285  2.854648  2.967575  2.856430  2.954164  2.856430  2.946555  2.858214  2.961812  2.858214  2.935215 
dram[3]:  2.872704  2.939040  2.864762  2.933680  2.871990  2.934023  2.881612  2.950355  2.892541  2.938985  2.883428  2.948454  2.883428  2.942765  2.868966  2.927703 
dram[4]:  2.849780  2.901408  2.820000  2.852086  2.825436  2.874525  2.865373  2.916507  2.831683  2.872567  2.833436  2.898037  2.842236  2.909091  2.847542  2.874372 
dram[5]:  2.844417  2.820162  2.832392  2.825297  2.820162  2.822651  2.867168  2.833436  2.833436  2.838710  2.824691  2.816000  2.845771  2.847542  2.829932  2.829932 
average row locality = 437509/151306 = 2.891551
number of total memory accesses made:
dram[0]:         0         0         0         0         0         0         0         0         0         0         0         0         0         0         0         0 
dram[1]:         0         0         0         0         0         0         0         0         0         0         0         0         0         0         0         0 
dram[2]:         0         0         0         0         0         0         0         0         0         0         0         0         0         0         0         0 
dram[3]:         0         0         0         0         0         0         0         0         0         0         0         0         0         0         0         0 
dram[4]:         0         0         0         0         0         0         0         0         0         0         0         0         0         0         0         0 
dram[5]:         0         0         0         0         0         0         0         0         0         0         0         0         0         0         0         0 
total accesses: 0
min_bank_accesses = 0!
min_chip_accesses = 0!
number of total read accesses:
dram[0]:      3251      3246      3232      3232      3242      3242      3264      3264      3264      3264      3264      3264      3264      3264      3264      3264 
dram[1]:      3250      3246      3232      3232      3242      3242      3264      3264      3264      3264      3264      3264      3264      3264      3264      3264 
dram[2]:      3250      3246      3232      3232      3242      3244      3264      3264      3264      3264      3264      3264      3264      3264      3264      3264 
dram[3]:      3250      3246      3232      3232      3242      3244      3264      3264      3264      3264      3264      3264      3264      3264      3264      3264 
dram[4]:      3248      3246      3232      3232      3242      3244      3264      3264      3264      3264      3264      3264      3264      3264      3264      3264 
dram[5]:      3248      3246      3232      3232      3242      3244      3264      3264      3264      3264      3264      3264      3264      3264      3264      3264 
total reads: 312509
bank skew: 3264/3232 = 1.01
chip skew: 52086/52084 = 1.00
number of total write accesses:
dram[0]:      1286      1286      1280      1280      1290      1290      1312      1312      1312      1312      1312      1312      1312      1312      1312      1312 
dram[1]:      1286      1286      1280      1280      1290      1290      1312      1312      1312      1312      1312      1312      1312      1312      1312      1312 
dram[2]:      1286      1286      1280      1280      1290      1292      1312      1312      1312      1312      1312      1312      1312      1312      1312      1312 
dram[3]:      1286      1286      1280      1280      1290      1292      1312      1312      1312      1312      1312      1312      1312      1312      1312      1312 
dram[4]:      1286      1286      1280      1280      1290      1292      1312      1312      1312      1312      1312      1312      1312      1312      1312      1312 
dram[5]:      1286      1286      1280      1280      1290      1292      1312      1312      1312      1312      1312      1312      1312      1312      1312      1312 
total reads: 125000
bank skew: 1312/1280 = 1.02
chip skew: 20834/20832 = 1.00
average mf latency per bank:
dram[0]:        208       207       207       208       207       207       206       207       206       206       206       206       206       207       206       207
dram[1]:        207       207       207       207       207       207       207       207       206       206       206       206       206       207       207       206
dram[2]:        206       206       206       206       206       205       205       205       205       205       206       205       205       206       206       205
dram[3]:        207       207       207       207       206       206       206       207       206       206       206       206       206       206       206       206
dram[4]:        206       206       206       206       205       205       206       206       205       205       205       205       205       205       205       205
dram[5]:        206       206       206       206       206       206       206       206       206       205       205       205       206       205       206       206
maximum mf latency per bank:
dram[0]:        449       420       457       450       490       436       446       442       475       451       517       439       452       438       461       442
dram[1]:        470       449       459       444       474       439       469       457       470       442       491       500       461       468       472       494
dram[2]:        509       530       473       537       470       501       491       532       473       518       513       526       451       505       472       527
dram[3]:        498       511       495       497       491       492       516       474       491       493       495       519       481       522       513       478
dram[4]:        459       439       509       438       473       466       500       469       498       473       484       509       484       434       552       539
dram[5]:        441       471       488       471       488       469       488       473       468       445       485       456       485       465       492       451

Number of Memory Banks Accessed per Memory Operation per Warp (from 0):
0	0	0	0	0	0	0	0	0	0	0	0	0	0	0	0	0	0	0	0	0	0	0	0	0	0	0	0	0	0	0	0	0	0	0	0	0	0	0	0	0	0	0	0	0	0	0	0	0	0	0	0	0	0	0	0	0	0	0	0	0	0	0	0	0	0	0	0	0	0	0	0	0	0	0	0	0	0	0	0	0	0	0	0	0	0	0	0	0	0	0	0	0	0	0	0	
Average # of Memory Banks Accessed per Memory Operation per Warp=-nan

position of mrq chosen
0	0	0	0	0	0	0	0	0	0	0	0	0	0	0	0	

average position of mrq chosen = -nan
Memory Partition 0: 
Cache L2_bank_000:
MSHR contents

Cache L2_bank_001:
MSHR contents

In Dram Latency Queue (total = 0): 
DRAM[0]: 16 bks, busW=4 BL=8 CL=12, tRRD=2 tCCD=6, tRCD=12 tRAS=28 tRP=12 tRC=40
n_cmd=2100394 n_nop=1904428 n_act=25074 n_pre=25058 n_req=72917 n_rd=104170 n_write=41664 bw_util=0.1389
n_activity=863109 dram_eff=0.3379
bk0: 6502a 1996900i bk1: 6492a 1996652i bk2: 6464a 1998113i bk3: 6464a 1997240i bk4: 6484a 1996364i bk5: 6484a 1996708i bk6: 6528a 1994932i bk7: 6528a 1993556i bk8: 6528a 1996173i bk9: 6528a 1995979i bk10: 6528a 1996745i bk11: 6528a 1996286i bk12: 6528a 1995951i bk13: 6528a 1995487i bk14: 6528a 1994368i bk15: 6528a 1993673i 
dram_util_bins: 0 0 0 0 0 0 0 0 0 0
dram_eff_bins: 0 0 0 0 0 0 0 0 0 0
mrqq: max=16 avg=0.976828
Memory Partition 1: 
Cache L2_bank_002:
MSHR contents

Cache L2_bank_003:
MSHR contents

In Dram Latency Queue (total = 0): 
DRAM[1]: 16 bks, busW=4 BL=8 CL=12, tRRD=2 tCCD=6, tRCD=12 tRAS=28 tRP=12 tRC=40
n_cmd=2100394 n_nop=1904946 n_act=24816 n_pre=24800 n_req=72916 n_rd=104168 n_write=41664 bw_util=0.1389
n_activity=861206 dram_eff=0.3387
bk0: 6500a 1997542i bk1: 6492a 1997975i bk2: 6464a 1998571i bk3: 6464a 1998485i bk4: 6484a 1997823i bk5: 6484a 1997110i bk6: 6528a 1994940i bk7: 6528a 1994216i bk8: 6528a 1997591i bk9: 6528a 1996715i bk10: 6528a 1997032i bk11: 6528a 1997020i bk12: 6528a 1996847i bk13: 6528a 1995187i bk14: 6528a 1994376i bk15: 6528a 1994306i 
dram_util_bins: 0 0 0 0 0 0 0 0 0 0
dram_eff_bins: 0 0 0 0 0 0 0 0 0 0
mrqq: max=16 avg=0.981877
Memory Partition 2: 
Cache L2_bank_004:
MSHR contents

Cache L2_bank_005:
MSHR contents

In Dram Latency Queue (total = 0): 
DRAM[2]: 16 bks, busW=4 BL=8 CL=12, tRRD=2 tCCD=6, tRCD=12 tRAS=28 tRP=12 tRC=40
n_cmd=2100394 n_nop=1904298 n_act=25136 n_pre=25120 n_req=72920 n_rd=104172 n_write=41668 bw_util=0.1389
n_activity=871639 dram_eff=0.3346
bk0: 6500a 1999006i bk1: 6492a 1997604i bk2: 6464a 2000489i bk3: 6464a 1998979i bk4: 6484a 1998840i bk5: 6488a 1997480i bk6: 6528a 1996022i bk7: 6528a 1994934i bk8: 6528a 1998603i bk9: 6528a 1997524i bk10: 6528a 1997500i bk11: 6528a 1996853i bk12: 6528a 1997087i bk13: 6528a 1995998i bk14: 6528a 1995460i bk15: 6528a 1994657i 
dram_util_bins: 0 0 0 0 0 0 0 0 0 0
dram_eff_bins: 0 0 0 0 0 0 0 0 0 0
mrqq: max=16 avg=0.903354
Memory Partition 3: 
Cache L2_bank_006:
MSHR contents

Cache L2_bank_007:
MSHR contents
MSHR: tag=0x80f21180, atomic=0 1 entries : 0x7f2080b99980 :  mf: uid=3544160, sid05:w31, part=3, addr=0x80f21180, load , size=128, unknown  status = IN_PARTITION_DRAM (1591205), 

In Dram Latency Queue (total = 0): 
DRAM[3]: 16 bks, busW=4 BL=8 CL=12, tRRD=2 tCCD=6, tRCD=12 tRAS=28 tRP=12 tRC=40
n_cmd=2100394 n_nop=1904420 n_act=25075 n_pre=25059 n_req=72920 n_rd=104172 n_write=41668 bw_util=0.1389
n_activity=854996 dram_eff=0.3411
bk0: 6500a 1997875i bk1: 6492a 1996174i bk2: 6464a 1998059i bk3: 6464a 1997307i bk4: 6484a 1998268i bk5: 6488a 1995770i bk6: 6528a 1995369i bk7: 6528a 1993643i bk8: 6528a 1997891i bk9: 6528a 1996033i bk10: 6528a 1996902i bk11: 6528a 1994889i bk12: 6528a 1996430i bk13: 6528a 1994869i bk14: 6528a 1995293i bk15: 6528a 1993103i 
dram_util_bins: 0 0 0 0 0 0 0 0 0 0
dram_eff_bins: 0 0 0 0 0 0 0 0 0 0
mrqq: max=16 avg=0.964691
Memory Partition 4: 
Cache L2_bank_008:
MSHR contents

Cache L2_bank_009:
MSHR contents

In Dram Latency Queue (total = 0): 
DRAM[4]: 16 bks, busW=4 BL=8 CL=12, tRRD=2 tCCD=6, tRCD=12 tRAS=28 tRP=12 tRC=40
n_cmd=2100394 n_nop=1903638 n_act=25468 n_pre=25452 n_req=72918 n_rd=104168 n_write=41668 bw_util=0.1389
n_activity=871200 dram_eff=0.3348
bk0: 6496a 1999362i bk1: 6492a 1999095i bk2: 6464a 1998702i bk3: 6464a 1998495i bk4: 6484a 1998132i bk5: 6488a 1997612i bk6: 6528a 1995882i bk7: 6528a 1994468i bk8: 6528a 1998192i bk9: 6528a 1998220i bk10: 6528a 1997856i bk11: 6528a 1997740i bk12: 6528a 1997771i bk13: 6528a 1997366i bk14: 6528a 1995366i bk15: 6528a 1995176i 
dram_util_bins: 0 0 0 0 0 0 0 0 0 0
dram_eff_bins: 0 0 0 0 0 0 0 0 0 0
mrqq: max=16 avg=0.877606
Memory Partition 5: 
Cache L2_bank_010:
MSHR contents

Cache L2_bank_011:
MSHR contents

In Dram Latency Queue (total = 0): 
DRAM[5]: 16 bks, busW=4 BL=8 CL=12, tRRD=2 tCCD=6, tRCD=12 tRAS=28 tRP=12 tRC=40
n_cmd=2100394 n_nop=1903100 n_act=25737 n_pre=25721 n_req=72918 n_rd=104168 n_write=41668 bw_util=0.1389
n_activity=864902 dram_eff=0.3372
bk0: 6496a 1997804i bk1: 6492a 1997293i bk2: 6464a 1998069i bk3: 6464a 1997649i bk4: 6484a 1997061i bk5: 6488a 1996169i bk6: 6528a 1995051i bk7: 6528a 1994302i bk8: 6528a 1995929i bk9: 6528a 1997215i bk10: 6528a 1996238i bk11: 6528a 1995923i bk12: 6528a 1995830i bk13: 6528a 1995213i bk14: 6528a 1993934i bk15: 6528a 1994899i 
dram_util_bins: 0 0 0 0 0 0 0 0 0 0
dram_eff_bins: 0 0 0 0 0 0 0 0 0 0
mrqq: max=16 avg=0.919967

========= L2 cache stats =========
L2_cache_bank[0]: Access = 26087, Miss = 26045, Miss_rate = 0.998, Pending_hits = 9, Reservation_fails = 342
L2_cache_bank[1]: Access = 26040, Miss = 26040, Miss_rate = 1.000, Pending_hits = 0, Reservation_fails = 0
L2_cache_bank[2]: Access = 26072, Miss = 26044, Miss_rate = 0.999, Pending_hits = 6, Reservation_fails = 187
L2_cache_bank[3]: Access = 26040, Miss = 26040, Miss_rate = 1.000, Pending_hits = 0, Reservation_fails = 0
L2_cache_bank[4]: Access = 26072, Miss = 26044, Miss_rate = 0.999, Pending_hits = 6, Reservation_fails = 199
L2_cache_bank[5]: Access = 26042, Miss = 26042, Miss_rate = 1.000, Pending_hits = 0, Reservation_fails = 0
L2_cache_bank[6]: Access = 26072, Miss = 26044, Miss_rate = 0.999, Pending_hits = 6, Reservation_fails = 190
L2_cache_bank[7]: Access = 26042, Miss = 26042, Miss_rate = 1.000, Pending_hits = 0, Reservation_fails = 0
L2_cache_bank[8]: Access = 26042, Miss = 26042, Miss_rate = 1.000, Pending_hits = 0, Reservation_fails = 0
L2_cache_bank[9]: Access = 26042, Miss = 26042, Miss_rate = 1.000, Pending_hits = 0, Reservation_fails = 0
L2_cache_bank[10]: Access = 26042, Miss = 26042, Miss_rate = 1.000, Pending_hits = 0, Reservation_fails = 0
L2_cache_bank[11]: Access = 26042, Miss = 26042, Miss_rate = 1.000, Pending_hits = 0, Reservation_fails = 0
L2_total_cache_accesses = 312635
L2_total_cache_misses = 312509
L2_total_cache_miss_rate = 0.9996
L2_total_cache_pending_hits = 27
L2_total_cache_reservation_fails = 918
L2_total_cache_breakdown:
	L2_cache_stats_breakdown[GLOBAL_ACC_R][MISS] = 187500
	L2_cache_stats_breakdown[CONST_ACC_R][HIT] = 11
	L2_cache_stats_breakdown[CONST_ACC_R][HIT_RESERVED] = 3
	L2_cache_stats_breakdown[CONST_ACC_R][MISS] = 1
	L2_cache_stats_breakdown[CONST_ACC_R][RESERVATION_FAIL] = 109
	L2_cache_stats_breakdown[GLOBAL_ACC_W][MISS] = 125000
	L2_cache_stats_breakdown[INST_ACC_R][HIT] = 88
	L2_cache_stats_breakdown[INST_ACC_R][HIT_RESERVED] = 24
	L2_cache_stats_breakdown[INST_ACC_R][MISS] = 8
	L2_cache_stats_breakdown[INST_ACC_R][RESERVATION_FAIL] = 809
L2_cache_data_port_util = 0.000
L2_cache_fill_port_util = 0.065

icnt_total_pkts_mem_to_simt=1063145
icnt_total_pkts_simt_to_mem=812635
LD_mem_lat_dist  0 0 0 0 0 0 0 0 0 0 0 0 0 0 0 0 0 0 0 0 0 0 0 0 0 0 0
ST_mem_lat_dist  0 0 0 0 0 0 0 0 0 0 0 0 0 0 0 0 0 0 0 0 0 0 0 0 0 0 0
----------------------------Interconnect-DETAILS--------------------------------
Class 0:
Packet latency average = 10.8086
	minimum = 6
	maximum = 57
Network latency average = 10.4815
	minimum = 6
	maximum = 53
Slowest packet = 1103
Flit latency average = 8.84283
	minimum = 6
	maximum = 53
Slowest flit = 1505465
Fragmentation average = 0
	minimum = 0
	maximum = 0
Injected packet rate average = 0.0145538
	minimum = 0.0130901 (at node 0)
	maximum = 0.0163945 (at node 15)
Accepted packet rate average = 0.0145538
	minimum = 0.0130901 (at node 0)
	maximum = 0.0163945 (at node 15)
Injected flit rate average = 0.0436607
	minimum = 0.0340251 (at node 0)
	maximum = 0.0557696 (at node 15)
Accepted flit rate average= 0.0436607
	minimum = 0.0425488 (at node 16)
	maximum = 0.0445567 (at node 1)
Injected packet length average = 2.99995
Accepted packet length average = 2.99995
Total in-flight flits = 0 (0 measured)
====== Overall Traffic Statistics ======
====== Traffic class 0 ======
Packet latency average = 10.8086 (1 samples)
	minimum = 6 (1 samples)
	maximum = 57 (1 samples)
Network latency average = 10.4815 (1 samples)
	minimum = 6 (1 samples)
	maximum = 53 (1 samples)
Flit latency average = 8.84283 (1 samples)
	minimum = 6 (1 samples)
	maximum = 53 (1 samples)
Fragmentation average = 0 (1 samples)
	minimum = 0 (1 samples)
	maximum = 0 (1 samples)
Injected packet rate average = 0.0145538 (1 samples)
	minimum = 0.0130901 (1 samples)
	maximum = 0.0163945 (1 samples)
Accepted packet rate average = 0.0145538 (1 samples)
	minimum = 0.0130901 (1 samples)
	maximum = 0.0163945 (1 samples)
Injected flit rate average = 0.0436607 (1 samples)
	minimum = 0.0340251 (1 samples)
	maximum = 0.0557696 (1 samples)
Accepted flit rate average = 0.0436607 (1 samples)
	minimum = 0.0425488 (1 samples)
	maximum = 0.0445567 (1 samples)
Injected packet size average = 2.99995 (1 samples)
Accepted packet size average = 2.99995 (1 samples)
Hops average = 1 (1 samples)
----------------------------END-of-Interconnect-DETAILS-------------------------


gpgpu_simulation_time = 0 days, 0 hrs, 10 min, 19 sec (619 sec)
gpgpu_simulation_rate = 316287 (inst/sec)
gpgpu_simulation_rate = 2570 (cycle/sec)
GPGPU-Sim: synchronize waiting for inactive GPU simulation
GPGPU-Sim API: Stream Manager State
GPGPU-Sim: detected inactive GPU simulation thread
Options count             : 4000000     
BlackScholesGPU() time    : 616641.312500 msec
Effective memory bandwidth: 0.000065 GB/s
Gigaoptions per second    : 0.000006     
Reading back GPU results...
Checking the results...
...running CPU calculations.
Comparing the results...
L1 norm: 1.729535E-07
Max absolute error: 1.192093E-05
TEST PASSED
Shutting down...
...releasing GPU memory.
...releasing CPU memory.
Shutdown done.
GPGPU-Sim: exit_simulation called
GPGPU-Sim: simulation thread signaled exit

Press ENTER to exit...
