

        *** GPGPU-Sim Simulator Version 3.2.2  [build 0] ***


GPGPU-Sim PTX: simulation mode 0 (can change with PTX_SIM_MODE_FUNC environment variable:
               1=functional simulation only, 0=detailed performance simulator)
GPGPU-Sim: Configuration options:

-network_mode                           1 # Interconnection network mode
-inter_config_file   config_fermi_islip.icnt # Interconnection network config file
-gpgpu_ptx_use_cuobjdump                    1 # Use cuobjdump to extract ptx and sass from binaries
-gpgpu_experimental_lib_support                    0 # Try to extract code from cuda libraries [Broken because of unknown cudaGetExportTable]
-gpgpu_ptx_convert_to_ptxplus                    0 # Convert SASS (native ISA) to ptxplus and run ptxplus
-gpgpu_ptx_force_max_capability                   20 # Force maximum compute capability
-gpgpu_ptx_inst_debug_to_file                    0 # Dump executed instructions' debug information to file
-gpgpu_ptx_inst_debug_file       inst_debug.txt # Executed instructions' debug output file
-gpgpu_ptx_inst_debug_thread_uid                    1 # Thread UID for executed instructions' debug output
-gpgpu_simd_model                       1 # 1 = post-dominator
-gpgpu_shader_core_pipeline              1536:32 # shader core pipeline config, i.e., {<nthread>:<warpsize>}
-gpgpu_tex_cache:l1  4:128:24,L:R:m:N:L,F:128:4,128:2 # per-shader L1 texture cache  (READ-ONLY) config  {<nsets>:<bsize>:<assoc>,<rep>:<wr>:<alloc>:<wr_alloc>,<mshr>:<N>:<merge>,<mq>:<rf>}
-gpgpu_const_cache:l1 64:64:2,L:R:f:N:L,A:2:32,4 # per-shader L1 constant memory cache  (READ-ONLY) config  {<nsets>:<bsize>:<assoc>,<rep>:<wr>:<alloc>:<wr_alloc>,<mshr>:<N>:<merge>,<mq>} 
-gpgpu_cache:il1     4:128:4,L:R:f:N:L,A:2:32,4 # shader L1 instruction cache config  {<nsets>:<bsize>:<assoc>,<rep>:<wr>:<alloc>:<wr_alloc>,<mshr>:<N>:<merge>,<mq>} 
-gpgpu_cache:dl1     32:128:4,L:L:m:N:H,A:32:8,8:2,0,1:0:1:1:0:1,1:4:8:16:32:64,/sciclone/data10/hwang07/GPU_RESEARCH/swl/swl_outputs/RESULTS/swl4/ # per-shader L1 data cache config  {<nsets>:<bsize>:<assoc>,<rep>:<wr>:<alloc>:<wr_alloc>,<mshr>:<N>:<merge>,<mq> | none}
-gpgpu_cache:dl1PrefL1                 none # per-shader L1 data cache config  {<nsets>:<bsize>:<assoc>,<rep>:<wr>:<alloc>:<wr_alloc>,<mshr>:<N>:<merge>,<mq> | none}
-gpgpu_cache:dl1PreShared                 none # per-shader L1 data cache config  {<nsets>:<bsize>:<assoc>,<rep>:<wr>:<alloc>:<wr_alloc>,<mshr>:<N>:<merge>,<mq> | none}
-gmem_skip_L1D                          0 # global memory access skip L1D cache (implements -Xptxas -dlcm=cg, default=no skip)
-gpgpu_perfect_mem                      0 # enable perfect memory mode (no cache miss)
-n_regfile_gating_group                    4 # group of lanes that should be read/written together)
-gpgpu_clock_gated_reg_file                    0 # enable clock gated reg file for power calculations
-gpgpu_clock_gated_lanes                    0 # enable clock gated lanes for power calculations
-gpgpu_shader_registers                32768 # Number of registers per shader core. Limits number of concurrent CTAs. (default 8192)
-gpgpu_shader_cta                       8 # Maximum number of concurrent CTAs in shader (default 8)
-gpgpu_num_cta_barriers                   16 # Maximum number of named barriers per CTA (default 16)
-gpgpu_n_clusters                      15 # number of processing clusters
-gpgpu_n_cores_per_cluster                    1 # number of simd cores per cluster
-gpgpu_n_cluster_ejection_buffer_size                    8 # number of packets in ejection buffer
-gpgpu_n_ldst_response_buffer_size                    2 # number of response packets in ld/st unit ejection buffer
-gpgpu_shmem_size                   16384 # Size of shared memory per shader core (default 16kB)
-gpgpu_shmem_size                   49152 # Size of shared memory per shader core (default 16kB)
-gpgpu_shmem_size_PrefL1                16384 # Size of shared memory per shader core (default 16kB)
-gpgpu_shmem_size_PrefShared                16384 # Size of shared memory per shader core (default 16kB)
-gpgpu_shmem_num_banks                   32 # Number of banks in the shared memory in each shader core (default 16)
-gpgpu_shmem_limited_broadcast                    0 # Limit shared memory to do one broadcast per cycle (default on)
-gpgpu_shmem_warp_parts                    1 # Number of portions a warp is divided into for shared memory bank conflict check 
-gpgpu_warpdistro_shader                   -1 # Specify which shader core to collect the warp size distribution from
-gpgpu_warp_issue_shader                    0 # Specify which shader core to collect the warp issue distribution from
-gpgpu_local_mem_map                    1 # Mapping from local memory space address to simulated GPU physical address space (default = enabled)
-gpgpu_num_reg_banks                   16 # Number of register banks (default = 8)
-gpgpu_reg_bank_use_warp_id                    0 # Use warp ID in mapping registers to banks (default = off)
-gpgpu_operand_collector_num_units_sp                    6 # number of collector units (default = 4)
-gpgpu_operand_collector_num_units_sfu                    8 # number of collector units (default = 4)
-gpgpu_operand_collector_num_units_mem                    2 # number of collector units (default = 2)
-gpgpu_operand_collector_num_units_gen                    0 # number of collector units (default = 0)
-gpgpu_operand_collector_num_in_ports_sp                    2 # number of collector unit in ports (default = 1)
-gpgpu_operand_collector_num_in_ports_sfu                    1 # number of collector unit in ports (default = 1)
-gpgpu_operand_collector_num_in_ports_mem                    1 # number of collector unit in ports (default = 1)
-gpgpu_operand_collector_num_in_ports_gen                    0 # number of collector unit in ports (default = 0)
-gpgpu_operand_collector_num_out_ports_sp                    2 # number of collector unit in ports (default = 1)
-gpgpu_operand_collector_num_out_ports_sfu                    1 # number of collector unit in ports (default = 1)
-gpgpu_operand_collector_num_out_ports_mem                    1 # number of collector unit in ports (default = 1)
-gpgpu_operand_collector_num_out_ports_gen                    0 # number of collector unit in ports (default = 0)
-gpgpu_coalesce_arch                   13 # Coalescing arch (default = 13, anything else is off for now)
-gpgpu_num_sched_per_core                    2 # Number of warp schedulers per core
-gpgpu_max_insn_issue_per_warp                    1 # Max number of instructions that can be issued per warp in one cycle by scheduler
-gpgpu_simt_core_sim_order                    1 # Select the simulation order of cores in a cluster (0=Fix, 1=Round-Robin)
-gpgpu_pipeline_widths        2,1,1,2,1,1,2 # Pipeline widths ID_OC_SP,ID_OC_SFU,ID_OC_MEM,OC_EX_SP,OC_EX_SFU,OC_EX_MEM,EX_WB
-gpgpu_num_sp_units                     2 # Number of SP units (default=1)
-gpgpu_num_sfu_units                    1 # Number of SF units (default=1)
-gpgpu_num_mem_units                    1 # Number if ldst units (default=1) WARNING: not hooked up to anything
-gpgpu_scheduler        warp_limiting:2:4 # Scheduler configuration: < lrr | gto | two_level_active > If two_level_active:<num_active_warps>:<inner_prioritization>:<outer_prioritization>For complete list of prioritization values see shader.h enum scheduler_prioritization_typeDefault: gto
-gpgpu_dram_scheduler                    1 # 0 = fifo, 1 = FR-FCFS (defaul)
-gpgpu_dram_partition_queues              8:8:8:8 # i2$:$2d:d2$:$2i
-l2_ideal                               0 # Use a ideal L2 cache that always hit
-gpgpu_cache:dl2     64:128:8,L:B:m:W:L,A:32:4,4:0,32 # unified banked L2 data cache config  {<nsets>:<bsize>:<assoc>,<rep>:<wr>:<alloc>:<wr_alloc>,<mshr>:<N>:<merge>,<mq>}
-gpgpu_cache:dl2_texture_only                    0 # L2 cache used for texture only
-gpgpu_n_mem                            6 # number of memory modules (e.g. memory controllers) in gpu
-gpgpu_n_sub_partition_per_mchannel                    2 # number of memory subpartition in each memory module
-gpgpu_n_mem_per_ctrlr                    2 # number of memory chips per memory controller
-gpgpu_memlatency_stat                   14 # track and display latency statistics 0x2 enables MC, 0x4 enables queue logs
-gpgpu_frfcfs_dram_sched_queue_size                   16 # 0 = unlimited (default); # entries per chip
-gpgpu_dram_return_queue_size                  116 # 0 = unlimited (default); # entries per chip
-gpgpu_dram_buswidth                    4 # default = 4 bytes (8 bytes per cycle at DDR)
-gpgpu_dram_burst_length                    8 # Burst length of each DRAM request (default = 4 data bus cycle)
-dram_data_command_freq_ratio                    4 # Frequency ratio between DRAM data bus and command bus (default = 2 times, i.e. DDR)
-gpgpu_dram_timing_opt nbk=16:CCD=2:RRD=6:RCD=12:RAS=28:RP=12:RC=40: CL=12:WL=4:CDLR=5:WR=12:nbkgrp=4:CCDL=3:RTPL=2 # DRAM timing parameters = {nbk:tCCD:tRRD:tRCD:tRAS:tRP:tRC:CL:WL:tCDLR:tWR:nbkgrp:tCCDL:tRTPL}
-rop_latency                          120 # ROP queue latency (default 85)
-dram_latency                         100 # DRAM latency (default 30)
-gpgpu_mem_addr_mapping dramid@8;00000000.00000000.00000000.00000000.0000RRRR.RRRRRRRR.BBBCCCCB.CCSSSSSS # mapping memory address to dram model {dramid@<start bit>;<memory address map>}
-gpgpu_mem_addr_test                    0 # run sweep test to check address mapping for aliased address
-gpgpu_mem_address_mask                    1 # 0 = old addressing mask, 1 = new addressing mask, 2 = new add. mask + flipped bank sel and chip sel bits
-gpuwattch_xml_file  gpuwattch_gtx480.xml # GPUWattch XML file
-power_simulation_enabled                    0 # Turn on power simulator (1=On, 0=Off)
-power_per_cycle_dump                    0 # Dump detailed power output each cycle
-power_trace_enabled                    0 # produce a file for the power trace (1=On, 0=Off)
-power_trace_zlevel                     6 # Compression level of the power trace output log (0=no comp, 9=highest)
-steady_power_levels_enabled                    0 # produce a file for the steady power levels (1=On, 0=Off)
-steady_state_definition                  8:4 # allowed deviation:number of samples
-gpgpu_max_cycle                        0 # terminates gpu simulation early (0 = no limit)
-gpgpu_max_insn                         0 # terminates gpu simulation early (0 = no limit)
-gpgpu_max_cta                          0 # terminates gpu simulation early (0 = no limit)
-gpgpu_runtime_stat                   500 # display runtime statistics such as dram utilization {<freq>:<flag>}
-liveness_message_freq                    1 # Minimum number of seconds between simulation liveness messages (0 = always print)
-gpgpu_flush_l1_cache                    0 # Flush L1 cache at the end of each kernel call
-gpgpu_flush_l2_cache                    0 # Flush L2 cache at the end of each kernel call
-gpgpu_deadlock_detect                    1 # Stop the simulation at deadlock (1=on (default), 0=off)
-gpgpu_ptx_instruction_classification                    0 # if enabled will classify ptx instruction types per kernel (Max 255 kernels now)
-gpgpu_ptx_sim_mode                     0 # Select between Performance (default) or Functional simulation (1)
-gpgpu_clock_domains 700.0:700.0:700.0:924.0 # Clock Domain Frequencies in MhZ {<Core Clock>:<ICNT Clock>:<L2 Clock>:<DRAM Clock>}
-gpgpu_max_concurrent_kernel                    8 # maximum kernels that can run concurrently on GPU
-gpgpu_cflog_interval                    0 # Interval between each snapshot in control flow logger
-visualizer_enabled                     0 # Turn on visualizer output (1=On, 0=Off)
-visualizer_outputfile                 NULL # Specifies the output log file for visualizer
-visualizer_zlevel                      6 # Compression level of the visualizer output log (0=no comp, 9=highest)
-trace_enabled                          0 # Turn on traces
-trace_components                    none # comma seperated list of traces to enable. Complete list found in trace_streams.tup. Default none
-trace_sampling_core                    0 # The core which is printed using CORE_DPRINTF. Default 0
-trace_sampling_memory_partition                   -1 # The memory partition which is printed using MEMPART_DPRINTF. Default -1 (i.e. all)
-enable_ptx_file_line_stats                    1 # Turn on PTX source line statistic profiling. (1 = On)
-ptx_line_stats_filename gpgpu_inst_stats.txt # Output file for PTX source line statistics.
-save_embedded_ptx                      0 # saves ptx files embedded in binary as <n>.ptx
-keep                                   0 # keep intermediate files created by GPGPU-Sim when interfacing with external programs
-gpgpu_ptx_save_converted_ptxplus                    0 # Saved converted ptxplus to a file
-ptx_opcode_latency_int         4,13,4,5,145 # Opcode latencies for integers <ADD,MAX,MUL,MAD,DIV>Default 1,1,19,25,145
-ptx_opcode_latency_fp          4,13,4,5,39 # Opcode latencies for single precision floating points <ADD,MAX,MUL,MAD,DIV>Default 1,1,1,1,30
-ptx_opcode_latency_dp         8,19,8,8,330 # Opcode latencies for double precision floating points <ADD,MAX,MUL,MAD,DIV>Default 8,8,8,8,335
-ptx_opcode_initiation_int            1,2,2,1,8 # Opcode initiation intervals for integers <ADD,MAX,MUL,MAD,DIV>Default 1,1,4,4,32
-ptx_opcode_initiation_fp            1,2,1,1,4 # Opcode initiation intervals for single precision floating points <ADD,MAX,MUL,MAD,DIV>Default 1,1,1,1,5
-ptx_opcode_initiation_dp         8,16,8,8,130 # Opcode initiation intervals for double precision floating points <ADD,MAX,MUL,MAD,DIV>Default 8,8,8,8,130
DRAM Timing Options:
nbk                                    16 # number of banks
CCD                                     2 # column to column delay
RRD                                     6 # minimal delay between activation of rows in different banks
RCD                                    12 # row to column delay
RAS                                    28 # time needed to activate row
RP                                     12 # time needed to precharge (deactivate) row
RC                                     40 # row cycle time
CDLR                                    5 # switching from write to read (changes tWTR)
WR                                     12 # last data-in to row precharge
CL                                     12 # CAS latency
WL                                      4 # Write latency
nbkgrp                                  4 # number of bank groups
CCDL                                    3 # column to column delay between accesses to different bank groups
RTPL                                    2 # read to precharge delay between accesses to different bank groups
Total number of memory sub partition = 12
addr_dec_mask[CHIP]  = 0000000000000000 	high:64 low:0
addr_dec_mask[BK]    = 000000000000e100 	high:16 low:8
addr_dec_mask[ROW]   = 000000000fff0000 	high:28 low:16
addr_dec_mask[COL]   = 0000000000001eff 	high:13 low:0
addr_dec_mask[BURST] = 000000000000003f 	high:6 low:0
sub_partition_id_mask = 0000000000000100
GPGPU-Sim uArch: clock freqs: 700000000.000000:700000000.000000:700000000.000000:924000000.000000
GPGPU-Sim uArch: clock periods: 0.00000000142857142857:0.00000000142857142857:0.00000000142857142857:0.00000000108225108225
*** Initializing Memory Statistics ***
GPGPU-Sim uArch: interconnect node map (shaderID+MemID to icntID)
GPGPU-Sim uArch: Memory nodes ID start from index: 15
GPGPU-Sim uArch:    0   1   2   3   4
GPGPU-Sim uArch:    5   6   7   8   9
GPGPU-Sim uArch:   10  11  12  13  14
GPGPU-Sim uArch:   15  16  17  18  19
GPGPU-Sim uArch:   20  21  22  23  24
GPGPU-Sim uArch:   25  26
GPGPU-Sim uArch: interconnect node reverse map (icntID to shaderID+MemID)
GPGPU-Sim uArch: Memory nodes start from ID: 15
GPGPU-Sim uArch:    0   1   2   3   4
GPGPU-Sim uArch:    5   6   7   8   9
GPGPU-Sim uArch:   10  11  12  13  14
GPGPU-Sim uArch:   15  16  17  18  19
GPGPU-Sim uArch:   20  21  22  23  24
GPGPU-Sim uArch:   25  26
0ca4cfd75019462581e9be067b6aa566  /sciclone/data10/hwang07/adwait/applications/benchmarks/Mars/sample_apps/PageViewCount/gpgpu_ptx_sim__PageViewCount
GPGPU-Sim uArch: performance model initialization complete.
GPGPU-Sim PTX: __cudaRegisterFatBinary, fat_cubin_handle = 1, filename=MarsSort.cu
self exe links to: /sciclone/data10/hwang07/adwait/applications/benchmarks/Mars/sample_apps/PageViewCount/gpgpu_ptx_sim__PageViewCount
Running md5sum using "md5sum /sciclone/data10/hwang07/adwait/applications/benchmarks/Mars/sample_apps/PageViewCount/gpgpu_ptx_sim__PageViewCount "
Parsing file _cuobjdump_complete_output_89xPt1
######### cuobjdump parser ########
## Adding new section ELF
Adding arch: sm_20
Adding identifier: main.cu
## Adding new section PTX
Adding ptx filename: _cuobjdump_1.ptx
Adding arch: sm_20
Adding identifier: main.cu
## Adding new section ELF
Adding arch: sm_20
Adding identifier: MarsLib.cu
## Adding new section PTX
Adding ptx filename: _cuobjdump_2.ptx
Adding arch: sm_20
Adding identifier: MarsLib.cu
## Adding new section ELF
Adding arch: sm_20
Adding identifier: MarsScan.cu
## Adding new section PTX
Adding ptx filename: _cuobjdump_3.ptx
Adding arch: sm_20
Adding identifier: MarsScan.cu
## Adding new section ELF
Adding arch: sm_20
Adding identifier: MarsSort.cu
## Adding new section PTX
Adding ptx filename: _cuobjdump_4.ptx
Adding arch: sm_20
Adding identifier: MarsSort.cu
Done parsing!!!
GPGPU-Sim PTX: __cudaRegisterFunction _Z20writeBoundary_kerneliiPiS_S_ : hostFun 0x0x408f3b, fat_cubin_handle = 1
GPGPU-Sim PTX: allocating stack frame region for .param "__cudaretf__Z7comparePKviS0_i" from 0x0 to 0x4
GPGPU-Sim PTX: allocating stack frame region for .param "__cudaparmf1__Z7comparePKviS0_i" from 0x4 to 0xc
GPGPU-Sim PTX: allocating stack frame region for .param "__cudaparmf2__Z7comparePKviS0_i" from 0xc to 0x10
GPGPU-Sim PTX: allocating stack frame region for .param "__cudaparmf3__Z7comparePKviS0_i" from 0x10 to 0x18
GPGPU-Sim PTX: allocating stack frame region for .param "__cudaparmf4__Z7comparePKviS0_i" from 0x18 to 0x1c
GPGPU-Sim PTX: allocating stack frame region for .param "__cudaretf__Z15getCompareValuePv4int4S0_" from 0x0 to 0x4
GPGPU-Sim PTX: allocating stack frame region for .param "__cudaparmf1__Z15getCompareValuePv4int4S0_" from 0x4 to 0xc
GPGPU-Sim PTX: allocating stack frame region for .param "__cudaparmf2__Z15getCompareValuePv4int4S0_" from 0xc to 0x1c
GPGPU-Sim PTX: allocating stack frame region for .param "__cudaparmf3__Z15getCompareValuePv4int4S0_" from 0x1c to 0x2c
GPGPU-Sim PTX: instruction assembly for function '_Z7comparePKviS0_i'...   done.
GPGPU-Sim PTX: finding reconvergence points for '_Z7comparePKviS0_i'...
GPGPU-Sim PTX: Finding dominators for '_Z7comparePKviS0_i'...
GPGPU-Sim PTX: Finding immediate dominators for '_Z7comparePKviS0_i'...
GPGPU-Sim PTX: Finding postdominators for '_Z7comparePKviS0_i'...
GPGPU-Sim PTX: Finding immediate postdominators for '_Z7comparePKviS0_i'...
GPGPU-Sim PTX: pre-decoding instructions for '_Z7comparePKviS0_i'...
GPGPU-Sim PTX: reconvergence points for _Z7comparePKviS0_i...
GPGPU-Sim PTX:  1 (potential) branch divergence @  PC=0x038 (_1.ptx:74) @%p1 bra $Lt_0_6658;
GPGPU-Sim PTX:    immediate post dominator      @  PC=0x1a8 (_1.ptx:136) mov.s32 %r12, %r3;
GPGPU-Sim PTX:  2 (potential) branch divergence @  PC=0x048 (_1.ptx:77) bra.uni $LBB19__Z7comparePKviS0_i;
GPGPU-Sim PTX:    immediate post dominator      @  PC=0x1a8 (_1.ptx:136) mov.s32 %r12, %r3;
GPGPU-Sim PTX:  3 (potential) branch divergence @  PC=0x058 (_1.ptx:80) @%p2 bra $Lt_0_6402;
GPGPU-Sim PTX:    immediate post dominator      @  PC=0x1a8 (_1.ptx:136) mov.s32 %r12, %r3;
GPGPU-Sim PTX:  4 (potential) branch divergence @  PC=0x068 (_1.ptx:83) bra.uni $LBB19__Z7comparePKviS0_i;
GPGPU-Sim PTX:    immediate post dominator      @  PC=0x1a8 (_1.ptx:136) mov.s32 %r12, %r3;
GPGPU-Sim PTX:  5 (potential) branch divergence @  PC=0x0c8 (_1.ptx:99) @%p3 bra $Lt_0_8706;
GPGPU-Sim PTX:    immediate post dominator      @  PC=0x160 (_1.ptx:121) setp.le.s32 %p9, %r6, %r7;
GPGPU-Sim PTX:  6 (potential) branch divergence @  PC=0x0e0 (_1.ptx:102) @%p4 bra $Lt_0_8706;
GPGPU-Sim PTX:    immediate post dominator      @  PC=0x160 (_1.ptx:121) setp.le.s32 %p9, %r6, %r7;
GPGPU-Sim PTX:  7 (potential) branch divergence @  PC=0x0f8 (_1.ptx:105) @%p5 bra $Lt_0_8706;
GPGPU-Sim PTX:    immediate post dominator      @  PC=0x160 (_1.ptx:121) setp.le.s32 %p9, %r6, %r7;
GPGPU-Sim PTX:  8 (potential) branch divergence @  PC=0x128 (_1.ptx:112) @%p6 bra $Lt_0_8706;
GPGPU-Sim PTX:    immediate post dominator      @  PC=0x160 (_1.ptx:121) setp.le.s32 %p9, %r6, %r7;
GPGPU-Sim PTX:  9 (potential) branch divergence @  PC=0x140 (_1.ptx:115) @%p7 bra $Lt_0_8706;
GPGPU-Sim PTX:    immediate post dominator      @  PC=0x160 (_1.ptx:121) setp.le.s32 %p9, %r6, %r7;
GPGPU-Sim PTX: 10 (potential) branch divergence @  PC=0x158 (_1.ptx:118) @%p8 bra $L_0_4866;
GPGPU-Sim PTX:    immediate post dominator      @  PC=0x160 (_1.ptx:121) setp.le.s32 %p9, %r6, %r7;
GPGPU-Sim PTX: 11 (potential) branch divergence @  PC=0x168 (_1.ptx:122) @%p9 bra $Lt_0_7426;
GPGPU-Sim PTX:    immediate post dominator      @  PC=0x1a8 (_1.ptx:136) mov.s32 %r12, %r3;
GPGPU-Sim PTX: 12 (potential) branch divergence @  PC=0x178 (_1.ptx:125) bra.uni $LBB19__Z7comparePKviS0_i;
GPGPU-Sim PTX:    immediate post dominator      @  PC=0x1a8 (_1.ptx:136) mov.s32 %r12, %r3;
GPGPU-Sim PTX: 13 (potential) branch divergence @  PC=0x188 (_1.ptx:128) @%p10 bra $Lt_0_7938;
GPGPU-Sim PTX:    immediate post dominator      @  PC=0x1a8 (_1.ptx:136) mov.s32 %r12, %r3;
GPGPU-Sim PTX: 14 (potential) branch divergence @  PC=0x198 (_1.ptx:131) bra.uni $LBB19__Z7comparePKviS0_i;
GPGPU-Sim PTX:    immediate post dominator      @  PC=0x1a8 (_1.ptx:136) mov.s32 %r12, %r3;
GPGPU-Sim PTX: ... end of reconvergence points for _Z7comparePKviS0_i
GPGPU-Sim PTX: ... done pre-decoding instructions for '_Z7comparePKviS0_i'.
GPGPU-Sim PTX: instruction assembly for function '_Z15getCompareValuePv4int4S0_'...   done.
GPGPU-Sim PTX: finding reconvergence points for '_Z15getCompareValuePv4int4S0_'...
GPGPU-Sim PTX: Finding dominators for '_Z15getCompareValuePv4int4S0_'...
GPGPU-Sim PTX: Finding immediate dominators for '_Z15getCompareValuePv4int4S0_'...
GPGPU-Sim PTX: Finding postdominators for '_Z15getCompareValuePv4int4S0_'...
GPGPU-Sim PTX: Finding immediate postdominators for '_Z15getCompareValuePv4int4S0_'...
GPGPU-Sim PTX: pre-decoding instructions for '_Z15getCompareValuePv4int4S0_'...
GPGPU-Sim PTX: reconvergence points for _Z15getCompareValuePv4int4S0_...
GPGPU-Sim PTX:  1 (potential) branch divergence @  PC=0x238 (_1.ptx:164) @%p2 bra $Lt_1_9730;
GPGPU-Sim PTX:    immediate post dominator      @  PC=0x430 (_1.ptx:251) mov.s32 %r26, %r12;
GPGPU-Sim PTX:  2 (potential) branch divergence @  PC=0x248 (_1.ptx:166) @%p3 bra $Lt_1_10242;
GPGPU-Sim PTX:    immediate post dominator      @  PC=0x430 (_1.ptx:251) mov.s32 %r26, %r12;
GPGPU-Sim PTX:  3 (potential) branch divergence @  PC=0x258 (_1.ptx:168) bra.uni $Lt_1_9474;
GPGPU-Sim PTX:    immediate post dominator      @  PC=0x430 (_1.ptx:251) mov.s32 %r26, %r12;
GPGPU-Sim PTX:  4 (potential) branch divergence @  PC=0x278 (_1.ptx:174) bra.uni $Lt_1_9474;
GPGPU-Sim PTX:    immediate post dominator      @  PC=0x430 (_1.ptx:251) mov.s32 %r26, %r12;
GPGPU-Sim PTX:  5 (potential) branch divergence @  PC=0x2b8 (_1.ptx:185) @%p4 bra $Lt_1_10754;
GPGPU-Sim PTX:    immediate post dominator      @  PC=0x428 (_1.ptx:248) mov.s32 %r12, %r17;
GPGPU-Sim PTX:  6 (potential) branch divergence @  PC=0x2c8 (_1.ptx:188) bra.uni $LDWendi__Z7comparePKviS0_i_181_1;
GPGPU-Sim PTX:    immediate post dominator      @  PC=0x428 (_1.ptx:248) mov.s32 %r12, %r17;
GPGPU-Sim PTX:  7 (potential) branch divergence @  PC=0x2d8 (_1.ptx:191) @%p5 bra $Lt_1_10498;
GPGPU-Sim PTX:    immediate post dominator      @  PC=0x428 (_1.ptx:248) mov.s32 %r12, %r17;
GPGPU-Sim PTX:  8 (potential) branch divergence @  PC=0x2e8 (_1.ptx:194) bra.uni $LDWendi__Z7comparePKviS0_i_181_1;
GPGPU-Sim PTX:    immediate post dominator      @  PC=0x428 (_1.ptx:248) mov.s32 %r12, %r17;
GPGPU-Sim PTX:  9 (potential) branch divergence @  PC=0x348 (_1.ptx:210) @%p6 bra $Lt_1_12802;
GPGPU-Sim PTX:    immediate post dominator      @  PC=0x3e0 (_1.ptx:232) setp.le.s32 %p12, %r20, %r21;
GPGPU-Sim PTX: 10 (potential) branch divergence @  PC=0x360 (_1.ptx:213) @%p7 bra $Lt_1_12802;
GPGPU-Sim PTX:    immediate post dominator      @  PC=0x3e0 (_1.ptx:232) setp.le.s32 %p12, %r20, %r21;
GPGPU-Sim PTX: 11 (potential) branch divergence @  PC=0x378 (_1.ptx:216) @%p8 bra $Lt_1_12802;
GPGPU-Sim PTX:    immediate post dominator      @  PC=0x3e0 (_1.ptx:232) setp.le.s32 %p12, %r20, %r21;
GPGPU-Sim PTX: 12 (potential) branch divergence @  PC=0x3a8 (_1.ptx:223) @%p9 bra $Lt_1_12802;
GPGPU-Sim PTX:    immediate post dominator      @  PC=0x3e0 (_1.ptx:232) setp.le.s32 %p12, %r20, %r21;
GPGPU-Sim PTX: 13 (potential) branch divergence @  PC=0x3c0 (_1.ptx:226) @%p10 bra $Lt_1_12802;
GPGPU-Sim PTX:    immediate post dominator      @  PC=0x3e0 (_1.ptx:232) setp.le.s32 %p12, %r20, %r21;
GPGPU-Sim PTX: 14 (potential) branch divergence @  PC=0x3d8 (_1.ptx:229) @%p11 bra $L_1_7938;
GPGPU-Sim PTX:    immediate post dominator      @  PC=0x3e0 (_1.ptx:232) setp.le.s32 %p12, %r20, %r21;
GPGPU-Sim PTX: 15 (potential) branch divergence @  PC=0x3e8 (_1.ptx:233) @%p12 bra $Lt_1_11522;
GPGPU-Sim PTX:    immediate post dominator      @  PC=0x428 (_1.ptx:248) mov.s32 %r12, %r17;
GPGPU-Sim PTX: 16 (potential) branch divergence @  PC=0x3f8 (_1.ptx:236) bra.uni $LDWendi__Z7comparePKviS0_i_181_1;
GPGPU-Sim PTX:    immediate post dominator      @  PC=0x428 (_1.ptx:248) mov.s32 %r12, %r17;
GPGPU-Sim PTX: 17 (potential) branch divergence @  PC=0x408 (_1.ptx:239) @%p13 bra $Lt_1_12034;
GPGPU-Sim PTX:    immediate post dominator      @  PC=0x428 (_1.ptx:248) mov.s32 %r12, %r17;
GPGPU-Sim PTX: 18 (potential) branch divergence @  PC=0x418 (_1.ptx:242) bra.uni $LDWendi__Z7comparePKviS0_i_181_1;
GPGPU-Sim PTX:    immediate post dominator      @  PC=0x428 (_1.ptx:248) mov.s32 %r12, %r17;
GPGPU-Sim PTX: ... end of reconvergence points for _Z15getCompareValuePv4int4S0_
GPGPU-Sim PTX: ... done pre-decoding instructions for '_Z15getCompareValuePv4int4S0_'.
GPGPU-Sim PTX: allocating shared region for "__cuda___cuda_local_var_45785_37_non_const_shared48" from 0x0 to 0x1000 (shared memory space)
GPGPU-Sim PTX: instruction assembly for function '_Z21partBitonicSortKernelPviP4int4jii'...   done.
GPGPU-Sim PTX: finding reconvergence points for '_Z21partBitonicSortKernelPviP4int4jii'...
GPGPU-Sim PTX: Finding dominators for '_Z21partBitonicSortKernelPviP4int4jii'...
GPGPU-Sim PTX: Finding immediate dominators for '_Z21partBitonicSortKernelPviP4int4jii'...
GPGPU-Sim PTX: Finding postdominators for '_Z21partBitonicSortKernelPviP4int4jii'...
GPGPU-Sim PTX: Finding immediate postdominators for '_Z21partBitonicSortKernelPviP4int4jii'...
GPGPU-Sim PTX: pre-decoding instructions for '_Z21partBitonicSortKernelPviP4int4jii'...
GPGPU-Sim PTX: reconvergence points for _Z21partBitonicSortKernelPviP4int4jii...
GPGPU-Sim PTX:  1 (potential) branch divergence @  PC=0x518 (_1.ptx:299) @%p1 bra $Lt_2_34562;
GPGPU-Sim PTX:    immediate post dominator      @  PC=0xb88 (_1.ptx:577) ld.v4.s32 {%r87,%r88,%r89,%r90}, [%rd4+0];
GPGPU-Sim PTX:  2 (potential) branch divergence @  PC=0x560 (_1.ptx:311) @%p2 bra $Lt_2_33538;
GPGPU-Sim PTX:    immediate post dominator      @  PC=0x828 (_1.ptx:431) bar.sync 0;
GPGPU-Sim PTX:  3 (potential) branch divergence @  PC=0x5b0 (_1.ptx:322) @%p4 bra $Lt_2_29698;
GPGPU-Sim PTX:    immediate post dominator      @  PC=0x7b0 (_1.ptx:410) and.b32 %r50, %r6, 256;
GPGPU-Sim PTX:  4 (potential) branch divergence @  PC=0x5c0 (_1.ptx:324) @%p5 bra $Lt_2_30210;
GPGPU-Sim PTX:    immediate post dominator      @  PC=0x7b0 (_1.ptx:410) and.b32 %r50, %r6, 256;
GPGPU-Sim PTX:  5 (potential) branch divergence @  PC=0x5d0 (_1.ptx:326) bra.uni $Lt_2_29442;
GPGPU-Sim PTX:    immediate post dominator      @  PC=0x7b0 (_1.ptx:410) and.b32 %r50, %r6, 256;
GPGPU-Sim PTX:  6 (potential) branch divergence @  PC=0x5f0 (_1.ptx:332) bra.uni $Lt_2_29442;
GPGPU-Sim PTX:    immediate post dominator      @  PC=0x7b0 (_1.ptx:410) and.b32 %r50, %r6, 256;
GPGPU-Sim PTX:  7 (potential) branch divergence @  PC=0x638 (_1.ptx:344) @%p6 bra $Lt_2_30722;
GPGPU-Sim PTX:    immediate post dominator      @  PC=0x7a8 (_1.ptx:407) mov.s32 %r36, %r41;
GPGPU-Sim PTX:  8 (potential) branch divergence @  PC=0x648 (_1.ptx:347) bra.uni $LDWendi__Z7comparePKviS0_i_182_3;
GPGPU-Sim PTX:    immediate post dominator      @  PC=0x7a8 (_1.ptx:407) mov.s32 %r36, %r41;
GPGPU-Sim PTX:  9 (potential) branch divergence @  PC=0x658 (_1.ptx:350) @%p7 bra $Lt_2_30466;
GPGPU-Sim PTX:    immediate post dominator      @  PC=0x7a8 (_1.ptx:407) mov.s32 %r36, %r41;
GPGPU-Sim PTX: 10 (potential) branch divergence @  PC=0x668 (_1.ptx:353) bra.uni $LDWendi__Z7comparePKviS0_i_182_3;
GPGPU-Sim PTX:    immediate post dominator      @  PC=0x7a8 (_1.ptx:407) mov.s32 %r36, %r41;
GPGPU-Sim PTX: 11 (potential) branch divergence @  PC=0x6c8 (_1.ptx:369) @%p8 bra $Lt_2_40706;
GPGPU-Sim PTX:    immediate post dominator      @  PC=0x760 (_1.ptx:391) setp.le.s32 %p14, %r44, %r45;
GPGPU-Sim PTX: 12 (potential) branch divergence @  PC=0x6e0 (_1.ptx:372) @%p9 bra $Lt_2_40706;
GPGPU-Sim PTX:    immediate post dominator      @  PC=0x760 (_1.ptx:391) setp.le.s32 %p14, %r44, %r45;
GPGPU-Sim PTX: 13 (potential) branch divergence @  PC=0x6f8 (_1.ptx:375) @%p10 bra $Lt_2_40706;
GPGPU-Sim PTX:    immediate post dominator      @  PC=0x760 (_1.ptx:391) setp.le.s32 %p14, %r44, %r45;
GPGPU-Sim PTX: 14 (potential) branch divergence @  PC=0x728 (_1.ptx:382) @%p11 bra $Lt_2_40706;
GPGPU-Sim PTX:    immediate post dominator      @  PC=0x760 (_1.ptx:391) setp.le.s32 %p14, %r44, %r45;
GPGPU-Sim PTX: 15 (potential) branch divergence @  PC=0x740 (_1.ptx:385) @%p12 bra $Lt_2_40706;
GPGPU-Sim PTX:    immediate post dominator      @  PC=0x760 (_1.ptx:391) setp.le.s32 %p14, %r44, %r45;
GPGPU-Sim PTX: 16 (potential) branch divergence @  PC=0x758 (_1.ptx:388) @%p13 bra $L_2_24578;
GPGPU-Sim PTX:    immediate post dominator      @  PC=0x760 (_1.ptx:391) setp.le.s32 %p14, %r44, %r45;
GPGPU-Sim PTX: 17 (potential) branch divergence @  PC=0x768 (_1.ptx:392) @%p14 bra $Lt_2_31490;
GPGPU-Sim PTX:    immediate post dominator      @  PC=0x7a8 (_1.ptx:407) mov.s32 %r36, %r41;
GPGPU-Sim PTX: 18 (potential) branch divergence @  PC=0x778 (_1.ptx:395) bra.uni $LDWendi__Z7comparePKviS0_i_182_3;
GPGPU-Sim PTX:    immediate post dominator      @  PC=0x7a8 (_1.ptx:407) mov.s32 %r36, %r41;
GPGPU-Sim PTX: 19 (potential) branch divergence @  PC=0x788 (_1.ptx:398) @%p15 bra $Lt_2_32002;
GPGPU-Sim PTX:    immediate post dominator      @  PC=0x7a8 (_1.ptx:407) mov.s32 %r36, %r41;
GPGPU-Sim PTX: 20 (potential) branch divergence @  PC=0x798 (_1.ptx:401) bra.uni $LDWendi__Z7comparePKviS0_i_182_3;
GPGPU-Sim PTX:    immediate post dominator      @  PC=0x7a8 (_1.ptx:407) mov.s32 %r36, %r41;
GPGPU-Sim PTX: 21 (potential) branch divergence @  PC=0x7c8 (_1.ptx:413) @%p16 bra $Lt_2_32770;
GPGPU-Sim PTX:    immediate post dominator      @  PC=0x828 (_1.ptx:431) bar.sync 0;
GPGPU-Sim PTX: 22 (potential) branch divergence @  PC=0x7e0 (_1.ptx:416) @%p17 bra $Lt_2_33538;
GPGPU-Sim PTX:    immediate post dominator      @  PC=0x828 (_1.ptx:431) bar.sync 0;
GPGPU-Sim PTX: 23 (potential) branch divergence @  PC=0x7f8 (_1.ptx:419) bra.uni $Lt_2_33538;
GPGPU-Sim PTX:    immediate post dominator      @  PC=0x828 (_1.ptx:431) bar.sync 0;
GPGPU-Sim PTX: 24 (potential) branch divergence @  PC=0x810 (_1.ptx:424) @%p18 bra $Lt_2_33538;
GPGPU-Sim PTX:    immediate post dominator      @  PC=0x828 (_1.ptx:431) bar.sync 0;
GPGPU-Sim PTX: 25 (potential) branch divergence @  PC=0x848 (_1.ptx:436) @%p19 bra $Lt_2_28674;
GPGPU-Sim PTX:    immediate post dominator      @  PC=0x850 (_1.ptx:437) bra.uni $Lt_2_27650;
GPGPU-Sim PTX: 26 (potential) branch divergence @  PC=0x850 (_1.ptx:437) bra.uni $Lt_2_27650;
GPGPU-Sim PTX:    immediate post dominator      @  PC=0xb88 (_1.ptx:577) ld.v4.s32 {%r87,%r88,%r89,%r90}, [%rd4+0];
GPGPU-Sim PTX: 27 (potential) branch divergence @  PC=0x898 (_1.ptx:450) @%p20 bra $Lt_2_39682;
GPGPU-Sim PTX:    immediate post dominator      @  PC=0xb60 (_1.ptx:570) bar.sync 0;
GPGPU-Sim PTX: 28 (potential) branch divergence @  PC=0x8e8 (_1.ptx:461) @%p22 bra $Lt_2_35842;
GPGPU-Sim PTX:    immediate post dominator      @  PC=0xae8 (_1.ptx:549) and.b32 %r82, %r6, 256;
GPGPU-Sim PTX: 29 (potential) branch divergence @  PC=0x8f8 (_1.ptx:463) @%p23 bra $Lt_2_36354;
GPGPU-Sim PTX:    immediate post dominator      @  PC=0xae8 (_1.ptx:549) and.b32 %r82, %r6, 256;
GPGPU-Sim PTX: 30 (potential) branch divergence @  PC=0x908 (_1.ptx:465) bra.uni $Lt_2_35586;
GPGPU-Sim PTX:    immediate post dominator      @  PC=0xae8 (_1.ptx:549) and.b32 %r82, %r6, 256;
GPGPU-Sim PTX: 31 (potential) branch divergence @  PC=0x928 (_1.ptx:471) bra.uni $Lt_2_35586;
GPGPU-Sim PTX:    immediate post dominator      @  PC=0xae8 (_1.ptx:549) and.b32 %r82, %r6, 256;
GPGPU-Sim PTX: 32 (potential) branch divergence @  PC=0x970 (_1.ptx:483) @%p24 bra $Lt_2_36866;
GPGPU-Sim PTX:    immediate post dominator      @  PC=0xae0 (_1.ptx:546) mov.s32 %r36, %r41;
GPGPU-Sim PTX: 33 (potential) branch divergence @  PC=0x980 (_1.ptx:486) bra.uni $LDWendi__Z7comparePKviS0_i_182_1;
GPGPU-Sim PTX:    immediate post dominator      @  PC=0xae0 (_1.ptx:546) mov.s32 %r36, %r41;
GPGPU-Sim PTX: 34 (potential) branch divergence @  PC=0x990 (_1.ptx:489) @%p25 bra $Lt_2_36610;
GPGPU-Sim PTX:    immediate post dominator      @  PC=0xae0 (_1.ptx:546) mov.s32 %r36, %r41;
GPGPU-Sim PTX: 35 (potential) branch divergence @  PC=0x9a0 (_1.ptx:492) bra.uni $LDWendi__Z7comparePKviS0_i_182_1;
GPGPU-Sim PTX:    immediate post dominator      @  PC=0xae0 (_1.ptx:546) mov.s32 %r36, %r41;
GPGPU-Sim PTX: 36 (potential) branch divergence @  PC=0xa00 (_1.ptx:508) @%p26 bra $Lt_2_41986;
GPGPU-Sim PTX:    immediate post dominator      @  PC=0xa98 (_1.ptx:530) setp.le.s32 %p32, %r44, %r45;
GPGPU-Sim PTX: 37 (potential) branch divergence @  PC=0xa18 (_1.ptx:511) @%p27 bra $Lt_2_41986;
GPGPU-Sim PTX:    immediate post dominator      @  PC=0xa98 (_1.ptx:530) setp.le.s32 %p32, %r44, %r45;
GPGPU-Sim PTX: 38 (potential) branch divergence @  PC=0xa30 (_1.ptx:514) @%p28 bra $Lt_2_41986;
GPGPU-Sim PTX:    immediate post dominator      @  PC=0xa98 (_1.ptx:530) setp.le.s32 %p32, %r44, %r45;
GPGPU-Sim PTX: 39 (potential) branch divergence @  PC=0xa60 (_1.ptx:521) @%p29 bra $Lt_2_41986;
GPGPU-Sim PTX:    immediate post dominator      @  PC=0xa98 (_1.ptx:530) setp.le.s32 %p32, %r44, %r45;
GPGPU-Sim PTX: 40 (potential) branch divergence @  PC=0xa78 (_1.ptx:524) @%p30 bra $Lt_2_41986;
GPGPU-Sim PTX:    immediate post dominator      @  PC=0xa98 (_1.ptx:530) setp.le.s32 %p32, %r44, %r45;
GPGPU-Sim PTX: 41 (potential) branch divergence @  PC=0xa90 (_1.ptx:527) @%p31 bra $L_2_26114;
GPGPU-Sim PTX:    immediate post dominator      @  PC=0xa98 (_1.ptx:530) setp.le.s32 %p32, %r44, %r45;
GPGPU-Sim PTX: 42 (potential) branch divergence @  PC=0xaa0 (_1.ptx:531) @%p32 bra $Lt_2_37634;
GPGPU-Sim PTX:    immediate post dominator      @  PC=0xae0 (_1.ptx:546) mov.s32 %r36, %r41;
GPGPU-Sim PTX: 43 (potential) branch divergence @  PC=0xab0 (_1.ptx:534) bra.uni $LDWendi__Z7comparePKviS0_i_182_1;
GPGPU-Sim PTX:    immediate post dominator      @  PC=0xae0 (_1.ptx:546) mov.s32 %r36, %r41;
GPGPU-Sim PTX: 44 (potential) branch divergence @  PC=0xac0 (_1.ptx:537) @%p33 bra $Lt_2_38146;
GPGPU-Sim PTX:    immediate post dominator      @  PC=0xae0 (_1.ptx:546) mov.s32 %r36, %r41;
GPGPU-Sim PTX: 45 (potential) branch divergence @  PC=0xad0 (_1.ptx:540) bra.uni $LDWendi__Z7comparePKviS0_i_182_1;
GPGPU-Sim PTX:    immediate post dominator      @  PC=0xae0 (_1.ptx:546) mov.s32 %r36, %r41;
GPGPU-Sim PTX: 46 (potential) branch divergence @  PC=0xb00 (_1.ptx:552) @%p34 bra $Lt_2_38914;
GPGPU-Sim PTX:    immediate post dominator      @  PC=0xb60 (_1.ptx:570) bar.sync 0;
GPGPU-Sim PTX: 47 (potential) branch divergence @  PC=0xb18 (_1.ptx:555) @%p35 bra $Lt_2_39682;
GPGPU-Sim PTX:    immediate post dominator      @  PC=0xb60 (_1.ptx:570) bar.sync 0;
GPGPU-Sim PTX: 48 (potential) branch divergence @  PC=0xb30 (_1.ptx:558) bra.uni $Lt_2_39682;
GPGPU-Sim PTX:    immediate post dominator      @  PC=0xb60 (_1.ptx:570) bar.sync 0;
GPGPU-Sim PTX: 49 (potential) branch divergence @  PC=0xb48 (_1.ptx:563) @%p36 bra $Lt_2_39682;
GPGPU-Sim PTX:    immediate post dominator      @  PC=0xb60 (_1.ptx:570) bar.sync 0;
GPGPU-Sim PTX: 50 (potential) branch divergence @  PC=0xb80 (_1.ptx:575) @%p37 bra $Lt_2_34818;
GPGPU-Sim PTX:    immediate post dominator      @  PC=0xb88 (_1.ptx:577) ld.v4.s32 {%r87,%r88,%r89,%r90}, [%rd4+0];
GPGPU-Sim PTX: ... end of reconvergence points for _Z21partBitonicSortKernelPviP4int4jii
GPGPU-Sim PTX: ... done pre-decoding instructions for '_Z21partBitonicSortKernelPviP4int4jii'.
GPGPU-Sim PTX: allocating shared region for "__cuda___cuda_local_var_45868_37_non_const_shared4176" from 0x0 to 0x1000 (shared memory space)
GPGPU-Sim PTX: instruction assembly for function '_Z21unitBitonicSortKernelPviP4int4ji'...   done.
GPGPU-Sim PTX: finding reconvergence points for '_Z21unitBitonicSortKernelPviP4int4ji'...
GPGPU-Sim PTX: Finding dominators for '_Z21unitBitonicSortKernelPviP4int4ji'...
GPGPU-Sim PTX: Finding immediate dominators for '_Z21unitBitonicSortKernelPviP4int4ji'...
GPGPU-Sim PTX: Finding postdominators for '_Z21unitBitonicSortKernelPviP4int4ji'...
GPGPU-Sim PTX: Finding immediate postdominators for '_Z21unitBitonicSortKernelPviP4int4ji'...
GPGPU-Sim PTX: pre-decoding instructions for '_Z21unitBitonicSortKernelPviP4int4ji'...
GPGPU-Sim PTX: reconvergence points for _Z21unitBitonicSortKernelPviP4int4ji...
GPGPU-Sim PTX:  1 (potential) branch divergence @  PC=0xc60 (_1.ptx:623) @%p1 bra $Lt_3_37634;
GPGPU-Sim PTX:    immediate post dominator      @  PC=0x1360 (_1.ptx:927) ld.v4.s32 {%r93,%r94,%r95,%r96}, [%rd4+0];
GPGPU-Sim PTX:  2 (potential) branch divergence @  PC=0xc90 (_1.ptx:632) @%p2 bra $Lt_3_30978;
GPGPU-Sim PTX:    immediate post dominator      @  PC=0xfc0 (_1.ptx:770) shl.b32 %r17, %r17, 1;
GPGPU-Sim PTX:  3 (potential) branch divergence @  PC=0xcd0 (_1.ptx:642) @%p3 bra $Lt_3_36354;
GPGPU-Sim PTX:    immediate post dominator      @  PC=0xf98 (_1.ptx:762) bar.sync 0;
GPGPU-Sim PTX:  4 (potential) branch divergence @  PC=0xd20 (_1.ptx:653) @%p5 bra $Lt_3_32514;
GPGPU-Sim PTX:    immediate post dominator      @  PC=0xf20 (_1.ptx:741) and.b32 %r51, %r17, %r6;
GPGPU-Sim PTX:  5 (potential) branch divergence @  PC=0xd30 (_1.ptx:655) @%p6 bra $Lt_3_33026;
GPGPU-Sim PTX:    immediate post dominator      @  PC=0xf20 (_1.ptx:741) and.b32 %r51, %r17, %r6;
GPGPU-Sim PTX:  6 (potential) branch divergence @  PC=0xd40 (_1.ptx:657) bra.uni $Lt_3_32258;
GPGPU-Sim PTX:    immediate post dominator      @  PC=0xf20 (_1.ptx:741) and.b32 %r51, %r17, %r6;
GPGPU-Sim PTX:  7 (potential) branch divergence @  PC=0xd60 (_1.ptx:663) bra.uni $Lt_3_32258;
GPGPU-Sim PTX:    immediate post dominator      @  PC=0xf20 (_1.ptx:741) and.b32 %r51, %r17, %r6;
GPGPU-Sim PTX:  8 (potential) branch divergence @  PC=0xda8 (_1.ptx:675) @%p7 bra $Lt_3_33538;
GPGPU-Sim PTX:    immediate post dominator      @  PC=0xf18 (_1.ptx:738) mov.s32 %r37, %r42;
GPGPU-Sim PTX:  9 (potential) branch divergence @  PC=0xdb8 (_1.ptx:678) bra.uni $LDWendi__Z7comparePKviS0_i_183_3;
GPGPU-Sim PTX:    immediate post dominator      @  PC=0xf18 (_1.ptx:738) mov.s32 %r37, %r42;
GPGPU-Sim PTX: 10 (potential) branch divergence @  PC=0xdc8 (_1.ptx:681) @%p8 bra $Lt_3_33282;
GPGPU-Sim PTX:    immediate post dominator      @  PC=0xf18 (_1.ptx:738) mov.s32 %r37, %r42;
GPGPU-Sim PTX: 11 (potential) branch divergence @  PC=0xdd8 (_1.ptx:684) bra.uni $LDWendi__Z7comparePKviS0_i_183_3;
GPGPU-Sim PTX:    immediate post dominator      @  PC=0xf18 (_1.ptx:738) mov.s32 %r37, %r42;
GPGPU-Sim PTX: 12 (potential) branch divergence @  PC=0xe38 (_1.ptx:700) @%p9 bra $Lt_3_45058;
GPGPU-Sim PTX:    immediate post dominator      @  PC=0xed0 (_1.ptx:722) setp.le.s32 %p15, %r45, %r46;
GPGPU-Sim PTX: 13 (potential) branch divergence @  PC=0xe50 (_1.ptx:703) @%p10 bra $Lt_3_45058;
GPGPU-Sim PTX:    immediate post dominator      @  PC=0xed0 (_1.ptx:722) setp.le.s32 %p15, %r45, %r46;
GPGPU-Sim PTX: 14 (potential) branch divergence @  PC=0xe68 (_1.ptx:706) @%p11 bra $Lt_3_45058;
GPGPU-Sim PTX:    immediate post dominator      @  PC=0xed0 (_1.ptx:722) setp.le.s32 %p15, %r45, %r46;
GPGPU-Sim PTX: 15 (potential) branch divergence @  PC=0xe98 (_1.ptx:713) @%p12 bra $Lt_3_45058;
GPGPU-Sim PTX:    immediate post dominator      @  PC=0xed0 (_1.ptx:722) setp.le.s32 %p15, %r45, %r46;
GPGPU-Sim PTX: 16 (potential) branch divergence @  PC=0xeb0 (_1.ptx:716) @%p13 bra $Lt_3_45058;
GPGPU-Sim PTX:    immediate post dominator      @  PC=0xed0 (_1.ptx:722) setp.le.s32 %p15, %r45, %r46;
GPGPU-Sim PTX: 17 (potential) branch divergence @  PC=0xec8 (_1.ptx:719) @%p14 bra $L_3_26626;
GPGPU-Sim PTX:    immediate post dominator      @  PC=0xed0 (_1.ptx:722) setp.le.s32 %p15, %r45, %r46;
GPGPU-Sim PTX: 18 (potential) branch divergence @  PC=0xed8 (_1.ptx:723) @%p15 bra $Lt_3_34306;
GPGPU-Sim PTX:    immediate post dominator      @  PC=0xf18 (_1.ptx:738) mov.s32 %r37, %r42;
GPGPU-Sim PTX: 19 (potential) branch divergence @  PC=0xee8 (_1.ptx:726) bra.uni $LDWendi__Z7comparePKviS0_i_183_3;
GPGPU-Sim PTX:    immediate post dominator      @  PC=0xf18 (_1.ptx:738) mov.s32 %r37, %r42;
GPGPU-Sim PTX: 20 (potential) branch divergence @  PC=0xef8 (_1.ptx:729) @%p16 bra $Lt_3_34818;
GPGPU-Sim PTX:    immediate post dominator      @  PC=0xf18 (_1.ptx:738) mov.s32 %r37, %r42;
GPGPU-Sim PTX: 21 (potential) branch divergence @  PC=0xf08 (_1.ptx:732) bra.uni $LDWendi__Z7comparePKviS0_i_183_3;
GPGPU-Sim PTX:    immediate post dominator      @  PC=0xf18 (_1.ptx:738) mov.s32 %r37, %r42;
GPGPU-Sim PTX: 22 (potential) branch divergence @  PC=0xf38 (_1.ptx:744) @%p17 bra $Lt_3_35586;
GPGPU-Sim PTX:    immediate post dominator      @  PC=0xf98 (_1.ptx:762) bar.sync 0;
GPGPU-Sim PTX: 23 (potential) branch divergence @  PC=0xf50 (_1.ptx:747) @%p18 bra $Lt_3_36354;
GPGPU-Sim PTX:    immediate post dominator      @  PC=0xf98 (_1.ptx:762) bar.sync 0;
GPGPU-Sim PTX: 24 (potential) branch divergence @  PC=0xf68 (_1.ptx:750) bra.uni $Lt_3_36354;
GPGPU-Sim PTX:    immediate post dominator      @  PC=0xf98 (_1.ptx:762) bar.sync 0;
GPGPU-Sim PTX: 25 (potential) branch divergence @  PC=0xf80 (_1.ptx:755) @%p19 bra $Lt_3_36354;
GPGPU-Sim PTX:    immediate post dominator      @  PC=0xf98 (_1.ptx:762) bar.sync 0;
GPGPU-Sim PTX: 26 (potential) branch divergence @  PC=0xfb8 (_1.ptx:767) @%p20 bra $Lt_3_31490;
GPGPU-Sim PTX:    immediate post dominator      @  PC=0xfc0 (_1.ptx:770) shl.b32 %r17, %r17, 1;
GPGPU-Sim PTX: 27 (potential) branch divergence @  PC=0xfd8 (_1.ptx:773) @%p21 bra $Lt_3_30722;
GPGPU-Sim PTX:    immediate post dominator      @  PC=0xfe0 (_1.ptx:774) bra.uni $Lt_3_29698;
GPGPU-Sim PTX: 28 (potential) branch divergence @  PC=0xfe0 (_1.ptx:774) bra.uni $Lt_3_29698;
GPGPU-Sim PTX:    immediate post dominator      @  PC=0x1360 (_1.ptx:927) ld.v4.s32 {%r93,%r94,%r95,%r96}, [%rd4+0];
GPGPU-Sim PTX: 29 (potential) branch divergence @  PC=0x1010 (_1.ptx:784) @%p22 bra $Lt_3_38146;
GPGPU-Sim PTX:    immediate post dominator      @  PC=0x1340 (_1.ptx:922) shl.b32 %r57, %r57, 1;
GPGPU-Sim PTX: 30 (potential) branch divergence @  PC=0x1050 (_1.ptx:794) @%p23 bra $Lt_3_43522;
GPGPU-Sim PTX:    immediate post dominator      @  PC=0x1318 (_1.ptx:914) bar.sync 0;
GPGPU-Sim PTX: 31 (potential) branch divergence @  PC=0x10a0 (_1.ptx:805) @%p25 bra $Lt_3_39682;
GPGPU-Sim PTX:    immediate post dominator      @  PC=0x12a0 (_1.ptx:893) and.b32 %r87, %r57, %r6;
GPGPU-Sim PTX: 32 (potential) branch divergence @  PC=0x10b0 (_1.ptx:807) @%p26 bra $Lt_3_40194;
GPGPU-Sim PTX:    immediate post dominator      @  PC=0x12a0 (_1.ptx:893) and.b32 %r87, %r57, %r6;
GPGPU-Sim PTX: 33 (potential) branch divergence @  PC=0x10c0 (_1.ptx:809) bra.uni $Lt_3_39426;
GPGPU-Sim PTX:    immediate post dominator      @  PC=0x12a0 (_1.ptx:893) and.b32 %r87, %r57, %r6;
GPGPU-Sim PTX: 34 (potential) branch divergence @  PC=0x10e0 (_1.ptx:815) bra.uni $Lt_3_39426;
GPGPU-Sim PTX:    immediate post dominator      @  PC=0x12a0 (_1.ptx:893) and.b32 %r87, %r57, %r6;
GPGPU-Sim PTX: 35 (potential) branch divergence @  PC=0x1128 (_1.ptx:827) @%p27 bra $Lt_3_40706;
GPGPU-Sim PTX:    immediate post dominator      @  PC=0x1298 (_1.ptx:890) mov.s32 %r37, %r42;
GPGPU-Sim PTX: 36 (potential) branch divergence @  PC=0x1138 (_1.ptx:830) bra.uni $LDWendi__Z7comparePKviS0_i_183_1;
GPGPU-Sim PTX:    immediate post dominator      @  PC=0x1298 (_1.ptx:890) mov.s32 %r37, %r42;
GPGPU-Sim PTX: 37 (potential) branch divergence @  PC=0x1148 (_1.ptx:833) @%p28 bra $Lt_3_40450;
GPGPU-Sim PTX:    immediate post dominator      @  PC=0x1298 (_1.ptx:890) mov.s32 %r37, %r42;
GPGPU-Sim PTX: 38 (potential) branch divergence @  PC=0x1158 (_1.ptx:836) bra.uni $LDWendi__Z7comparePKviS0_i_183_1;
GPGPU-Sim PTX:    immediate post dominator      @  PC=0x1298 (_1.ptx:890) mov.s32 %r37, %r42;
GPGPU-Sim PTX: 39 (potential) branch divergence @  PC=0x11b8 (_1.ptx:852) @%p29 bra $Lt_3_46594;
GPGPU-Sim PTX:    immediate post dominator      @  PC=0x1250 (_1.ptx:874) setp.le.s32 %p35, %r45, %r46;
GPGPU-Sim PTX: 40 (potential) branch divergence @  PC=0x11d0 (_1.ptx:855) @%p30 bra $Lt_3_46594;
GPGPU-Sim PTX:    immediate post dominator      @  PC=0x1250 (_1.ptx:874) setp.le.s32 %p35, %r45, %r46;
GPGPU-Sim PTX: 41 (potential) branch divergence @  PC=0x11e8 (_1.ptx:858) @%p31 bra $Lt_3_46594;
GPGPU-Sim PTX:    immediate post dominator      @  PC=0x1250 (_1.ptx:874) setp.le.s32 %p35, %r45, %r46;
GPGPU-Sim PTX: 42 (potential) branch divergence @  PC=0x1218 (_1.ptx:865) @%p32 bra $Lt_3_46594;
GPGPU-Sim PTX:    immediate post dominator      @  PC=0x1250 (_1.ptx:874) setp.le.s32 %p35, %r45, %r46;
GPGPU-Sim PTX: 43 (potential) branch divergence @  PC=0x1230 (_1.ptx:868) @%p33 bra $Lt_3_46594;
GPGPU-Sim PTX:    immediate post dominator      @  PC=0x1250 (_1.ptx:874) setp.le.s32 %p35, %r45, %r46;
GPGPU-Sim PTX: 44 (potential) branch divergence @  PC=0x1248 (_1.ptx:871) @%p34 bra $L_3_28162;
GPGPU-Sim PTX:    immediate post dominator      @  PC=0x1250 (_1.ptx:874) setp.le.s32 %p35, %r45, %r46;
GPGPU-Sim PTX: 45 (potential) branch divergence @  PC=0x1258 (_1.ptx:875) @%p35 bra $Lt_3_41474;
GPGPU-Sim PTX:    immediate post dominator      @  PC=0x1298 (_1.ptx:890) mov.s32 %r37, %r42;
GPGPU-Sim PTX: 46 (potential) branch divergence @  PC=0x1268 (_1.ptx:878) bra.uni $LDWendi__Z7comparePKviS0_i_183_1;
GPGPU-Sim PTX:    immediate post dominator      @  PC=0x1298 (_1.ptx:890) mov.s32 %r37, %r42;
GPGPU-Sim PTX: 47 (potential) branch divergence @  PC=0x1278 (_1.ptx:881) @%p36 bra $Lt_3_41986;
GPGPU-Sim PTX:    immediate post dominator      @  PC=0x1298 (_1.ptx:890) mov.s32 %r37, %r42;
GPGPU-Sim PTX: 48 (potential) branch divergence @  PC=0x1288 (_1.ptx:884) bra.uni $LDWendi__Z7comparePKviS0_i_183_1;
GPGPU-Sim PTX:    immediate post dominator      @  PC=0x1298 (_1.ptx:890) mov.s32 %r37, %r42;
GPGPU-Sim PTX: 49 (potential) branch divergence @  PC=0x12b8 (_1.ptx:896) @%p37 bra $Lt_3_42754;
GPGPU-Sim PTX:    immediate post dominator      @  PC=0x1318 (_1.ptx:914) bar.sync 0;
GPGPU-Sim PTX: 50 (potential) branch divergence @  PC=0x12d0 (_1.ptx:899) @%p38 bra $Lt_3_43522;
GPGPU-Sim PTX:    immediate post dominator      @  PC=0x1318 (_1.ptx:914) bar.sync 0;
GPGPU-Sim PTX: 51 (potential) branch divergence @  PC=0x12e8 (_1.ptx:902) bra.uni $Lt_3_43522;
GPGPU-Sim PTX:    immediate post dominator      @  PC=0x1318 (_1.ptx:914) bar.sync 0;
GPGPU-Sim PTX: 52 (potential) branch divergence @  PC=0x1300 (_1.ptx:907) @%p39 bra $Lt_3_43522;
GPGPU-Sim PTX:    immediate post dominator      @  PC=0x1318 (_1.ptx:914) bar.sync 0;
GPGPU-Sim PTX: 53 (potential) branch divergence @  PC=0x1338 (_1.ptx:919) @%p40 bra $Lt_3_38658;
GPGPU-Sim PTX:    immediate post dominator      @  PC=0x1340 (_1.ptx:922) shl.b32 %r57, %r57, 1;
GPGPU-Sim PTX: 54 (potential) branch divergence @  PC=0x1358 (_1.ptx:925) @%p41 bra $Lt_3_37890;
GPGPU-Sim PTX:    immediate post dominator      @  PC=0x1360 (_1.ptx:927) ld.v4.s32 {%r93,%r94,%r95,%r96}, [%rd4+0];
GPGPU-Sim PTX: ... end of reconvergence points for _Z21unitBitonicSortKernelPviP4int4ji
GPGPU-Sim PTX: ... done pre-decoding instructions for '_Z21unitBitonicSortKernelPviP4int4ji'.
GPGPU-Sim PTX: instruction assembly for function '_Z13bitonicKernelPviP4int4jii'...   done.
GPGPU-Sim PTX: finding reconvergence points for '_Z13bitonicKernelPviP4int4jii'...
GPGPU-Sim PTX: Finding dominators for '_Z13bitonicKernelPviP4int4jii'...
GPGPU-Sim PTX: Finding immediate dominators for '_Z13bitonicKernelPviP4int4jii'...
GPGPU-Sim PTX: Finding postdominators for '_Z13bitonicKernelPviP4int4jii'...
GPGPU-Sim PTX: Finding immediate postdominators for '_Z13bitonicKernelPviP4int4jii'...
GPGPU-Sim PTX: pre-decoding instructions for '_Z13bitonicKernelPviP4int4jii'...
GPGPU-Sim PTX: reconvergence points for _Z13bitonicKernelPviP4int4jii...
GPGPU-Sim PTX:  1 (potential) branch divergence @  PC=0x13d8 (_1.ptx:959) @%p1 bra $Lt_4_29442;
GPGPU-Sim PTX:    immediate post dominator      @  PC=0x1940 (_1.ptx:1189) exit;
GPGPU-Sim PTX:  2 (potential) branch divergence @  PC=0x1480 (_1.ptx:982) @%p4 bra $Lt_4_22530;
GPGPU-Sim PTX:    immediate post dominator      @  PC=0x1940 (_1.ptx:1189) exit;
GPGPU-Sim PTX:  3 (potential) branch divergence @  PC=0x1498 (_1.ptx:986) @%p5 bra $Lt_4_23042;
GPGPU-Sim PTX:    immediate post dominator      @  PC=0x16b8 (_1.ptx:1078) mov.u32 %r45, 1;
GPGPU-Sim PTX:  4 (potential) branch divergence @  PC=0x14a8 (_1.ptx:988) @%p6 bra $Lt_4_23554;
GPGPU-Sim PTX:    immediate post dominator      @  PC=0x16b8 (_1.ptx:1078) mov.u32 %r45, 1;
GPGPU-Sim PTX:  5 (potential) branch divergence @  PC=0x14b8 (_1.ptx:990) bra.uni $Lt_4_22786;
GPGPU-Sim PTX:    immediate post dominator      @  PC=0x16b8 (_1.ptx:1078) mov.u32 %r45, 1;
GPGPU-Sim PTX:  6 (potential) branch divergence @  PC=0x14d8 (_1.ptx:996) bra.uni $Lt_4_22786;
GPGPU-Sim PTX:    immediate post dominator      @  PC=0x16b8 (_1.ptx:1078) mov.u32 %r45, 1;
GPGPU-Sim PTX:  7 (potential) branch divergence @  PC=0x1520 (_1.ptx:1008) @%p7 bra $Lt_4_24066;
GPGPU-Sim PTX:    immediate post dominator      @  PC=0x16b0 (_1.ptx:1075) mov.s32 %r29, %r34;
GPGPU-Sim PTX:  8 (potential) branch divergence @  PC=0x1530 (_1.ptx:1011) bra.uni $LDWendi__Z7comparePKviS0_i_184_3;
GPGPU-Sim PTX:    immediate post dominator      @  PC=0x16b0 (_1.ptx:1075) mov.s32 %r29, %r34;
GPGPU-Sim PTX:  9 (potential) branch divergence @  PC=0x1540 (_1.ptx:1014) @%p8 bra $Lt_4_23810;
GPGPU-Sim PTX:    immediate post dominator      @  PC=0x16b0 (_1.ptx:1075) mov.s32 %r29, %r34;
GPGPU-Sim PTX: 10 (potential) branch divergence @  PC=0x1550 (_1.ptx:1017) bra.uni $LDWendi__Z7comparePKviS0_i_184_3;
GPGPU-Sim PTX:    immediate post dominator      @  PC=0x16b0 (_1.ptx:1075) mov.s32 %r29, %r34;
GPGPU-Sim PTX: 11 (potential) branch divergence @  PC=0x15d0 (_1.ptx:1037) @%p9 bra $Lt_4_30210;
GPGPU-Sim PTX:    immediate post dominator      @  PC=0x1668 (_1.ptx:1059) setp.le.s32 %p15, %r38, %r40;
GPGPU-Sim PTX: 12 (potential) branch divergence @  PC=0x15e8 (_1.ptx:1040) @%p10 bra $Lt_4_30210;
GPGPU-Sim PTX:    immediate post dominator      @  PC=0x1668 (_1.ptx:1059) setp.le.s32 %p15, %r38, %r40;
GPGPU-Sim PTX: 13 (potential) branch divergence @  PC=0x1600 (_1.ptx:1043) @%p11 bra $Lt_4_30210;
GPGPU-Sim PTX:    immediate post dominator      @  PC=0x1668 (_1.ptx:1059) setp.le.s32 %p15, %r38, %r40;
GPGPU-Sim PTX: 14 (potential) branch divergence @  PC=0x1630 (_1.ptx:1050) @%p12 bra $Lt_4_30210;
GPGPU-Sim PTX:    immediate post dominator      @  PC=0x1668 (_1.ptx:1059) setp.le.s32 %p15, %r38, %r40;
GPGPU-Sim PTX: 15 (potential) branch divergence @  PC=0x1648 (_1.ptx:1053) @%p13 bra $Lt_4_30210;
GPGPU-Sim PTX:    immediate post dominator      @  PC=0x1668 (_1.ptx:1059) setp.le.s32 %p15, %r38, %r40;
GPGPU-Sim PTX: 16 (potential) branch divergence @  PC=0x1660 (_1.ptx:1056) @%p14 bra $L_4_18690;
GPGPU-Sim PTX:    immediate post dominator      @  PC=0x1668 (_1.ptx:1059) setp.le.s32 %p15, %r38, %r40;
GPGPU-Sim PTX: 17 (potential) branch divergence @  PC=0x1670 (_1.ptx:1060) @%p15 bra $Lt_4_24834;
GPGPU-Sim PTX:    immediate post dominator      @  PC=0x16b0 (_1.ptx:1075) mov.s32 %r29, %r34;
GPGPU-Sim PTX: 18 (potential) branch divergence @  PC=0x1680 (_1.ptx:1063) bra.uni $LDWendi__Z7comparePKviS0_i_184_3;
GPGPU-Sim PTX:    immediate post dominator      @  PC=0x16b0 (_1.ptx:1075) mov.s32 %r29, %r34;
GPGPU-Sim PTX: 19 (potential) branch divergence @  PC=0x1690 (_1.ptx:1066) @%p16 bra $Lt_4_25346;
GPGPU-Sim PTX:    immediate post dominator      @  PC=0x16b0 (_1.ptx:1075) mov.s32 %r29, %r34;
GPGPU-Sim PTX: 20 (potential) branch divergence @  PC=0x16a0 (_1.ptx:1069) bra.uni $LDWendi__Z7comparePKviS0_i_184_3;
GPGPU-Sim PTX:    immediate post dominator      @  PC=0x16b0 (_1.ptx:1075) mov.s32 %r29, %r34;
GPGPU-Sim PTX: 21 (potential) branch divergence @  PC=0x16c8 (_1.ptx:1080) @%p17 bra $Lt_4_29442;
GPGPU-Sim PTX:    immediate post dominator      @  PC=0x1940 (_1.ptx:1189) exit;
GPGPU-Sim PTX: 22 (potential) branch divergence @  PC=0x16e0 (_1.ptx:1083) bra.uni $Lt_4_29442;
GPGPU-Sim PTX:    immediate post dominator      @  PC=0x1940 (_1.ptx:1189) exit;
GPGPU-Sim PTX: 23 (potential) branch divergence @  PC=0x16f8 (_1.ptx:1088) @%p18 bra $Lt_4_26626;
GPGPU-Sim PTX:    immediate post dominator      @  PC=0x1918 (_1.ptx:1180) mov.u32 %r59, -1;
GPGPU-Sim PTX: 24 (potential) branch divergence @  PC=0x1708 (_1.ptx:1090) @%p19 bra $Lt_4_27138;
GPGPU-Sim PTX:    immediate post dominator      @  PC=0x1918 (_1.ptx:1180) mov.u32 %r59, -1;
GPGPU-Sim PTX: 25 (potential) branch divergence @  PC=0x1718 (_1.ptx:1092) bra.uni $Lt_4_26370;
GPGPU-Sim PTX:    immediate post dominator      @  PC=0x1918 (_1.ptx:1180) mov.u32 %r59, -1;
GPGPU-Sim PTX: 26 (potential) branch divergence @  PC=0x1738 (_1.ptx:1098) bra.uni $Lt_4_26370;
GPGPU-Sim PTX:    immediate post dominator      @  PC=0x1918 (_1.ptx:1180) mov.u32 %r59, -1;
GPGPU-Sim PTX: 27 (potential) branch divergence @  PC=0x1780 (_1.ptx:1110) @%p20 bra $Lt_4_27650;
GPGPU-Sim PTX:    immediate post dominator      @  PC=0x1910 (_1.ptx:1177) mov.s32 %r29, %r34;
GPGPU-Sim PTX: 28 (potential) branch divergence @  PC=0x1790 (_1.ptx:1113) bra.uni $LDWendi__Z7comparePKviS0_i_184_1;
GPGPU-Sim PTX:    immediate post dominator      @  PC=0x1910 (_1.ptx:1177) mov.s32 %r29, %r34;
GPGPU-Sim PTX: 29 (potential) branch divergence @  PC=0x17a0 (_1.ptx:1116) @%p21 bra $Lt_4_27394;
GPGPU-Sim PTX:    immediate post dominator      @  PC=0x1910 (_1.ptx:1177) mov.s32 %r29, %r34;
GPGPU-Sim PTX: 30 (potential) branch divergence @  PC=0x17b0 (_1.ptx:1119) bra.uni $LDWendi__Z7comparePKviS0_i_184_1;
GPGPU-Sim PTX:    immediate post dominator      @  PC=0x1910 (_1.ptx:1177) mov.s32 %r29, %r34;
GPGPU-Sim PTX: 31 (potential) branch divergence @  PC=0x1830 (_1.ptx:1139) @%p22 bra $Lt_4_31490;
GPGPU-Sim PTX:    immediate post dominator      @  PC=0x18c8 (_1.ptx:1161) setp.le.s32 %p28, %r38, %r40;
GPGPU-Sim PTX: 32 (potential) branch divergence @  PC=0x1848 (_1.ptx:1142) @%p23 bra $Lt_4_31490;
GPGPU-Sim PTX:    immediate post dominator      @  PC=0x18c8 (_1.ptx:1161) setp.le.s32 %p28, %r38, %r40;
GPGPU-Sim PTX: 33 (potential) branch divergence @  PC=0x1860 (_1.ptx:1145) @%p24 bra $Lt_4_31490;
GPGPU-Sim PTX:    immediate post dominator      @  PC=0x18c8 (_1.ptx:1161) setp.le.s32 %p28, %r38, %r40;
GPGPU-Sim PTX: 34 (potential) branch divergence @  PC=0x1890 (_1.ptx:1152) @%p25 bra $Lt_4_31490;
GPGPU-Sim PTX:    immediate post dominator      @  PC=0x18c8 (_1.ptx:1161) setp.le.s32 %p28, %r38, %r40;
GPGPU-Sim PTX: 35 (potential) branch divergence @  PC=0x18a8 (_1.ptx:1155) @%p26 bra $Lt_4_31490;
GPGPU-Sim PTX:    immediate post dominator      @  PC=0x18c8 (_1.ptx:1161) setp.le.s32 %p28, %r38, %r40;
GPGPU-Sim PTX: 36 (potential) branch divergence @  PC=0x18c0 (_1.ptx:1158) @%p27 bra $L_4_20226;
GPGPU-Sim PTX:    immediate post dominator      @  PC=0x18c8 (_1.ptx:1161) setp.le.s32 %p28, %r38, %r40;
GPGPU-Sim PTX: 37 (potential) branch divergence @  PC=0x18d0 (_1.ptx:1162) @%p28 bra $Lt_4_28418;
GPGPU-Sim PTX:    immediate post dominator      @  PC=0x1910 (_1.ptx:1177) mov.s32 %r29, %r34;
GPGPU-Sim PTX: 38 (potential) branch divergence @  PC=0x18e0 (_1.ptx:1165) bra.uni $LDWendi__Z7comparePKviS0_i_184_1;
GPGPU-Sim PTX:    immediate post dominator      @  PC=0x1910 (_1.ptx:1177) mov.s32 %r29, %r34;
GPGPU-Sim PTX: 39 (potential) branch divergence @  PC=0x18f0 (_1.ptx:1168) @%p29 bra $Lt_4_28930;
GPGPU-Sim PTX:    immediate post dominator      @  PC=0x1910 (_1.ptx:1177) mov.s32 %r29, %r34;
GPGPU-Sim PTX: 40 (potential) branch divergence @  PC=0x1900 (_1.ptx:1171) bra.uni $LDWendi__Z7comparePKviS0_i_184_1;
GPGPU-Sim PTX:    immediate post dominator      @  PC=0x1910 (_1.ptx:1177) mov.s32 %r29, %r34;
GPGPU-Sim PTX: 41 (potential) branch divergence @  PC=0x1928 (_1.ptx:1182) @%p30 bra $Lt_4_29442;
GPGPU-Sim PTX:    immediate post dominator      @  PC=0x1940 (_1.ptx:1189) exit;
GPGPU-Sim PTX: ... end of reconvergence points for _Z13bitonicKernelPviP4int4jii
GPGPU-Sim PTX: ... done pre-decoding instructions for '_Z13bitonicKernelPviP4int4jii'.
GPGPU-Sim PTX: allocating shared region for "__cuda___cuda_local_var_46005_37_non_const_bs_cmpbuf8352" from 0x0 to 0x1000 (shared memory space)
GPGPU-Sim PTX: instruction assembly for function '_Z29bitonicSortSingleBlock_kernelPviP4int4iS1_'...   done.
GPGPU-Sim PTX: finding reconvergence points for '_Z29bitonicSortSingleBlock_kernelPviP4int4iS1_'...
GPGPU-Sim PTX: Finding dominators for '_Z29bitonicSortSingleBlock_kernelPviP4int4iS1_'...
GPGPU-Sim PTX: Finding immediate dominators for '_Z29bitonicSortSingleBlock_kernelPviP4int4iS1_'...
GPGPU-Sim PTX: Finding postdominators for '_Z29bitonicSortSingleBlock_kernelPviP4int4iS1_'...
GPGPU-Sim PTX: Finding immediate postdominators for '_Z29bitonicSortSingleBlock_kernelPviP4int4iS1_'...
GPGPU-Sim PTX: pre-decoding instructions for '_Z29bitonicSortSingleBlock_kernelPviP4int4iS1_'...
GPGPU-Sim PTX: reconvergence points for _Z29bitonicSortSingleBlock_kernelPviP4int4iS1_...
GPGPU-Sim PTX:  1 (potential) branch divergence @  PC=0x19a0 (_1.ptx:1217) @%p1 bra $Lt_5_25602;
GPGPU-Sim PTX:    immediate post dominator      @  PC=0x19e0 (_1.ptx:1230) bar.sync 0;
GPGPU-Sim PTX:  2 (potential) branch divergence @  PC=0x19c8 (_1.ptx:1223) bra.uni $Lt_5_25346;
GPGPU-Sim PTX:    immediate post dominator      @  PC=0x19e0 (_1.ptx:1230) bar.sync 0;
GPGPU-Sim PTX:  3 (potential) branch divergence @  PC=0x1a30 (_1.ptx:1243) @%p2 bra $Lt_5_26626;
GPGPU-Sim PTX:    immediate post dominator      @  PC=0x2028 (_1.ptx:1493) mul.lo.s32 %r12, %r12, 2;
GPGPU-Sim PTX:  4 (potential) branch divergence @  PC=0x1a48 (_1.ptx:1247) @%p3 bra $Lt_5_35074;
GPGPU-Sim PTX:    immediate post dominator      @  PC=0x1fe0 (_1.ptx:1481) bar.sync 0;
GPGPU-Sim PTX:  5 (potential) branch divergence @  PC=0x1a90 (_1.ptx:1256) @%p4 bra $Lt_5_28162;
GPGPU-Sim PTX:    immediate post dominator      @  PC=0x1fe0 (_1.ptx:1481) bar.sync 0;
GPGPU-Sim PTX:  6 (potential) branch divergence @  PC=0x1ae0 (_1.ptx:1267) @%p6 bra $Lt_5_28674;
GPGPU-Sim PTX:    immediate post dominator      @  PC=0x1d00 (_1.ptx:1359) mov.u32 %r48, 0;
GPGPU-Sim PTX:  7 (potential) branch divergence @  PC=0x1af0 (_1.ptx:1269) @%p7 bra $Lt_5_29186;
GPGPU-Sim PTX:    immediate post dominator      @  PC=0x1d00 (_1.ptx:1359) mov.u32 %r48, 0;
GPGPU-Sim PTX:  8 (potential) branch divergence @  PC=0x1b00 (_1.ptx:1271) bra.uni $Lt_5_28418;
GPGPU-Sim PTX:    immediate post dominator      @  PC=0x1d00 (_1.ptx:1359) mov.u32 %r48, 0;
GPGPU-Sim PTX:  9 (potential) branch divergence @  PC=0x1b20 (_1.ptx:1277) bra.uni $Lt_5_28418;
GPGPU-Sim PTX:    immediate post dominator      @  PC=0x1d00 (_1.ptx:1359) mov.u32 %r48, 0;
GPGPU-Sim PTX: 10 (potential) branch divergence @  PC=0x1b68 (_1.ptx:1289) @%p8 bra $Lt_5_29698;
GPGPU-Sim PTX:    immediate post dominator      @  PC=0x1cf8 (_1.ptx:1356) mov.s32 %r32, %r37;
GPGPU-Sim PTX: 11 (potential) branch divergence @  PC=0x1b78 (_1.ptx:1292) bra.uni $LDWendi__Z7comparePKviS0_i_185_3;
GPGPU-Sim PTX:    immediate post dominator      @  PC=0x1cf8 (_1.ptx:1356) mov.s32 %r32, %r37;
GPGPU-Sim PTX: 12 (potential) branch divergence @  PC=0x1b88 (_1.ptx:1295) @%p9 bra $Lt_5_29442;
GPGPU-Sim PTX:    immediate post dominator      @  PC=0x1cf8 (_1.ptx:1356) mov.s32 %r32, %r37;
GPGPU-Sim PTX: 13 (potential) branch divergence @  PC=0x1b98 (_1.ptx:1298) bra.uni $LDWendi__Z7comparePKviS0_i_185_3;
GPGPU-Sim PTX:    immediate post dominator      @  PC=0x1cf8 (_1.ptx:1356) mov.s32 %r32, %r37;
GPGPU-Sim PTX: 14 (potential) branch divergence @  PC=0x1c18 (_1.ptx:1318) @%p10 bra $Lt_5_37122;
GPGPU-Sim PTX:    immediate post dominator      @  PC=0x1cb0 (_1.ptx:1340) setp.le.s32 %p16, %r41, %r43;
GPGPU-Sim PTX: 15 (potential) branch divergence @  PC=0x1c30 (_1.ptx:1321) @%p11 bra $Lt_5_37122;
GPGPU-Sim PTX:    immediate post dominator      @  PC=0x1cb0 (_1.ptx:1340) setp.le.s32 %p16, %r41, %r43;
GPGPU-Sim PTX: 16 (potential) branch divergence @  PC=0x1c48 (_1.ptx:1324) @%p12 bra $Lt_5_37122;
GPGPU-Sim PTX:    immediate post dominator      @  PC=0x1cb0 (_1.ptx:1340) setp.le.s32 %p16, %r41, %r43;
GPGPU-Sim PTX: 17 (potential) branch divergence @  PC=0x1c78 (_1.ptx:1331) @%p13 bra $Lt_5_37122;
GPGPU-Sim PTX:    immediate post dominator      @  PC=0x1cb0 (_1.ptx:1340) setp.le.s32 %p16, %r41, %r43;
GPGPU-Sim PTX: 18 (potential) branch divergence @  PC=0x1c90 (_1.ptx:1334) @%p14 bra $Lt_5_37122;
GPGPU-Sim PTX:    immediate post dominator      @  PC=0x1cb0 (_1.ptx:1340) setp.le.s32 %p16, %r41, %r43;
GPGPU-Sim PTX: 19 (potential) branch divergence @  PC=0x1ca8 (_1.ptx:1337) @%p15 bra $L_5_22274;
GPGPU-Sim PTX:    immediate post dominator      @  PC=0x1cb0 (_1.ptx:1340) setp.le.s32 %p16, %r41, %r43;
GPGPU-Sim PTX: 20 (potential) branch divergence @  PC=0x1cb8 (_1.ptx:1341) @%p16 bra $Lt_5_30466;
GPGPU-Sim PTX:    immediate post dominator      @  PC=0x1cf8 (_1.ptx:1356) mov.s32 %r32, %r37;
GPGPU-Sim PTX: 21 (potential) branch divergence @  PC=0x1cc8 (_1.ptx:1344) bra.uni $LDWendi__Z7comparePKviS0_i_185_3;
GPGPU-Sim PTX:    immediate post dominator      @  PC=0x1cf8 (_1.ptx:1356) mov.s32 %r32, %r37;
GPGPU-Sim PTX: 22 (potential) branch divergence @  PC=0x1cd8 (_1.ptx:1347) @%p17 bra $Lt_5_30978;
GPGPU-Sim PTX:    immediate post dominator      @  PC=0x1cf8 (_1.ptx:1356) mov.s32 %r32, %r37;
GPGPU-Sim PTX: 23 (potential) branch divergence @  PC=0x1ce8 (_1.ptx:1350) bra.uni $LDWendi__Z7comparePKviS0_i_185_3;
GPGPU-Sim PTX:    immediate post dominator      @  PC=0x1cf8 (_1.ptx:1356) mov.s32 %r32, %r37;
GPGPU-Sim PTX: 24 (potential) branch divergence @  PC=0x1d10 (_1.ptx:1361) @%p18 bra $Lt_5_35074;
GPGPU-Sim PTX:    immediate post dominator      @  PC=0x1fe0 (_1.ptx:1481) bar.sync 0;
GPGPU-Sim PTX: 25 (potential) branch divergence @  PC=0x1d38 (_1.ptx:1366) bra.uni $Lt_5_35074;
GPGPU-Sim PTX:    immediate post dominator      @  PC=0x1fe0 (_1.ptx:1481) bar.sync 0;
GPGPU-Sim PTX: 26 (potential) branch divergence @  PC=0x1d88 (_1.ptx:1378) @%p19 bra $Lt_5_32258;
GPGPU-Sim PTX:    immediate post dominator      @  PC=0x1fa8 (_1.ptx:1470) mov.u32 %r70, 0;
GPGPU-Sim PTX: 27 (potential) branch divergence @  PC=0x1d98 (_1.ptx:1380) @%p20 bra $Lt_5_32770;
GPGPU-Sim PTX:    immediate post dominator      @  PC=0x1fa8 (_1.ptx:1470) mov.u32 %r70, 0;
GPGPU-Sim PTX: 28 (potential) branch divergence @  PC=0x1da8 (_1.ptx:1382) bra.uni $Lt_5_32002;
GPGPU-Sim PTX:    immediate post dominator      @  PC=0x1fa8 (_1.ptx:1470) mov.u32 %r70, 0;
GPGPU-Sim PTX: 29 (potential) branch divergence @  PC=0x1dc8 (_1.ptx:1388) bra.uni $Lt_5_32002;
GPGPU-Sim PTX:    immediate post dominator      @  PC=0x1fa8 (_1.ptx:1470) mov.u32 %r70, 0;
GPGPU-Sim PTX: 30 (potential) branch divergence @  PC=0x1e10 (_1.ptx:1400) @%p21 bra $Lt_5_33282;
GPGPU-Sim PTX:    immediate post dominator      @  PC=0x1fa0 (_1.ptx:1467) mov.s32 %r32, %r37;
GPGPU-Sim PTX: 31 (potential) branch divergence @  PC=0x1e20 (_1.ptx:1403) bra.uni $LDWendi__Z7comparePKviS0_i_185_1;
GPGPU-Sim PTX:    immediate post dominator      @  PC=0x1fa0 (_1.ptx:1467) mov.s32 %r32, %r37;
GPGPU-Sim PTX: 32 (potential) branch divergence @  PC=0x1e30 (_1.ptx:1406) @%p22 bra $Lt_5_33026;
GPGPU-Sim PTX:    immediate post dominator      @  PC=0x1fa0 (_1.ptx:1467) mov.s32 %r32, %r37;
GPGPU-Sim PTX: 33 (potential) branch divergence @  PC=0x1e40 (_1.ptx:1409) bra.uni $LDWendi__Z7comparePKviS0_i_185_1;
GPGPU-Sim PTX:    immediate post dominator      @  PC=0x1fa0 (_1.ptx:1467) mov.s32 %r32, %r37;
GPGPU-Sim PTX: 34 (potential) branch divergence @  PC=0x1ec0 (_1.ptx:1429) @%p23 bra $Lt_5_38402;
GPGPU-Sim PTX:    immediate post dominator      @  PC=0x1f58 (_1.ptx:1451) setp.le.s32 %p29, %r41, %r43;
GPGPU-Sim PTX: 35 (potential) branch divergence @  PC=0x1ed8 (_1.ptx:1432) @%p24 bra $Lt_5_38402;
GPGPU-Sim PTX:    immediate post dominator      @  PC=0x1f58 (_1.ptx:1451) setp.le.s32 %p29, %r41, %r43;
GPGPU-Sim PTX: 36 (potential) branch divergence @  PC=0x1ef0 (_1.ptx:1435) @%p25 bra $Lt_5_38402;
GPGPU-Sim PTX:    immediate post dominator      @  PC=0x1f58 (_1.ptx:1451) setp.le.s32 %p29, %r41, %r43;
GPGPU-Sim PTX: 37 (potential) branch divergence @  PC=0x1f20 (_1.ptx:1442) @%p26 bra $Lt_5_38402;
GPGPU-Sim PTX:    immediate post dominator      @  PC=0x1f58 (_1.ptx:1451) setp.le.s32 %p29, %r41, %r43;
GPGPU-Sim PTX: 38 (potential) branch divergence @  PC=0x1f38 (_1.ptx:1445) @%p27 bra $Lt_5_38402;
GPGPU-Sim PTX:    immediate post dominator      @  PC=0x1f58 (_1.ptx:1451) setp.le.s32 %p29, %r41, %r43;
GPGPU-Sim PTX: 39 (potential) branch divergence @  PC=0x1f50 (_1.ptx:1448) @%p28 bra $L_5_23810;
GPGPU-Sim PTX:    immediate post dominator      @  PC=0x1f58 (_1.ptx:1451) setp.le.s32 %p29, %r41, %r43;
GPGPU-Sim PTX: 40 (potential) branch divergence @  PC=0x1f60 (_1.ptx:1452) @%p29 bra $Lt_5_34050;
GPGPU-Sim PTX:    immediate post dominator      @  PC=0x1fa0 (_1.ptx:1467) mov.s32 %r32, %r37;
GPGPU-Sim PTX: 41 (potential) branch divergence @  PC=0x1f70 (_1.ptx:1455) bra.uni $LDWendi__Z7comparePKviS0_i_185_1;
GPGPU-Sim PTX:    immediate post dominator      @  PC=0x1fa0 (_1.ptx:1467) mov.s32 %r32, %r37;
GPGPU-Sim PTX: 42 (potential) branch divergence @  PC=0x1f80 (_1.ptx:1458) @%p30 bra $Lt_5_34562;
GPGPU-Sim PTX:    immediate post dominator      @  PC=0x1fa0 (_1.ptx:1467) mov.s32 %r32, %r37;
GPGPU-Sim PTX: 43 (potential) branch divergence @  PC=0x1f90 (_1.ptx:1461) bra.uni $LDWendi__Z7comparePKviS0_i_185_1;
GPGPU-Sim PTX:    immediate post dominator      @  PC=0x1fa0 (_1.ptx:1467) mov.s32 %r32, %r37;
GPGPU-Sim PTX: 44 (potential) branch divergence @  PC=0x1fb8 (_1.ptx:1472) @%p31 bra $Lt_5_35074;
GPGPU-Sim PTX:    immediate post dominator      @  PC=0x1fe0 (_1.ptx:1481) bar.sync 0;
GPGPU-Sim PTX: 45 (potential) branch divergence @  PC=0x2020 (_1.ptx:1490) @%p32 bra $Lt_5_27138;
GPGPU-Sim PTX:    immediate post dominator      @  PC=0x2028 (_1.ptx:1493) mul.lo.s32 %r12, %r12, 2;
GPGPU-Sim PTX: 46 (potential) branch divergence @  PC=0x2040 (_1.ptx:1496) @%p33 bra $Lt_5_26370;
GPGPU-Sim PTX:    immediate post dominator      @  PC=0x2048 (_1.ptx:1497) mov.s32 %r83, 256;
GPGPU-Sim PTX: 47 (potential) branch divergence @  PC=0x2060 (_1.ptx:1500) @%p34 bra $Lt_5_36098;
GPGPU-Sim PTX:    immediate post dominator      @  PC=0x20a0 (_1.ptx:1511) exit;
GPGPU-Sim PTX: ... end of reconvergence points for _Z29bitonicSortSingleBlock_kernelPviP4int4iS1_
GPGPU-Sim PTX: ... done pre-decoding instructions for '_Z29bitonicSortSingleBlock_kernelPviP4int4iS1_'.
GPGPU-Sim PTX: allocating shared region for "__cuda___cuda_local_var_46080_40_non_const_bs_shared12496" from 0x0 to 0x1000 (shared memory space)
GPGPU-Sim PTX: allocating shared region for "__cuda_local_var_46077_30_non_const_bs_pStart" from 0x1000 to 0x1004 (shared memory space)
GPGPU-Sim PTX: allocating shared region for "__cuda_local_var_46078_30_non_const_bs_pEnd" from 0x1004 to 0x1008 (shared memory space)
GPGPU-Sim PTX: allocating shared region for "__cuda_local_var_46079_30_non_const_bs_numElement" from 0x1008 to 0x100c (shared memory space)
GPGPU-Sim PTX: instruction assembly for function '_Z32bitonicSortMultipleBlocks_kernelPviP4int4PiiiS1_'...   done.
GPGPU-Sim PTX: finding reconvergence points for '_Z32bitonicSortMultipleBlocks_kernelPviP4int4PiiiS1_'...
GPGPU-Sim PTX: Finding dominators for '_Z32bitonicSortMultipleBlocks_kernelPviP4int4PiiiS1_'...
GPGPU-Sim PTX: Finding immediate dominators for '_Z32bitonicSortMultipleBlocks_kernelPviP4int4PiiiS1_'...
GPGPU-Sim PTX: Finding postdominators for '_Z32bitonicSortMultipleBlocks_kernelPviP4int4PiiiS1_'...
GPGPU-Sim PTX: Finding immediate postdominators for '_Z32bitonicSortMultipleBlocks_kernelPviP4int4PiiiS1_'...
GPGPU-Sim PTX: pre-decoding instructions for '_Z32bitonicSortMultipleBlocks_kernelPviP4int4PiiiS1_'...
GPGPU-Sim PTX: reconvergence points for _Z32bitonicSortMultipleBlocks_kernelPviP4int4PiiiS1_...
GPGPU-Sim PTX:  1 (potential) branch divergence @  PC=0x20e0 (_1.ptx:1540) @%p1 bra $Lt_6_26882;
GPGPU-Sim PTX:    immediate post dominator      @  PC=0x28e8 (_1.ptx:1874) exit;
GPGPU-Sim PTX:  2 (potential) branch divergence @  PC=0x20e8 (_1.ptx:1541) bra.uni $LBB70__Z32bitonicSortMultipleBlocks_kernelPviP4int4PiiiS1_;
GPGPU-Sim PTX:    immediate post dominator      @  PC=0x28e8 (_1.ptx:1874) exit;
GPGPU-Sim PTX:  3 (potential) branch divergence @  PC=0x2128 (_1.ptx:1551) @%p2 bra $Lt_6_27394;
GPGPU-Sim PTX:    immediate post dominator      @  PC=0x2198 (_1.ptx:1570) bar.sync 0;
GPGPU-Sim PTX:  4 (potential) branch divergence @  PC=0x21d0 (_1.ptx:1577) @%p3 bra $Lt_6_28162;
GPGPU-Sim PTX:    immediate post dominator      @  PC=0x2230 (_1.ptx:1594) bar.sync 0;
GPGPU-Sim PTX:  5 (potential) branch divergence @  PC=0x2218 (_1.ptx:1587) bra.uni $Lt_6_27906;
GPGPU-Sim PTX:    immediate post dominator      @  PC=0x2230 (_1.ptx:1594) bar.sync 0;
GPGPU-Sim PTX:  6 (potential) branch divergence @  PC=0x2280 (_1.ptx:1607) @%p4 bra $Lt_6_29186;
GPGPU-Sim PTX:    immediate post dominator      @  PC=0x2878 (_1.ptx:1857) mul.lo.s32 %r27, %r27, 2;
GPGPU-Sim PTX:  7 (potential) branch divergence @  PC=0x2298 (_1.ptx:1611) @%p5 bra $Lt_6_37634;
GPGPU-Sim PTX:    immediate post dominator      @  PC=0x2830 (_1.ptx:1845) bar.sync 0;
GPGPU-Sim PTX:  8 (potential) branch divergence @  PC=0x22e0 (_1.ptx:1620) @%p6 bra $Lt_6_30722;
GPGPU-Sim PTX:    immediate post dominator      @  PC=0x2830 (_1.ptx:1845) bar.sync 0;
GPGPU-Sim PTX:  9 (potential) branch divergence @  PC=0x2330 (_1.ptx:1631) @%p8 bra $Lt_6_31234;
GPGPU-Sim PTX:    immediate post dominator      @  PC=0x2550 (_1.ptx:1723) mov.u32 %r63, 0;
GPGPU-Sim PTX: 10 (potential) branch divergence @  PC=0x2340 (_1.ptx:1633) @%p9 bra $Lt_6_31746;
GPGPU-Sim PTX:    immediate post dominator      @  PC=0x2550 (_1.ptx:1723) mov.u32 %r63, 0;
GPGPU-Sim PTX: 11 (potential) branch divergence @  PC=0x2350 (_1.ptx:1635) bra.uni $Lt_6_30978;
GPGPU-Sim PTX:    immediate post dominator      @  PC=0x2550 (_1.ptx:1723) mov.u32 %r63, 0;
GPGPU-Sim PTX: 12 (potential) branch divergence @  PC=0x2370 (_1.ptx:1641) bra.uni $Lt_6_30978;
GPGPU-Sim PTX:    immediate post dominator      @  PC=0x2550 (_1.ptx:1723) mov.u32 %r63, 0;
GPGPU-Sim PTX: 13 (potential) branch divergence @  PC=0x23b8 (_1.ptx:1653) @%p10 bra $Lt_6_32258;
GPGPU-Sim PTX:    immediate post dominator      @  PC=0x2548 (_1.ptx:1720) mov.s32 %r47, %r52;
GPGPU-Sim PTX: 14 (potential) branch divergence @  PC=0x23c8 (_1.ptx:1656) bra.uni $LDWendi__Z7comparePKviS0_i_186_3;
GPGPU-Sim PTX:    immediate post dominator      @  PC=0x2548 (_1.ptx:1720) mov.s32 %r47, %r52;
GPGPU-Sim PTX: 15 (potential) branch divergence @  PC=0x23d8 (_1.ptx:1659) @%p11 bra $Lt_6_32002;
GPGPU-Sim PTX:    immediate post dominator      @  PC=0x2548 (_1.ptx:1720) mov.s32 %r47, %r52;
GPGPU-Sim PTX: 16 (potential) branch divergence @  PC=0x23e8 (_1.ptx:1662) bra.uni $LDWendi__Z7comparePKviS0_i_186_3;
GPGPU-Sim PTX:    immediate post dominator      @  PC=0x2548 (_1.ptx:1720) mov.s32 %r47, %r52;
GPGPU-Sim PTX: 17 (potential) branch divergence @  PC=0x2468 (_1.ptx:1682) @%p12 bra $Lt_6_39682;
GPGPU-Sim PTX:    immediate post dominator      @  PC=0x2500 (_1.ptx:1704) setp.le.s32 %p18, %r56, %r58;
GPGPU-Sim PTX: 18 (potential) branch divergence @  PC=0x2480 (_1.ptx:1685) @%p13 bra $Lt_6_39682;
GPGPU-Sim PTX:    immediate post dominator      @  PC=0x2500 (_1.ptx:1704) setp.le.s32 %p18, %r56, %r58;
GPGPU-Sim PTX: 19 (potential) branch divergence @  PC=0x2498 (_1.ptx:1688) @%p14 bra $Lt_6_39682;
GPGPU-Sim PTX:    immediate post dominator      @  PC=0x2500 (_1.ptx:1704) setp.le.s32 %p18, %r56, %r58;
GPGPU-Sim PTX: 20 (potential) branch divergence @  PC=0x24c8 (_1.ptx:1695) @%p15 bra $Lt_6_39682;
GPGPU-Sim PTX:    immediate post dominator      @  PC=0x2500 (_1.ptx:1704) setp.le.s32 %p18, %r56, %r58;
GPGPU-Sim PTX: 21 (potential) branch divergence @  PC=0x24e0 (_1.ptx:1698) @%p16 bra $Lt_6_39682;
GPGPU-Sim PTX:    immediate post dominator      @  PC=0x2500 (_1.ptx:1704) setp.le.s32 %p18, %r56, %r58;
GPGPU-Sim PTX: 22 (potential) branch divergence @  PC=0x24f8 (_1.ptx:1701) @%p17 bra $L_6_23810;
GPGPU-Sim PTX:    immediate post dominator      @  PC=0x2500 (_1.ptx:1704) setp.le.s32 %p18, %r56, %r58;
GPGPU-Sim PTX: 23 (potential) branch divergence @  PC=0x2508 (_1.ptx:1705) @%p18 bra $Lt_6_33026;
GPGPU-Sim PTX:    immediate post dominator      @  PC=0x2548 (_1.ptx:1720) mov.s32 %r47, %r52;
GPGPU-Sim PTX: 24 (potential) branch divergence @  PC=0x2518 (_1.ptx:1708) bra.uni $LDWendi__Z7comparePKviS0_i_186_3;
GPGPU-Sim PTX:    immediate post dominator      @  PC=0x2548 (_1.ptx:1720) mov.s32 %r47, %r52;
GPGPU-Sim PTX: 25 (potential) branch divergence @  PC=0x2528 (_1.ptx:1711) @%p19 bra $Lt_6_33538;
GPGPU-Sim PTX:    immediate post dominator      @  PC=0x2548 (_1.ptx:1720) mov.s32 %r47, %r52;
GPGPU-Sim PTX: 26 (potential) branch divergence @  PC=0x2538 (_1.ptx:1714) bra.uni $LDWendi__Z7comparePKviS0_i_186_3;
GPGPU-Sim PTX:    immediate post dominator      @  PC=0x2548 (_1.ptx:1720) mov.s32 %r47, %r52;
GPGPU-Sim PTX: 27 (potential) branch divergence @  PC=0x2560 (_1.ptx:1725) @%p20 bra $Lt_6_37634;
GPGPU-Sim PTX:    immediate post dominator      @  PC=0x2830 (_1.ptx:1845) bar.sync 0;
GPGPU-Sim PTX: 28 (potential) branch divergence @  PC=0x2588 (_1.ptx:1730) bra.uni $Lt_6_37634;
GPGPU-Sim PTX:    immediate post dominator      @  PC=0x2830 (_1.ptx:1845) bar.sync 0;
GPGPU-Sim PTX: 29 (potential) branch divergence @  PC=0x25d8 (_1.ptx:1742) @%p21 bra $Lt_6_34818;
GPGPU-Sim PTX:    immediate post dominator      @  PC=0x27f8 (_1.ptx:1834) mov.u32 %r85, 0;
GPGPU-Sim PTX: 30 (potential) branch divergence @  PC=0x25e8 (_1.ptx:1744) @%p22 bra $Lt_6_35330;
GPGPU-Sim PTX:    immediate post dominator      @  PC=0x27f8 (_1.ptx:1834) mov.u32 %r85, 0;
GPGPU-Sim PTX: 31 (potential) branch divergence @  PC=0x25f8 (_1.ptx:1746) bra.uni $Lt_6_34562;
GPGPU-Sim PTX:    immediate post dominator      @  PC=0x27f8 (_1.ptx:1834) mov.u32 %r85, 0;
GPGPU-Sim PTX: 32 (potential) branch divergence @  PC=0x2618 (_1.ptx:1752) bra.uni $Lt_6_34562;
GPGPU-Sim PTX:    immediate post dominator      @  PC=0x27f8 (_1.ptx:1834) mov.u32 %r85, 0;
GPGPU-Sim PTX: 33 (potential) branch divergence @  PC=0x2660 (_1.ptx:1764) @%p23 bra $Lt_6_35842;
GPGPU-Sim PTX:    immediate post dominator      @  PC=0x27f0 (_1.ptx:1831) mov.s32 %r47, %r52;
GPGPU-Sim PTX: 34 (potential) branch divergence @  PC=0x2670 (_1.ptx:1767) bra.uni $LDWendi__Z7comparePKviS0_i_186_1;
GPGPU-Sim PTX:    immediate post dominator      @  PC=0x27f0 (_1.ptx:1831) mov.s32 %r47, %r52;
GPGPU-Sim PTX: 35 (potential) branch divergence @  PC=0x2680 (_1.ptx:1770) @%p24 bra $Lt_6_35586;
GPGPU-Sim PTX:    immediate post dominator      @  PC=0x27f0 (_1.ptx:1831) mov.s32 %r47, %r52;
GPGPU-Sim PTX: 36 (potential) branch divergence @  PC=0x2690 (_1.ptx:1773) bra.uni $LDWendi__Z7comparePKviS0_i_186_1;
GPGPU-Sim PTX:    immediate post dominator      @  PC=0x27f0 (_1.ptx:1831) mov.s32 %r47, %r52;
GPGPU-Sim PTX: 37 (potential) branch divergence @  PC=0x2710 (_1.ptx:1793) @%p25 bra $Lt_6_40962;
GPGPU-Sim PTX:    immediate post dominator      @  PC=0x27a8 (_1.ptx:1815) setp.le.s32 %p31, %r56, %r58;
GPGPU-Sim PTX: 38 (potential) branch divergence @  PC=0x2728 (_1.ptx:1796) @%p26 bra $Lt_6_40962;
GPGPU-Sim PTX:    immediate post dominator      @  PC=0x27a8 (_1.ptx:1815) setp.le.s32 %p31, %r56, %r58;
GPGPU-Sim PTX: 39 (potential) branch divergence @  PC=0x2740 (_1.ptx:1799) @%p27 bra $Lt_6_40962;
GPGPU-Sim PTX:    immediate post dominator      @  PC=0x27a8 (_1.ptx:1815) setp.le.s32 %p31, %r56, %r58;
GPGPU-Sim PTX: 40 (potential) branch divergence @  PC=0x2770 (_1.ptx:1806) @%p28 bra $Lt_6_40962;
GPGPU-Sim PTX:    immediate post dominator      @  PC=0x27a8 (_1.ptx:1815) setp.le.s32 %p31, %r56, %r58;
GPGPU-Sim PTX: 41 (potential) branch divergence @  PC=0x2788 (_1.ptx:1809) @%p29 bra $Lt_6_40962;
GPGPU-Sim PTX:    immediate post dominator      @  PC=0x27a8 (_1.ptx:1815) setp.le.s32 %p31, %r56, %r58;
GPGPU-Sim PTX: 42 (potential) branch divergence @  PC=0x27a0 (_1.ptx:1812) @%p30 bra $L_6_25346;
GPGPU-Sim PTX:    immediate post dominator      @  PC=0x27a8 (_1.ptx:1815) setp.le.s32 %p31, %r56, %r58;
GPGPU-Sim PTX: 43 (potential) branch divergence @  PC=0x27b0 (_1.ptx:1816) @%p31 bra $Lt_6_36610;
GPGPU-Sim PTX:    immediate post dominator      @  PC=0x27f0 (_1.ptx:1831) mov.s32 %r47, %r52;
GPGPU-Sim PTX: 44 (potential) branch divergence @  PC=0x27c0 (_1.ptx:1819) bra.uni $LDWendi__Z7comparePKviS0_i_186_1;
GPGPU-Sim PTX:    immediate post dominator      @  PC=0x27f0 (_1.ptx:1831) mov.s32 %r47, %r52;
GPGPU-Sim PTX: 45 (potential) branch divergence @  PC=0x27d0 (_1.ptx:1822) @%p32 bra $Lt_6_37122;
GPGPU-Sim PTX:    immediate post dominator      @  PC=0x27f0 (_1.ptx:1831) mov.s32 %r47, %r52;
GPGPU-Sim PTX: 46 (potential) branch divergence @  PC=0x27e0 (_1.ptx:1825) bra.uni $LDWendi__Z7comparePKviS0_i_186_1;
GPGPU-Sim PTX:    immediate post dominator      @  PC=0x27f0 (_1.ptx:1831) mov.s32 %r47, %r52;
GPGPU-Sim PTX: 47 (potential) branch divergence @  PC=0x2808 (_1.ptx:1836) @%p33 bra $Lt_6_37634;
GPGPU-Sim PTX:    immediate post dominator      @  PC=0x2830 (_1.ptx:1845) bar.sync 0;
GPGPU-Sim PTX: 48 (potential) branch divergence @  PC=0x2870 (_1.ptx:1854) @%p34 bra $Lt_6_29698;
GPGPU-Sim PTX:    immediate post dominator      @  PC=0x2878 (_1.ptx:1857) mul.lo.s32 %r27, %r27, 2;
GPGPU-Sim PTX: 49 (potential) branch divergence @  PC=0x2890 (_1.ptx:1860) @%p35 bra $Lt_6_28930;
GPGPU-Sim PTX:    immediate post dominator      @  PC=0x2898 (_1.ptx:1861) ld.shared.s32 %r98, [__cuda_local_var_46079_30_non_const_bs_numElement];
GPGPU-Sim PTX: 50 (potential) branch divergence @  PC=0x28a8 (_1.ptx:1863) @%p36 bra $LBB70__Z32bitonicSortMultipleBlocks_kernelPviP4int4PiiiS1_;
GPGPU-Sim PTX:    immediate post dominator      @  PC=0x28e8 (_1.ptx:1874) exit;
GPGPU-Sim PTX: ... end of reconvergence points for _Z32bitonicSortMultipleBlocks_kernelPviP4int4PiiiS1_
GPGPU-Sim PTX: ... done pre-decoding instructions for '_Z32bitonicSortMultipleBlocks_kernelPviP4int4PiiiS1_'.
GPGPU-Sim PTX: instruction assembly for function '_Z17initialize_kernelP4int4iiS_'...   done.
GPGPU-Sim PTX: finding reconvergence points for '_Z17initialize_kernelP4int4iiS_'...
GPGPU-Sim PTX: Finding dominators for '_Z17initialize_kernelP4int4iiS_'...
GPGPU-Sim PTX: Finding immediate dominators for '_Z17initialize_kernelP4int4iiS_'...
[...]
traffic_breakdown_memtocore[GLOBAL_ACC_R] = 42499728 {136:312498,}
traffic_breakdown_memtocore[GLOBAL_ACC_W] = 1015608 {8:126951,}
traffic_breakdown_memtocore[INST_ACC_R] = 30600 {136:225,}
maxmrqlatency = 574 
maxdqlatency = 0 
maxmflatency = 930 
averagemflatency = 262 
max_icnt2mem_latency = 167 
max_icnt2sh_latency = 801979 
mrq_lat_table:245082 	28167 	17339 	27612 	63449 	51747 	30018 	5443 	172 	16 	0 	0 	0 	0 	0 	0 	0 	0 	0 	0 	0 	0 	0 	0 	0 	0 	0 	0 	0 	0 	0 	0 	
dq_lat_table:0 	0 	0 	0 	0 	0 	0 	0 	0 	0 	0 	0 	0 	0 	0 	0 	0 	0 	0 	0 	0 	0 	0 	0 	0 	0 	0 	0 	0 	0 	0 	0 	
mf_lat_table:0 	0 	0 	0 	0 	0 	0 	97101 	341398 	965 	0 	0 	0 	0 	0 	0 	0 	0 	0 	0 	0 	0 	0 	0 	0 	0 	0 	0 	0 	0 	0 	0 	
icnt2mem_lat_table:0 	0 	0 	355384 	64574 	18208 	1512 	11 	0 	0 	0 	0 	0 	0 	0 	0 	0 	0 	0 	0 	0 	0 	0 	0 	
icnt2sh_lat_table:0 	0 	0 	163594 	121412 	26729 	778 	0 	0 	0 	0 	360 	726 	1739 	3238 	6520 	13146 	26542 	46594 	28086 	0 	0 	0 	0 	
mf_lat_pw_table:0 	0 	0 	0 	0 	0 	0 	482 	1114 	0 	0 	0 	0 	0 	0 	0 	0 	0 	0 	0 	0 	0 	0 	0 	0 	0 	0 	0 	0 	0 	0 	0 	
maximum concurrent accesses to same row:
dram[0]:        64        64        64        64        64        64        64        64        64        64        64        64        64        64        64        64 
dram[1]:        64        64        64        64        64        64        64        64        64        64        64        64        64        64        64        64 
dram[2]:        64        64        64        64        64        64        64        64        64        64        64        64        64        64        64        64 
dram[3]:        64        64        64        60        64        64        64        64        64        60        64        64        64        64        64        64 
dram[4]:        64        62        64        64        64        64        64        64        64        64        64        64        60        62        64        64 
dram[5]:        64        64        64        64        64        64        64        64        64        64        64        64        64        64        64        64 
maximum service time to same row:
dram[0]:     29452     29537     29161     29555     29457     29575     29253     29466     29589     29531     29430     29476     29339     29473     29476     29521 
dram[1]:     29650     29424     29602     29297     29519     29506     29540     29259     29606     29307     29536     29447     29549     29396     29592     29294 
dram[2]:     29650     29322     29587     29286     29517     29515     29541     29232     29606     29278     29548     29147     29531     29325     29594     29421 
dram[3]:     29489     29540     29375     29250     29529     29580     29503     29490     29609     29329     29333     29592     29539     29460     29419     29498 
dram[4]:     29281     29478     29323     27646     29541     29585     29538     29499     29343     29450     29057     29581     29360     29443     29063     29465 
dram[5]:     29554     29483     29581     27656     29572     29421     29469     29306     29529     29457     29627     29579     29484     29436     29527     29497 
average row accesses per activate:
dram[0]:  4.913741  4.772904  5.493213  5.071055  5.534937  4.950819  5.992647  5.523702  6.201511  5.607754  5.719626  5.089397  5.886883  5.078838  5.519730  5.021538 
dram[1]:  4.647059  4.907815  4.849602  5.648019  4.910569  5.351052  5.409292  6.117500  5.563842  6.329473  5.452116  5.863473  5.362541  5.849463  4.990826  5.686411 
dram[2]:  4.700576  4.987780  5.493228  5.899027  5.124072  5.453724  5.672854  6.004908  5.627429  6.496697  5.186440  5.699651  5.253219  5.746479  4.926486  5.415929 
dram[3]:  5.204038  4.631977  5.666278  5.071950  5.605568  5.012448  6.451187  5.395810  6.124378  5.650976  5.970732  5.344978  6.366710  5.142857  5.300108  4.940464 
dram[4]:  5.006135  4.704131  5.914738  5.307860  5.560414  4.788900  6.197719  5.474273  6.086526  5.524130  5.699651  5.126701  6.059406  5.198725  5.193206  5.094693 
dram[5]:  4.541744  4.854311  4.918864  5.561785  4.950819  5.515982  5.157007  5.849463  5.367503  6.069051  5.339149  5.699651  5.287257  6.009828  5.153684  5.494949 
average row locality = 469045/86911 = 5.396843
number of total memory accesses made:
dram[0]:         0         0         0         0         0         0         0         0         0         0         0         0         0         0         0         0 
dram[1]:         0         0         0         0         0         0         0         0         0         0         0         0         0         0         0         0 
dram[2]:         0         0         0         0         0         0         0         0         0         0         0         0         0         0         0         0 
dram[3]:         0         0         0         0         0         0         0         0         0         0         0         0         0         0         0         0 
dram[4]:         0         0         0         0         0         0         0         0         0         0         0         0         0         0         0         0 
dram[5]:         0         0         0         0         0         0         0         0         0         0         0         0         0         0         0         0 
total accesses: 0
min_bank_accesses = 0!
min_chip_accesses = 0!
number of total read accesses:
dram[0]:      3587      3585      3560      3556      3552      3552      3594      3596      3612      3608      3584      3584      3582      3584      3584      3584 
dram[1]:      3586      3586      3560      3556      3552      3552      3594      3596      3612      3608      3584      3584      3584      3584      3584      3584 
dram[2]:      3586      3586      3560      3556      3552      3552      3594      3596      3612      3608      3584      3584      3584      3584      3582      3584 
dram[3]:      3585      3584      3560      3558      3552      3552      3594      3596      3612      3610      3584      3584      3584      3584      3582      3584 
dram[4]:      3584      3585      3558      3558      3552      3552      3594      3596      3612      3610      3584      3584      3584      3582      3582      3584 
dram[5]:      3584      3586      3556      3558      3552      3552      3596      3598      3610      3610      3584      3584      3584      3582      3584      3584 
total reads: 343824
bank skew: 3612/3552 = 1.02
chip skew: 57306/57301 = 1.00
number of total write accesses:
dram[0]:      1312      1312      1296      1297      1280      1280      1296      1298      1312      1310      1312      1312      1310      1312      1312      1312 
dram[1]:      1312      1312      1309      1290      1280      1280      1296      1298      1312      1310      1312      1312      1312      1312      1312      1312 
dram[2]:      1312      1312      1307      1293      1280      1280      1296      1298      1312      1310      1312      1312      1312      1312      1310      1312 
dram[3]:      1312      1312      1296      1306      1280      1280      1296      1298      1312      1312      1312      1312      1312      1312      1310      1312 
dram[4]:      1312      1312      1298      1304      1280      1280      1296      1298      1312      1312      1312      1312      1312      1310      1310      1312 
dram[5]:      1312      1312      1294      1303      1280      1280      1298      1298      1312      1312      1312      1312      1312      1310      1312      1312 
total reads: 125221
bank skew: 1312/1280 = 1.02
chip skew: 20874/20863 = 1.00
average mf latency per bank:
dram[0]:        246       244       250       249       244       246       245       243       240       241       242       242       244       246       247       248
dram[1]:        244       247       249       250       245       246       245       246       241       243       242       243       245       246       247       250
dram[2]:        243       246       248       246       243       246       242       245       239       243       241       244       244       247       245       249
dram[3]:        244       244       249       251       245       246       246       246       243       242       244       242       244       246       248       249
dram[4]:        246       243       248       249       245       244       245       245       242       241       243       242       244       245       248       248
dram[5]:        244       246       248       251       244       246       245       247       241       243       242       243       245       246       247       249
maximum mf latency per bank:
dram[0]:        776       845       670       595       497       580       595       593       605       585       511       488       734       633       806       703
dram[1]:        858       930       712       591       476       585       587       611       494       562       491       505       624       701       635       737
dram[2]:        854       867       748       618       522       563       590       593       497       604       471       608       602       709       626       745
dram[3]:        852       790       709       655       526       540       581       678       551       579       513       488       732       642       774       673
dram[4]:        906       833       726       639       504       514       593       636       576       592       508       527       740       656       782       655
dram[5]:        859       802       585       679       550       530       584       656       559       612       520       498       633       720       764       792

Number of Memory Banks Accessed per Memory Operation per Warp (from 0):
0	0	0	0	0	0	0	0	0	0	0	0	0	0	0	0	0	0	0	0	0	0	0	0	0	0	0	0	0	0	0	0	0	0	0	0	0	0	0	0	0	0	0	0	0	0	0	0	0	0	0	0	0	0	0	0	0	0	0	0	0	0	0	0	0	0	0	0	0	0	0	0	0	0	0	0	0	0	0	0	0	0	0	0	0	0	0	0	0	0	0	0	0	0	0	0	
Average # of Memory Banks Accessed per Memory Operation per Warp=-nan

position of mrq chosen
0	0	0	0	0	0	0	0	0	0	0	0	0	0	0	0	

average position of mrq chosen = -nan
Memory Partition 0: 
Cache L2_bank_000:
MSHR contents

Cache L2_bank_001:
MSHR contents

In Dram Latency Queue (total = 0): 
DRAM[0]: 16 bks, busW=4 BL=8 CL=12, tRRD=2 tCCD=6, tRCD=12 tRAS=28 tRP=12 tRC=40
n_cmd=1058612 n_nop=873193 n_act=14562 n_pre=14546 n_req=78167 n_rd=114608 n_write=41703 bw_util=0.2953
n_activity=739934 dram_eff=0.4225
bk0: 7174a 971576i bk1: 7170a 964394i bk2: 7120a 971060i bk3: 7112a 964724i bk4: 7104a 971966i bk5: 7104a 963137i bk6: 7188a 973099i bk7: 7192a 967578i bk8: 7224a 978286i bk9: 7216a 971471i bk10: 7168a 973767i bk11: 7168a 967195i bk12: 7164a 971746i bk13: 7168a 962156i bk14: 7168a 970398i bk15: 7168a 959278i 
dram_util_bins: 0 0 0 0 0 0 0 0 0 0
dram_eff_bins: 0 0 0 0 0 0 0 0 0 0
mrqq: max=16 avg=1.58741
Memory Partition 1: 
Cache L2_bank_002:
MSHR contents

Cache L2_bank_003:
MSHR contents

In Dram Latency Queue (total = 0): 
DRAM[1]: 16 bks, busW=4 BL=8 CL=12, tRRD=2 tCCD=6, tRCD=12 tRAS=28 tRP=12 tRC=40
n_cmd=1058612 n_nop=873319 n_act=14492 n_pre=14476 n_req=78177 n_rd=114612 n_write=41713 bw_util=0.2953
n_activity=737517 dram_eff=0.4239
bk0: 7172a 967103i bk1: 7172a 969033i bk2: 7120a 965970i bk3: 7112a 970113i bk4: 7104a 966417i bk5: 7104a 968163i bk6: 7188a 967531i bk7: 7192a 969303i bk8: 7224a 973896i bk9: 7216a 975237i bk10: 7168a 969319i bk11: 7168a 970993i bk12: 7168a 966643i bk13: 7168a 968114i bk14: 7168a 965915i bk15: 7168a 967088i 
dram_util_bins: 0 0 0 0 0 0 0 0 0 0
dram_eff_bins: 0 0 0 0 0 0 0 0 0 0
mrqq: max=16 avg=1.58535
Memory Partition 2: 
Cache L2_bank_004:
MSHR contents
MSHR: tag=0x8652c280, atomic=0 1 entries : 0x7fa5053ac3a0 :  mf: uid=4635747, sid14:w35, part=2, addr=0x8652c280, load , size=128, unknown  status = IN_PARTITION_DRAM (801974), 

Cache L2_bank_005:
MSHR contents
MSHR: tag=0x8652bc80, atomic=0 1 entries : 0x7fa5053aad50 :  mf: uid=4635740, sid08:w39, part=2, addr=0x8652bc80, load , size=128, unknown  status = IN_PARTITION_L2_FILL_QUEUE (801979), 

In Dram Latency Queue (total = 0): 
DRAM[2]: 16 bks, busW=4 BL=8 CL=12, tRRD=2 tCCD=6, tRCD=12 tRAS=28 tRP=12 tRC=40
n_cmd=1058612 n_nop=873602 n_act=14354 n_pre=14338 n_req=78174 n_rd=114608 n_write=41710 bw_util=0.2953
n_activity=738030 dram_eff=0.4236
bk0: 7172a 968133i bk1: 7172a 967649i bk2: 7120a 968959i bk3: 7112a 971336i bk4: 7104a 968736i bk5: 7104a 968695i bk6: 7188a 970935i bk7: 7192a 969398i bk8: 7224a 973685i bk9: 7216a 975098i bk10: 7168a 970320i bk11: 7168a 969720i bk12: 7168a 967101i bk13: 7168a 967805i bk14: 7164a 962311i bk15: 7168a 964691i 
dram_util_bins: 0 0 0 0 0 0 0 0 0 0
dram_eff_bins: 0 0 0 0 0 0 0 0 0 0
mrqq: max=16 avg=1.57273
Memory Partition 3: 
Cache L2_bank_006:
MSHR contents
MSHR: tag=0x8652c380, atomic=0 1 entries : 0x7fa5053ac720 :  mf: uid=4635748, sid14:w37, part=3, addr=0x8652c380, load , size=128, unknown  status = IN_PARTITION_DRAM (801975), 

Cache L2_bank_007:
MSHR contents

In Dram Latency Queue (total = 0): 
DRAM[3]: 16 bks, busW=4 BL=8 CL=12, tRRD=2 tCCD=6, tRCD=12 tRAS=28 tRP=12 tRC=40
n_cmd=1058612 n_nop=873598 n_act=14351 n_pre=14335 n_req=78179 n_rd=114610 n_write=41718 bw_util=0.2953
n_activity=734800 dram_eff=0.4255
bk0: 7170a 975709i bk1: 7168a 964349i bk2: 7120a 973752i bk3: 7116a 964226i bk4: 7104a 972077i bk5: 7104a 963641i bk6: 7188a 973241i bk7: 7192a 963407i bk8: 7224a 974821i bk9: 7220a 971513i bk10: 7168a 973510i bk11: 7168a 967216i bk12: 7168a 971302i bk13: 7168a 960845i bk14: 7164a 967315i bk15: 7168a 958177i 
dram_util_bins: 0 0 0 0 0 0 0 0 0 0
dram_eff_bins: 0 0 0 0 0 0 0 0 0 0
mrqq: max=16 avg=1.57183
Memory Partition 4: 
Cache L2_bank_008:
MSHR contents
MSHR: tag=0x8652c480, atomic=0 1 entries : 0x7fa5053abfb0 :  mf: uid=4635746, sid14:w39, part=4, addr=0x8652c480, load , size=128, unknown  status = IN_PARTITION_DRAM (801975), 

Cache L2_bank_009:
MSHR contents

In Dram Latency Queue (total = 0): 
DRAM[4]: 16 bks, busW=4 BL=8 CL=12, tRRD=2 tCCD=6, tRCD=12 tRAS=28 tRP=12 tRC=40
n_cmd=1058612 n_nop=873346 n_act=14483 n_pre=14467 n_req=78173 n_rd=114602 n_write=41714 bw_util=0.2953
n_activity=736726 dram_eff=0.4244
bk0: 7168a 971838i bk1: 7170a 964491i bk2: 7116a 972681i bk3: 7116a 964544i bk4: 7104a 971073i bk5: 7104a 961896i bk6: 7188a 971987i bk7: 7192a 963323i bk8: 7224a 976628i bk9: 7220a 968093i bk10: 7168a 972385i bk11: 7168a 966889i bk12: 7168a 971205i bk13: 7164a 963513i bk14: 7164a 966811i bk15: 7168a 959011i 
dram_util_bins: 0 0 0 0 0 0 0 0 0 0
dram_eff_bins: 0 0 0 0 0 0 0 0 0 0
mrqq: max=16 avg=1.59309
Memory Partition 5: 
Cache L2_bank_010:
MSHR contents

Cache L2_bank_011:
MSHR contents

In Dram Latency Queue (total = 0): 
DRAM[5]: 16 bks, busW=4 BL=8 CL=12, tRRD=2 tCCD=6, tRCD=12 tRAS=28 tRP=12 tRC=40
n_cmd=1058612 n_nop=872965 n_act=14670 n_pre=14654 n_req=78175 n_rd=114608 n_write=41715 bw_util=0.2953
n_activity=735659 dram_eff=0.425
bk0: 7168a 969093i bk1: 7172a 966088i bk2: 7112a 966661i bk3: 7116a 969090i bk4: 7104a 966590i bk5: 7104a 968589i bk6: 7192a 966290i bk7: 7196a 966813i bk8: 7220a 973472i bk9: 7220a 973541i bk10: 7168a 967558i bk11: 7168a 971327i bk12: 7168a 965468i bk13: 7164a 968439i bk14: 7168a 964481i bk15: 7168a 965457i 
dram_util_bins: 0 0 0 0 0 0 0 0 0 0
dram_eff_bins: 0 0 0 0 0 0 0 0 0 0
mrqq: max=16 avg=1.59968

========= L2 cache stats =========
L2_cache_bank[0]: Access = 36695, Miss = 28655, Miss_rate = 0.781, Pending_hits = 13, Reservation_fails = 328
L2_cache_bank[1]: Access = 36599, Miss = 28649, Miss_rate = 0.783, Pending_hits = 12, Reservation_fails = 236
L2_cache_bank[2]: Access = 36684, Miss = 28656, Miss_rate = 0.781, Pending_hits = 23, Reservation_fails = 372
L2_cache_bank[3]: Access = 36614, Miss = 28650, Miss_rate = 0.782, Pending_hits = 8, Reservation_fails = 380
L2_cache_bank[4]: Access = 36680, Miss = 28654, Miss_rate = 0.781, Pending_hits = 21, Reservation_fails = 338
L2_cache_bank[5]: Access = 36614, Miss = 28650, Miss_rate = 0.782, Pending_hits = 11, Reservation_fails = 298
L2_cache_bank[6]: Access = 36634, Miss = 28653, Miss_rate = 0.782, Pending_hits = 7, Reservation_fails = 149
L2_cache_bank[7]: Access = 36652, Miss = 28652, Miss_rate = 0.782, Pending_hits = 14, Reservation_fails = 378
L2_cache_bank[8]: Access = 36586, Miss = 28650, Miss_rate = 0.783, Pending_hits = 8, Reservation_fails = 42
L2_cache_bank[9]: Access = 36663, Miss = 28651, Miss_rate = 0.781, Pending_hits = 15, Reservation_fails = 459
L2_cache_bank[10]: Access = 36588, Miss = 28650, Miss_rate = 0.783, Pending_hits = 6, Reservation_fails = 92
L2_cache_bank[11]: Access = 36680, Miss = 28654, Miss_rate = 0.781, Pending_hits = 17, Reservation_fails = 534
L2_total_cache_accesses = 439689
L2_total_cache_misses = 343824
L2_total_cache_miss_rate = 0.7820
L2_total_cache_pending_hits = 155
L2_total_cache_reservation_fails = 3606
L2_total_cache_breakdown:
	L2_cache_stats_breakdown[GLOBAL_ACC_R][MISS] = 312498
	L2_cache_stats_breakdown[GLOBAL_ACC_R][RESERVATION_FAIL] = 1028
	L2_cache_stats_breakdown[CONST_ACC_R][HIT] = 11
	L2_cache_stats_breakdown[CONST_ACC_R][HIT_RESERVED] = 3
	L2_cache_stats_breakdown[CONST_ACC_R][MISS] = 1
	L2_cache_stats_breakdown[CONST_ACC_R][RESERVATION_FAIL] = 98
	L2_cache_stats_breakdown[GLOBAL_ACC_W][HIT] = 95534
	L2_cache_stats_breakdown[GLOBAL_ACC_W][HIT_RESERVED] = 107
	L2_cache_stats_breakdown[GLOBAL_ACC_W][MISS] = 31310
	L2_cache_stats_breakdown[GLOBAL_ACC_W][RESERVATION_FAIL] = 1068
	L2_cache_stats_breakdown[INST_ACC_R][HIT] = 165
	L2_cache_stats_breakdown[INST_ACC_R][HIT_RESERVED] = 45
	L2_cache_stats_breakdown[INST_ACC_R][MISS] = 15
	L2_cache_stats_breakdown[INST_ACC_R][RESERVATION_FAIL] = 1412
L2_cache_data_port_util = 0.078
L2_cache_fill_port_util = 0.143

icnt_total_pkts_mem_to_simt=1690611
icnt_total_pkts_simt_to_mem=941634
LD_mem_lat_dist  0 0 0 0 0 0 0 0 0 0 0 0 0 0 0 0 0 0 0 0 0 0 0 0 0 0 0
ST_mem_lat_dist  0 0 0 0 0 0 0 0 0 0 0 0 0 0 0 0 0 0 0 0 0 0 0 0 0 0 0
----------------------------Interconnect-DETAILS--------------------------------
Class 0:
Packet latency average = 10.4325
	minimum = 6
	maximum = 68
Network latency average = 9.36932
	minimum = 6
	maximum = 61
Slowest packet = 752406
Flit latency average = 8.0683
	minimum = 6
	maximum = 57
Slowest flit = 2261295
Fragmentation average = 0
	minimum = 0
	maximum = 0
Injected packet rate average = 0.0143376
	minimum = 0.012884 (at node 0)
	maximum = 0.0162699 (at node 15)
Accepted packet rate average = 0.0143376
	minimum = 0.012884 (at node 0)
	maximum = 0.0162699 (at node 15)
Injected flit rate average = 0.0423626
	minimum = 0.0382027 (at node 0)
	maximum = 0.0478388 (at node 15)
Accepted flit rate average= 0.0423626
	minimum = 0.037933 (at node 0)
	maximum = 0.0480545 (at node 15)
Injected packet length average = 2.95465
Accepted packet length average = 2.95465
Total in-flight flits = 0 (0 measured)
====== Overall Traffic Statistics ======
====== Traffic class 0 ======
Packet latency average = 11.5472 (2 samples)
	minimum = 6 (2 samples)
	maximum = 95 (2 samples)
Network latency average = 10.3891 (2 samples)
	minimum = 6 (2 samples)
	maximum = 86 (2 samples)
Flit latency average = 8.86477 (2 samples)
	minimum = 6 (2 samples)
	maximum = 82 (2 samples)
Fragmentation average = 0 (2 samples)
	minimum = 0 (2 samples)
	maximum = 0 (2 samples)
Injected packet rate average = 0.0368382 (2 samples)
	minimum = 0.0331018 (2 samples)
	maximum = 0.0415349 (2 samples)
Accepted packet rate average = 0.0368382 (2 samples)
	minimum = 0.0331018 (2 samples)
	maximum = 0.0415349 (2 samples)
Injected flit rate average = 0.110188 (2 samples)
	minimum = 0.0724144 (2 samples)
	maximum = 0.157551 (2 samples)
Accepted flit rate average = 0.110188 (2 samples)
	minimum = 0.0857024 (2 samples)
	maximum = 0.131081 (2 samples)
Injected packet size average = 2.99114 (2 samples)
Accepted packet size average = 2.99114 (2 samples)
Hops average = 1 (2 samples)
