

        *** GPGPU-Sim Simulator Version 3.2.2  [build 0] ***


GPGPU-Sim PTX: simulation mode 0 (can change with PTX_SIM_MODE_FUNC environment variable:
               1=functional simulation only, 0=detailed performance simulator)
GPGPU-Sim: Configuration options:

-network_mode                           1 # Interconnection network mode
-inter_config_file   config_fermi_islip.icnt # Interconnection network config file
-gpgpu_ptx_use_cuobjdump                    1 # Use cuobjdump to extract ptx and sass from binaries
-gpgpu_experimental_lib_support                    0 # Try to extract code from cuda libraries [Broken because of unknown cudaGetExportTable]
-gpgpu_ptx_convert_to_ptxplus                    0 # Convert SASS (native ISA) to ptxplus and run ptxplus
-gpgpu_ptx_force_max_capability                   20 # Force maximum compute capability
-gpgpu_ptx_inst_debug_to_file                    0 # Dump executed instructions' debug information to file
-gpgpu_ptx_inst_debug_file       inst_debug.txt # Executed instructions' debug output file
-gpgpu_ptx_inst_debug_thread_uid                    1 # Thread UID for executed instructions' debug output
-gpgpu_simd_model                       1 # 1 = post-dominator
-gpgpu_shader_core_pipeline              1536:32 # shader core pipeline config, i.e., {<nthread>:<warpsize>}
-gpgpu_tex_cache:l1  4:128:24,L:R:m:N:L,F:128:4,128:2 # per-shader L1 texture cache  (READ-ONLY) config  {<nsets>:<bsize>:<assoc>,<rep>:<wr>:<alloc>:<wr_alloc>,<mshr>:<N>:<merge>,<mq>:<rf>}
-gpgpu_const_cache:l1 64:64:2,L:R:f:N:L,A:2:32,4 # per-shader L1 constant memory cache  (READ-ONLY) config  {<nsets>:<bsize>:<assoc>,<rep>:<wr>:<alloc>:<wr_alloc>,<mshr>:<N>:<merge>,<mq>} 
-gpgpu_cache:il1     4:128:4,L:R:f:N:L,A:2:32,4 # shader L1 instruction cache config  {<nsets>:<bsize>:<assoc>,<rep>:<wr>:<alloc>:<wr_alloc>,<mshr>:<N>:<merge>,<mq>} 
-gpgpu_cache:dl1     32:128:4,L:L:m:N:H,A:32:8,8:2,0,1:0:1:1:0:1,1:4:8:16:32:64,/sciclone/data10/hwang07/GPU_RESEARCH/swl/swl_outputs/RESULTS/swl8/ # per-shader L1 data cache config  {<nsets>:<bsize>:<assoc>,<rep>:<wr>:<alloc>:<wr_alloc>,<mshr>:<N>:<merge>,<mq> | none}
-gpgpu_cache:dl1PrefL1                 none # per-shader L1 data cache config  {<nsets>:<bsize>:<assoc>,<rep>:<wr>:<alloc>:<wr_alloc>,<mshr>:<N>:<merge>,<mq> | none}
-gpgpu_cache:dl1PreShared                 none # per-shader L1 data cache config  {<nsets>:<bsize>:<assoc>,<rep>:<wr>:<alloc>:<wr_alloc>,<mshr>:<N>:<merge>,<mq> | none}
-gmem_skip_L1D                          0 # global memory access skip L1D cache (implements -Xptxas -dlcm=cg, default=no skip)
-gpgpu_perfect_mem                      0 # enable perfect memory mode (no cache miss)
-n_regfile_gating_group                    4 # group of lanes that should be read/written together)
-gpgpu_clock_gated_reg_file                    0 # enable clock gated reg file for power calculations
-gpgpu_clock_gated_lanes                    0 # enable clock gated lanes for power calculations
-gpgpu_shader_registers                32768 # Number of registers per shader core. Limits number of concurrent CTAs. (default 8192)
-gpgpu_shader_cta                       8 # Maximum number of concurrent CTAs in shader (default 8)
-gpgpu_num_cta_barriers                   16 # Maximum number of named barriers per CTA (default 16)
-gpgpu_n_clusters                      15 # number of processing clusters
-gpgpu_n_cores_per_cluster                    1 # number of simd cores per cluster
-gpgpu_n_cluster_ejection_buffer_size                    8 # number of packets in ejection buffer
-gpgpu_n_ldst_response_buffer_size                    2 # number of response packets in ld/st unit ejection buffer
-gpgpu_shmem_size                   16384 # Size of shared memory per shader core (default 16kB)
-gpgpu_shmem_size                   49152 # Size of shared memory per shader core (default 16kB)
-gpgpu_shmem_size_PrefL1                16384 # Size of shared memory per shader core (default 16kB)
-gpgpu_shmem_size_PrefShared                16384 # Size of shared memory per shader core (default 16kB)
-gpgpu_shmem_num_banks                   32 # Number of banks in the shared memory in each shader core (default 16)
-gpgpu_shmem_limited_broadcast                    0 # Limit shared memory to do one broadcast per cycle (default on)
-gpgpu_shmem_warp_parts                    1 # Number of portions a warp is divided into for shared memory bank conflict check 
-gpgpu_warpdistro_shader                   -1 # Specify which shader core to collect the warp size distribution from
-gpgpu_warp_issue_shader                    0 # Specify which shader core to collect the warp issue distribution from
-gpgpu_local_mem_map                    1 # Mapping from local memory space address to simulated GPU physical address space (default = enabled)
-gpgpu_num_reg_banks                   16 # Number of register banks (default = 8)
-gpgpu_reg_bank_use_warp_id                    0 # Use warp ID in mapping registers to banks (default = off)
-gpgpu_operand_collector_num_units_sp                    6 # number of collector units (default = 4)
-gpgpu_operand_collector_num_units_sfu                    8 # number of collector units (default = 4)
-gpgpu_operand_collector_num_units_mem                    2 # number of collector units (default = 2)
-gpgpu_operand_collector_num_units_gen                    0 # number of collector units (default = 0)
-gpgpu_operand_collector_num_in_ports_sp                    2 # number of collector unit in ports (default = 1)
-gpgpu_operand_collector_num_in_ports_sfu                    1 # number of collector unit in ports (default = 1)
-gpgpu_operand_collector_num_in_ports_mem                    1 # number of collector unit in ports (default = 1)
-gpgpu_operand_collector_num_in_ports_gen                    0 # number of collector unit in ports (default = 0)
-gpgpu_operand_collector_num_out_ports_sp                    2 # number of collector unit in ports (default = 1)
-gpgpu_operand_collector_num_out_ports_sfu                    1 # number of collector unit in ports (default = 1)
-gpgpu_operand_collector_num_out_ports_mem                    1 # number of collector unit in ports (default = 1)
-gpgpu_operand_collector_num_out_ports_gen                    0 # number of collector unit in ports (default = 0)
-gpgpu_coalesce_arch                   13 # Coalescing arch (default = 13, anything else is off for now)
-gpgpu_num_sched_per_core                    2 # Number of warp schedulers per core
-gpgpu_max_insn_issue_per_warp                    1 # Max number of instructions that can be issued per warp in one cycle by scheduler
-gpgpu_simt_core_sim_order                    1 # Select the simulation order of cores in a cluster (0=Fix, 1=Round-Robin)
-gpgpu_pipeline_widths        2,1,1,2,1,1,2 # Pipeline widths ID_OC_SP,ID_OC_SFU,ID_OC_MEM,OC_EX_SP,OC_EX_SFU,OC_EX_MEM,EX_WB
-gpgpu_num_sp_units                     2 # Number of SP units (default=1)
-gpgpu_num_sfu_units                    1 # Number of SF units (default=1)
-gpgpu_num_mem_units                    1 # Number if ldst units (default=1) WARNING: not hooked up to anything
-gpgpu_scheduler        warp_limiting:2:8 # Scheduler configuration: < lrr | gto | two_level_active > If two_level_active:<num_active_warps>:<inner_prioritization>:<outer_prioritization>For complete list of prioritization values see shader.h enum scheduler_prioritization_typeDefault: gto
-gpgpu_dram_scheduler                    1 # 0 = fifo, 1 = FR-FCFS (defaul)
-gpgpu_dram_partition_queues              8:8:8:8 # i2$:$2d:d2$:$2i
-l2_ideal                               0 # Use a ideal L2 cache that always hit
-gpgpu_cache:dl2     64:128:8,L:B:m:W:L,A:32:4,4:0,32 # unified banked L2 data cache config  {<nsets>:<bsize>:<assoc>,<rep>:<wr>:<alloc>:<wr_alloc>,<mshr>:<N>:<merge>,<mq>}
-gpgpu_cache:dl2_texture_only                    0 # L2 cache used for texture only
-gpgpu_n_mem                            6 # number of memory modules (e.g. memory controllers) in gpu
-gpgpu_n_sub_partition_per_mchannel                    2 # number of memory subpartition in each memory module
-gpgpu_n_mem_per_ctrlr                    2 # number of memory chips per memory controller
-gpgpu_memlatency_stat                   14 # track and display latency statistics 0x2 enables MC, 0x4 enables queue logs
-gpgpu_frfcfs_dram_sched_queue_size                   16 # 0 = unlimited (default); # entries per chip
-gpgpu_dram_return_queue_size                  116 # 0 = unlimited (default); # entries per chip
-gpgpu_dram_buswidth                    4 # default = 4 bytes (8 bytes per cycle at DDR)
-gpgpu_dram_burst_length                    8 # Burst length of each DRAM request (default = 4 data bus cycle)
-dram_data_command_freq_ratio                    4 # Frequency ratio between DRAM data bus and command bus (default = 2 times, i.e. DDR)
-gpgpu_dram_timing_opt nbk=16:CCD=2:RRD=6:RCD=12:RAS=28:RP=12:RC=40: CL=12:WL=4:CDLR=5:WR=12:nbkgrp=4:CCDL=3:RTPL=2 # DRAM timing parameters = {nbk:tCCD:tRRD:tRCD:tRAS:tRP:tRC:CL:WL:tCDLR:tWR:nbkgrp:tCCDL:tRTPL}
-rop_latency                          120 # ROP queue latency (default 85)
-dram_latency                         100 # DRAM latency (default 30)
-gpgpu_mem_addr_mapping dramid@8;00000000.00000000.00000000.00000000.0000RRRR.RRRRRRRR.BBBCCCCB.CCSSSSSS # mapping memory address to dram model {dramid@<start bit>;<memory address map>}
-gpgpu_mem_addr_test                    0 # run sweep test to check address mapping for aliased address
-gpgpu_mem_address_mask                    1 # 0 = old addressing mask, 1 = new addressing mask, 2 = new add. mask + flipped bank sel and chip sel bits
-gpuwattch_xml_file  gpuwattch_gtx480.xml # GPUWattch XML file
-power_simulation_enabled                    0 # Turn on power simulator (1=On, 0=Off)
-power_per_cycle_dump                    0 # Dump detailed power output each cycle
-power_trace_enabled                    0 # produce a file for the power trace (1=On, 0=Off)
-power_trace_zlevel                     6 # Compression level of the power trace output log (0=no comp, 9=highest)
-steady_power_levels_enabled                    0 # produce a file for the steady power levels (1=On, 0=Off)
-steady_state_definition                  8:4 # allowed deviation:number of samples
-gpgpu_max_cycle                        0 # terminates gpu simulation early (0 = no limit)
-gpgpu_max_insn                         0 # terminates gpu simulation early (0 = no limit)
-gpgpu_max_cta                          0 # terminates gpu simulation early (0 = no limit)
-gpgpu_runtime_stat                   500 # display runtime statistics such as dram utilization {<freq>:<flag>}
-liveness_message_freq                    1 # Minimum number of seconds between simulation liveness messages (0 = always print)
-gpgpu_flush_l1_cache                    0 # Flush L1 cache at the end of each kernel call
-gpgpu_flush_l2_cache                    0 # Flush L2 cache at the end of each kernel call
-gpgpu_deadlock_detect                    1 # Stop the simulation at deadlock (1=on (default), 0=off)
-gpgpu_ptx_instruction_classification                    0 # if enabled will classify ptx instruction types per kernel (Max 255 kernels now)
-gpgpu_ptx_sim_mode                     0 # Select between Performance (default) or Functional simulation (1)
-gpgpu_clock_domains 700.0:700.0:700.0:924.0 # Clock Domain Frequencies in MhZ {<Core Clock>:<ICNT Clock>:<L2 Clock>:<DRAM Clock>}
-gpgpu_max_concurrent_kernel                    8 # maximum kernels that can run concurrently on GPU
-gpgpu_cflog_interval                    0 # Interval between each snapshot in control flow logger
-visualizer_enabled                     0 # Turn on visualizer output (1=On, 0=Off)
-visualizer_outputfile                 NULL # Specifies the output log file for visualizer
-visualizer_zlevel                      6 # Compression level of the visualizer output log (0=no comp, 9=highest)
-trace_enabled                          0 # Turn on traces
-trace_components                    none # comma seperated list of traces to enable. Complete list found in trace_streams.tup. Default none
-trace_sampling_core                    0 # The core which is printed using CORE_DPRINTF. Default 0
-trace_sampling_memory_partition                   -1 # The memory partition which is printed using MEMPART_DPRINTF. Default -1 (i.e. all)
-enable_ptx_file_line_stats                    1 # Turn on PTX source line statistic profiling. (1 = On)
-ptx_line_stats_filename gpgpu_inst_stats.txt # Output file for PTX source line statistics.
-save_embedded_ptx                      0 # saves ptx files embedded in binary as <n>.ptx
-keep                                   0 # keep intermediate files created by GPGPU-Sim when interfacing with external programs
-gpgpu_ptx_save_converted_ptxplus                    0 # Saved converted ptxplus to a file
-ptx_opcode_latency_int         4,13,4,5,145 # Opcode latencies for integers <ADD,MAX,MUL,MAD,DIV>Default 1,1,19,25,145
-ptx_opcode_latency_fp          4,13,4,5,39 # Opcode latencies for single precision floating points <ADD,MAX,MUL,MAD,DIV>Default 1,1,1,1,30
-ptx_opcode_latency_dp         8,19,8,8,330 # Opcode latencies for double precision floating points <ADD,MAX,MUL,MAD,DIV>Default 8,8,8,8,335
-ptx_opcode_initiation_int            1,2,2,1,8 # Opcode initiation intervals for integers <ADD,MAX,MUL,MAD,DIV>Default 1,1,4,4,32
-ptx_opcode_initiation_fp            1,2,1,1,4 # Opcode initiation intervals for single precision floating points <ADD,MAX,MUL,MAD,DIV>Default 1,1,1,1,5
-ptx_opcode_initiation_dp         8,16,8,8,130 # Opcode initiation intervals for double precision floating points <ADD,MAX,MUL,MAD,DIV>Default 8,8,8,8,130
DRAM Timing Options:
nbk                                    16 # number of banks
CCD                                     2 # column to column delay
RRD                                     6 # minimal delay between activation of rows in different banks
RCD                                    12 # row to column delay
RAS                                    28 # time needed to activate row
RP                                     12 # time needed to precharge (deactivate) row
RC                                     40 # row cycle time
CDLR                                    5 # switching from write to read (changes tWTR)
WR                                     12 # last data-in to row precharge
CL                                     12 # CAS latency
WL                                      4 # Write latency
nbkgrp                                  4 # number of bank groups
CCDL                                    3 # column to column delay between accesses to different bank groups
RTPL                                    2 # read to precharge delay between accesses to different bank groups
Total number of memory sub partition = 12
addr_dec_mask[CHIP]  = 0000000000000000 	high:64 low:0
addr_dec_mask[BK]    = 000000000000e100 	high:16 low:8
addr_dec_mask[ROW]   = 000000000fff0000 	high:28 low:16
addr_dec_mask[COL]   = 0000000000001eff 	high:13 low:0
addr_dec_mask[BURST] = 000000000000003f 	high:6 low:0
sub_partition_id_mask = 0000000000000100
GPGPU-Sim uArch: clock freqs: 700000000.000000:700000000.000000:700000000.000000:924000000.000000
GPGPU-Sim uArch: clock periods: 0.00000000142857142857:0.00000000142857142857:0.00000000142857142857:0.00000000108225108225
*** Initializing Memory Statistics ***
GPGPU-Sim uArch: interconnect node map (shaderID+MemID to icntID)
GPGPU-Sim uArch: Memory nodes ID start from index: 15
GPGPU-Sim uArch:    0   1   2   3   4
GPGPU-Sim uArch:    5   6   7   8   9
GPGPU-Sim uArch:   10  11  12  13  14
GPGPU-Sim uArch:   15  16  17  18  19
GPGPU-Sim uArch:   20  21  22  23  24
GPGPU-Sim uArch:   25  26
GPGPU-Sim uArch: interconnect node reverse map (icntID to shaderID+MemID)
GPGPU-Sim uArch: Memory nodes start from ID: 15
GPGPU-Sim uArch:    0   1   2   3   4
GPGPU-Sim uArch:    5   6   7   8   9
GPGPU-Sim uArch:   10  11  12  13  14
GPGPU-Sim uArch:   15  16  17  18  19
GPGPU-Sim uArch:   20  21  22  23  24
GPGPU-Sim uArch:   25  26
a5bfea9a69faaeaeb73abbaec6868abd  /sciclone/data10/hwang07/adwait/applications/benchmarks/rodinia/cuda/streamcluster/gpgpu_ptx_sim__streamcluster
GPGPU-Sim uArch: performance model initialization complete.
GPGPU-Sim PTX: __cudaRegisterFatBinary, fat_cubin_handle = 1, filename=streamcluster_cuda.cu
self exe links to: /sciclone/data10/hwang07/adwait/applications/benchmarks/rodinia/cuda/streamcluster/gpgpu_ptx_sim__streamcluster
Running md5sum using "md5sum /sciclone/data10/hwang07/adwait/applications/benchmarks/rodinia/cuda/streamcluster/gpgpu_ptx_sim__streamcluster "
Parsing file _cuobjdump_complete_output_IsoruO
######### cuobjdump parser ########
## Adding new section ELF
Adding arch: sm_20
Adding identifier: streamcluster_cuda.cu
## Adding new section PTX
Adding ptx filename: _cuobjdump_1.ptx
Adding arch: sm_20
Adding identifier: streamcluster_cuda.cu
Done parsing!!!
GPGPU-Sim PTX: __cudaRegisterFunction _Z12pgain_kerneliilP5PointiPfS1_PiPb : hostFun 0x0x404fe3, fat_cubin_handle = 1
GPGPU-Sim PTX: allocating shared region for "coord_s" from 0x0 to 0x0 (shared memory space)
GPGPU-Sim PTX: instruction assembly for function '_Z12pgain_kerneliilP5PointiPfS1_PiPb'...   done.
GPGPU-Sim PTX: finding reconvergence points for '_Z12pgain_kerneliilP5PointiPfS1_PiPb'...
GPGPU-Sim PTX: Finding dominators for '_Z12pgain_kerneliilP5PointiPfS1_PiPb'...
GPGPU-Sim PTX: Finding immediate dominators for '_Z12pgain_kerneliilP5PointiPfS1_PiPb'...
GPGPU-Sim PTX: Finding postdominators for '_Z12pgain_kerneliilP5PointiPfS1_PiPb'...
GPGPU-Sim PTX: Finding immediate postdominators for '_Z12pgain_kerneliilP5PointiPfS1_PiPb'...
GPGPU-Sim PTX: pre-decoding instructions for '_Z12pgain_kerneliilP5PointiPfS1_PiPb'...
GPGPU-Sim PTX: reconvergence points for _Z12pgain_kerneliilP5PointiPfS1_PiPb...
GPGPU-Sim PTX:  1 (potential) branch divergence @  PC=0x030 (_1.ptx:76) @%p2 bra $Lt_0_3842;
GPGPU-Sim PTX:    immediate post dominator      @  PC=0x0e0 (_1.ptx:103) mov.u64 %rd1, coord_s;
GPGPU-Sim PTX:  2 (potential) branch divergence @  PC=0x038 (_1.ptx:77) @!%p1 bra $Lt_0_4354;
GPGPU-Sim PTX:    immediate post dominator      @  PC=0x0d8 (_1.ptx:101) mov.u64 %rd1, coord_s;
GPGPU-Sim PTX:  3 (potential) branch divergence @  PC=0x0d0 (_1.ptx:99) @%p3 bra $Lt_0_4866;
GPGPU-Sim PTX:    immediate post dominator      @  PC=0x0d8 (_1.ptx:101) mov.u64 %rd1, coord_s;
GPGPU-Sim PTX:  4 (potential) branch divergence @  PC=0x110 (_1.ptx:110) @!%p1 bra $Lt_0_7170;
GPGPU-Sim PTX:    immediate post dominator      @  PC=0x218 (_1.ptx:149) ld.param.u64 %rd15, [__cudaparm__Z12pgain_kerneliilP5PointiPfS1_PiPb_p];
GPGPU-Sim PTX:  5 (potential) branch divergence @  PC=0x1d8 (_1.ptx:138) @%p4 bra $Lt_0_5890;
GPGPU-Sim PTX:    immediate post dominator      @  PC=0x1e0 (_1.ptx:139) bra.uni $Lt_0_5378;
GPGPU-Sim PTX:  6 (potential) branch divergence @  PC=0x1e0 (_1.ptx:139) bra.uni $Lt_0_5378;
GPGPU-Sim PTX:    immediate post dominator      @  PC=0x218 (_1.ptx:149) ld.param.u64 %rd15, [__cudaparm__Z12pgain_kerneliilP5PointiPfS1_PiPb_p];
GPGPU-Sim PTX:  7 (potential) branch divergence @  PC=0x288 (_1.ptx:164) @!%p5 bra $Lt_0_6658;
GPGPU-Sim PTX:    immediate post dominator      @  PC=0x358 (_1.ptx:197) exit;
GPGPU-Sim PTX:  8 (potential) branch divergence @  PC=0x2e8 (_1.ptx:178) bra.uni $Lt_0_6402;
GPGPU-Sim PTX:    immediate post dominator      @  PC=0x358 (_1.ptx:197) exit;
GPGPU-Sim PTX: ... end of reconvergence points for _Z12pgain_kerneliilP5PointiPfS1_PiPb
GPGPU-Sim PTX: ... done pre-decoding instructions for '_Z12pgain_kerneliilP5PointiPfS1_PiPb'.
GPGPU-Sim PTX: finished parsing EMBEDDED .ptx file _1.ptx
Adding _cuobjdump_1.ptx with cubin handle 1
GPGPU-Sim PTX: extracting embedded .ptx to temporary file "_ptx_v6vGI6"
Running: cat _ptx_v6vGI6 | sed 's/.version 1.5/.version 1.4/' | sed 's/, texmode_independent//' | sed 's/\(\.extern \.const\[1\] .b8 \w\+\)\[\]/\1\[1\]/' | sed 's/const\[.\]/const\[0\]/g' > _ptx2_ea8QTq
GPGPU-Sim PTX: generating ptxinfo using "$CUDA_INSTALL_PATH/bin/ptxas --gpu-name=sm_20 -v _ptx2_ea8QTq --output-file  /dev/null 2> _ptx_v6vGI6info"
GPGPU-Sim PTX: Kernel '_Z12pgain_kerneliilP5PointiPfS1_PiPb' : regs=12, lmem=0, smem=0, cmem=96
GPGPU-Sim PTX: removing ptxinfo using "rm -f _ptx_v6vGI6 _ptx2_ea8QTq _ptx_v6vGI6info"
GPGPU-Sim PTX: loading globals with explicit initializers... 
GPGPU-Sim PTX: finished loading globals (0 bytes total).
GPGPU-Sim PTX: loading constants with explicit initializers...  done.
PARSEC Benchmark Suite

GPGPU-Sim PTX: cudaLaunch for 0x0x404fe3 (mode=performance simulation) on stream 0
GPGPU-Sim PTX: pushing kernel '_Z12pgain_kerneliilP5PointiPfS1_PiPb' to stream 0, gridDim= (128,1,1) blockDim = (512,1,1) 
kernel '_Z12pgain_kerneliilP5PointiPfS1_PiPb' transfer to GPU hardware scheduler
GPGPU-Sim uArch: Shader 1 bind to kernel 1 '_Z12pgain_kerneliilP5PointiPfS1_PiPb'
GPGPU-Sim uArch: CTA/core = 3, limited by: threads
GPGPU-Sim uArch: core:  1, cta: 0 initialized @(1,0)
GPGPU-Sim uArch: Shader 2 bind to kernel 1 '_Z12pgain_kerneliilP5PointiPfS1_PiPb'
GPGPU-Sim uArch: core:  2, cta: 0 initialized @(1,0)
GPGPU-Sim uArch: Shader 3 bind to kernel 1 '_Z12pgain_kerneliilP5PointiPfS1_PiPb'
GPGPU-Sim uArch: core:  3, cta: 0 initialized @(1,0)
GPGPU-Sim uArch: Shader 4 bind to kernel 1 '_Z12pgain_kerneliilP5PointiPfS1_PiPb'
GPGPU-Sim uArch: core:  4, cta: 0 initialized @(1,0)
GPGPU-Sim uArch: Shader 5 bind to kernel 1 '_Z12pgain_kerneliilP5PointiPfS1_PiPb'
GPGPU-Sim uArch: core:  5, cta: 0 initialized @(1,0)
GPGPU-Sim uArch: Shader 6 bind to kernel 1 '_Z12pgain_kerneliilP5PointiPfS1_PiPb'
GPGPU-Sim uArch: core:  6, cta: 0 initialized @(1,0)
GPGPU-Sim uArch: Shader 7 bind to kernel 1 '_Z12pgain_kerneliilP5PointiPfS1_PiPb'
GPGPU-Sim uArch: core:  7, cta: 0 initialized @(1,0)
GPGPU-Sim uArch: Shader 8 bind to kernel 1 '_Z12pgain_kerneliilP5PointiPfS1_PiPb'
GPGPU-Sim uArch: core:  8, cta: 0 initialized @(1,0)
GPGPU-Sim uArch: Shader 9 bind to kernel 1 '_Z12pgain_kerneliilP5PointiPfS1_PiPb'
GPGPU-Sim uArch: core:  9, cta: 0 initialized @(1,0)
GPGPU-Sim uArch: Shader 10 bind to kernel 1 '_Z12pgain_kerneliilP5PointiPfS1_PiPb'
GPGPU-Sim uArch: core: 10, cta: 0 initialized @(1,0)
GPGPU-Sim uArch: Shader 11 bind to kernel 1 '_Z12pgain_kerneliilP5PointiPfS1_PiPb'
GPGPU-Sim uArch: core: 11, cta: 0 initialized @(1,0)
GPGPU-Sim uArch: Shader 12 bind to kernel 1 '_Z12pgain_kerneliilP5PointiPfS1_PiPb'
GPGPU-Sim uArch: core: 12, cta: 0 initialized @(1,0)
GPGPU-Sim uArch: Shader 13 bind to kernel 1 '_Z12pgain_kerneliilP5PointiPfS1_PiPb'
GPGPU-Sim uArch: core: 13, cta: 0 initialized @(1,0)
GPGPU-Sim uArch: Shader 14 bind to kernel 1 '_Z12pgain_kerneliilP5PointiPfS1_PiPb'
GPGPU-Sim uArch: core: 14, cta: 0 initialized @(1,0)
GPGPU-Sim uArch: Shader 0 bind to kernel 1 '_Z12pgain_kerneliilP5PointiPfS1_PiPb'
GPGPU-Sim uArch: core:  0, cta: 0 initialized @(1,0)
GPGPU-Sim uArch: core:  1, cta: 1 initialized @(2,0)
GPGPU-Sim uArch: core:  2, cta: 1 initialized @(2,0)
GPGPU-Sim uArch: core:  3, cta: 1 initialized @(2,0)
GPGPU-Sim uArch: core:  4, cta: 1 initialized @(2,0)
GPGPU-Sim uArch: core:  5, cta: 1 initialized @(2,0)
GPGPU-Sim uArch: core:  6, cta: 1 initialized @(2,0)
GPGPU-Sim uArch: core:  7, cta: 1 initialized @(2,0)
GPGPU-Sim uArch: core:  8, cta: 1 initialized @(2,0)
GPGPU-Sim uArch: core:  9, cta: 1 initialized @(2,0)
GPGPU-Sim uArch: core: 10, cta: 1 initialized @(2,0)
GPGPU-Sim uArch: core: 11, cta: 1 initialized @(2,0)
GPGPU-Sim uArch: core: 12, cta: 1 initialized @(2,0)
GPGPU-Sim uArch: core: 13, cta: 1 initialized @(2,0)
GPGPU-Sim uArch: core: 14, cta: 1 initialized @(2,0)
GPGPU-Sim uArch: core:  0, cta: 1 initialized @(2,0)
GPGPU-Sim uArch: core:  1, cta: 2 initialized @(3,0)
GPGPU-Sim uArch: core:  2, cta: 2 initialized @(3,0)
GPGPU-Sim uArch: core:  3, cta: 2 initialized @(3,0)
GPGPU-Sim uArch: core:  4, cta: 2 initialized @(3,0)
GPGPU-Sim uArch: core:  5, cta: 2 initialized @(3,0)
GPGPU-Sim uArch: core:  6, cta: 2 initialized @(3,0)
GPGPU-Sim uArch: core:  7, cta: 2 initialized @(3,0)
GPGPU-Sim uArch: core:  8, cta: 2 initialized @(3,0)
GPGPU-Sim uArch: core:  9, cta: 2 initialized @(3,0)
GPGPU-Sim uArch: core: 10, cta: 2 initialized @(3,0)
GPGPU-Sim uArch: core: 11, cta: 2 initialized @(3,0)
GPGPU-Sim uArch: core: 12, cta: 2 initialized @(3,0)
GPGPU-Sim uArch: core: 13, cta: 2 initialized @(3,0)
GPGPU-Sim uArch: core: 14, cta: 2 initialized @(3,0)
GPGPU-Sim uArch: core:  0, cta: 2 initialized @(3,0)
GPGPU-Sim uArch: cycles simulated: 500  inst.: 7680 (ipc=15.4) sim_rate=768 (inst/sec) elapsed = 0:0:00:10 / Tue Mar 22 12:52:45 2016
GPGPU-Sim PTX: 100000 instructions simulated : ctaid=(21,0,0) tid=(21,0,0)
GPGPU-Sim uArch: cycles simulated: 1000  inst.: 142837 (ipc=142.8) sim_rate=12985 (inst/sec) elapsed = 0:0:00:11 / Tue Mar 22 12:52:46 2016
GPGPU-Sim PTX: 200000 instructions simulated : ctaid=(43,0,0) tid=(329,0,0)
GPGPU-Sim uArch: cycles simulated: 4000  inst.: 208063 (ipc=52.0) sim_rate=17338 (inst/sec) elapsed = 0:0:00:12 / Tue Mar 22 12:52:47 2016
GPGPU-Sim uArch: cycles simulated: 8000  inst.: 212214 (ipc=26.5) sim_rate=16324 (inst/sec) elapsed = 0:0:00:13 / Tue Mar 22 12:52:48 2016
GPGPU-Sim uArch: cycles simulated: 12500  inst.: 216650 (ipc=17.3) sim_rate=15475 (inst/sec) elapsed = 0:0:00:14 / Tue Mar 22 12:52:49 2016
GPGPU-Sim uArch: cycles simulated: 17000  inst.: 221355 (ipc=13.0) sim_rate=14757 (inst/sec) elapsed = 0:0:00:15 / Tue Mar 22 12:52:50 2016
GPGPU-Sim uArch: cycles simulated: 21000  inst.: 225450 (ipc=10.7) sim_rate=14090 (inst/sec) elapsed = 0:0:00:16 / Tue Mar 22 12:52:51 2016
GPGPU-Sim uArch: cycles simulated: 25500  inst.: 230175 (ipc= 9.0) sim_rate=13539 (inst/sec) elapsed = 0:0:00:17 / Tue Mar 22 12:52:52 2016
GPGPU-Sim uArch: cycles simulated: 29500  inst.: 234270 (ipc= 7.9) sim_rate=13015 (inst/sec) elapsed = 0:0:00:18 / Tue Mar 22 12:52:53 2016
GPGPU-Sim uArch: cycles simulated: 34000  inst.: 238968 (ipc= 7.0) sim_rate=12577 (inst/sec) elapsed = 0:0:00:19 / Tue Mar 22 12:52:54 2016
GPGPU-Sim uArch: cycles simulated: 38500  inst.: 243412 (ipc= 6.3) sim_rate=12170 (inst/sec) elapsed = 0:0:00:20 / Tue Mar 22 12:52:55 2016
GPGPU-Sim uArch: cycles simulated: 42500  inst.: 247556 (ipc= 5.8) sim_rate=11788 (inst/sec) elapsed = 0:0:00:21 / Tue Mar 22 12:52:56 2016
GPGPU-Sim uArch: cycles simulated: 47000  inst.: 252225 (ipc= 5.4) sim_rate=11464 (inst/sec) elapsed = 0:0:00:22 / Tue Mar 22 12:52:57 2016
GPGPU-Sim uArch: cycles simulated: 51500  inst.: 256950 (ipc= 5.0) sim_rate=11171 (inst/sec) elapsed = 0:0:00:23 / Tue Mar 22 12:52:58 2016
GPGPU-Sim uArch: cycles simulated: 55500  inst.: 261045 (ipc= 4.7) sim_rate=10876 (inst/sec) elapsed = 0:0:00:24 / Tue Mar 22 12:52:59 2016
GPGPU-Sim uArch: cycles simulated: 60000  inst.: 265714 (ipc= 4.4) sim_rate=10628 (inst/sec) elapsed = 0:0:00:25 / Tue Mar 22 12:53:00 2016
GPGPU-Sim uArch: cycles simulated: 64000  inst.: 269860 (ipc= 4.2) sim_rate=10379 (inst/sec) elapsed = 0:0:00:26 / Tue Mar 22 12:53:01 2016
GPGPU-Sim uArch: cycles simulated: 68500  inst.: 274302 (ipc= 4.0) sim_rate=10159 (inst/sec) elapsed = 0:0:00:27 / Tue Mar 22 12:53:02 2016
GPGPU-Sim uArch: cycles simulated: 73000  inst.: 279000 (ipc= 3.8) sim_rate=9964 (inst/sec) elapsed = 0:0:00:28 / Tue Mar 22 12:53:03 2016
GPGPU-Sim uArch: cycles simulated: 77000  inst.: 283095 (ipc= 3.7) sim_rate=9761 (inst/sec) elapsed = 0:0:00:29 / Tue Mar 22 12:53:04 2016
GPGPU-Sim PTX: 300000 instructions simulated : ctaid=(13,0,0) tid=(7,0,0)
GPGPU-Sim PTX: 400000 instructions simulated : ctaid=(10,0,0) tid=(135,0,0)
GPGPU-Sim PTX: 500000 instructions simulated : ctaid=(11,0,0) tid=(71,0,0)
GPGPU-Sim uArch: cycles simulated: 80500  inst.: 516768 (ipc= 6.4) sim_rate=17225 (inst/sec) elapsed = 0:0:00:30 / Tue Mar 22 12:53:05 2016
GPGPU-Sim PTX: 600000 instructions simulated : ctaid=(3,0,0) tid=(7,0,0)
GPGPU-Sim PTX: 700000 instructions simulated : ctaid=(1,0,0) tid=(263,0,0)
GPGPU-Sim PTX: 800000 instructions simulated : ctaid=(12,0,0) tid=(135,0,0)
GPGPU-Sim PTX: 900000 instructions simulated : ctaid=(2,0,0) tid=(167,0,0)
GPGPU-Sim uArch: cycles simulated: 82500  inst.: 948288 (ipc=11.5) sim_rate=30589 (inst/sec) elapsed = 0:0:00:31 / Tue Mar 22 12:53:06 2016
GPGPU-Sim PTX: 1000000 instructions simulated : ctaid=(9,0,0) tid=(295,0,0)
GPGPU-Sim PTX: 1100000 instructions simulated : ctaid=(14,0,0) tid=(359,0,0)
GPGPU-Sim PTX: 1200000 instructions simulated : ctaid=(9,0,0) tid=(135,0,0)
GPGPU-Sim uArch: cycles simulated: 84000  inst.: 1277536 (ipc=15.2) sim_rate=39923 (inst/sec) elapsed = 0:0:00:32 / Tue Mar 22 12:53:07 2016
GPGPU-Sim PTX: 1300000 instructions simulated : ctaid=(4,0,0) tid=(295,0,0)
GPGPU-Sim PTX: 1400000 instructions simulated : ctaid=(2,0,0) tid=(423,0,0)
GPGPU-Sim PTX: 1500000 instructions simulated : ctaid=(3,0,0) tid=(7,0,0)
GPGPU-Sim PTX: 1600000 instructions simulated : ctaid=(6,0,0) tid=(423,0,0)
GPGPU-Sim PTX: 1700000 instructions simulated : ctaid=(8,0,0) tid=(295,0,0)
GPGPU-Sim uArch: cycles simulated: 86000  inst.: 1705888 (ipc=19.8) sim_rate=51693 (inst/sec) elapsed = 0:0:00:33 / Tue Mar 22 12:53:08 2016
GPGPU-Sim PTX: 1800000 instructions simulated : ctaid=(2,0,0) tid=(199,0,0)
GPGPU-Sim PTX: 1900000 instructions simulated : ctaid=(8,0,0) tid=(199,0,0)
GPGPU-Sim PTX: 2000000 instructions simulated : ctaid=(6,0,0) tid=(327,0,0)
GPGPU-Sim PTX: 2100000 instructions simulated : ctaid=(14,0,0) tid=(423,0,0)
GPGPU-Sim uArch: cycles simulated: 88000  inst.: 2144128 (ipc=24.4) sim_rate=63062 (inst/sec) elapsed = 0:0:00:34 / Tue Mar 22 12:53:09 2016
GPGPU-Sim PTX: 2200000 instructions simulated : ctaid=(3,0,0) tid=(327,0,0)
GPGPU-Sim PTX: 2300000 instructions simulated : ctaid=(0,0,0) tid=(487,0,0)
GPGPU-Sim PTX: 2400000 instructions simulated : ctaid=(14,0,0) tid=(71,0,0)
GPGPU-Sim PTX: 2500000 instructions simulated : ctaid=(9,0,0) tid=(71,0,0)
GPGPU-Sim uArch: cycles simulated: 90000  inst.: 2579232 (ipc=28.7) sim_rate=73692 (inst/sec) elapsed = 0:0:00:35 / Tue Mar 22 12:53:10 2016
GPGPU-Sim PTX: 2600000 instructions simulated : ctaid=(12,0,0) tid=(135,0,0)
GPGPU-Sim PTX: 2700000 instructions simulated : ctaid=(14,0,0) tid=(231,0,0)
GPGPU-Sim PTX: 2800000 instructions simulated : ctaid=(7,0,0) tid=(231,0,0)
GPGPU-Sim PTX: 2900000 instructions simulated : ctaid=(0,0,0) tid=(167,0,0)
GPGPU-Sim uArch: cycles simulated: 91500  inst.: 2897440 (ipc=31.7) sim_rate=80484 (inst/sec) elapsed = 0:0:00:36 / Tue Mar 22 12:53:11 2016
GPGPU-Sim PTX: 3000000 instructions simulated : ctaid=(14,0,0) tid=(295,0,0)
GPGPU-Sim PTX: 3100000 instructions simulated : ctaid=(6,0,0) tid=(263,0,0)
GPGPU-Sim PTX: 3200000 instructions simulated : ctaid=(5,0,0) tid=(199,0,0)
GPGPU-Sim PTX: 3300000 instructions simulated : ctaid=(6,0,0) tid=(7,0,0)
GPGPU-Sim uArch: cycles simulated: 93500  inst.: 3334944 (ipc=35.7) sim_rate=90133 (inst/sec) elapsed = 0:0:00:37 / Tue Mar 22 12:53:12 2016
GPGPU-Sim PTX: 3400000 instructions simulated : ctaid=(11,0,0) tid=(167,0,0)
GPGPU-Sim PTX: 3500000 instructions simulated : ctaid=(8,0,0) tid=(423,0,0)
GPGPU-Sim PTX: 3600000 instructions simulated : ctaid=(0,0,0) tid=(423,0,0)
GPGPU-Sim PTX: 3700000 instructions simulated : ctaid=(14,0,0) tid=(391,0,0)
GPGPU-Sim uArch: cycles simulated: 95500  inst.: 3763840 (ipc=39.4) sim_rate=99048 (inst/sec) elapsed = 0:0:00:38 / Tue Mar 22 12:53:13 2016
GPGPU-Sim PTX: 3800000 instructions simulated : ctaid=(6,0,0) tid=(359,0,0)
GPGPU-Sim PTX: 3900000 instructions simulated : ctaid=(9,0,0) tid=(135,0,0)
GPGPU-Sim PTX: 4000000 instructions simulated : ctaid=(10,0,0) tid=(263,0,0)
GPGPU-Sim PTX: 4100000 instructions simulated : ctaid=(4,0,0) tid=(199,0,0)
GPGPU-Sim PTX: 4200000 instructions simulated : ctaid=(3,0,0) tid=(359,0,0)
GPGPU-Sim uArch: cycles simulated: 97500  inst.: 4192000 (ipc=43.0) sim_rate=107487 (inst/sec) elapsed = 0:0:00:39 / Tue Mar 22 12:53:14 2016
GPGPU-Sim PTX: 4300000 instructions simulated : ctaid=(4,0,0) tid=(167,0,0)
GPGPU-Sim PTX: 4400000 instructions simulated : ctaid=(8,0,0) tid=(455,0,0)
GPGPU-Sim PTX: 4500000 instructions simulated : ctaid=(2,0,0) tid=(359,0,0)
GPGPU-Sim uArch: cycles simulated: 99000  inst.: 4520096 (ipc=45.7) sim_rate=113002 (inst/sec) elapsed = 0:0:00:40 / Tue Mar 22 12:53:15 2016
GPGPU-Sim PTX: 4600000 instructions simulated : ctaid=(12,0,0) tid=(199,0,0)
GPGPU-Sim PTX: 4700000 instructions simulated : ctaid=(7,0,0) tid=(327,0,0)
GPGPU-Sim PTX: 4800000 instructions simulated : ctaid=(11,0,0) tid=(263,0,0)
GPGPU-Sim PTX: 4900000 instructions simulated : ctaid=(0,0,0) tid=(359,0,0)
GPGPU-Sim uArch: cycles simulated: 101000  inst.: 4948960 (ipc=49.0) sim_rate=120706 (inst/sec) elapsed = 0:0:00:41 / Tue Mar 22 12:53:16 2016
GPGPU-Sim PTX: 5000000 instructions simulated : ctaid=(4,0,0) tid=(231,0,0)
GPGPU-Sim PTX: 5100000 instructions simulated : ctaid=(11,0,0) tid=(487,0,0)
GPGPU-Sim PTX: 5200000 instructions simulated : ctaid=(14,0,0) tid=(359,0,0)
GPGPU-Sim PTX: 5300000 instructions simulated : ctaid=(5,0,0) tid=(71,0,0)
GPGPU-Sim uArch: cycles simulated: 103000  inst.: 5376000 (ipc=52.2) sim_rate=128000 (inst/sec) elapsed = 0:0:00:42 / Tue Mar 22 12:53:17 2016
GPGPU-Sim PTX: 5400000 instructions simulated : ctaid=(12,0,0) tid=(39,0,0)
GPGPU-Sim PTX: 5500000 instructions simulated : ctaid=(14,0,0) tid=(487,0,0)
GPGPU-Sim PTX: 5600000 instructions simulated : ctaid=(0,0,0) tid=(167,0,0)
GPGPU-Sim PTX: 5700000 instructions simulated : ctaid=(10,0,0) tid=(103,0,0)
GPGPU-Sim PTX: 5800000 instructions simulated : ctaid=(2,0,0) tid=(167,0,0)
GPGPU-Sim uArch: cycles simulated: 105000  inst.: 5810304 (ipc=55.3) sim_rate=135123 (inst/sec) elapsed = 0:0:00:43 / Tue Mar 22 12:53:18 2016
GPGPU-Sim PTX: 5900000 instructions simulated : ctaid=(1,0,0) tid=(135,0,0)
GPGPU-Sim PTX: 6000000 instructions simulated : ctaid=(9,0,0) tid=(39,0,0)
GPGPU-Sim PTX: 6100000 instructions simulated : ctaid=(7,0,0) tid=(391,0,0)
GPGPU-Sim uArch: cycles simulated: 106500  inst.: 6131904 (ipc=57.6) sim_rate=139361 (inst/sec) elapsed = 0:0:00:44 / Tue Mar 22 12:53:19 2016
GPGPU-Sim PTX: 6200000 instructions simulated : ctaid=(3,0,0) tid=(263,0,0)
GPGPU-Sim PTX: 6300000 instructions simulated : ctaid=(12,0,0) tid=(359,0,0)
GPGPU-Sim PTX: 6400000 instructions simulated : ctaid=(11,0,0) tid=(231,0,0)
GPGPU-Sim PTX: 6500000 instructions simulated : ctaid=(7,0,0) tid=(327,0,0)
GPGPU-Sim uArch: cycles simulated: 108500  inst.: 6563968 (ipc=60.5) sim_rate=145865 (inst/sec) elapsed = 0:0:00:45 / Tue Mar 22 12:53:20 2016
GPGPU-Sim PTX: 6600000 instructions simulated : ctaid=(9,0,0) tid=(455,0,0)
GPGPU-Sim PTX: 6700000 instructions simulated : ctaid=(3,0,0) tid=(391,0,0)
GPGPU-Sim PTX: 6800000 instructions simulated : ctaid=(14,0,0) tid=(263,0,0)
GPGPU-Sim PTX: 6900000 instructions simulated : ctaid=(10,0,0) tid=(263,0,0)
GPGPU-Sim PTX: 7000000 instructions simulated : ctaid=(4,0,0) tid=(199,0,0)
GPGPU-Sim uArch: cycles simulated: 110500  inst.: 6997920 (ipc=63.3) sim_rate=152128 (inst/sec) elapsed = 0:0:00:46 / Tue Mar 22 12:53:21 2016
GPGPU-Sim PTX: 7100000 instructions simulated : ctaid=(13,0,0) tid=(231,0,0)
GPGPU-Sim PTX: 7200000 instructions simulated : ctaid=(8,0,0) tid=(135,0,0)
GPGPU-Sim PTX: 7300000 instructions simulated : ctaid=(12,0,0) tid=(487,0,0)
GPGPU-Sim PTX: 7400000 instructions simulated : ctaid=(0,0,0) tid=(135,0,0)
GPGPU-Sim uArch: cycles simulated: 112500  inst.: 7428960 (ipc=66.0) sim_rate=158062 (inst/sec) elapsed = 0:0:00:47 / Tue Mar 22 12:53:22 2016
GPGPU-Sim PTX: 7500000 instructions simulated : ctaid=(11,0,0) tid=(199,0,0)
GPGPU-Sim PTX: 7600000 instructions simulated : ctaid=(7,0,0) tid=(103,0,0)
GPGPU-Sim PTX: 7700000 instructions simulated : ctaid=(1,0,0) tid=(199,0,0)
GPGPU-Sim uArch: cycles simulated: 114000  inst.: 7752896 (ipc=68.0) sim_rate=161518 (inst/sec) elapsed = 0:0:00:48 / Tue Mar 22 12:53:23 2016
GPGPU-Sim PTX: 7800000 instructions simulated : ctaid=(3,0,0) tid=(327,0,0)
GPGPU-Sim PTX: 7900000 instructions simulated : ctaid=(4,0,0) tid=(135,0,0)
GPGPU-Sim PTX: 8000000 instructions simulated : ctaid=(6,0,0) tid=(39,0,0)
GPGPU-Sim PTX: 8100000 instructions simulated : ctaid=(0,0,0) tid=(423,0,0)
GPGPU-Sim PTX: 8200000 instructions simulated : ctaid=(4,0,0) tid=(263,0,0)
GPGPU-Sim uArch: cycles simulated: 116000  inst.: 8184384 (ipc=70.6) sim_rate=167028 (inst/sec) elapsed = 0:0:00:49 / Tue Mar 22 12:53:24 2016
GPGPU-Sim PTX: 8300000 instructions simulated : ctaid=(11,0,0) tid=(327,0,0)
GPGPU-Sim PTX: 8400000 instructions simulated : ctaid=(11,0,0) tid=(199,0,0)
GPGPU-Sim PTX: 8500000 instructions simulated : ctaid=(0,0,0) tid=(135,0,0)
GPGPU-Sim PTX: 8600000 instructions simulated : ctaid=(10,0,0) tid=(7,0,0)
GPGPU-Sim uArch: cycles simulated: 118000  inst.: 8612768 (ipc=73.0) sim_rate=172255 (inst/sec) elapsed = 0:0:00:50 / Tue Mar 22 12:53:25 2016
GPGPU-Sim PTX: 8700000 instructions simulated : ctaid=(5,0,0) tid=(103,0,0)
GPGPU-Sim PTX: 8800000 instructions simulated : ctaid=(4,0,0) tid=(167,0,0)
GPGPU-Sim PTX: 8900000 instructions simulated : ctaid=(13,0,0) tid=(423,0,0)
GPGPU-Sim PTX: 9000000 instructions simulated : ctaid=(8,0,0) tid=(135,0,0)
GPGPU-Sim uArch: cycles simulated: 120000  inst.: 9044288 (ipc=75.4) sim_rate=177338 (inst/sec) elapsed = 0:0:00:51 / Tue Mar 22 12:53:26 2016
GPGPU-Sim PTX: 9100000 instructions simulated : ctaid=(2,0,0) tid=(327,0,0)
GPGPU-Sim PTX: 9200000 instructions simulated : ctaid=(9,0,0) tid=(327,0,0)
GPGPU-Sim PTX: 9300000 instructions simulated : ctaid=(13,0,0) tid=(455,0,0)
GPGPU-Sim uArch: cycles simulated: 121500  inst.: 9369120 (ipc=77.1) sim_rate=180175 (inst/sec) elapsed = 0:0:00:52 / Tue Mar 22 12:53:27 2016
GPGPU-Sim PTX: 9400000 instructions simulated : ctaid=(11,0,0) tid=(39,0,0)
GPGPU-Sim PTX: 9500000 instructions simulated : ctaid=(9,0,0) tid=(231,0,0)
GPGPU-Sim PTX: 9600000 instructions simulated : ctaid=(11,0,0) tid=(327,0,0)
GPGPU-Sim PTX: 9700000 instructions simulated : ctaid=(6,0,0) tid=(487,0,0)
GPGPU-Sim PTX: 9800000 instructions simulated : ctaid=(14,0,0) tid=(327,0,0)
GPGPU-Sim uArch: cycles simulated: 123500  inst.: 9800128 (ipc=79.4) sim_rate=184908 (inst/sec) elapsed = 0:0:00:53 / Tue Mar 22 12:53:28 2016
GPGPU-Sim PTX: 9900000 instructions simulated : ctaid=(9,0,0) tid=(103,0,0)
GPGPU-Sim PTX: 10000000 instructions simulated : ctaid=(13,0,0) tid=(487,0,0)
GPGPU-Sim PTX: 10100000 instructions simulated : ctaid=(1,0,0) tid=(359,0,0)
GPGPU-Sim PTX: 10200000 instructions simulated : ctaid=(10,0,0) tid=(135,0,0)
GPGPU-Sim uArch: cycles simulated: 125500  inst.: 10231168 (ipc=81.5) sim_rate=189466 (inst/sec) elapsed = 0:0:00:54 / Tue Mar 22 12:53:29 2016
GPGPU-Sim PTX: 10300000 instructions simulated : ctaid=(12,0,0) tid=(7,0,0)
GPGPU-Sim PTX: 10400000 instructions simulated : ctaid=(12,0,0) tid=(71,0,0)
GPGPU-Sim PTX: 10500000 instructions simulated : ctaid=(11,0,0) tid=(327,0,0)
GPGPU-Sim PTX: 10600000 instructions simulated : ctaid=(6,0,0) tid=(455,0,0)
GPGPU-Sim uArch: cycles simulated: 127500  inst.: 10663040 (ipc=83.6) sim_rate=193873 (inst/sec) elapsed = 0:0:00:55 / Tue Mar 22 12:53:30 2016
GPGPU-Sim PTX: 10700000 instructions simulated : ctaid=(5,0,0) tid=(71,0,0)
GPGPU-Sim PTX: 10800000 instructions simulated : ctaid=(3,0,0) tid=(487,0,0)
GPGPU-Sim PTX: 10900000 instructions simulated : ctaid=(10,0,0) tid=(231,0,0)
GPGPU-Sim PTX: 11000000 instructions simulated : ctaid=(1,0,0) tid=(39,0,0)
GPGPU-Sim uArch: cycles simulated: 129000  inst.: 10984256 (ipc=85.1) sim_rate=196147 (inst/sec) elapsed = 0:0:00:56 / Tue Mar 22 12:53:31 2016
GPGPU-Sim PTX: 11100000 instructions simulated : ctaid=(14,0,0) tid=(455,0,0)
GPGPU-Sim PTX: 11200000 instructions simulated : ctaid=(12,0,0) tid=(7,0,0)
GPGPU-Sim PTX: 11300000 instructions simulated : ctaid=(13,0,0) tid=(7,0,0)
GPGPU-Sim PTX: 11400000 instructions simulated : ctaid=(10,0,0) tid=(263,0,0)
GPGPU-Sim uArch: cycles simulated: 131000  inst.: 11418560 (ipc=87.2) sim_rate=200325 (inst/sec) elapsed = 0:0:00:57 / Tue Mar 22 12:53:32 2016
GPGPU-Sim PTX: 11500000 instructions simulated : ctaid=(6,0,0) tid=(423,0,0)
GPGPU-Sim PTX: 11600000 instructions simulated : ctaid=(10,0,0) tid=(71,0,0)
GPGPU-Sim PTX: 11700000 instructions simulated : ctaid=(5,0,0) tid=(231,0,0)
GPGPU-Sim PTX: 11800000 instructions simulated : ctaid=(11,0,0) tid=(455,0,0)
GPGPU-Sim uArch: cycles simulated: 133000  inst.: 11849536 (ipc=89.1) sim_rate=204302 (inst/sec) elapsed = 0:0:00:58 / Tue Mar 22 12:53:33 2016
GPGPU-Sim PTX: 11900000 instructions simulated : ctaid=(5,0,0) tid=(263,0,0)
GPGPU-Sim PTX: 12000000 instructions simulated : ctaid=(5,0,0) tid=(455,0,0)
GPGPU-Sim PTX: 12100000 instructions simulated : ctaid=(7,0,0) tid=(7,0,0)
GPGPU-Sim PTX: 12200000 instructions simulated : ctaid=(11,0,0) tid=(231,0,0)
GPGPU-Sim uArch: cycles simulated: 135000  inst.: 12279776 (ipc=91.0) sim_rate=208131 (inst/sec) elapsed = 0:0:00:59 / Tue Mar 22 12:53:34 2016
GPGPU-Sim PTX: 12300000 instructions simulated : ctaid=(0,0,0) tid=(327,0,0)
GPGPU-Sim PTX: 12400000 instructions simulated : ctaid=(6,0,0) tid=(423,0,0)
GPGPU-Sim PTX: 12500000 instructions simulated : ctaid=(0,0,0) tid=(359,0,0)
GPGPU-Sim PTX: 12600000 instructions simulated : ctaid=(2,0,0) tid=(455,0,0)
GPGPU-Sim uArch: cycles simulated: 136500  inst.: 12608448 (ipc=92.4) sim_rate=210140 (inst/sec) elapsed = 0:0:01:00 / Tue Mar 22 12:53:35 2016
GPGPU-Sim PTX: 12700000 instructions simulated : ctaid=(3,0,0) tid=(7,0,0)
GPGPU-Sim PTX: 12800000 instructions simulated : ctaid=(2,0,0) tid=(231,0,0)
GPGPU-Sim PTX: 12900000 instructions simulated : ctaid=(13,0,0) tid=(135,0,0)
GPGPU-Sim PTX: 13000000 instructions simulated : ctaid=(9,0,0) tid=(359,0,0)
GPGPU-Sim uArch: cycles simulated: 138500  inst.: 13037184 (ipc=94.1) sim_rate=213724 (inst/sec) elapsed = 0:0:01:01 / Tue Mar 22 12:53:36 2016
GPGPU-Sim PTX: 13100000 instructions simulated : ctaid=(14,0,0) tid=(455,0,0)
GPGPU-Sim PTX: 13200000 instructions simulated : ctaid=(12,0,0) tid=(263,0,0)
GPGPU-Sim PTX: 13300000 instructions simulated : ctaid=(1,0,0) tid=(199,0,0)
GPGPU-Sim PTX: 13400000 instructions simulated : ctaid=(6,0,0) tid=(7,0,0)
GPGPU-Sim uArch: cycles simulated: 140500  inst.: 13467616 (ipc=95.9) sim_rate=217219 (inst/sec) elapsed = 0:0:01:02 / Tue Mar 22 12:53:37 2016
GPGPU-Sim PTX: 13500000 instructions simulated : ctaid=(8,0,0) tid=(263,0,0)
GPGPU-Sim PTX: 13600000 instructions simulated : ctaid=(3,0,0) tid=(263,0,0)
GPGPU-Sim PTX: 13700000 instructions simulated : ctaid=(3,0,0) tid=(455,0,0)
GPGPU-Sim PTX: 13800000 instructions simulated : ctaid=(13,0,0) tid=(135,0,0)
GPGPU-Sim PTX: 13900000 instructions simulated : ctaid=(12,0,0) tid=(7,0,0)
GPGPU-Sim uArch: cycles simulated: 142500  inst.: 13900608 (ipc=97.5) sim_rate=220644 (inst/sec) elapsed = 0:0:01:03 / Tue Mar 22 12:53:38 2016
GPGPU-Sim PTX: 14000000 instructions simulated : ctaid=(1,0,0) tid=(487,0,0)
GPGPU-Sim PTX: 14100000 instructions simulated : ctaid=(6,0,0) tid=(327,0,0)
GPGPU-Sim PTX: 14200000 instructions simulated : ctaid=(12,0,0) tid=(391,0,0)
GPGPU-Sim PTX: 14300000 instructions simulated : ctaid=(6,0,0) tid=(7,0,0)
GPGPU-Sim uArch: cycles simulated: 144500  inst.: 14335104 (ipc=99.2) sim_rate=223986 (inst/sec) elapsed = 0:0:01:04 / Tue Mar 22 12:53:39 2016
GPGPU-Sim PTX: 14400000 instructions simulated : ctaid=(8,0,0) tid=(167,0,0)
GPGPU-Sim PTX: 14500000 instructions simulated : ctaid=(14,0,0) tid=(71,0,0)
GPGPU-Sim PTX: 14600000 instructions simulated : ctaid=(9,0,0) tid=(103,0,0)
GPGPU-Sim uArch: cycles simulated: 146000  inst.: 14655616 (ipc=100.4) sim_rate=225471 (inst/sec) elapsed = 0:0:01:05 / Tue Mar 22 12:53:40 2016
GPGPU-Sim PTX: 14700000 instructions simulated : ctaid=(12,0,0) tid=(487,0,0)
GPGPU-Sim PTX: 14800000 instructions simulated : ctaid=(3,0,0) tid=(391,0,0)
GPGPU-Sim PTX: 14900000 instructions simulated : ctaid=(1,0,0) tid=(487,0,0)
GPGPU-Sim PTX: 15000000 instructions simulated : ctaid=(3,0,0) tid=(135,0,0)
GPGPU-Sim PTX: 15100000 instructions simulated : ctaid=(7,0,0) tid=(199,0,0)
GPGPU-Sim uArch: cycles simulated: 148000  inst.: 15092512 (ipc=102.0) sim_rate=228674 (inst/sec) elapsed = 0:0:01:06 / Tue Mar 22 12:53:41 2016
GPGPU-Sim PTX: 15200000 instructions simulated : ctaid=(8,0,0) tid=(7,0,0)
GPGPU-Sim PTX: 15300000 instructions simulated : ctaid=(0,0,0) tid=(487,0,0)
GPGPU-Sim PTX: 15400000 instructions simulated : ctaid=(5,0,0) tid=(71,0,0)
GPGPU-Sim PTX: 15500000 instructions simulated : ctaid=(6,0,0) tid=(199,0,0)
GPGPU-Sim uArch: cycles simulated: 150000  inst.: 15521344 (ipc=103.5) sim_rate=231661 (inst/sec) elapsed = 0:0:01:07 / Tue Mar 22 12:53:42 2016
GPGPU-Sim PTX: 15600000 instructions simulated : ctaid=(10,0,0) tid=(199,0,0)
GPGPU-Sim PTX: 15700000 instructions simulated : ctaid=(3,0,0) tid=(199,0,0)
GPGPU-Sim PTX: 15800000 instructions simulated : ctaid=(12,0,0) tid=(487,0,0)
GPGPU-Sim uArch: cycles simulated: 151500  inst.: 15846656 (ipc=104.6) sim_rate=233039 (inst/sec) elapsed = 0:0:01:08 / Tue Mar 22 12:53:43 2016
GPGPU-Sim PTX: 15900000 instructions simulated : ctaid=(10,0,0) tid=(263,0,0)
GPGPU-Sim PTX: 16000000 instructions simulated : ctaid=(8,0,0) tid=(231,0,0)
GPGPU-Sim PTX: 16100000 instructions simulated : ctaid=(11,0,0) tid=(359,0,0)
GPGPU-Sim PTX: 16200000 instructions simulated : ctaid=(7,0,0) tid=(39,0,0)
GPGPU-Sim uArch: cycles simulated: 153500  inst.: 16277600 (ipc=106.0) sim_rate=235907 (inst/sec) elapsed = 0:0:01:09 / Tue Mar 22 12:53:44 2016
GPGPU-Sim PTX: 16300000 instructions simulated : ctaid=(5,0,0) tid=(39,0,0)
GPGPU-Sim PTX: 16400000 instructions simulated : ctaid=(9,0,0) tid=(391,0,0)
GPGPU-Sim PTX: 16500000 instructions simulated : ctaid=(7,0,0) tid=(71,0,0)
GPGPU-Sim PTX: 16600000 instructions simulated : ctaid=(8,0,0) tid=(135,0,0)
GPGPU-Sim PTX: 16700000 instructions simulated : ctaid=(10,0,0) tid=(487,0,0)
GPGPU-Sim uArch: cycles simulated: 155500  inst.: 16705760 (ipc=107.4) sim_rate=238653 (inst/sec) elapsed = 0:0:01:10 / Tue Mar 22 12:53:45 2016
GPGPU-Sim PTX: 16800000 instructions simulated : ctaid=(6,0,0) tid=(135,0,0)
GPGPU-Sim PTX: 16900000 instructions simulated : ctaid=(11,0,0) tid=(199,0,0)
GPGPU-Sim PTX: 17000000 instructions simulated : ctaid=(7,0,0) tid=(295,0,0)
GPGPU-Sim PTX: 17100000 instructions simulated : ctaid=(2,0,0) tid=(455,0,0)
GPGPU-Sim uArch: cycles simulated: 157500  inst.: 17139072 (ipc=108.8) sim_rate=241395 (inst/sec) elapsed = 0:0:01:11 / Tue Mar 22 12:53:46 2016
GPGPU-Sim PTX: 17200000 instructions simulated : ctaid=(5,0,0) tid=(103,0,0)
GPGPU-Sim PTX: 17300000 instructions simulated : ctaid=(4,0,0) tid=(135,0,0)
GPGPU-Sim PTX: 17400000 instructions simulated : ctaid=(14,0,0) tid=(71,0,0)
GPGPU-Sim PTX: 17500000 instructions simulated : ctaid=(9,0,0) tid=(71,0,0)
GPGPU-Sim uArch: cycles simulated: 159500  inst.: 17575360 (ipc=110.2) sim_rate=244102 (inst/sec) elapsed = 0:0:01:12 / Tue Mar 22 12:53:47 2016
GPGPU-Sim PTX: 17600000 instructions simulated : ctaid=(10,0,0) tid=(167,0,0)
GPGPU-Sim PTX: 17700000 instructions simulated : ctaid=(4,0,0) tid=(391,0,0)
GPGPU-Sim PTX: 17800000 instructions simulated : ctaid=(8,0,0) tid=(295,0,0)
GPGPU-Sim PTX: 17900000 instructions simulated : ctaid=(4,0,0) tid=(391,0,0)
GPGPU-Sim uArch: cycles simulated: 161000  inst.: 17893248 (ipc=111.1) sim_rate=245112 (inst/sec) elapsed = 0:0:01:13 / Tue Mar 22 12:53:48 2016
GPGPU-Sim PTX: 18000000 instructions simulated : ctaid=(4,0,0) tid=(423,0,0)
GPGPU-Sim PTX: 18100000 instructions simulated : ctaid=(6,0,0) tid=(7,0,0)
GPGPU-Sim uArch: cycles simulated: 163000  inst.: 18162112 (ipc=111.4) sim_rate=245433 (inst/sec) elapsed = 0:0:01:14 / Tue Mar 22 12:53:49 2016
GPGPU-Sim PTX: 18200000 instructions simulated : ctaid=(1,0,0) tid=(137,0,0)
GPGPU-Sim PTX: 18300000 instructions simulated : ctaid=(9,0,0) tid=(141,0,0)
GPGPU-Sim uArch: cycles simulated: 165000  inst.: 18296788 (ipc=110.9) sim_rate=243957 (inst/sec) elapsed = 0:0:01:15 / Tue Mar 22 12:53:50 2016
GPGPU-Sim uArch: cycles simulated: 168000  inst.: 18316675 (ipc=109.0) sim_rate=241008 (inst/sec) elapsed = 0:0:01:16 / Tue Mar 22 12:53:51 2016
GPGPU-Sim PTX: 18400000 instructions simulated : ctaid=(9,0,0) tid=(225,0,0)
GPGPU-Sim uArch: cycles simulated: 169500  inst.: 18415451 (ipc=108.6) sim_rate=239161 (inst/sec) elapsed = 0:0:01:17 / Tue Mar 22 12:53:52 2016
GPGPU-Sim PTX: 18500000 instructions simulated : ctaid=(26,0,0) tid=(467,0,0)
GPGPU-Sim PTX: 18600000 instructions simulated : ctaid=(9,0,0) tid=(437,0,0)
GPGPU-Sim uArch: cycles simulated: 171500  inst.: 18581121 (ipc=108.3) sim_rate=238219 (inst/sec) elapsed = 0:0:01:18 / Tue Mar 22 12:53:53 2016
GPGPU-Sim uArch: Shader 5 finished CTA #0 (171831,0), 2 CTAs running
GPGPU-Sim uArch: core:  5, cta: 0 initialized @(171832,0)
GPGPU-Sim uArch: Shader 2 finished CTA #0 (171879,0), 2 CTAs running
GPGPU-Sim uArch: core:  2, cta: 0 initialized @(171880,0)
GPGPU-Sim PTX: 18700000 instructions simulated : ctaid=(21,0,0) tid=(307,0,0)
GPGPU-Sim uArch: Shader 4 finished CTA #0 (172119,0), 2 CTAs running
GPGPU-Sim uArch: core:  4, cta: 0 initialized @(172120,0)
GPGPU-Sim uArch: Shader 6 finished CTA #0 (172126,0), 2 CTAs running
GPGPU-Sim uArch: core:  6, cta: 0 initialized @(172127,0)
GPGPU-Sim uArch: Shader 8 finished CTA #0 (172230,0), 2 CTAs running
GPGPU-Sim uArch: core:  8, cta: 0 initialized @(172231,0)
GPGPU-Sim uArch: Shader 13 finished CTA #0 (172255,0), 2 CTAs running
GPGPU-Sim uArch: core: 13, cta: 0 initialized @(172256,0)
GPGPU-Sim uArch: Shader 3 finished CTA #0 (172256,0), 2 CTAs running
GPGPU-Sim uArch: core:  3, cta: 0 initialized @(172257,0)
GPGPU-Sim uArch: Shader 10 finished CTA #0 (172325,0), 2 CTAs running
GPGPU-Sim uArch: core: 10, cta: 0 initialized @(172326,0)
GPGPU-Sim uArch: Shader 7 finished CTA #0 (172361,0), 2 CTAs running
GPGPU-Sim uArch: core:  7, cta: 0 initialized @(172362,0)
GPGPU-Sim uArch: Shader 9 finished CTA #0 (172383,0), 2 CTAs running
GPGPU-Sim uArch: core:  9, cta: 0 initialized @(172384,0)
GPGPU-Sim uArch: Shader 14 finished CTA #0 (172391,0), 2 CTAs running
GPGPU-Sim uArch: core: 14, cta: 0 initialized @(172392,0)
GPGPU-Sim uArch: Shader 0 finished CTA #0 (172401,0), 2 CTAs running
GPGPU-Sim uArch: core:  0, cta: 0 initialized @(172402,0)
GPGPU-Sim uArch: Shader 11 finished CTA #0 (172406,0), 2 CTAs running
GPGPU-Sim uArch: core: 11, cta: 0 initialized @(172407,0)
GPGPU-Sim uArch: Shader 12 finished CTA #0 (172415,0), 2 CTAs running
GPGPU-Sim uArch: core: 12, cta: 0 initialized @(172416,0)
GPGPU-Sim PTX: 18800000 instructions simulated : ctaid=(21,0,0) tid=(207,0,0)
GPGPU-Sim uArch: Shader 1 finished CTA #0 (172773,0), 2 CTAs running
GPGPU-Sim uArch: core:  1, cta: 0 initialized @(172774,0)
GPGPU-Sim uArch: cycles simulated: 173000  inst.: 18864028 (ipc=109.0) sim_rate=238785 (inst/sec) elapsed = 0:0:01:19 / Tue Mar 22 12:53:54 2016
GPGPU-Sim PTX: 18900000 instructions simulated : ctaid=(28,0,0) tid=(137,0,0)
GPGPU-Sim PTX: 19000000 instructions simulated : ctaid=(20,0,0) tid=(361,0,0)
GPGPU-Sim PTX: 19100000 instructions simulated : ctaid=(26,0,0) tid=(9,0,0)
GPGPU-Sim PTX: 19200000 instructions simulated : ctaid=(29,0,0) tid=(361,0,0)
GPGPU-Sim uArch: cycles simulated: 174500  inst.: 19184572 (ipc=109.9) sim_rate=239807 (inst/sec) elapsed = 0:0:01:20 / Tue Mar 22 12:53:55 2016
GPGPU-Sim PTX: 19300000 instructions simulated : ctaid=(26,0,0) tid=(73,0,0)
GPGPU-Sim PTX: 19400000 instructions simulated : ctaid=(29,0,0) tid=(329,0,0)
GPGPU-Sim PTX: 19500000 instructions simulated : ctaid=(24,0,0) tid=(105,0,0)
GPGPU-Sim PTX: 19600000 instructions simulated : ctaid=(23,0,0) tid=(329,0,0)
GPGPU-Sim uArch: cycles simulated: 176500  inst.: 19588860 (ipc=111.0) sim_rate=241837 (inst/sec) elapsed = 0:0:01:21 / Tue Mar 22 12:53:56 2016
GPGPU-Sim PTX: 19700000 instructions simulated : ctaid=(15,0,0) tid=(361,0,0)
GPGPU-Sim PTX: 19800000 instructions simulated : ctaid=(17,0,0) tid=(361,0,0)
GPGPU-Sim PTX: 19900000 instructions simulated : ctaid=(21,0,0) tid=(425,0,0)
GPGPU-Sim uArch: cycles simulated: 178000  inst.: 19871516 (ipc=111.6) sim_rate=242335 (inst/sec) elapsed = 0:0:01:22 / Tue Mar 22 12:53:57 2016
GPGPU-Sim PTX: 20000000 instructions simulated : ctaid=(20,0,0) tid=(457,0,0)
GPGPU-Sim PTX: 20100000 instructions simulated : ctaid=(20,0,0) tid=(105,0,0)
GPGPU-Sim PTX: 20200000 instructions simulated : ctaid=(16,0,0) tid=(329,0,0)
GPGPU-Sim PTX: 20300000 instructions simulated : ctaid=(21,0,0) tid=(41,0,0)
GPGPU-Sim uArch: cycles simulated: 180000  inst.: 20269980 (ipc=112.6) sim_rate=244216 (inst/sec) elapsed = 0:0:01:23 / Tue Mar 22 12:53:58 2016
GPGPU-Sim PTX: 20400000 instructions simulated : ctaid=(28,0,0) tid=(73,0,0)
GPGPU-Sim PTX: 20500000 instructions simulated : ctaid=(15,0,0) tid=(489,0,0)
GPGPU-Sim PTX: 20600000 instructions simulated : ctaid=(24,0,0) tid=(361,0,0)
GPGPU-Sim uArch: cycles simulated: 181500  inst.: 20589340 (ipc=113.4) sim_rate=245111 (inst/sec) elapsed = 0:0:01:24 / Tue Mar 22 12:53:59 2016
GPGPU-Sim PTX: 20700000 instructions simulated : ctaid=(23,0,0) tid=(265,0,0)
GPGPU-Sim PTX: 20800000 instructions simulated : ctaid=(15,0,0) tid=(201,0,0)
GPGPU-Sim PTX: 20900000 instructions simulated : ctaid=(25,0,0) tid=(73,0,0)
GPGPU-Sim PTX: 21000000 instructions simulated : ctaid=(28,0,0) tid=(393,0,0)
GPGPU-Sim uArch: cycles simulated: 183500  inst.: 21020156 (ipc=114.6) sim_rate=247295 (inst/sec) elapsed = 0:0:01:25 / Tue Mar 22 12:54:00 2016
GPGPU-Sim PTX: 21100000 instructions simulated : ctaid=(21,0,0) tid=(265,0,0)
GPGPU-Sim PTX: 21200000 instructions simulated : ctaid=(16,0,0) tid=(361,0,0)
GPGPU-Sim PTX: 21300000 instructions simulated : ctaid=(29,0,0) tid=(489,0,0)
GPGPU-Sim uArch: cycles simulated: 185000  inst.: 21341884 (ipc=115.4) sim_rate=248161 (inst/sec) elapsed = 0:0:01:26 / Tue Mar 22 12:54:01 2016
GPGPU-Sim PTX: 21400000 instructions simulated : ctaid=(23,0,0) tid=(329,0,0)
GPGPU-Sim PTX: 21500000 instructions simulated : ctaid=(22,0,0) tid=(169,0,0)
GPGPU-Sim PTX: 21600000 instructions simulated : ctaid=(23,0,0) tid=(137,0,0)
GPGPU-Sim PTX: 21700000 instructions simulated : ctaid=(15,0,0) tid=(265,0,0)
GPGPU-Sim PTX: 21800000 instructions simulated : ctaid=(18,0,0) tid=(393,0,0)
GPGPU-Sim uArch: cycles simulated: 187000  inst.: 21771836 (ipc=116.4) sim_rate=250250 (inst/sec) elapsed = 0:0:01:27 / Tue Mar 22 12:54:02 2016
GPGPU-Sim PTX: 21900000 instructions simulated : ctaid=(21,0,0) tid=(137,0,0)
GPGPU-Sim PTX: 22000000 instructions simulated : ctaid=(26,0,0) tid=(329,0,0)
GPGPU-Sim PTX: 22100000 instructions simulated : ctaid=(27,0,0) tid=(41,0,0)
GPGPU-Sim uArch: cycles simulated: 188500  inst.: 22096252 (ipc=117.2) sim_rate=251093 (inst/sec) elapsed = 0:0:01:28 / Tue Mar 22 12:54:03 2016
GPGPU-Sim PTX: 22200000 instructions simulated : ctaid=(28,0,0) tid=(265,0,0)
GPGPU-Sim PTX: 22300000 instructions simulated : ctaid=(25,0,0) tid=(425,0,0)
GPGPU-Sim PTX: 22400000 instructions simulated : ctaid=(23,0,0) tid=(393,0,0)
GPGPU-Sim uArch: cycles simulated: 190000  inst.: 22419100 (ipc=118.0) sim_rate=251900 (inst/sec) elapsed = 0:0:01:29 / Tue Mar 22 12:54:04 2016
GPGPU-Sim PTX: 22500000 instructions simulated : ctaid=(20,0,0) tid=(169,0,0)
GPGPU-Sim PTX: 22600000 instructions simulated : ctaid=(28,0,0) tid=(233,0,0)
GPGPU-Sim PTX: 22700000 instructions simulated : ctaid=(20,0,0) tid=(9,0,0)
GPGPU-Sim PTX: 22800000 instructions simulated : ctaid=(18,0,0) tid=(137,0,0)
GPGPU-Sim uArch: cycles simulated: 192000  inst.: 22850940 (ipc=119.0) sim_rate=253899 (inst/sec) elapsed = 0:0:01:30 / Tue Mar 22 12:54:05 2016
GPGPU-Sim PTX: 22900000 instructions simulated : ctaid=(22,0,0) tid=(201,0,0)
GPGPU-Sim PTX: 23000000 instructions simulated : ctaid=(25,0,0) tid=(297,0,0)
GPGPU-Sim PTX: 23100000 instructions simulated : ctaid=(28,0,0) tid=(329,0,0)
GPGPU-Sim PTX: 23200000 instructions simulated : ctaid=(21,0,0) tid=(169,0,0)
GPGPU-Sim uArch: cycles simulated: 193500  inst.: 23170716 (ipc=119.7) sim_rate=254623 (inst/sec) elapsed = 0:0:01:31 / Tue Mar 22 12:54:06 2016
GPGPU-Sim PTX: 23300000 instructions simulated : ctaid=(18,0,0) tid=(265,0,0)
GPGPU-Sim PTX: 23400000 instructions simulated : ctaid=(29,0,0) tid=(169,0,0)
GPGPU-Sim PTX: 23500000 instructions simulated : ctaid=(24,0,0) tid=(201,0,0)
GPGPU-Sim PTX: 23600000 instructions simulated : ctaid=(29,0,0) tid=(329,0,0)
GPGPU-Sim uArch: cycles simulated: 195500  inst.: 23601180 (ipc=120.7) sim_rate=256534 (inst/sec) elapsed = 0:0:01:32 / Tue Mar 22 12:54:07 2016
GPGPU-Sim PTX: 23700000 instructions simulated : ctaid=(17,0,0) tid=(233,0,0)
GPGPU-Sim PTX: 23800000 instructions simulated : ctaid=(23,0,0) tid=(425,0,0)
GPGPU-Sim PTX: 23900000 instructions simulated : ctaid=(17,0,0) tid=(73,0,0)
GPGPU-Sim uArch: cycles simulated: 197000  inst.: 23923228 (ipc=121.4) sim_rate=257239 (inst/sec) elapsed = 0:0:01:33 / Tue Mar 22 12:54:08 2016
GPGPU-Sim PTX: 24000000 instructions simulated : ctaid=(25,0,0) tid=(105,0,0)
GPGPU-Sim PTX: 24100000 instructions simulated : ctaid=(19,0,0) tid=(361,0,0)
GPGPU-Sim PTX: 24200000 instructions simulated : ctaid=(21,0,0) tid=(457,0,0)
GPGPU-Sim uArch: cycles simulated: 198500  inst.: 24246908 (ipc=122.2) sim_rate=257945 (inst/sec) elapsed = 0:0:01:34 / Tue Mar 22 12:54:09 2016
GPGPU-Sim PTX: 24300000 instructions simulated : ctaid=(25,0,0) tid=(41,0,0)
GPGPU-Sim PTX: 24400000 instructions simulated : ctaid=(18,0,0) tid=(265,0,0)
GPGPU-Sim PTX: 24500000 instructions simulated : ctaid=(28,0,0) tid=(41,0,0)
GPGPU-Sim PTX: 24600000 instructions simulated : ctaid=(19,0,0) tid=(41,0,0)
GPGPU-Sim PTX: 24700000 instructions simulated : ctaid=(22,0,0) tid=(361,0,0)
GPGPU-Sim uArch: cycles simulated: 200500  inst.: 24676860 (ipc=123.1) sim_rate=259756 (inst/sec) elapsed = 0:0:01:35 / Tue Mar 22 12:54:10 2016
GPGPU-Sim PTX: 24800000 instructions simulated : ctaid=(18,0,0) tid=(329,0,0)
GPGPU-Sim PTX: 24900000 instructions simulated : ctaid=(18,0,0) tid=(489,0,0)
GPGPU-Sim PTX: 25000000 instructions simulated : ctaid=(23,0,0) tid=(9,0,0)
GPGPU-Sim uArch: cycles simulated: 202000  inst.: 24995932 (ipc=123.7) sim_rate=260374 (inst/sec) elapsed = 0:0:01:36 / Tue Mar 22 12:54:11 2016
GPGPU-Sim PTX: 25100000 instructions simulated : ctaid=(28,0,0) tid=(9,0,0)
GPGPU-Sim PTX: 25200000 instructions simulated : ctaid=(23,0,0) tid=(329,0,0)
GPGPU-Sim PTX: 25300000 instructions simulated : ctaid=(18,0,0) tid=(297,0,0)
GPGPU-Sim PTX: 25400000 instructions simulated : ctaid=(29,0,0) tid=(457,0,0)
GPGPU-Sim uArch: cycles simulated: 204000  inst.: 25428700 (ipc=124.7) sim_rate=262151 (inst/sec) elapsed = 0:0:01:37 / Tue Mar 22 12:54:12 2016
GPGPU-Sim PTX: 25500000 instructions simulated : ctaid=(17,0,0) tid=(265,0,0)
GPGPU-Sim PTX: 25600000 instructions simulated : ctaid=(26,0,0) tid=(425,0,0)
GPGPU-Sim PTX: 25700000 instructions simulated : ctaid=(19,0,0) tid=(393,0,0)
GPGPU-Sim uArch: cycles simulated: 205500  inst.: 25749788 (ipc=125.3) sim_rate=262752 (inst/sec) elapsed = 0:0:01:38 / Tue Mar 22 12:54:13 2016
GPGPU-Sim PTX: 25800000 instructions simulated : ctaid=(18,0,0) tid=(393,0,0)
GPGPU-Sim PTX: 25900000 instructions simulated : ctaid=(17,0,0) tid=(41,0,0)
GPGPU-Sim PTX: 26000000 instructions simulated : ctaid=(22,0,0) tid=(329,0,0)
GPGPU-Sim PTX: 26100000 instructions simulated : ctaid=(15,0,0) tid=(233,0,0)
GPGPU-Sim uArch: cycles simulated: 207000  inst.: 26072636 (ipc=126.0) sim_rate=263359 (inst/sec) elapsed = 0:0:01:39 / Tue Mar 22 12:54:14 2016
GPGPU-Sim PTX: 26200000 instructions simulated : ctaid=(20,0,0) tid=(41,0,0)
GPGPU-Sim PTX: 26300000 instructions simulated : ctaid=(18,0,0) tid=(41,0,0)
GPGPU-Sim PTX: 26400000 instructions simulated : ctaid=(26,0,0) tid=(489,0,0)
GPGPU-Sim PTX: 26500000 instructions simulated : ctaid=(26,0,0) tid=(329,0,0)
GPGPU-Sim uArch: cycles simulated: 209000  inst.: 26502332 (ipc=126.8) sim_rate=265023 (inst/sec) elapsed = 0:0:01:40 / Tue Mar 22 12:54:15 2016
GPGPU-Sim PTX: 26600000 instructions simulated : ctaid=(18,0,0) tid=(137,0,0)
GPGPU-Sim PTX: 26700000 instructions simulated : ctaid=(23,0,0) tid=(137,0,0)
GPGPU-Sim PTX: 26800000 instructions simulated : ctaid=(20,0,0) tid=(457,0,0)
GPGPU-Sim uArch: cycles simulated: 210500  inst.: 26824636 (ipc=127.4) sim_rate=265590 (inst/sec) elapsed = 0:0:01:41 / Tue Mar 22 12:54:16 2016
GPGPU-Sim PTX: 26900000 instructions simulated : ctaid=(26,0,0) tid=(73,0,0)
GPGPU-Sim PTX: 27000000 instructions simulated : ctaid=(27,0,0) tid=(329,0,0)
GPGPU-Sim PTX: 27100000 instructions simulated : ctaid=(24,0,0) tid=(41,0,0)
GPGPU-Sim PTX: 27200000 instructions simulated : ctaid=(18,0,0) tid=(361,0,0)
GPGPU-Sim uArch: cycles simulated: 212500  inst.: 27252700 (ipc=128.2) sim_rate=267183 (inst/sec) elapsed = 0:0:01:42 / Tue Mar 22 12:54:17 2016
GPGPU-Sim PTX: 27300000 instructions simulated : ctaid=(17,0,0) tid=(9,0,0)
GPGPU-Sim PTX: 27400000 instructions simulated : ctaid=(28,0,0) tid=(201,0,0)
GPGPU-Sim PTX: 27500000 instructions simulated : ctaid=(27,0,0) tid=(361,0,0)
GPGPU-Sim PTX: 27600000 instructions simulated : ctaid=(25,0,0) tid=(329,0,0)
GPGPU-Sim uArch: cycles simulated: 214000  inst.: 27578204 (ipc=128.9) sim_rate=267749 (inst/sec) elapsed = 0:0:01:43 / Tue Mar 22 12:54:18 2016
GPGPU-Sim PTX: 27700000 instructions simulated : ctaid=(16,0,0) tid=(297,0,0)
GPGPU-Sim PTX: 27800000 instructions simulated : ctaid=(26,0,0) tid=(393,0,0)
GPGPU-Sim PTX: 27900000 instructions simulated : ctaid=(23,0,0) tid=(9,0,0)
GPGPU-Sim uArch: cycles simulated: 215500  inst.: 27898076 (ipc=129.5) sim_rate=268250 (inst/sec) elapsed = 0:0:01:44 / Tue Mar 22 12:54:19 2016
GPGPU-Sim PTX: 28000000 instructions simulated : ctaid=(22,0,0) tid=(233,0,0)
GPGPU-Sim PTX: 28100000 instructions simulated : ctaid=(15,0,0) tid=(329,0,0)
GPGPU-Sim PTX: 28200000 instructions simulated : ctaid=(16,0,0) tid=(41,0,0)
GPGPU-Sim PTX: 28300000 instructions simulated : ctaid=(17,0,0) tid=(457,0,0)
GPGPU-Sim uArch: cycles simulated: 217500  inst.: 28330588 (ipc=130.3) sim_rate=269815 (inst/sec) elapsed = 0:0:01:45 / Tue Mar 22 12:54:20 2016
GPGPU-Sim PTX: 28400000 instructions simulated : ctaid=(24,0,0) tid=(361,0,0)
GPGPU-Sim PTX: 28500000 instructions simulated : ctaid=(21,0,0) tid=(329,0,0)
GPGPU-Sim PTX: 28600000 instructions simulated : ctaid=(21,0,0) tid=(361,0,0)
GPGPU-Sim uArch: cycles simulated: 219000  inst.: 28651964 (ipc=130.8) sim_rate=270301 (inst/sec) elapsed = 0:0:01:46 / Tue Mar 22 12:54:21 2016
GPGPU-Sim PTX: 28700000 instructions simulated : ctaid=(21,0,0) tid=(489,0,0)
GPGPU-Sim PTX: 28800000 instructions simulated : ctaid=(15,0,0) tid=(361,0,0)
GPGPU-Sim PTX: 28900000 instructions simulated : ctaid=(29,0,0) tid=(425,0,0)
GPGPU-Sim PTX: 29000000 instructions simulated : ctaid=(27,0,0) tid=(265,0,0)
GPGPU-Sim PTX: 29100000 instructions simulated : ctaid=(17,0,0) tid=(233,0,0)
GPGPU-Sim uArch: cycles simulated: 221000  inst.: 29081564 (ipc=131.6) sim_rate=271790 (inst/sec) elapsed = 0:0:01:47 / Tue Mar 22 12:54:22 2016
GPGPU-Sim PTX: 29200000 instructions simulated : ctaid=(15,0,0) tid=(233,0,0)
GPGPU-Sim PTX: 29300000 instructions simulated : ctaid=(26,0,0) tid=(201,0,0)
GPGPU-Sim PTX: 29400000 instructions simulated : ctaid=(15,0,0) tid=(393,0,0)
GPGPU-Sim uArch: cycles simulated: 222500  inst.: 29404412 (ipc=132.2) sim_rate=272263 (inst/sec) elapsed = 0:0:01:48 / Tue Mar 22 12:54:23 2016
GPGPU-Sim PTX: 29500000 instructions simulated : ctaid=(20,0,0) tid=(41,0,0)
GPGPU-Sim PTX: 29600000 instructions simulated : ctaid=(25,0,0) tid=(425,0,0)
GPGPU-Sim PTX: 29700000 instructions simulated : ctaid=(15,0,0) tid=(297,0,0)
GPGPU-Sim uArch: cycles simulated: 224000  inst.: 29727708 (ipc=132.7) sim_rate=272731 (inst/sec) elapsed = 0:0:01:49 / Tue Mar 22 12:54:24 2016
GPGPU-Sim PTX: 29800000 instructions simulated : ctaid=(15,0,0) tid=(169,0,0)
GPGPU-Sim PTX: 29900000 instructions simulated : ctaid=(17,0,0) tid=(425,0,0)
GPGPU-Sim PTX: 30000000 instructions simulated : ctaid=(24,0,0) tid=(425,0,0)
GPGPU-Sim PTX: 30100000 instructions simulated : ctaid=(24,0,0) tid=(265,0,0)
GPGPU-Sim uArch: cycles simulated: 226000  inst.: 30154876 (ipc=133.4) sim_rate=274135 (inst/sec) elapsed = 0:0:01:50 / Tue Mar 22 12:54:25 2016
GPGPU-Sim PTX: 30200000 instructions simulated : ctaid=(15,0,0) tid=(265,0,0)
GPGPU-Sim PTX: 30300000 instructions simulated : ctaid=(28,0,0) tid=(393,0,0)
GPGPU-Sim PTX: 30400000 instructions simulated : ctaid=(23,0,0) tid=(489,0,0)
GPGPU-Sim PTX: 30500000 instructions simulated : ctaid=(22,0,0) tid=(425,0,0)
GPGPU-Sim uArch: cycles simulated: 227500  inst.: 30480636 (ipc=134.0) sim_rate=274600 (inst/sec) elapsed = 0:0:01:51 / Tue Mar 22 12:54:26 2016
GPGPU-Sim PTX: 30600000 instructions simulated : ctaid=(23,0,0) tid=(9,0,0)
GPGPU-Sim PTX: 30700000 instructions simulated : ctaid=(25,0,0) tid=(105,0,0)
GPGPU-Sim PTX: 30800000 instructions simulated : ctaid=(16,0,0) tid=(489,0,0)
GPGPU-Sim PTX: 30900000 instructions simulated : ctaid=(19,0,0) tid=(9,0,0)
GPGPU-Sim uArch: cycles simulated: 229500  inst.: 30909564 (ipc=134.7) sim_rate=275978 (inst/sec) elapsed = 0:0:01:52 / Tue Mar 22 12:54:27 2016
GPGPU-Sim PTX: 31000000 instructions simulated : ctaid=(28,0,0) tid=(393,0,0)
GPGPU-Sim PTX: 31100000 instructions simulated : ctaid=(15,0,0) tid=(297,0,0)
GPGPU-Sim PTX: 31200000 instructions simulated : ctaid=(17,0,0) tid=(457,0,0)
GPGPU-Sim uArch: cycles simulated: 231000  inst.: 31228188 (ipc=135.2) sim_rate=276355 (inst/sec) elapsed = 0:0:01:53 / Tue Mar 22 12:54:28 2016
GPGPU-Sim PTX: 31300000 instructions simulated : ctaid=(21,0,0) tid=(361,0,0)
GPGPU-Sim PTX: 31400000 instructions simulated : ctaid=(20,0,0) tid=(393,0,0)
GPGPU-Sim PTX: 31500000 instructions simulated : ctaid=(18,0,0) tid=(233,0,0)
GPGPU-Sim uArch: cycles simulated: 232500  inst.: 31552700 (ipc=135.7) sim_rate=276778 (inst/sec) elapsed = 0:0:01:54 / Tue Mar 22 12:54:29 2016
GPGPU-Sim PTX: 31600000 instructions simulated : ctaid=(20,0,0) tid=(233,0,0)
GPGPU-Sim PTX: 31700000 instructions simulated : ctaid=(17,0,0) tid=(425,0,0)
GPGPU-Sim PTX: 31800000 instructions simulated : ctaid=(17,0,0) tid=(233,0,0)
GPGPU-Sim PTX: 31900000 instructions simulated : ctaid=(26,0,0) tid=(169,0,0)
GPGPU-Sim PTX: 32000000 instructions simulated : ctaid=(27,0,0) tid=(425,0,0)
GPGPU-Sim uArch: cycles simulated: 234500  inst.: 31981820 (ipc=136.4) sim_rate=278102 (inst/sec) elapsed = 0:0:01:55 / Tue Mar 22 12:54:30 2016
GPGPU-Sim PTX: 32100000 instructions simulated : ctaid=(20,0,0) tid=(169,0,0)
GPGPU-Sim PTX: 32200000 instructions simulated : ctaid=(21,0,0) tid=(137,0,0)
GPGPU-Sim PTX: 32300000 instructions simulated : ctaid=(28,0,0) tid=(265,0,0)
GPGPU-Sim uArch: cycles simulated: 236000  inst.: 32302396 (ipc=136.9) sim_rate=278468 (inst/sec) elapsed = 0:0:01:56 / Tue Mar 22 12:54:31 2016
GPGPU-Sim PTX: 32400000 instructions simulated : ctaid=(16,0,0) tid=(233,0,0)
GPGPU-Sim PTX: 32500000 instructions simulated : ctaid=(16,0,0) tid=(265,0,0)
GPGPU-Sim PTX: 32600000 instructions simulated : ctaid=(24,0,0) tid=(233,0,0)
GPGPU-Sim PTX: 32700000 instructions simulated : ctaid=(19,0,0) tid=(169,0,0)
GPGPU-Sim uArch: cycles simulated: 238000  inst.: 32733564 (ipc=137.5) sim_rate=279774 (inst/sec) elapsed = 0:0:01:57 / Tue Mar 22 12:54:32 2016
GPGPU-Sim PTX: 32800000 instructions simulated : ctaid=(27,0,0) tid=(169,0,0)
GPGPU-Sim PTX: 32900000 instructions simulated : ctaid=(19,0,0) tid=(41,0,0)
GPGPU-Sim PTX: 33000000 instructions simulated : ctaid=(19,0,0) tid=(265,0,0)
GPGPU-Sim uArch: cycles simulated: 239500  inst.: 33054492 (ipc=138.0) sim_rate=280122 (inst/sec) elapsed = 0:0:01:58 / Tue Mar 22 12:54:33 2016
GPGPU-Sim PTX: 33100000 instructions simulated : ctaid=(18,0,0) tid=(137,0,0)
GPGPU-Sim PTX: 33200000 instructions simulated : ctaid=(18,0,0) tid=(41,0,0)
GPGPU-Sim PTX: 33300000 instructions simulated : ctaid=(21,0,0) tid=(9,0,0)
GPGPU-Sim PTX: 33400000 instructions simulated : ctaid=(24,0,0) tid=(489,0,0)
GPGPU-Sim uArch: cycles simulated: 241000  inst.: 33378300 (ipc=138.5) sim_rate=280489 (inst/sec) elapsed = 0:0:01:59 / Tue Mar 22 12:54:34 2016
GPGPU-Sim PTX: 33500000 instructions simulated : ctaid=(20,0,0) tid=(73,0,0)
GPGPU-Sim PTX: 33600000 instructions simulated : ctaid=(17,0,0) tid=(137,0,0)
GPGPU-Sim PTX: 33700000 instructions simulated : ctaid=(29,0,0) tid=(297,0,0)
GPGPU-Sim PTX: 33800000 instructions simulated : ctaid=(24,0,0) tid=(361,0,0)
GPGPU-Sim uArch: cycles simulated: 243000  inst.: 33808060 (ipc=139.1) sim_rate=281733 (inst/sec) elapsed = 0:0:02:00 / Tue Mar 22 12:54:35 2016
GPGPU-Sim PTX: 33900000 instructions simulated : ctaid=(28,0,0) tid=(425,0,0)
GPGPU-Sim PTX: 34000000 instructions simulated : ctaid=(26,0,0) tid=(297,0,0)
GPGPU-Sim PTX: 34100000 instructions simulated : ctaid=(21,0,0) tid=(329,0,0)
GPGPU-Sim uArch: cycles simulated: 244500  inst.: 34130364 (ipc=139.6) sim_rate=282069 (inst/sec) elapsed = 0:0:02:01 / Tue Mar 22 12:54:36 2016
GPGPU-Sim PTX: 34200000 instructions simulated : ctaid=(22,0,0) tid=(265,0,0)
GPGPU-Sim PTX: 34300000 instructions simulated : ctaid=(24,0,0) tid=(489,0,0)
GPGPU-Sim PTX: 34400000 instructions simulated : ctaid=(22,0,0) tid=(393,0,0)
GPGPU-Sim PTX: 34500000 instructions simulated : ctaid=(15,0,0) tid=(457,0,0)
GPGPU-Sim uArch: cycles simulated: 246500  inst.: 34560412 (ipc=140.2) sim_rate=283282 (inst/sec) elapsed = 0:0:02:02 / Tue Mar 22 12:54:37 2016
GPGPU-Sim PTX: 34600000 instructions simulated : ctaid=(15,0,0) tid=(361,0,0)
GPGPU-Sim PTX: 34700000 instructions simulated : ctaid=(16,0,0) tid=(105,0,0)
GPGPU-Sim PTX: 34800000 instructions simulated : ctaid=(25,0,0) tid=(489,0,0)
GPGPU-Sim PTX: 34900000 instructions simulated : ctaid=(20,0,0) tid=(297,0,0)
GPGPU-Sim uArch: cycles simulated: 248000  inst.: 34883196 (ipc=140.7) sim_rate=283603 (inst/sec) elapsed = 0:0:02:03 / Tue Mar 22 12:54:38 2016
GPGPU-Sim PTX: 35000000 instructions simulated : ctaid=(22,0,0) tid=(425,0,0)
GPGPU-Sim PTX: 35100000 instructions simulated : ctaid=(27,0,0) tid=(73,0,0)
GPGPU-Sim PTX: 35200000 instructions simulated : ctaid=(29,0,0) tid=(105,0,0)
GPGPU-Sim uArch: cycles simulated: 249500  inst.: 35205692 (ipc=141.1) sim_rate=283916 (inst/sec) elapsed = 0:0:02:04 / Tue Mar 22 12:54:39 2016
GPGPU-Sim PTX: 35300000 instructions simulated : ctaid=(24,0,0) tid=(457,0,0)
GPGPU-Sim PTX: 35400000 instructions simulated : ctaid=(17,0,0) tid=(137,0,0)
GPGPU-Sim PTX: 35500000 instructions simulated : ctaid=(28,0,0) tid=(393,0,0)
GPGPU-Sim PTX: 35600000 instructions simulated : ctaid=(17,0,0) tid=(233,0,0)
GPGPU-Sim uArch: cycles simulated: 251500  inst.: 35636636 (ipc=141.7) sim_rate=285093 (inst/sec) elapsed = 0:0:02:05 / Tue Mar 22 12:54:40 2016
GPGPU-Sim PTX: 35700000 instructions simulated : ctaid=(22,0,0) tid=(393,0,0)
GPGPU-Sim PTX: 35800000 instructions simulated : ctaid=(18,0,0) tid=(201,0,0)
GPGPU-Sim PTX: 35900000 instructions simulated : ctaid=(16,0,0) tid=(9,0,0)
GPGPU-Sim uArch: cycles simulated: 253000  inst.: 35957850 (ipc=142.1) sim_rate=285379 (inst/sec) elapsed = 0:0:02:06 / Tue Mar 22 12:54:41 2016
GPGPU-Sim PTX: 36000000 instructions simulated : ctaid=(26,0,0) tid=(147,0,0)
GPGPU-Sim PTX: 36100000 instructions simulated : ctaid=(15,0,0) tid=(106,0,0)
GPGPU-Sim PTX: 36200000 instructions simulated : ctaid=(18,0,0) tid=(26,0,0)
GPGPU-Sim uArch: cycles simulated: 254500  inst.: 36182710 (ipc=142.2) sim_rate=284903 (inst/sec) elapsed = 0:0:02:07 / Tue Mar 22 12:54:42 2016
GPGPU-Sim PTX: 36300000 instructions simulated : ctaid=(25,0,0) tid=(368,0,0)
GPGPU-Sim uArch: cycles simulated: 256500  inst.: 36288901 (ipc=141.5) sim_rate=283507 (inst/sec) elapsed = 0:0:02:08 / Tue Mar 22 12:54:43 2016
GPGPU-Sim PTX: 36400000 instructions simulated : ctaid=(31,0,0) tid=(8,0,0)
GPGPU-Sim uArch: cycles simulated: 258500  inst.: 36373136 (ipc=140.7) sim_rate=281962 (inst/sec) elapsed = 0:0:02:09 / Tue Mar 22 12:54:44 2016
GPGPU-Sim PTX: 36500000 instructions simulated : ctaid=(41,0,0) tid=(85,0,0)
GPGPU-Sim uArch: cycles simulated: 260000  inst.: 36521887 (ipc=140.5) sim_rate=280937 (inst/sec) elapsed = 0:0:02:10 / Tue Mar 22 12:54:45 2016
GPGPU-Sim PTX: 36600000 instructions simulated : ctaid=(30,0,0) tid=(22,0,0)
GPGPU-Sim PTX: 36700000 instructions simulated : ctaid=(30,0,0) tid=(38,0,0)
GPGPU-Sim uArch: cycles simulated: 262000  inst.: 36713731 (ipc=140.1) sim_rate=280257 (inst/sec) elapsed = 0:0:02:11 / Tue Mar 22 12:54:46 2016
GPGPU-Sim uArch: Shader 11 finished CTA #1 (262205,0), 2 CTAs running
GPGPU-Sim uArch: core: 11, cta: 1 initialized @(262206,0)
GPGPU-Sim PTX: 36800000 instructions simulated : ctaid=(41,0,0) tid=(335,0,0)
GPGPU-Sim uArch: Shader 5 finished CTA #1 (262616,0), 2 CTAs running
GPGPU-Sim uArch: core:  5, cta: 1 initialized @(262617,0)
GPGPU-Sim uArch: Shader 13 finished CTA #1 (263024,0), 2 CTAs running
GPGPU-Sim uArch: core: 13, cta: 1 initialized @(263025,0)
GPGPU-Sim uArch: Shader 0 finished CTA #1 (263069,0), 2 CTAs running
GPGPU-Sim uArch: core:  0, cta: 1 initialized @(263070,0)
GPGPU-Sim PTX: 36900000 instructions simulated : ctaid=(32,0,0) tid=(382,0,0)
GPGPU-Sim uArch: Shader 9 finished CTA #1 (263347,0), 2 CTAs running
GPGPU-Sim uArch: core:  9, cta: 1 initialized @(263348,0)
GPGPU-Sim uArch: Shader 2 finished CTA #1 (263384,0), 2 CTAs running
GPGPU-Sim uArch: core:  2, cta: 1 initialized @(263385,0)
GPGPU-Sim uArch: Shader 6 finished CTA #1 (263448,0), 2 CTAs running
GPGPU-Sim uArch: core:  6, cta: 1 initialized @(263449,0)
GPGPU-Sim uArch: Shader 12 finished CTA #1 (263450,0), 2 CTAs running
GPGPU-Sim uArch: core: 12, cta: 1 initialized @(263451,0)
GPGPU-Sim uArch: cycles simulated: 263500  inst.: 36930732 (ipc=140.2) sim_rate=279778 (inst/sec) elapsed = 0:0:02:12 / Tue Mar 22 12:54:47 2016
GPGPU-Sim uArch: Shader 7 finished CTA #1 (263542,0), 2 CTAs running
GPGPU-Sim uArch: core:  7, cta: 1 initialized @(263543,0)
GPGPU-Sim PTX: 37000000 instructions simulated : ctaid=(32,0,0) tid=(79,0,0)
GPGPU-Sim uArch: Shader 3 finished CTA #1 (263731,0), 2 CTAs running
GPGPU-Sim uArch: core:  3, cta: 1 initialized @(263732,0)
GPGPU-Sim uArch: Shader 8 finished CTA #1 (263746,0), 2 CTAs running
GPGPU-Sim uArch: core:  8, cta: 1 initialized @(263747,0)
GPGPU-Sim uArch: Shader 10 finished CTA #1 (263791,0), 2 CTAs running
GPGPU-Sim uArch: core: 10, cta: 1 initialized @(263792,0)
GPGPU-Sim uArch: Shader 14 finished CTA #1 (263944,0), 2 CTAs running
GPGPU-Sim uArch: core: 14, cta: 1 initialized @(263945,0)
GPGPU-Sim PTX: 37100000 instructions simulated : ctaid=(43,0,0) tid=(0,0,0)
GPGPU-Sim uArch: Shader 4 finished CTA #1 (264173,0), 2 CTAs running
GPGPU-Sim uArch: core:  4, cta: 1 initialized @(264174,0)
GPGPU-Sim uArch: Shader 1 finished CTA #1 (264238,0), 2 CTAs running
GPGPU-Sim uArch: core:  1, cta: 1 initialized @(264239,0)
GPGPU-Sim PTX: 37200000 instructions simulated : ctaid=(31,0,0) tid=(192,0,0)
GPGPU-Sim uArch: cycles simulated: 265000  inst.: 37241953 (ipc=140.5) sim_rate=280014 (inst/sec) elapsed = 0:0:02:13 / Tue Mar 22 12:54:48 2016
GPGPU-Sim PTX: 37300000 instructions simulated : ctaid=(36,0,0) tid=(256,0,0)
GPGPU-Sim PTX: 37400000 instructions simulated : ctaid=(38,0,0) tid=(224,0,0)
GPGPU-Sim PTX: 37500000 instructions simulated : ctaid=(37,0,0) tid=(96,0,0)
GPGPU-Sim uArch: cycles simulated: 266500  inst.: 37543297 (ipc=140.9) sim_rate=280173 (inst/sec) elapsed = 0:0:02:14 / Tue Mar 22 12:54:49 2016
GPGPU-Sim PTX: 37600000 instructions simulated : ctaid=(42,0,0) tid=(0,0,0)
GPGPU-Sim PTX: 37700000 instructions simulated : ctaid=(39,0,0) tid=(352,0,0)
GPGPU-Sim PTX: 37800000 instructions simulated : ctaid=(30,0,0) tid=(320,0,0)
GPGPU-Sim uArch: cycles simulated: 268000  inst.: 37839681 (ipc=141.2) sim_rate=280293 (inst/sec) elapsed = 0:0:02:15 / Tue Mar 22 12:54:50 2016
GPGPU-Sim PTX: 37900000 instructions simulated : ctaid=(30,0,0) tid=(480,0,0)
GPGPU-Sim PTX: 38000000 instructions simulated : ctaid=(42,0,0) tid=(288,0,0)
GPGPU-Sim PTX: 38100000 instructions simulated : ctaid=(42,0,0) tid=(32,0,0)
GPGPU-Sim uArch: cycles simulated: 269500  inst.: 38132993 (ipc=141.5) sim_rate=280389 (inst/sec) elapsed = 0:0:02:16 / Tue Mar 22 12:54:51 2016
GPGPU-Sim PTX: 38200000 instructions simulated : ctaid=(38,0,0) tid=(128,0,0)
GPGPU-Sim PTX: 38300000 instructions simulated : ctaid=(34,0,0) tid=(192,0,0)
GPGPU-Sim PTX: 38400000 instructions simulated : ctaid=(44,0,0) tid=(0,0,0)
GPGPU-Sim uArch: cycles simulated: 271000  inst.: 38435617 (ipc=141.8) sim_rate=280551 (inst/sec) elapsed = 0:0:02:17 / Tue Mar 22 12:54:52 2016
GPGPU-Sim PTX: 38500000 instructions simulated : ctaid=(39,0,0) tid=(224,0,0)
GPGPU-Sim PTX: 38600000 instructions simulated : ctaid=(42,0,0) tid=(288,0,0)
GPGPU-Sim PTX: 38700000 instructions simulated : ctaid=(31,0,0) tid=(128,0,0)
GPGPU-Sim uArch: cycles simulated: 272500  inst.: 38750401 (ipc=142.2) sim_rate=280800 (inst/sec) elapsed = 0:0:02:18 / Tue Mar 22 12:54:53 2016
GPGPU-Sim PTX: 38800000 instructions simulated : ctaid=(34,0,0) tid=(320,0,0)
GPGPU-Sim PTX: 38900000 instructions simulated : ctaid=(38,0,0) tid=(448,0,0)
GPGPU-Sim PTX: 39000000 instructions simulated : ctaid=(40,0,0) tid=(96,0,0)
GPGPU-Sim PTX: 39100000 instructions simulated : ctaid=(37,0,0) tid=(320,0,0)
GPGPU-Sim uArch: cycles simulated: 274000  inst.: 39073377 (ipc=142.6) sim_rate=281103 (inst/sec) elapsed = 0:0:02:19 / Tue Mar 22 12:54:54 2016
GPGPU-Sim PTX: 39200000 instructions simulated : ctaid=(31,0,0) tid=(352,0,0)
GPGPU-Sim PTX: 39300000 instructions simulated : ctaid=(41,0,0) tid=(352,0,0)
GPGPU-Sim PTX: 39400000 instructions simulated : ctaid=(40,0,0) tid=(160,0,0)
GPGPU-Sim uArch: cycles simulated: 275500  inst.: 39392961 (ipc=143.0) sim_rate=281378 (inst/sec) elapsed = 0:0:02:20 / Tue Mar 22 12:54:55 2016
GPGPU-Sim PTX: 39500000 instructions simulated : ctaid=(33,0,0) tid=(32,0,0)
GPGPU-Sim PTX: 39600000 instructions simulated : ctaid=(33,0,0) tid=(128,0,0)
GPGPU-Sim PTX: 39700000 instructions simulated : ctaid=(40,0,0) tid=(96,0,0)
GPGPU-Sim uArch: cycles simulated: 277000  inst.: 39715489 (ipc=143.4) sim_rate=281670 (inst/sec) elapsed = 0:0:02:21 / Tue Mar 22 12:54:56 2016
GPGPU-Sim PTX: 39800000 instructions simulated : ctaid=(37,0,0) tid=(320,0,0)
GPGPU-Sim PTX: 39900000 instructions simulated : ctaid=(40,0,0) tid=(448,0,0)
GPGPU-Sim PTX: 40000000 instructions simulated : ctaid=(40,0,0) tid=(416,0,0)
GPGPU-Sim uArch: cycles simulated: 278500  inst.: 40035681 (ipc=143.8) sim_rate=281941 (inst/sec) elapsed = 0:0:02:22 / Tue Mar 22 12:54:57 2016
GPGPU-Sim PTX: 40100000 instructions simulated : ctaid=(31,0,0) tid=(352,0,0)
GPGPU-Sim PTX: 40200000 instructions simulated : ctaid=(32,0,0) tid=(288,0,0)
GPGPU-Sim PTX: 40300000 instructions simulated : ctaid=(39,0,0) tid=(256,0,0)
GPGPU-Sim PTX: 40400000 instructions simulated : ctaid=(35,0,0) tid=(384,0,0)
GPGPU-Sim uArch: cycles simulated: 280000  inst.: 40356289 (ipc=144.1) sim_rate=282211 (inst/sec) elapsed = 0:0:02:23 / Tue Mar 22 12:54:58 2016
GPGPU-Sim PTX: 40500000 instructions simulated : ctaid=(43,0,0) tid=(64,0,0)
GPGPU-Sim PTX: 40600000 instructions simulated : ctaid=(38,0,0) tid=(64,0,0)
GPGPU-Sim PTX: 40700000 instructions simulated : ctaid=(36,0,0) tid=(128,0,0)
GPGPU-Sim PTX: 40800000 instructions simulated : ctaid=(36,0,0) tid=(96,0,0)
GPGPU-Sim uArch: cycles simulated: 282000  inst.: 40786273 (ipc=144.6) sim_rate=283238 (inst/sec) elapsed = 0:0:02:24 / Tue Mar 22 12:54:59 2016
GPGPU-Sim PTX: 40900000 instructions simulated : ctaid=(41,0,0) tid=(480,0,0)
GPGPU-Sim PTX: 41000000 instructions simulated : ctaid=(43,0,0) tid=(416,0,0)
GPGPU-Sim PTX: 41100000 instructions simulated : ctaid=(41,0,0) tid=(256,0,0)
GPGPU-Sim uArch: cycles simulated: 283500  inst.: 41107393 (ipc=145.0) sim_rate=283499 (inst/sec) elapsed = 0:0:02:25 / Tue Mar 22 12:55:00 2016
GPGPU-Sim PTX: 41200000 instructions simulated : ctaid=(34,0,0) tid=(480,0,0)
GPGPU-Sim PTX: 41300000 instructions simulated : ctaid=(41,0,0) tid=(320,0,0)
GPGPU-Sim PTX: 41400000 instructions simulated : ctaid=(35,0,0) tid=(160,0,0)
[...]
traffic_breakdown_coretomem[CONST_ACC_R] = 120 {8:15,}
traffic_breakdown_coretomem[GLOBAL_ACC_R] = 9273504 {8:1159188,}
traffic_breakdown_coretomem[GLOBAL_ACC_W] = 4514512 {40:10327,72:1856,136:29175,}
traffic_breakdown_coretomem[INST_ACC_R] = 840 {8:105,}
traffic_breakdown_memtocore[CONST_ACC_R] = 1080 {72:15,}
traffic_breakdown_memtocore[GLOBAL_ACC_R] = 157649568 {136:1159188,}
traffic_breakdown_memtocore[GLOBAL_ACC_W] = 330864 {8:41358,}
traffic_breakdown_memtocore[INST_ACC_R] = 14280 {136:105,}
maxmrqlatency = 372 
maxdqlatency = 0 
maxmflatency = 1166 
averagemflatency = 290 
max_icnt2mem_latency = 1014 
max_icnt2sh_latency = 2042075 
mrq_lat_table:593645 	50650 	84229 	226812 	151141 	25708 	10199 	1514 	31 	0 	0 	0 	0 	0 	0 	0 	0 	0 	0 	0 	0 	0 	0 	0 	0 	0 	0 	0 	0 	0 	0 	0 	
dq_lat_table:0 	0 	0 	0 	0 	0 	0 	0 	0 	0 	0 	0 	0 	0 	0 	0 	0 	0 	0 	0 	0 	0 	0 	0 	0 	0 	0 	0 	0 	0 	0 	0 	
mf_lat_table:0 	0 	0 	0 	0 	0 	0 	20931 	1157643 	21961 	26 	0 	0 	0 	0 	0 	0 	0 	0 	0 	0 	0 	0 	0 	0 	0 	0 	0 	0 	0 	0 	0 	
icnt2mem_lat_table:0 	0 	0 	1107353 	10357 	12449 	30103 	28152 	11745 	507 	0 	0 	0 	0 	0 	0 	0 	0 	0 	0 	0 	0 	0 	0 	
icnt2sh_lat_table:0 	0 	0 	414826 	688443 	52984 	2944 	6 	0 	0 	0 	0 	0 	0 	0 	0 	0 	6590 	7927 	16601 	10240 	0 	0 	0 	
mf_lat_pw_table:0 	0 	0 	0 	0 	0 	0 	22 	4047 	13 	0 	0 	0 	0 	0 	0 	0 	0 	0 	0 	0 	0 	0 	0 	0 	0 	0 	0 	0 	0 	0 	0 	
maximum concurrent accesses to same row:
dram[0]:        32        32        62        62        50        48        60        62        62        64        56        48        64        62        32        42 
dram[1]:        32        33        62        50        52        50        60        62        62        62        48        36        64        62        32        42 
dram[2]:        34        32        62        60        52        62        60        62        60        62        46        50        64        62        36        32 
dram[3]:        34        32        62        60        52        62        60        62        62        62        46        41        64        62        33        32 
dram[4]:        32        32        62        60        62        62        62        62        64        62        48        50        62        62        40        32 
dram[5]:        33        33        62        60        60        62        62        62        64        62        32        40        62        62        42        32 
maximum service time to same row:
dram[0]:    163795    164622    166682    166854    167824    167656    162376    162351    163248    163357    162447    162426    169738    169715    164766    164709 
dram[1]:     86700    164619    166674     88487    167723    167625    162372    162347    163250    163406    162441    162422    169741    169718    164807    164724 
dram[2]:    162035    164626    166709    166806    167876    167678    162369    163221    163249    163322    162436    162494    169742    169822    164923    162950 
dram[3]:    163544    164610    166755    166804    167837    167645    162363    163223    163255    163295    162429    162488    169649    169823    164772    164965 
dram[4]:    164631    164607    166829    166894    167483    167666    162359    163223    163366    163333    162439    162460    169717    169823    164705    164791 
dram[5]:    164626    164601    166810    166867    167564    167713    162354    163228    163392    163335    162432    162460    169714    169822    164766    165024 
average row accesses per activate:
dram[0]:  5.436036  6.011952  4.867323  4.707346  4.927295  5.070543  5.924303  6.324296  4.849796  5.372514  4.647843  4.398664  5.893479  6.231579  4.702145  4.286749 
dram[1]:  6.735754  4.887672  6.472313  5.087375  4.472096  4.964420  5.686424  4.835773  5.554932  5.338724  4.779032  4.257995  6.403461  7.077107  5.114471  4.862423 
dram[2]:  5.573407  6.021457  5.792031  5.925373  4.256999  4.867568  6.496996  5.123857  4.502463  4.829407  5.168775  4.090438  6.084275  6.158004  4.640815  4.942845 
dram[3]:  5.693579  6.825028  5.910263  6.212832  4.854687  5.121120  4.829491  6.437230  5.290294  4.402443  4.389630  4.634337  5.159041  6.716553  4.417911  4.793522 
dram[4]:  5.532813  6.037538  5.280266  5.858337  5.120898  5.001687  5.959920  5.730250  5.044143  4.577042  4.535017  4.127482  5.057661  5.769980  4.552095  4.555598 
dram[5]:  5.902642  5.567930  5.962945  4.896381  4.834896  4.485444  5.663178  5.884330  5.924227  5.257522  5.312724  4.194690  7.154078  5.803743  3.963843  4.274368 
average row locality = 1143929/220202 = 5.194907
number of total memory accesses made:
dram[0]:         0         0         0         0         0         0         0         0         0         0         0         0         0         0         0         0 
dram[1]:         0         0         0         0         0         0         0         0         0         0         0         0         0         0         0         0 
dram[2]:         0         0         0         0         0         0         0         0         0         0         0         0         0         0         0         0 
dram[3]:         0         0         0         0         0         0         0         0         0         0         0         0         0         0         0         0 
dram[4]:         0         0         0         0         0         0         0         0         0         0         0         0         0         0         0         0 
dram[5]:         0         0         0         0         0         0         0         0         0         0         0         0         0         0         0         0 
total accesses: 0
min_bank_accesses = 0!
min_chip_accesses = 0!
number of total read accesses:
dram[0]:     11619     11616     12015     11572     11562     11562     11584     11584     11584     11584     11564     11562     11552     11552     11552     11552 
dram[1]:     11618     11616     11576     11830     11562     11562     11584     11584     11584     11584     11564     11562     11552     11552     11552     11552 
dram[2]:     11618     11616     11576     11572     11562     11572     11584     12016     11584     11592     11564     11562     11552     11560     11560     11560 
dram[3]:     11618     11616     11576     11572     11562     11581     11839     11584     11584     11593     11564     11562     11552     11560     11552     11552 
dram[4]:     11616     11616     11572     11572     11562     11564     11584     11584     11584     11584     11562     11562     11992     11552     11552     11552 
dram[5]:     11616     11616     11572     11572     11562     11564     11592     11592     11584     11584     11570     11562     11552     11807     11552     11552 
total reads: 1113226
bank skew: 12016/11552 = 1.04
chip skew: 185650/185434 = 1.00
number of total write accesses:
dram[0]:       449       456       348       347       298       298       312       312       298       300       288       288       288       288       288       288 
dram[1]:       439       437       346       339       298       298       312       312       298       300       288       288       288       288       288       288 
dram[2]:       454       451       344       338       298       300       312       312       298       298       288       288       288       288       288       288 
dram[3]:       441       437       345       338       298       300       312       312       298       298       288       288       288       288       288       288 
dram[4]:       440       447       335       338       298       300       312       312       300       298       288       288       288       288       288       288 
dram[5]:       449       433       336       336       298       300       312       312       300       298       288       288       288       288       288       288 
total reads: 30703
bank skew: 456/288 = 1.58
chip skew: 5146/5102 = 1.01
average mf latency per bank:
dram[0]:        296       296       440       294       293       295       297       297       298       295       295       295       293       294       295       295
dram[1]:        294       294       293       374       292       294       296       295       296       292       296       293       294       292       295       295
dram[2]:        294       301       293       297       293       306       294       449       294       311       295       302       294       304       299       306
dram[3]:        293       303       292       298       293       317       375       303       294       314       295       302       293       306       294       303
dram[4]:        297       295       295       294       296       296       300       297       297       298       296       296       442       296       295       297
dram[5]:        294       297       293       294       294       296       302       303       294       297       301       296       292       375       294       298
maximum mf latency per bank:
dram[0]:        947       904       813       790       854       837       937       861       911       837       853       850       934       841       948      1005
dram[1]:        911       846       857       879       868       860       916       848       896       837       855       906       882       841       912       952
dram[2]:        877       968       823      1019       789      1080       868       950       822       986       869       883       834       901      1039      1026
dram[3]:        850       986       786      1166       879      1019       809      1072       851      1057       861      1041       807       974       981      1126
dram[4]:        926       829       916       909       879       962      1055       900       844       950       949       823       844       854      1117      1059
dram[5]:        910       851       846       878       813       914      1014       874       899       889       854       842       809       896       997      1092

Number of Memory Banks Accessed per Memory Operation per Warp (from 0):
0	0	0	0	0	0	0	0	0	0	0	0	0	0	0	0	0	0	0	0	0	0	0	0	0	0	0	0	0	0	0	0	0	0	0	0	0	0	0	0	0	0	0	0	0	0	0	0	0	0	0	0	0	0	0	0	0	0	0	0	0	0	0	0	0	0	0	0	0	0	0	0	0	0	0	0	0	0	0	0	0	0	0	0	0	0	0	0	0	0	0	0	0	0	0	0	
Average # of Memory Banks Accessed per Memory Operation per Warp=-nan

position of mrq chosen
0	0	0	0	0	0	0	0	0	0	0	0	0	0	0	0	

average position of mrq chosen = -nan
Memory Partition 0: 
Cache L2_bank_000:
MSHR contents

Cache L2_bank_001:
MSHR contents

In Dram Latency Queue (total = 0): 
DRAM[0]: 16 bks, busW=4 BL=8 CL=12, tRRD=2 tCCD=6, tRCD=12 tRAS=28 tRP=12 tRC=40
n_cmd=2695538 n_nop=2240256 n_act=37030 n_pre=37014 n_req=190762 n_rd=371232 n_write=10006 bw_util=0.2829
n_activity=1696992 dram_eff=0.4493
bk0: 23238a 2554203i bk1: 23232a 2545307i bk2: 24030a 2545907i bk3: 23144a 2537630i bk4: 23124a 2548602i bk5: 23124a 2541646i bk6: 23168a 2556718i bk7: 23168a 2553166i bk8: 23168a 2556699i bk9: 23168a 2554901i bk10: 23128a 2544687i bk11: 23124a 2542104i bk12: 23104a 2561673i bk13: 23104a 2558436i bk14: 23104a 2548303i bk15: 23104a 2532234i 
dram_util_bins: 0 0 0 0 0 0 0 0 0 0
dram_eff_bins: 0 0 0 0 0 0 0 0 0 0
mrqq: max=16 avg=0.650879
Memory Partition 1: 
Cache L2_bank_002:
MSHR contents

Cache L2_bank_003:
MSHR contents

In Dram Latency Queue (total = 0): 
DRAM[1]: 16 bks, busW=4 BL=8 CL=12, tRRD=2 tCCD=6, tRCD=12 tRAS=28 tRP=12 tRC=40
n_cmd=2695538 n_nop=2242751 n_act=35983 n_pre=35967 n_req=190541 n_rd=370868 n_write=9969 bw_util=0.2826
n_activity=1703039 dram_eff=0.4472
bk0: 23236a 2566180i bk1: 23232a 2539347i bk2: 23152a 2564462i bk3: 23660a 2550814i bk4: 23124a 2540018i bk5: 23124a 2541464i bk6: 23168a 2550768i bk7: 23168a 2541177i bk8: 23168a 2561787i bk9: 23168a 2554779i bk10: 23128a 2546933i bk11: 23124a 2540632i bk12: 23104a 2565594i bk13: 23104a 2564252i bk14: 23104a 2551176i bk15: 23104a 2535412i 
dram_util_bins: 0 0 0 0 0 0 0 0 0 0
dram_eff_bins: 0 0 0 0 0 0 0 0 0 0
mrqq: max=16 avg=0.656568
Memory Partition 2: 
Cache L2_bank_004:
MSHR contents

Cache L2_bank_005:
MSHR contents

In Dram Latency Queue (total = 0): 
DRAM[2]: 16 bks, busW=4 BL=8 CL=12, tRRD=2 tCCD=6, tRCD=12 tRAS=28 tRP=12 tRC=40
n_cmd=2695538 n_nop=2240640 n_act=36811 n_pre=36795 n_req=190783 n_rd=371300 n_write=9992 bw_util=0.2829
n_activity=1702211 dram_eff=0.448
bk0: 23236a 2558132i bk1: 23232a 2549622i bk2: 23152a 2566574i bk3: 23144a 2561988i bk4: 23124a 2542857i bk5: 23144a 2543920i bk6: 23168a 2560706i bk7: 24032a 2528448i bk8: 23168a 2552270i bk9: 23184a 2537916i bk10: 23128a 2557934i bk11: 23124a 2528417i bk12: 23104a 2560671i bk13: 23120a 2556729i bk14: 23120a 2537973i bk15: 23120a 2521327i 
dram_util_bins: 0 0 0 0 0 0 0 0 0 0
dram_eff_bins: 0 0 0 0 0 0 0 0 0 0
mrqq: max=16 avg=0.662538
Memory Partition 3: 
Cache L2_bank_006:
MSHR contents

Cache L2_bank_007:
MSHR contents

In Dram Latency Queue (total = 0): 
DRAM[3]: 16 bks, busW=4 BL=8 CL=12, tRRD=2 tCCD=6, tRCD=12 tRAS=28 tRP=12 tRC=40
n_cmd=2695538 n_nop=2241937 n_act=36358 n_pre=36342 n_req=190574 n_rd=370934 n_write=9967 bw_util=0.2826
n_activity=1704878 dram_eff=0.4468
bk0: 23236a 2558183i bk1: 23232a 2553990i bk2: 23152a 2569678i bk3: 23144a 2568206i bk4: 23124a 2550246i bk5: 23162a 2545155i bk6: 23678a 2545487i bk7: 23168a 2548697i bk8: 23168a 2563430i bk9: 23186a 2533678i bk10: 23128a 2546653i bk11: 23124a 2528798i bk12: 23104a 2550518i bk13: 23120a 2560046i bk14: 23104a 2539378i bk15: 23104a 2522277i 
dram_util_bins: 0 0 0 0 0 0 0 0 0 0
dram_eff_bins: 0 0 0 0 0 0 0 0 0 0
mrqq: max=16 avg=0.664
Memory Partition 4: 
Cache L2_bank_008:
MSHR contents

Cache L2_bank_009:
MSHR contents

In Dram Latency Queue (total = 0): 
DRAM[4]: 16 bks, busW=4 BL=8 CL=12, tRRD=2 tCCD=6, tRCD=12 tRAS=28 tRP=12 tRC=40
n_cmd=2695538 n_nop=2239680 n_act=37341 n_pre=37325 n_req=190718 n_rd=371220 n_write=9972 bw_util=0.2828
n_activity=1702295 dram_eff=0.4479
bk0: 23232a 2553993i bk1: 23232a 2556570i bk2: 23144a 2557745i bk3: 23144a 2558124i bk4: 23124a 2552835i bk5: 23128a 2544551i bk6: 23168a 2557547i bk7: 23168a 2544800i bk8: 23168a 2558651i bk9: 23168a 2549360i bk10: 23124a 2552253i bk11: 23124a 2531913i bk12: 23984a 2548781i bk13: 23104a 2548857i bk14: 23104a 2541211i bk15: 23104a 2529734i 
dram_util_bins: 0 0 0 0 0 0 0 0 0 0
dram_eff_bins: 0 0 0 0 0 0 0 0 0 0
mrqq: max=16 avg=0.653839
Memory Partition 5: 
Cache L2_bank_010:
MSHR contents

Cache L2_bank_011:
MSHR contents

In Dram Latency Queue (total = 0): 
DRAM[5]: 16 bks, busW=4 BL=8 CL=12, tRRD=2 tCCD=6, tRCD=12 tRAS=28 tRP=12 tRC=40
n_cmd=2695538 n_nop=2241333 n_act=36679 n_pre=36663 n_req=190551 n_rd=370898 n_write=9965 bw_util=0.2826
n_activity=1704776 dram_eff=0.4468
bk0: 23232a 2558622i bk1: 23232a 2550918i bk2: 23144a 2562861i bk3: 23144a 2547026i bk4: 23124a 2549736i bk5: 23128a 2538535i bk6: 23184a 2556519i bk7: 23184a 2540751i bk8: 23168a 2567363i bk9: 23168a 2556902i bk10: 23140a 2558852i bk11: 23124a 2536810i bk12: 23104a 2569444i bk13: 23614a 2556158i bk14: 23104a 2530324i bk15: 23104a 2526209i 
dram_util_bins: 0 0 0 0 0 0 0 0 0 0
dram_eff_bins: 0 0 0 0 0 0 0 0 0 0
mrqq: max=16 avg=0.653737

========= L2 cache stats =========
L2_cache_bank[0]: Access = 104214, Miss = 93032, Miss_rate = 0.893, Pending_hits = 1128, Reservation_fails = 27348
L2_cache_bank[1]: Access = 97032, Miss = 92584, Miss_rate = 0.954, Pending_hits = 63, Reservation_fails = 709
L2_cache_bank[2]: Access = 97172, Miss = 92592, Miss_rate = 0.953, Pending_hits = 43, Reservation_fails = 907
L2_cache_bank[3]: Access = 101020, Miss = 92842, Miss_rate = 0.919, Pending_hits = 806, Reservation_fails = 28646
L2_cache_bank[4]: Access = 97378, Miss = 92600, Miss_rate = 0.951, Pending_hits = 69, Reservation_fails = 755
L2_cache_bank[5]: Access = 105072, Miss = 93050, Miss_rate = 0.886, Pending_hits = 1153, Reservation_fails = 28063
L2_cache_bank[6]: Access = 100879, Miss = 92847, Miss_rate = 0.920, Pending_hits = 807, Reservation_fails = 28554
L2_cache_bank[7]: Access = 98030, Miss = 92620, Miss_rate = 0.945, Pending_hits = 76, Reservation_fails = 1433
L2_cache_bank[8]: Access = 104160, Miss = 93024, Miss_rate = 0.893, Pending_hits = 1088, Reservation_fails = 26672
L2_cache_bank[9]: Access = 97204, Miss = 92586, Miss_rate = 0.952, Pending_hits = 43, Reservation_fails = 653
L2_cache_bank[10]: Access = 97381, Miss = 92600, Miss_rate = 0.951, Pending_hits = 66, Reservation_fails = 715
L2_cache_bank[11]: Access = 101124, Miss = 92849, Miss_rate = 0.918, Pending_hits = 802, Reservation_fails = 28872
L2_total_cache_accesses = 1200666
L2_total_cache_misses = 1113226
L2_total_cache_miss_rate = 0.9272
L2_total_cache_pending_hits = 6144
L2_total_cache_reservation_fails = 173327
L2_total_cache_breakdown:
	L2_cache_stats_breakdown[GLOBAL_ACC_R][HIT] = 41384
	L2_cache_stats_breakdown[GLOBAL_ACC_R][HIT_RESERVED] = 5611
	L2_cache_stats_breakdown[GLOBAL_ACC_R][MISS] = 1112193
	L2_cache_stats_breakdown[GLOBAL_ACC_R][RESERVATION_FAIL] = 172688
	L2_cache_stats_breakdown[CONST_ACC_R][HIT] = 11
	L2_cache_stats_breakdown[CONST_ACC_R][HIT_RESERVED] = 3
	L2_cache_stats_breakdown[CONST_ACC_R][MISS] = 1
	L2_cache_stats_breakdown[CONST_ACC_R][RESERVATION_FAIL] = 109
	L2_cache_stats_breakdown[GLOBAL_ACC_W][HIT] = 39823
	L2_cache_stats_breakdown[GLOBAL_ACC_W][HIT_RESERVED] = 510
	L2_cache_stats_breakdown[GLOBAL_ACC_W][MISS] = 1025
	L2_cache_stats_breakdown[GLOBAL_ACC_W][RESERVATION_FAIL] = 3
	L2_cache_stats_breakdown[INST_ACC_R][HIT] = 78
	L2_cache_stats_breakdown[INST_ACC_R][HIT_RESERVED] = 20
	L2_cache_stats_breakdown[INST_ACC_R][MISS] = 7
	L2_cache_stats_breakdown[INST_ACC_R][RESERVATION_FAIL] = 527
L2_cache_data_port_util = 0.017
L2_cache_fill_port_util = 0.182

icnt_total_pkts_mem_to_simt=5837868
icnt_total_pkts_simt_to_mem=1331405
LD_mem_lat_dist  0 0 0 0 0 0 0 0 0 0 0 0 0 0 0 0 0 0 0 0 0 0 0 0 0 0 0
ST_mem_lat_dist  0 0 0 0 0 0 0 0 0 0 0 0 0 0 0 0 0 0 0 0 0 0 0 0 0 0 0
----------------------------Interconnect-DETAILS--------------------------------
Class 0:
Packet latency average = 12.8914
	minimum = 6
	maximum = 430
Network latency average = 11.0421
	minimum = 6
	maximum = 381
Slowest packet = 1393245
Flit latency average = 10.1152
	minimum = 6
	maximum = 380
Slowest flit = 5744027
Fragmentation average = 0.00346081
	minimum = 0
	maximum = 230
Injected packet rate average = 0.0423701
	minimum = 0.0357794 (at node 10)
	maximum = 0.0505477 (at node 18)
Accepted packet rate average = 0.0423701
	minimum = 0.0357794 (at node 10)
	maximum = 0.0505477 (at node 18)
Injected flit rate average = 0.126876
	minimum = 0.03794 (at node 10)
	maximum = 0.249345 (at node 18)
Accepted flit rate average= 0.126876
	minimum = 0.0495474 (at node 16)
	maximum = 0.198107 (at node 0)
Injected packet length average = 2.99446
Accepted packet length average = 2.99446
Total in-flight flits = 0 (0 measured)
====== Overall Traffic Statistics ======
====== Traffic class 0 ======
Packet latency average = 14.4404 (2 samples)
	minimum = 6 (2 samples)
	maximum = 550 (2 samples)
Network latency average = 12.0161 (2 samples)
	minimum = 6 (2 samples)
	maximum = 497 (2 samples)
Flit latency average = 10.4452 (2 samples)
	minimum = 6 (2 samples)
	maximum = 496.5 (2 samples)
Fragmentation average = 0.0101285 (2 samples)
	minimum = 0 (2 samples)
	maximum = 355 (2 samples)
Injected packet rate average = 0.0435286 (2 samples)
	minimum = 0.0366772 (2 samples)
	maximum = 0.0532036 (2 samples)
Accepted packet rate average = 0.0435286 (2 samples)
	minimum = 0.0366772 (2 samples)
	maximum = 0.0532036 (2 samples)
Injected flit rate average = 0.129964 (2 samples)
	minimum = 0.0406284 (2 samples)
	maximum = 0.259383 (2 samples)
Accepted flit rate average = 0.129964 (2 samples)
	minimum = 0.0526996 (2 samples)
	maximum = 0.201218 (2 samples)
Injected packet size average = 2.98572 (2 samples)
Accepted packet size average = 2.98572 (2 samples)
Hops average = 1 (2 samples)
