

        *** GPGPU-Sim Simulator Version 3.2.2  [build 0] ***


GPGPU-Sim PTX: simulation mode 0 (can change with PTX_SIM_MODE_FUNC environment variable:
               1=functional simulation only, 0=detailed performance simulator)
GPGPU-Sim: Configuration options:

-network_mode                           1 # Interconnection network mode
-inter_config_file   config_fermi_islip.icnt # Interconnection network config file
-gpgpu_ptx_use_cuobjdump                    1 # Use cuobjdump to extract ptx and sass from binaries
-gpgpu_experimental_lib_support                    0 # Try to extract code from cuda libraries [Broken because of unknown cudaGetExportTable]
-gpgpu_ptx_convert_to_ptxplus                    0 # Convert SASS (native ISA) to ptxplus and run ptxplus
-gpgpu_ptx_force_max_capability                   20 # Force maximum compute capability
-gpgpu_ptx_inst_debug_to_file                    0 # Dump executed instructions' debug information to file
-gpgpu_ptx_inst_debug_file       inst_debug.txt # Executed instructions' debug output file
-gpgpu_ptx_inst_debug_thread_uid                    1 # Thread UID for executed instructions' debug output
-gpgpu_simd_model                       1 # 1 = post-dominator
-gpgpu_shader_core_pipeline              1536:32 # shader core pipeline config, i.e., {<nthread>:<warpsize>}
-gpgpu_tex_cache:l1  4:128:24,L:R:m:N:L,F:128:4,128:2 # per-shader L1 texture cache  (READ-ONLY) config  {<nsets>:<bsize>:<assoc>,<rep>:<wr>:<alloc>:<wr_alloc>,<mshr>:<N>:<merge>,<mq>:<rf>}
-gpgpu_const_cache:l1 64:64:2,L:R:f:N:L,A:2:32,4 # per-shader L1 constant memory cache  (READ-ONLY) config  {<nsets>:<bsize>:<assoc>,<rep>:<wr>:<alloc>:<wr_alloc>,<mshr>:<N>:<merge>,<mq>} 
-gpgpu_cache:il1     4:128:4,L:R:f:N:L,A:2:32,4 # shader L1 instruction cache config  {<nsets>:<bsize>:<assoc>,<rep>:<wr>:<alloc>:<wr_alloc>,<mshr>:<N>:<merge>,<mq>} 
-gpgpu_cache:dl1     32:128:4,L:L:m:N:H,A:32:8,8:2,0,1:0:1:1:0:1,1:4:8:16:32:64,/sciclone/data10/hwang07/GPU_RESEARCH/swl/swl_outputs/RESULTS/swl1/ # per-shader L1 data cache config  {<nsets>:<bsize>:<assoc>,<rep>:<wr>:<alloc>:<wr_alloc>,<mshr>:<N>:<merge>,<mq> | none}
-gpgpu_cache:dl1PrefL1                 none # per-shader L1 data cache config  {<nsets>:<bsize>:<assoc>,<rep>:<wr>:<alloc>:<wr_alloc>,<mshr>:<N>:<merge>,<mq> | none}
-gpgpu_cache:dl1PreShared                 none # per-shader L1 data cache config  {<nsets>:<bsize>:<assoc>,<rep>:<wr>:<alloc>:<wr_alloc>,<mshr>:<N>:<merge>,<mq> | none}
-gmem_skip_L1D                          0 # global memory access skip L1D cache (implements -Xptxas -dlcm=cg, default=no skip)
-gpgpu_perfect_mem                      0 # enable perfect memory mode (no cache miss)
-n_regfile_gating_group                    4 # group of lanes that should be read/written together)
-gpgpu_clock_gated_reg_file                    0 # enable clock gated reg file for power calculations
-gpgpu_clock_gated_lanes                    0 # enable clock gated lanes for power calculations
-gpgpu_shader_registers                32768 # Number of registers per shader core. Limits number of concurrent CTAs. (default 8192)
-gpgpu_shader_cta                       8 # Maximum number of concurrent CTAs in shader (default 8)
-gpgpu_num_cta_barriers                   16 # Maximum number of named barriers per CTA (default 16)
-gpgpu_n_clusters                      15 # number of processing clusters
-gpgpu_n_cores_per_cluster                    1 # number of simd cores per cluster
-gpgpu_n_cluster_ejection_buffer_size                    8 # number of packets in ejection buffer
-gpgpu_n_ldst_response_buffer_size                    2 # number of response packets in ld/st unit ejection buffer
-gpgpu_shmem_size                   16384 # Size of shared memory per shader core (default 16kB)
-gpgpu_shmem_size                   49152 # Size of shared memory per shader core (default 16kB)
-gpgpu_shmem_size_PrefL1                16384 # Size of shared memory per shader core (default 16kB)
-gpgpu_shmem_size_PrefShared                16384 # Size of shared memory per shader core (default 16kB)
-gpgpu_shmem_num_banks                   32 # Number of banks in the shared memory in each shader core (default 16)
-gpgpu_shmem_limited_broadcast                    0 # Limit shared memory to do one broadcast per cycle (default on)
-gpgpu_shmem_warp_parts                    1 # Number of portions a warp is divided into for shared memory bank conflict check 
-gpgpu_warpdistro_shader                   -1 # Specify which shader core to collect the warp size distribution from
-gpgpu_warp_issue_shader                    0 # Specify which shader core to collect the warp issue distribution from
-gpgpu_local_mem_map                    1 # Mapping from local memory space address to simulated GPU physical address space (default = enabled)
-gpgpu_num_reg_banks                   16 # Number of register banks (default = 8)
-gpgpu_reg_bank_use_warp_id                    0 # Use warp ID in mapping registers to banks (default = off)
-gpgpu_operand_collector_num_units_sp                    6 # number of collector units (default = 4)
-gpgpu_operand_collector_num_units_sfu                    8 # number of collector units (default = 4)
-gpgpu_operand_collector_num_units_mem                    2 # number of collector units (default = 2)
-gpgpu_operand_collector_num_units_gen                    0 # number of collector units (default = 0)
-gpgpu_operand_collector_num_in_ports_sp                    2 # number of collector unit in ports (default = 1)
-gpgpu_operand_collector_num_in_ports_sfu                    1 # number of collector unit in ports (default = 1)
-gpgpu_operand_collector_num_in_ports_mem                    1 # number of collector unit in ports (default = 1)
-gpgpu_operand_collector_num_in_ports_gen                    0 # number of collector unit in ports (default = 0)
-gpgpu_operand_collector_num_out_ports_sp                    2 # number of collector unit in ports (default = 1)
-gpgpu_operand_collector_num_out_ports_sfu                    1 # number of collector unit in ports (default = 1)
-gpgpu_operand_collector_num_out_ports_mem                    1 # number of collector unit in ports (default = 1)
-gpgpu_operand_collector_num_out_ports_gen                    0 # number of collector unit in ports (default = 0)
-gpgpu_coalesce_arch                   13 # Coalescing arch (default = 13, anything else is off for now)
-gpgpu_num_sched_per_core                    2 # Number of warp schedulers per core
-gpgpu_max_insn_issue_per_warp                    1 # Max number of instructions that can be issued per warp in one cycle by scheduler
-gpgpu_simt_core_sim_order                    1 # Select the simulation order of cores in a cluster (0=Fix, 1=Round-Robin)
-gpgpu_pipeline_widths        2,1,1,2,1,1,2 # Pipeline widths ID_OC_SP,ID_OC_SFU,ID_OC_MEM,OC_EX_SP,OC_EX_SFU,OC_EX_MEM,EX_WB
-gpgpu_num_sp_units                     2 # Number of SP units (default=1)
-gpgpu_num_sfu_units                    1 # Number of SF units (default=1)
-gpgpu_num_mem_units                    1 # Number if ldst units (default=1) WARNING: not hooked up to anything
-gpgpu_scheduler        warp_limiting:2:1 # Scheduler configuration: < lrr | gto | two_level_active > If two_level_active:<num_active_warps>:<inner_prioritization>:<outer_prioritization>For complete list of prioritization values see shader.h enum scheduler_prioritization_typeDefault: gto
-gpgpu_dram_scheduler                    1 # 0 = fifo, 1 = FR-FCFS (defaul)
-gpgpu_dram_partition_queues              8:8:8:8 # i2$:$2d:d2$:$2i
-l2_ideal                               0 # Use a ideal L2 cache that always hit
-gpgpu_cache:dl2     64:128:8,L:B:m:W:L,A:32:4,4:0,32 # unified banked L2 data cache config  {<nsets>:<bsize>:<assoc>,<rep>:<wr>:<alloc>:<wr_alloc>,<mshr>:<N>:<merge>,<mq>}
-gpgpu_cache:dl2_texture_only                    0 # L2 cache used for texture only
-gpgpu_n_mem                            6 # number of memory modules (e.g. memory controllers) in gpu
-gpgpu_n_sub_partition_per_mchannel                    2 # number of memory subpartition in each memory module
-gpgpu_n_mem_per_ctrlr                    2 # number of memory chips per memory controller
-gpgpu_memlatency_stat                   14 # track and display latency statistics 0x2 enables MC, 0x4 enables queue logs
-gpgpu_frfcfs_dram_sched_queue_size                   16 # 0 = unlimited (default); # entries per chip
-gpgpu_dram_return_queue_size                  116 # 0 = unlimited (default); # entries per chip
-gpgpu_dram_buswidth                    4 # default = 4 bytes (8 bytes per cycle at DDR)
-gpgpu_dram_burst_length                    8 # Burst length of each DRAM request (default = 4 data bus cycle)
-dram_data_command_freq_ratio                    4 # Frequency ratio between DRAM data bus and command bus (default = 2 times, i.e. DDR)
-gpgpu_dram_timing_opt nbk=16:CCD=2:RRD=6:RCD=12:RAS=28:RP=12:RC=40: CL=12:WL=4:CDLR=5:WR=12:nbkgrp=4:CCDL=3:RTPL=2 # DRAM timing parameters = {nbk:tCCD:tRRD:tRCD:tRAS:tRP:tRC:CL:WL:tCDLR:tWR:nbkgrp:tCCDL:tRTPL}
-rop_latency                          120 # ROP queue latency (default 85)
-dram_latency                         100 # DRAM latency (default 30)
-gpgpu_mem_addr_mapping dramid@8;00000000.00000000.00000000.00000000.0000RRRR.RRRRRRRR.BBBCCCCB.CCSSSSSS # mapping memory address to dram model {dramid@<start bit>;<memory address map>}
-gpgpu_mem_addr_test                    0 # run sweep test to check address mapping for aliased address
-gpgpu_mem_address_mask                    1 # 0 = old addressing mask, 1 = new addressing mask, 2 = new add. mask + flipped bank sel and chip sel bits
-gpuwattch_xml_file  gpuwattch_gtx480.xml # GPUWattch XML file
-power_simulation_enabled                    0 # Turn on power simulator (1=On, 0=Off)
-power_per_cycle_dump                    0 # Dump detailed power output each cycle
-power_trace_enabled                    0 # produce a file for the power trace (1=On, 0=Off)
-power_trace_zlevel                     6 # Compression level of the power trace output log (0=no comp, 9=highest)
-steady_power_levels_enabled                    0 # produce a file for the steady power levels (1=On, 0=Off)
-steady_state_definition                  8:4 # allowed deviation:number of samples
-gpgpu_max_cycle                        0 # terminates gpu simulation early (0 = no limit)
-gpgpu_max_insn                         0 # terminates gpu simulation early (0 = no limit)
-gpgpu_max_cta                          0 # terminates gpu simulation early (0 = no limit)
-gpgpu_runtime_stat                   500 # display runtime statistics such as dram utilization {<freq>:<flag>}
-liveness_message_freq                    1 # Minimum number of seconds between simulation liveness messages (0 = always print)
-gpgpu_flush_l1_cache                    0 # Flush L1 cache at the end of each kernel call
-gpgpu_flush_l2_cache                    0 # Flush L2 cache at the end of each kernel call
-gpgpu_deadlock_detect                    1 # Stop the simulation at deadlock (1=on (default), 0=off)
-gpgpu_ptx_instruction_classification                    0 # if enabled will classify ptx instruction types per kernel (Max 255 kernels now)
-gpgpu_ptx_sim_mode                     0 # Select between Performance (default) or Functional simulation (1)
-gpgpu_clock_domains 700.0:700.0:700.0:924.0 # Clock Domain Frequencies in MhZ {<Core Clock>:<ICNT Clock>:<L2 Clock>:<DRAM Clock>}
-gpgpu_max_concurrent_kernel                    8 # maximum kernels that can run concurrently on GPU
-gpgpu_cflog_interval                    0 # Interval between each snapshot in control flow logger
-visualizer_enabled                     0 # Turn on visualizer output (1=On, 0=Off)
-visualizer_outputfile                 NULL # Specifies the output log file for visualizer
-visualizer_zlevel                      6 # Compression level of the visualizer output log (0=no comp, 9=highest)
-trace_enabled                          0 # Turn on traces
-trace_components                    none # comma seperated list of traces to enable. Complete list found in trace_streams.tup. Default none
-trace_sampling_core                    0 # The core which is printed using CORE_DPRINTF. Default 0
-trace_sampling_memory_partition                   -1 # The memory partition which is printed using MEMPART_DPRINTF. Default -1 (i.e. all)
-enable_ptx_file_line_stats                    1 # Turn on PTX source line statistic profiling. (1 = On)
-ptx_line_stats_filename gpgpu_inst_stats.txt # Output file for PTX source line statistics.
-save_embedded_ptx                      0 # saves ptx files embedded in binary as <n>.ptx
-keep                                   0 # keep intermediate files created by GPGPU-Sim when interfacing with external programs
-gpgpu_ptx_save_converted_ptxplus                    0 # Saved converted ptxplus to a file
-ptx_opcode_latency_int         4,13,4,5,145 # Opcode latencies for integers <ADD,MAX,MUL,MAD,DIV>Default 1,1,19,25,145
-ptx_opcode_latency_fp          4,13,4,5,39 # Opcode latencies for single precision floating points <ADD,MAX,MUL,MAD,DIV>Default 1,1,1,1,30
-ptx_opcode_latency_dp         8,19,8,8,330 # Opcode latencies for double precision floating points <ADD,MAX,MUL,MAD,DIV>Default 8,8,8,8,335
-ptx_opcode_initiation_int            1,2,2,1,8 # Opcode initiation intervals for integers <ADD,MAX,MUL,MAD,DIV>Default 1,1,4,4,32
-ptx_opcode_initiation_fp            1,2,1,1,4 # Opcode initiation intervals for single precision floating points <ADD,MAX,MUL,MAD,DIV>Default 1,1,1,1,5
-ptx_opcode_initiation_dp         8,16,8,8,130 # Opcode initiation intervals for double precision floating points <ADD,MAX,MUL,MAD,DIV>Default 8,8,8,8,130
DRAM Timing Options:
nbk                                    16 # number of banks
CCD                                     2 # column to column delay
RRD                                     6 # minimal delay between activation of rows in different banks
RCD                                    12 # row to column delay
RAS                                    28 # time needed to activate row
RP                                     12 # time needed to precharge (deactivate) row
RC                                     40 # row cycle time
CDLR                                    5 # switching from write to read (changes tWTR)
WR                                     12 # last data-in to row precharge
CL                                     12 # CAS latency
WL                                      4 # Write latency
nbkgrp                                  4 # number of bank groups
CCDL                                    3 # column to column delay between accesses to different bank groups
RTPL                                    2 # read to precharge delay between accesses to different bank groups
Total number of memory sub partition = 12
addr_dec_mask[CHIP]  = 0000000000000000 	high:64 low:0
addr_dec_mask[BK]    = 000000000000e100 	high:16 low:8
addr_dec_mask[ROW]   = 000000000fff0000 	high:28 low:16
addr_dec_mask[COL]   = 0000000000001eff 	high:13 low:0
addr_dec_mask[BURST] = 000000000000003f 	high:6 low:0
sub_partition_id_mask = 0000000000000100
GPGPU-Sim uArch: clock freqs: 700000000.000000:700000000.000000:700000000.000000:924000000.000000
GPGPU-Sim uArch: clock periods: 0.00000000142857142857:0.00000000142857142857:0.00000000142857142857:0.00000000108225108225
*** Initializing Memory Statistics ***
GPGPU-Sim uArch: interconnect node map (shaderID+MemID to icntID)
GPGPU-Sim uArch: Memory nodes ID start from index: 15
GPGPU-Sim uArch:    0   1   2   3   4
GPGPU-Sim uArch:    5   6   7   8   9
GPGPU-Sim uArch:   10  11  12  13  14
GPGPU-Sim uArch:   15  16  17  18  19
GPGPU-Sim uArch:   20  21  22  23  24
GPGPU-Sim uArch:   25  26
GPGPU-Sim uArch: interconnect node reverse map (icntID to shaderID+MemID)
GPGPU-Sim uArch: Memory nodes start from ID: 15
GPGPU-Sim uArch:    0   1   2   3   4
GPGPU-Sim uArch:    5   6   7   8   9
GPGPU-Sim uArch:   10  11  12  13  14
GPGPU-Sim uArch:   15  16  17  18  19
GPGPU-Sim uArch:   20  21  22  23  24
GPGPU-Sim uArch:   25  26
63bd3ec3b64f8e638c2c8523e2878dda  /sciclone/data10/hwang07/adwait/applications/benchmarks/rodinia/cuda/particlefilter/gpgpu_ptx_sim__particlefilter_float
GPGPU-Sim uArch: performance model initialization complete.
GPGPU-Sim PTX: __cudaRegisterFatBinary, fat_cubin_handle = 1, filename=ex_particle_CUDA_float_seq.cu
self exe links to: /sciclone/data10/hwang07/adwait/applications/benchmarks/rodinia/cuda/particlefilter/gpgpu_ptx_sim__particlefilter_float
Running md5sum using "md5sum /sciclone/data10/hwang07/adwait/applications/benchmarks/rodinia/cuda/particlefilter/gpgpu_ptx_sim__particlefilter_float "
Parsing file _cuobjdump_complete_output_GWQIqv
######### cuobjdump parser ########
## Adding new section PTX
Adding ptx filename: _cuobjdump_1.ptx
Adding arch: sm_13
Adding identifier: ex_particle_CUDA_float_seq.cu
## Adding new section ELF
Adding arch: sm_13
Adding identifier: ex_particle_CUDA_float_seq.cu
Done parsing!!!
GPGPU-Sim PTX: __cudaRegisterFunction _Z17likelihood_kernelPfS_S_PiS0_S_PhS_S_iiiiiiS0_S_ : hostFun 0x0x4014b0, fat_cubin_handle = 1
GPGPU-Sim PTX: encountered texture directive tex_CDF.
GPGPU-Sim PTX: instruction assembly for function '_Z17find_index_kernelPfS_S_S_S_S_S_i'...   done.
GPGPU-Sim PTX: finding reconvergence points for '_Z17find_index_kernelPfS_S_S_S_S_S_i'...
GPGPU-Sim PTX: Finding dominators for '_Z17find_index_kernelPfS_S_S_S_S_S_i'...
GPGPU-Sim PTX: Finding immediate dominators for '_Z17find_index_kernelPfS_S_S_S_S_S_i'...
GPGPU-Sim PTX: Finding postdominators for '_Z17find_index_kernelPfS_S_S_S_S_S_i'...
GPGPU-Sim PTX: Finding immediate postdominators for '_Z17find_index_kernelPfS_S_S_S_S_S_i'...
GPGPU-Sim PTX: pre-decoding instructions for '_Z17find_index_kernelPfS_S_S_S_S_S_i'...
GPGPU-Sim PTX: reconvergence points for _Z17find_index_kernelPfS_S_S_S_S_S_i...
GPGPU-Sim PTX:  1 (potential) branch divergence @  PC=0x040 (_1.ptx:76) @%p1 bra $Lt_0_3842;
GPGPU-Sim PTX:    immediate post dominator      @  PC=0x218 (_1.ptx:153) exit;
GPGPU-Sim PTX:  2 (potential) branch divergence @  PC=0x060 (_1.ptx:80) @%p2 bra $Lt_0_5890;
GPGPU-Sim PTX:    immediate post dominator      @  PC=0x158 (_1.ptx:124) ld.param.s32 %r5, [__cudaparm__Z17find_index_kernelPfS_S_S_S_S_S_i_Nparticles];
GPGPU-Sim PTX:  3 (potential) branch divergence @  PC=0x100 (_1.ptx:103) @!%p3 bra $Lt_0_5122;
GPGPU-Sim PTX:    immediate post dominator      @  PC=0x158 (_1.ptx:124) ld.param.s32 %r5, [__cudaparm__Z17find_index_kernelPfS_S_S_S_S_S_i_Nparticles];
GPGPU-Sim PTX:  4 (potential) branch divergence @  PC=0x110 (_1.ptx:107) bra.uni $Lt_0_258;
GPGPU-Sim PTX:    immediate post dominator      @  PC=0x158 (_1.ptx:124) ld.param.s32 %r5, [__cudaparm__Z17find_index_kernelPfS_S_S_S_S_S_i_Nparticles];
GPGPU-Sim PTX:  5 (potential) branch divergence @  PC=0x130 (_1.ptx:115) @%p4 bra $Lt_0_4866;
GPGPU-Sim PTX:    immediate post dominator      @  PC=0x158 (_1.ptx:124) ld.param.s32 %r5, [__cudaparm__Z17find_index_kernelPfS_S_S_S_S_S_i_Nparticles];
GPGPU-Sim PTX:  6 (potential) branch divergence @  PC=0x138 (_1.ptx:116) bra.uni $Lt_0_4354;
GPGPU-Sim PTX:    immediate post dominator      @  PC=0x150 (_1.ptx:121) mov.s32 %r17, -1;
GPGPU-Sim PTX: ... end of reconvergence points for _Z17find_index_kernelPfS_S_S_S_S_S_i
GPGPU-Sim PTX: ... done pre-decoding instructions for '_Z17find_index_kernelPfS_S_S_S_S_S_i'.
GPGPU-Sim PTX: allocating shared region for "__cuda_local_var_35012_36_non_const_sumWeights" from 0x0 to 0x4 (shared memory space)
GPGPU-Sim PTX: allocating shared region for "__cuda_local_var_35012_32_non_const_u1" from 0x4 to 0x8 (shared memory space)
GPGPU-Sim PTX: instruction assembly for function '_Z24normalize_weights_kernelPfiS_S_S_Pi'...   done.
GPGPU-Sim PTX: finding reconvergence points for '_Z24normalize_weights_kernelPfiS_S_S_Pi'...
GPGPU-Sim PTX: Finding dominators for '_Z24normalize_weights_kernelPfiS_S_S_Pi'...
GPGPU-Sim PTX: Finding immediate dominators for '_Z24normalize_weights_kernelPfiS_S_S_Pi'...
GPGPU-Sim PTX: Finding postdominators for '_Z24normalize_weights_kernelPfiS_S_S_Pi'...
GPGPU-Sim PTX: Finding immediate postdominators for '_Z24normalize_weights_kernelPfiS_S_S_Pi'...
GPGPU-Sim PTX: pre-decoding instructions for '_Z24normalize_weights_kernelPfiS_S_S_Pi'...
GPGPU-Sim PTX: reconvergence points for _Z24normalize_weights_kernelPfiS_S_S_Pi...
GPGPU-Sim PTX:  1 (potential) branch divergence @  PC=0x278 (_1.ptx:186) @!%p1 bra $Lt_1_3586;
GPGPU-Sim PTX:    immediate post dominator      @  PC=0x2b8 (_1.ptx:196) mov.u32 %r6, 0;
GPGPU-Sim PTX:  2 (potential) branch divergence @  PC=0x2c8 (_1.ptx:198) @%p2 bra $Lt_1_4098;
GPGPU-Sim PTX:    immediate post dominator      @  PC=0x490 (_1.ptx:272) @!%p1 bra $Lt_1_5634;
GPGPU-Sim PTX:  3 (potential) branch divergence @  PC=0x308 (_1.ptx:209) @%p3 bra $Lt_1_4610;
GPGPU-Sim PTX:    immediate post dominator      @  PC=0x3a0 (_1.ptx:237) ld.param.u64 %rd10, [__cudaparm__Z24normalize_weights_kernelPfiS_S_S_Pi_seed];
GPGPU-Sim PTX:  4 (potential) branch divergence @  PC=0x398 (_1.ptx:234) @%p4 bra $Lt_1_5122;
GPGPU-Sim PTX:    immediate post dominator      @  PC=0x3a0 (_1.ptx:237) ld.param.u64 %rd10, [__cudaparm__Z24normalize_weights_kernelPfiS_S_S_Pi_seed];
GPGPU-Sim PTX:  5 (potential) branch divergence @  PC=0x490 (_1.ptx:272) @!%p1 bra $Lt_1_5634;
GPGPU-Sim PTX:    immediate post dominator      @  PC=0x4f0 (_1.ptx:288) exit;
GPGPU-Sim PTX: ... end of reconvergence points for _Z24normalize_weights_kernelPfiS_S_S_Pi
GPGPU-Sim PTX: ... done pre-decoding instructions for '_Z24normalize_weights_kernelPfiS_S_S_Pi'.
GPGPU-Sim PTX: encountered texture directive tex_sums.
GPGPU-Sim PTX: instruction assembly for function '_Z10sum_kernelPfi'...   done.
GPGPU-Sim PTX: finding reconvergence points for '_Z10sum_kernelPfi'...
GPGPU-Sim PTX: Finding dominators for '_Z10sum_kernelPfi'...
GPGPU-Sim PTX: Finding immediate dominators for '_Z10sum_kernelPfi'...
GPGPU-Sim PTX: Finding postdominators for '_Z10sum_kernelPfi'...
GPGPU-Sim PTX: Finding immediate postdominators for '_Z10sum_kernelPfi'...
GPGPU-Sim PTX: pre-decoding instructions for '_Z10sum_kernelPfi'...
GPGPU-Sim PTX: reconvergence points for _Z10sum_kernelPfi...
GPGPU-Sim PTX:  1 (potential) branch divergence @  PC=0x538 (_1.ptx:312) @%p1 bra $Lt_2_2050;
GPGPU-Sim PTX:    immediate post dominator      @  PC=0x630 (_1.ptx:351) exit;
GPGPU-Sim PTX:  2 (potential) branch divergence @  PC=0x580 (_1.ptx:321) @%p2 bra $Lt_2_3586;
GPGPU-Sim PTX:    immediate post dominator      @  PC=0x620 (_1.ptx:347) ld.param.u64 %rd1, [__cudaparm__Z10sum_kernelPfi_partial_sums];
GPGPU-Sim PTX:  3 (potential) branch divergence @  PC=0x608 (_1.ptx:341) @%p3 bra $Lt_2_3074;
GPGPU-Sim PTX:    immediate post dominator      @  PC=0x610 (_1.ptx:342) bra.uni $Lt_2_2562;
GPGPU-Sim PTX:  4 (potential) branch divergence @  PC=0x610 (_1.ptx:342) bra.uni $Lt_2_2562;
GPGPU-Sim PTX:    immediate post dominator      @  PC=0x620 (_1.ptx:347) ld.param.u64 %rd1, [__cudaparm__Z10sum_kernelPfi_partial_sums];
GPGPU-Sim PTX: ... end of reconvergence points for _Z10sum_kernelPfi
GPGPU-Sim PTX: ... done pre-decoding instructions for '_Z10sum_kernelPfi'.
GPGPU-Sim PTX: allocating shared region for "__cuda___cuda_local_var_35086_32_non_const_buffer240" from 0x0 to 0x800 (shared memory space)
GPGPU-Sim PTX: instruction assembly for function '_Z17likelihood_kernelPfS_S_PiS0_S_PhS_S_iiiiiiS0_S_'...   done.
GPGPU-Sim PTX: finding reconvergence points for '_Z17likelihood_kernelPfS_S_PiS0_S_PhS_S_iiiiiiS0_S_'...
GPGPU-Sim PTX: Finding dominators for '_Z17likelihood_kernelPfS_S_PiS0_S_PhS_S_iiiiiiS0_S_'...
GPGPU-Sim PTX: Finding immediate dominators for '_Z17likelihood_kernelPfS_S_PiS0_S_PhS_S_iiiiiiS0_S_'...
GPGPU-Sim PTX: Finding postdominators for '_Z17likelihood_kernelPfS_S_PiS0_S_PhS_S_iiiiiiS0_S_'...
GPGPU-Sim PTX: Finding immediate postdominators for '_Z17likelihood_kernelPfS_S_PiS0_S_PhS_S_iiiiiiS0_S_'...
GPGPU-Sim PTX: pre-decoding instructions for '_Z17likelihood_kernelPfS_S_PiS0_S_PhS_S_iiiiiiS0_S_'...
GPGPU-Sim PTX: reconvergence points for _Z17likelihood_kernelPfS_S_PiS0_S_PhS_S_iiiiiiS0_S_...
GPGPU-Sim PTX:  1 (potential) branch divergence @  PC=0x670 (_1.ptx:389) @!%p1 bra $Lt_3_18690;
GPGPU-Sim PTX:    immediate post dominator      @  PC=0xa80 (_1.ptx:527) @!%p1 bra $Lt_3_27394;
GPGPU-Sim PTX:  2 (potential) branch divergence @  PC=0xa80 (_1.ptx:527) @!%p1 bra $Lt_3_27394;
GPGPU-Sim PTX:    immediate post dominator      @  PC=0x1100 (_1.ptx:803) exit;
GPGPU-Sim PTX:  3 (potential) branch divergence @  PC=0xaa0 (_1.ptx:531) @!%p6 bra $Lt_3_27906;
GPGPU-Sim PTX:    immediate post dominator      @  PC=0xd28 (_1.ptx:631) @!%p6 bra $Lt_3_28162;
GPGPU-Sim PTX:  4 (potential) branch divergence @  PC=0xbd0 (_1.ptx:572) @!%p8 bra $Lt_3_20482;
GPGPU-Sim PTX:    immediate post dominator      @  PC=0xbe0 (_1.ptx:577) ld.global.s32 %r75, [%rd10+4];
GPGPU-Sim PTX:  5 (potential) branch divergence @  PC=0xc60 (_1.ptx:595) @!%p10 bra $Lt_3_20994;
GPGPU-Sim PTX:    immediate post dominator      @  PC=0xc70 (_1.ptx:600) ld.global.s32 %r79, [%rd10+0];
GPGPU-Sim PTX:  6 (potential) branch divergence @  PC=0xcd0 (_1.ptx:615) @%p11 bra $Lt_3_21506;
GPGPU-Sim PTX:    immediate post dominator      @  PC=0xce8 (_1.ptx:620) add.u64 %rd16, %rd16, 4;
GPGPU-Sim PTX:  7 (potential) branch divergence @  PC=0xd08 (_1.ptx:624) @%p12 bra $Lt_3_20226;
GPGPU-Sim PTX:    immediate post dominator      @  PC=0xd10 (_1.ptx:625) bra.uni $Lt_3_19714;
GPGPU-Sim PTX:  8 (potential) branch divergence @  PC=0xd10 (_1.ptx:625) bra.uni $Lt_3_19714;
GPGPU-Sim PTX:    immediate post dominator      @  PC=0xd28 (_1.ptx:631) @!%p6 bra $Lt_3_28162;
GPGPU-Sim PTX:  9 (potential) branch divergence @  PC=0xd28 (_1.ptx:631) @!%p6 bra $Lt_3_28162;
GPGPU-Sim PTX:    immediate post dominator      @  PC=0xf48 (_1.ptx:730) ld.param.s32 %r61, [__cudaparm__Z17likelihood_kernelPfS_S_PiS0_S_PhS_S_iiiiiiS0_S__countOnes];
GPGPU-Sim PTX: 10 (potential) branch divergence @  PC=0xe08 (_1.ptx:669) @%p13 bra $Lt_3_23042;
GPGPU-Sim PTX:    immediate post dominator      @  PC=0xe18 (_1.ptx:674) shr.u32 %r91, %r91, 1;
GPGPU-Sim PTX: 11 (potential) branch divergence @  PC=0xe30 (_1.ptx:677) @%p14 bra $Lt_3_23554;
GPGPU-Sim PTX:    immediate post dominator      @  PC=0xe38 (_1.ptx:679) mov.f32 %f73, %f72;
GPGPU-Sim PTX: 12 (potential) branch divergence @  PC=0xe40 (_1.ptx:680) bra.uni $LDWendi_powif_216_3;
GPGPU-Sim PTX:    immediate post dominator      @  PC=0xe60 (_1.ptx:688) mov.f32 %f75, %f70;
GPGPU-Sim PTX: 13 (potential) branch divergence @  PC=0xe58 (_1.ptx:685) bra.uni $Lt_3_14850;
GPGPU-Sim PTX:    immediate post dominator      @  PC=0xdf0 (_1.ptx:666) and.b32 %r92, %r91, 1;
GPGPU-Sim PTX: 14 (potential) branch divergence @  PC=0xe90 (_1.ptx:697) @%p15 bra $Lt_3_24066;
GPGPU-Sim PTX:    immediate post dominator      @  PC=0xea0 (_1.ptx:702) shr.u32 %r91, %r91, 1;
GPGPU-Sim PTX: 15 (potential) branch divergence @  PC=0xeb8 (_1.ptx:705) @%p16 bra $Lt_3_24578;
GPGPU-Sim PTX:    immediate post dominator      @  PC=0xec0 (_1.ptx:706) bra.uni $LDWendi_powif_216_1;
GPGPU-Sim PTX: 16 (potential) branch divergence @  PC=0xec0 (_1.ptx:706) bra.uni $LDWendi_powif_216_1;
GPGPU-Sim PTX:    immediate post dominator      @  PC=0xee0 (_1.ptx:714) cvt.f64.f32 %fd13, %f68;
GPGPU-Sim PTX: 17 (potential) branch divergence @  PC=0xed8 (_1.ptx:711) bra.uni $Lt_3_16130;
GPGPU-Sim PTX:    immediate post dominator      @  PC=0xe78 (_1.ptx:694) and.b32 %r95, %r91, 1;
GPGPU-Sim PTX: 18 (potential) branch divergence @  PC=0xf30 (_1.ptx:724) @%p17 bra $Lt_3_22786;
GPGPU-Sim PTX:    immediate post dominator      @  PC=0xf38 (_1.ptx:725) bra.uni $Lt_3_22274;
GPGPU-Sim PTX: 19 (potential) branch divergence @  PC=0xf38 (_1.ptx:725) bra.uni $Lt_3_22274;
GPGPU-Sim PTX:    immediate post dominator      @  PC=0xf48 (_1.ptx:730) ld.param.s32 %r61, [__cudaparm__Z17likelihood_kernelPfS_S_PiS0_S_PhS_S_iiiiiiS0_S__countOnes];
GPGPU-Sim PTX: 20 (potential) branch divergence @  PC=0xf80 (_1.ptx:740) @!%p1 bra $Lt_3_27394;
GPGPU-Sim PTX:    immediate post dominator      @  PC=0x1100 (_1.ptx:803) exit;
GPGPU-Sim PTX: 21 (potential) branch divergence @  PC=0x1038 (_1.ptx:768) @%p18 bra $Lt_3_25858;
GPGPU-Sim PTX:    immediate post dominator      @  PC=0x10b8 (_1.ptx:790) mov.u32 %r103, 0;
GPGPU-Sim PTX: 22 (potential) branch divergence @  PC=0x1048 (_1.ptx:771) @%p19 bra $Lt_3_26626;
GPGPU-Sim PTX:    immediate post dominator      @  PC=0x1090 (_1.ptx:783) bar.sync 0;
GPGPU-Sim PTX: 23 (potential) branch divergence @  PC=0x10b0 (_1.ptx:788) @%p20 bra $Lt_3_26370;
GPGPU-Sim PTX:    immediate post dominator      @  PC=0x10b8 (_1.ptx:790) mov.u32 %r103, 0;
GPGPU-Sim PTX: 24 (potential) branch divergence @  PC=0x10c8 (_1.ptx:792) @%p21 bra $Lt_3_27394;
GPGPU-Sim PTX:    immediate post dominator      @  PC=0x1100 (_1.ptx:803) exit;
GPGPU-Sim PTX: ... end of reconvergence points for _Z17likelihood_kernelPfS_S_PiS0_S_PhS_S_iiiiiiS0_S_
GPGPU-Sim PTX: ... done pre-decoding instructions for '_Z17likelihood_kernelPfS_S_PiS0_S_PhS_S_iiiiiiS0_S_'.
GPGPU-Sim PTX: finished parsing EMBEDDED .ptx file _1.ptx
Adding _cuobjdump_1.ptx with cubin handle 1
GPGPU-Sim PTX: extracting embedded .ptx to temporary file "_ptx_8CoFH6"
Running: cat _ptx_8CoFH6 | sed 's/.version 1.5/.version 1.4/' | sed 's/, texmode_independent//' | sed 's/\(\.extern \.const\[1\] .b8 \w\+\)\[\]/\1\[1\]/' | sed 's/const\[.\]/const\[0\]/g' > _ptx2_WNuTgL
GPGPU-Sim PTX: generating ptxinfo using "$CUDA_INSTALL_PATH/bin/ptxas --gpu-name=sm_20 -v _ptx2_WNuTgL --output-file  /dev/null 2> _ptx_8CoFH6info"
GPGPU-Sim PTX: Kernel '_Z17likelihood_kernelPfS_S_PiS0_S_PhS_S_iiiiiiS0_S_' : regs=27, lmem=0, smem=2048, cmem=156
GPGPU-Sim PTX: Kernel '_Z10sum_kernelPfi' : regs=6, lmem=0, smem=0, cmem=44
GPGPU-Sim PTX: Kernel '_Z24normalize_weights_kernelPfiS_S_S_Pi' : regs=10, lmem=0, smem=8, cmem=88
GPGPU-Sim PTX: Kernel '_Z17find_index_kernelPfS_S_S_S_S_S_i' : regs=12, lmem=0, smem=0, cmem=92
GPGPU-Sim PTX: removing ptxinfo using "rm -f _ptx_8CoFH6 _ptx2_WNuTgL _ptx_8CoFH6info"
GPGPU-Sim PTX: loading globals with explicit initializers... 
GPGPU-Sim PTX: finished loading globals (0 bytes total).
GPGPU-Sim PTX: loading constants with explicit initializers...  done.
GPGPU-Sim PTX: __cudaRegisterFunction _Z10sum_kernelPfi : hostFun 0x0x4026b0, fat_cubin_handle = 1
GPGPU-Sim PTX: __cudaRegisterFunction _Z24normalize_weights_kernelPfiS_S_S_Pi : hostFun 0x0x401610, fat_cubin_handle = 1
GPGPU-Sim PTX: __cudaRegisterFunction _Z17find_index_kernelPfS_S_S_S_S_S_i : hostFun 0x0x401730, fat_cubin_handle = 1
GPGPU-Sim PTX: in __cudaRegisterTexture:
GPGPU-Sim PTX:   int dim = 1
GPGPU-Sim PTX:   int norm = 0
GPGPU-Sim PTX:   int ext = 0
GPGPU-Sim PTX:   Execution warning: Not finished implementing "void __cudaRegisterTexture(void**, const textureReference*, const void**, const char*, int, int, int)"
GPGPU-Sim PTX: in __cudaRegisterTexture:
GPGPU-Sim PTX:   int dim = 1
GPGPU-Sim PTX:   int norm = 0
GPGPU-Sim PTX:   int ext = 0
GPGPU-Sim PTX:   Execution warning: Not finished implementing "void __cudaRegisterTexture(void**, const textureReference*, const void**, const char*, int, int, int)"
VIDEO SEQUENCE TOOK 0.047004
TIME TO SEND TO GPU: 0.013749

GPGPU-Sim PTX: cudaLaunch for 0x0x4014b0 (mode=performance simulation) on stream 0
GPGPU-Sim PTX: pushing kernel '_Z17likelihood_kernelPfS_S_PiS0_S_PhS_S_iiiiiiS0_S_' to stream 0, gridDim= (20,1,1) blockDim = (512,1,1) 
kernel '_Z17likelihood_kernelPfS_S_PiS0_S_PhS_S_iiiiiiS0_S_' transfer to GPU hardware scheduler
GPGPU-Sim uArch: Shader 1 bind to kernel 1 '_Z17likelihood_kernelPfS_S_PiS0_S_PhS_S_iiiiiiS0_S_'
GPGPU-Sim uArch: CTA/core = 2, limited by: regs
GPGPU-Sim uArch: core:  1, cta: 0 initialized @(1,0)
GPGPU-Sim uArch: Shader 2 bind to kernel 1 '_Z17likelihood_kernelPfS_S_PiS0_S_PhS_S_iiiiiiS0_S_'
GPGPU-Sim uArch: core:  2, cta: 0 initialized @(1,0)
GPGPU-Sim uArch: Shader 3 bind to kernel 1 '_Z17likelihood_kernelPfS_S_PiS0_S_PhS_S_iiiiiiS0_S_'
GPGPU-Sim uArch: core:  3, cta: 0 initialized @(1,0)
GPGPU-Sim uArch: Shader 4 bind to kernel 1 '_Z17likelihood_kernelPfS_S_PiS0_S_PhS_S_iiiiiiS0_S_'
GPGPU-Sim uArch: core:  4, cta: 0 initialized @(1,0)
GPGPU-Sim uArch: Shader 5 bind to kernel 1 '_Z17likelihood_kernelPfS_S_PiS0_S_PhS_S_iiiiiiS0_S_'
GPGPU-Sim uArch: core:  5, cta: 0 initialized @(1,0)
GPGPU-Sim uArch: Shader 6 bind to kernel 1 '_Z17likelihood_kernelPfS_S_PiS0_S_PhS_S_iiiiiiS0_S_'
GPGPU-Sim uArch: core:  6, cta: 0 initialized @(1,0)
GPGPU-Sim uArch: Shader 7 bind to kernel 1 '_Z17likelihood_kernelPfS_S_PiS0_S_PhS_S_iiiiiiS0_S_'
GPGPU-Sim uArch: core:  7, cta: 0 initialized @(1,0)
GPGPU-Sim uArch: Shader 8 bind to kernel 1 '_Z17likelihood_kernelPfS_S_PiS0_S_PhS_S_iiiiiiS0_S_'
GPGPU-Sim uArch: core:  8, cta: 0 initialized @(1,0)
GPGPU-Sim uArch: Shader 9 bind to kernel 1 '_Z17likelihood_kernelPfS_S_PiS0_S_PhS_S_iiiiiiS0_S_'
GPGPU-Sim uArch: core:  9, cta: 0 initialized @(1,0)
GPGPU-Sim uArch: Shader 10 bind to kernel 1 '_Z17likelihood_kernelPfS_S_PiS0_S_PhS_S_iiiiiiS0_S_'
GPGPU-Sim uArch: core: 10, cta: 0 initialized @(1,0)
GPGPU-Sim uArch: Shader 11 bind to kernel 1 '_Z17likelihood_kernelPfS_S_PiS0_S_PhS_S_iiiiiiS0_S_'
GPGPU-Sim uArch: core: 11, cta: 0 initialized @(1,0)
GPGPU-Sim uArch: Shader 12 bind to kernel 1 '_Z17likelihood_kernelPfS_S_PiS0_S_PhS_S_iiiiiiS0_S_'
GPGPU-Sim uArch: core: 12, cta: 0 initialized @(1,0)
GPGPU-Sim uArch: Shader 13 bind to kernel 1 '_Z17likelihood_kernelPfS_S_PiS0_S_PhS_S_iiiiiiS0_S_'
GPGPU-Sim uArch: core: 13, cta: 0 initialized @(1,0)
GPGPU-Sim uArch: Shader 14 bind to kernel 1 '_Z17likelihood_kernelPfS_S_PiS0_S_PhS_S_iiiiiiS0_S_'
GPGPU-Sim uArch: core: 14, cta: 0 initialized @(1,0)
GPGPU-Sim uArch: Shader 0 bind to kernel 1 '_Z17likelihood_kernelPfS_S_PiS0_S_PhS_S_iiiiiiS0_S_'
GPGPU-Sim uArch: core:  0, cta: 0 initialized @(1,0)
GPGPU-Sim uArch: core:  1, cta: 1 initialized @(2,0)
GPGPU-Sim uArch: core:  2, cta: 1 initialized @(2,0)
GPGPU-Sim uArch: core:  3, cta: 1 initialized @(2,0)
GPGPU-Sim uArch: core:  4, cta: 1 initialized @(2,0)
GPGPU-Sim uArch: core:  5, cta: 1 initialized @(2,0)
GPGPU-Sim uArch: cycles simulated: 500  inst.: 4800 (ipc= 9.6) sim_rate=600 (inst/sec) elapsed = 0:0:00:08 / Tue Mar 22 12:39:51 2016
GPGPU-Sim uArch: cycles simulated: 1000  inst.: 10560 (ipc=10.6) sim_rate=1173 (inst/sec) elapsed = 0:0:00:09 / Tue Mar 22 12:39:52 2016
GPGPU-Sim uArch: cycles simulated: 3000  inst.: 69115 (ipc=23.0) sim_rate=6911 (inst/sec) elapsed = 0:0:00:10 / Tue Mar 22 12:39:53 2016
GPGPU-Sim PTX: 100000 instructions simulated : ctaid=(13,0,0) tid=(63,0,0)
GPGPU-Sim PTX: 200000 instructions simulated : ctaid=(1,0,0) tid=(95,0,0)
GPGPU-Sim uArch: cycles simulated: 6000  inst.: 197761 (ipc=33.0) sim_rate=17978 (inst/sec) elapsed = 0:0:00:11 / Tue Mar 22 12:39:54 2016
GPGPU-Sim PTX: 300000 instructions simulated : ctaid=(13,0,0) tid=(159,0,0)
GPGPU-Sim uArch: cycles simulated: 8000  inst.: 326439 (ipc=40.8) sim_rate=27203 (inst/sec) elapsed = 0:0:00:12 / Tue Mar 22 12:39:55 2016
GPGPU-Sim PTX: 400000 instructions simulated : ctaid=(11,0,0) tid=(159,0,0)
GPGPU-Sim PTX: 500000 instructions simulated : ctaid=(7,0,0) tid=(223,0,0)
GPGPU-Sim uArch: cycles simulated: 10500  inst.: 504798 (ipc=48.1) sim_rate=38830 (inst/sec) elapsed = 0:0:00:13 / Tue Mar 22 12:39:56 2016
GPGPU-Sim PTX: 600000 instructions simulated : ctaid=(8,0,0) tid=(319,0,0)
GPGPU-Sim uArch: cycles simulated: 13000  inst.: 653755 (ipc=50.3) sim_rate=46696 (inst/sec) elapsed = 0:0:00:14 / Tue Mar 22 12:39:57 2016
GPGPU-Sim PTX: 700000 instructions simulated : ctaid=(12,0,0) tid=(351,0,0)
GPGPU-Sim PTX: 800000 instructions simulated : ctaid=(10,0,0) tid=(415,0,0)
GPGPU-Sim uArch: cycles simulated: 15500  inst.: 815050 (ipc=52.6) sim_rate=54336 (inst/sec) elapsed = 0:0:00:15 / Tue Mar 22 12:39:58 2016
GPGPU-Sim PTX: 900000 instructions simulated : ctaid=(14,0,0) tid=(447,0,0)
GPGPU-Sim uArch: cycles simulated: 18000  inst.: 973348 (ipc=54.1) sim_rate=60834 (inst/sec) elapsed = 0:0:00:16 / Tue Mar 22 12:39:59 2016
GPGPU-Sim PTX: 1000000 instructions simulated : ctaid=(5,0,0) tid=(511,0,0)
GPGPU-Sim PTX: 1100000 instructions simulated : ctaid=(3,0,0) tid=(63,0,0)
GPGPU-Sim uArch: cycles simulated: 20500  inst.: 1087839 (ipc=53.1) sim_rate=63990 (inst/sec) elapsed = 0:0:00:17 / Tue Mar 22 12:40:00 2016
GPGPU-Sim PTX: 1200000 instructions simulated : ctaid=(8,0,0) tid=(31,0,0)
GPGPU-Sim uArch: cycles simulated: 23000  inst.: 1236063 (ipc=53.7) sim_rate=68670 (inst/sec) elapsed = 0:0:00:18 / Tue Mar 22 12:40:01 2016
GPGPU-Sim PTX: 1300000 instructions simulated : ctaid=(11,0,0) tid=(63,0,0)
GPGPU-Sim PTX: 1400000 instructions simulated : ctaid=(3,0,0) tid=(31,0,0)
GPGPU-Sim uArch: cycles simulated: 25000  inst.: 1436639 (ipc=57.5) sim_rate=75612 (inst/sec) elapsed = 0:0:00:19 / Tue Mar 22 12:40:02 2016
GPGPU-Sim PTX: 1500000 instructions simulated : ctaid=(5,0,0) tid=(63,0,0)
GPGPU-Sim PTX: 1600000 instructions simulated : ctaid=(3,0,0) tid=(31,0,0)
GPGPU-Sim uArch: cycles simulated: 27000  inst.: 1650079 (ipc=61.1) sim_rate=82503 (inst/sec) elapsed = 0:0:00:20 / Tue Mar 22 12:40:03 2016
GPGPU-Sim PTX: 1700000 instructions simulated : ctaid=(13,0,0) tid=(63,0,0)
GPGPU-Sim PTX: 1800000 instructions simulated : ctaid=(0,0,0) tid=(31,0,0)
GPGPU-Sim PTX: 1900000 instructions simulated : ctaid=(7,0,0) tid=(31,0,0)
GPGPU-Sim uArch: cycles simulated: 29500  inst.: 1877535 (ipc=63.6) sim_rate=89406 (inst/sec) elapsed = 0:0:00:21 / Tue Mar 22 12:40:04 2016
GPGPU-Sim PTX: 2000000 instructions simulated : ctaid=(5,0,0) tid=(63,0,0)
GPGPU-Sim PTX: 2100000 instructions simulated : ctaid=(0,0,0) tid=(31,0,0)
GPGPU-Sim uArch: cycles simulated: 31500  inst.: 2080127 (ipc=66.0) sim_rate=94551 (inst/sec) elapsed = 0:0:00:22 / Tue Mar 22 12:40:05 2016
GPGPU-Sim PTX: 2200000 instructions simulated : ctaid=(14,0,0) tid=(31,0,0)
GPGPU-Sim PTX: 2300000 instructions simulated : ctaid=(9,0,0) tid=(63,0,0)
GPGPU-Sim uArch: cycles simulated: 33500  inst.: 2280703 (ipc=68.1) sim_rate=99161 (inst/sec) elapsed = 0:0:00:23 / Tue Mar 22 12:40:06 2016
GPGPU-Sim PTX: 2400000 instructions simulated : ctaid=(5,0,0) tid=(63,0,0)
GPGPU-Sim uArch: cycles simulated: 35000  inst.: 2448799 (ipc=70.0) sim_rate=102033 (inst/sec) elapsed = 0:0:00:24 / Tue Mar 22 12:40:07 2016
GPGPU-Sim PTX: 2500000 instructions simulated : ctaid=(9,0,0) tid=(31,0,0)
GPGPU-Sim PTX: 2600000 instructions simulated : ctaid=(1,0,0) tid=(31,0,0)
GPGPU-Sim uArch: cycles simulated: 37000  inst.: 2641279 (ipc=71.4) sim_rate=105651 (inst/sec) elapsed = 0:0:00:25 / Tue Mar 22 12:40:08 2016
GPGPU-Sim PTX: 2700000 instructions simulated : ctaid=(13,0,0) tid=(63,0,0)
GPGPU-Sim PTX: 2800000 instructions simulated : ctaid=(14,0,0) tid=(31,0,0)
GPGPU-Sim uArch: cycles simulated: 38500  inst.: 2798143 (ipc=72.7) sim_rate=107620 (inst/sec) elapsed = 0:0:00:26 / Tue Mar 22 12:40:09 2016
GPGPU-Sim PTX: 2900000 instructions simulated : ctaid=(7,0,0) tid=(31,0,0)
GPGPU-Sim uArch: cycles simulated: 40000  inst.: 2963935 (ipc=74.1) sim_rate=109775 (inst/sec) elapsed = 0:0:00:27 / Tue Mar 22 12:40:10 2016
GPGPU-Sim PTX: 3000000 instructions simulated : ctaid=(7,0,0) tid=(63,0,0)
GPGPU-Sim PTX: 3100000 instructions simulated : ctaid=(5,0,0) tid=(63,0,0)
GPGPU-Sim PTX: 3200000 instructions simulated : ctaid=(5,0,0) tid=(31,0,0)
GPGPU-Sim uArch: cycles simulated: 42000  inst.: 3177375 (ipc=75.7) sim_rate=113477 (inst/sec) elapsed = 0:0:00:28 / Tue Mar 22 12:40:11 2016
GPGPU-Sim PTX: 3300000 instructions simulated : ctaid=(2,0,0) tid=(31,0,0)
GPGPU-Sim uArch: cycles simulated: 43500  inst.: 3327775 (ipc=76.5) sim_rate=114750 (inst/sec) elapsed = 0:0:00:29 / Tue Mar 22 12:40:12 2016
GPGPU-Sim PTX: 3400000 instructions simulated : ctaid=(9,0,0) tid=(63,0,0)
GPGPU-Sim PTX: 3500000 instructions simulated : ctaid=(7,0,0) tid=(31,0,0)
GPGPU-Sim PTX: 3600000 instructions simulated : ctaid=(3,0,0) tid=(31,0,0)
GPGPU-Sim uArch: cycles simulated: 46000  inst.: 3588767 (ipc=78.0) sim_rate=119625 (inst/sec) elapsed = 0:0:00:30 / Tue Mar 22 12:40:13 2016
GPGPU-Sim PTX: 3700000 instructions simulated : ctaid=(11,0,0) tid=(31,0,0)
GPGPU-Sim uArch: cycles simulated: 47500  inst.: 3747935 (ipc=78.9) sim_rate=120901 (inst/sec) elapsed = 0:0:00:31 / Tue Mar 22 12:40:14 2016
GPGPU-Sim PTX: 3800000 instructions simulated : ctaid=(11,0,0) tid=(31,0,0)
GPGPU-Sim PTX: 3900000 instructions simulated : ctaid=(11,0,0) tid=(63,0,0)
GPGPU-Sim uArch: cycles simulated: 49500  inst.: 3967327 (ipc=80.1) sim_rate=123978 (inst/sec) elapsed = 0:0:00:32 / Tue Mar 22 12:40:15 2016
GPGPU-Sim PTX: 4000000 instructions simulated : ctaid=(6,0,0) tid=(31,0,0)
GPGPU-Sim PTX: 4100000 instructions simulated : ctaid=(8,0,0) tid=(63,0,0)
GPGPU-Sim uArch: cycles simulated: 51500  inst.: 4143519 (ipc=80.5) sim_rate=125561 (inst/sec) elapsed = 0:0:00:33 / Tue Mar 22 12:40:16 2016
GPGPU-Sim PTX: 4200000 instructions simulated : ctaid=(9,0,0) tid=(31,0,0)
GPGPU-Sim PTX: 4300000 instructions simulated : ctaid=(5,0,0) tid=(31,0,0)
GPGPU-Sim uArch: cycles simulated: 53500  inst.: 4293887 (ipc=80.3) sim_rate=126290 (inst/sec) elapsed = 0:0:00:34 / Tue Mar 22 12:40:17 2016
GPGPU-Sim uArch: cycles simulated: 55500  inst.: 4341759 (ipc=78.2) sim_rate=124050 (inst/sec) elapsed = 0:0:00:35 / Tue Mar 22 12:40:18 2016
GPGPU-Sim PTX: 4400000 instructions simulated : ctaid=(7,0,0) tid=(63,0,0)
GPGPU-Sim PTX: 4500000 instructions simulated : ctaid=(13,0,0) tid=(31,0,0)
GPGPU-Sim uArch: cycles simulated: 58500  inst.: 4498463 (ipc=76.9) sim_rate=124957 (inst/sec) elapsed = 0:0:00:36 / Tue Mar 22 12:40:19 2016
GPGPU-Sim PTX: 4600000 instructions simulated : ctaid=(11,0,0) tid=(31,0,0)
GPGPU-Sim PTX: 4700000 instructions simulated : ctaid=(7,0,0) tid=(63,0,0)
GPGPU-Sim uArch: cycles simulated: 61500  inst.: 4674879 (ipc=76.0) sim_rate=126348 (inst/sec) elapsed = 0:0:00:37 / Tue Mar 22 12:40:20 2016
GPGPU-Sim PTX: 4800000 instructions simulated : ctaid=(0,0,0) tid=(31,0,0)
GPGPU-Sim PTX: 4900000 instructions simulated : ctaid=(1,0,0) tid=(63,0,0)
GPGPU-Sim uArch: cycles simulated: 64500  inst.: 4845983 (ipc=75.1) sim_rate=127525 (inst/sec) elapsed = 0:0:00:38 / Tue Mar 22 12:40:21 2016
GPGPU-Sim PTX: 5000000 instructions simulated : ctaid=(10,0,0) tid=(31,0,0)
GPGPU-Sim uArch: cycles simulated: 67000  inst.: 5002623 (ipc=74.7) sim_rate=128272 (inst/sec) elapsed = 0:0:00:39 / Tue Mar 22 12:40:22 2016
GPGPU-Sim PTX: 5100000 instructions simulated : ctaid=(5,0,0) tid=(31,0,0)
GPGPU-Sim PTX: 5200000 instructions simulated : ctaid=(9,0,0) tid=(63,0,0)
GPGPU-Sim uArch: cycles simulated: 70000  inst.: 5190751 (ipc=74.2) sim_rate=129768 (inst/sec) elapsed = 0:0:00:40 / Tue Mar 22 12:40:23 2016
GPGPU-Sim PTX: 5300000 instructions simulated : ctaid=(3,0,0) tid=(31,0,0)
GPGPU-Sim PTX: 5400000 instructions simulated : ctaid=(7,0,0) tid=(63,0,0)
GPGPU-Sim uArch: cycles simulated: 72500  inst.: 5337407 (ipc=73.6) sim_rate=130180 (inst/sec) elapsed = 0:0:00:41 / Tue Mar 22 12:40:24 2016
GPGPU-Sim PTX: 5500000 instructions simulated : ctaid=(4,0,0) tid=(63,0,0)
GPGPU-Sim PTX: 5600000 instructions simulated : ctaid=(8,0,0) tid=(63,0,0)
GPGPU-Sim uArch: cycles simulated: 75500  inst.: 5525823 (ipc=73.2) sim_rate=131567 (inst/sec) elapsed = 0:0:00:42 / Tue Mar 22 12:40:25 2016
GPGPU-Sim PTX: 5700000 instructions simulated : ctaid=(0,0,0) tid=(31,0,0)
GPGPU-Sim uArch: cycles simulated: 78000  inst.: 5670175 (ipc=72.7) sim_rate=131864 (inst/sec) elapsed = 0:0:00:43 / Tue Mar 22 12:40:26 2016
GPGPU-Sim PTX: 5800000 instructions simulated : ctaid=(7,0,0) tid=(31,0,0)
GPGPU-Sim PTX: 5900000 instructions simulated : ctaid=(14,0,0) tid=(31,0,0)
GPGPU-Sim uArch: cycles simulated: 81000  inst.: 5861503 (ipc=72.4) sim_rate=133215 (inst/sec) elapsed = 0:0:00:44 / Tue Mar 22 12:40:27 2016
GPGPU-Sim PTX: 6000000 instructions simulated : ctaid=(14,0,0) tid=(31,0,0)
GPGPU-Sim PTX: 6100000 instructions simulated : ctaid=(13,0,0) tid=(63,0,0)
GPGPU-Sim uArch: cycles simulated: 83500  inst.: 6024255 (ipc=72.1) sim_rate=133872 (inst/sec) elapsed = 0:0:00:45 / Tue Mar 22 12:40:28 2016
GPGPU-Sim PTX: 6200000 instructions simulated : ctaid=(12,0,0) tid=(31,0,0)
GPGPU-Sim PTX: 6300000 instructions simulated : ctaid=(0,0,0) tid=(31,0,0)
GPGPU-Sim uArch: cycles simulated: 86500  inst.: 6208351 (ipc=71.8) sim_rate=134964 (inst/sec) elapsed = 0:0:00:46 / Tue Mar 22 12:40:29 2016
GPGPU-Sim PTX: 6400000 instructions simulated : ctaid=(1,0,0) tid=(63,0,0)
GPGPU-Sim PTX: 6500000 instructions simulated : ctaid=(7,0,0) tid=(63,0,0)
GPGPU-Sim uArch: cycles simulated: 89000  inst.: 6357247 (ipc=71.4) sim_rate=135260 (inst/sec) elapsed = 0:0:00:47 / Tue Mar 22 12:40:30 2016
GPGPU-Sim PTX: 6600000 instructions simulated : ctaid=(11,0,0) tid=(31,0,0)
GPGPU-Sim uArch: cycles simulated: 91500  inst.: 6521247 (ipc=71.3) sim_rate=135859 (inst/sec) elapsed = 0:0:00:48 / Tue Mar 22 12:40:31 2016
GPGPU-Sim PTX: 6700000 instructions simulated : ctaid=(7,0,0) tid=(31,0,0)
GPGPU-Sim PTX: 6800000 instructions simulated : ctaid=(1,0,0) tid=(63,0,0)
GPGPU-Sim uArch: cycles simulated: 94000  inst.: 6671871 (ipc=71.0) sim_rate=136160 (inst/sec) elapsed = 0:0:00:49 / Tue Mar 22 12:40:32 2016
GPGPU-Sim PTX: 6900000 instructions simulated : ctaid=(6,0,0) tid=(31,0,0)
GPGPU-Sim PTX: 7000000 instructions simulated : ctaid=(13,0,0) tid=(63,0,0)
GPGPU-Sim uArch: cycles simulated: 96500  inst.: 6832543 (ipc=70.8) sim_rate=136650 (inst/sec) elapsed = 0:0:00:50 / Tue Mar 22 12:40:33 2016
GPGPU-Sim PTX: 7100000 instructions simulated : ctaid=(2,0,0) tid=(31,0,0)
GPGPU-Sim uArch: cycles simulated: 99000  inst.: 6981695 (ipc=70.5) sim_rate=136895 (inst/sec) elapsed = 0:0:00:51 / Tue Mar 22 12:40:34 2016
GPGPU-Sim PTX: 7200000 instructions simulated : ctaid=(5,0,0) tid=(63,0,0)
GPGPU-Sim PTX: 7300000 instructions simulated : ctaid=(8,0,0) tid=(31,0,0)
GPGPU-Sim uArch: cycles simulated: 101000  inst.: 7105375 (ipc=70.4) sim_rate=136641 (inst/sec) elapsed = 0:0:00:52 / Tue Mar 22 12:40:35 2016
GPGPU-Sim PTX: 7400000 instructions simulated : ctaid=(8,0,0) tid=(63,0,0)
GPGPU-Sim uArch: cycles simulated: 103500  inst.: 7265759 (ipc=70.2) sim_rate=137089 (inst/sec) elapsed = 0:0:00:53 / Tue Mar 22 12:40:36 2016
GPGPU-Sim PTX: 7500000 instructions simulated : ctaid=(7,0,0) tid=(63,0,0)
GPGPU-Sim PTX: 7600000 instructions simulated : ctaid=(14,0,0) tid=(63,0,0)
GPGPU-Sim uArch: cycles simulated: 106000  inst.: 7417119 (ipc=70.0) sim_rate=137354 (inst/sec) elapsed = 0:0:00:54 / Tue Mar 22 12:40:37 2016
GPGPU-Sim PTX: 7700000 instructions simulated : ctaid=(3,0,0) tid=(63,0,0)
GPGPU-Sim uArch: cycles simulated: 108500  inst.: 7566143 (ipc=69.7) sim_rate=137566 (inst/sec) elapsed = 0:0:00:55 / Tue Mar 22 12:40:38 2016
GPGPU-Sim PTX: 7800000 instructions simulated : ctaid=(9,0,0) tid=(31,0,0)
GPGPU-Sim PTX: 7900000 instructions simulated : ctaid=(8,0,0) tid=(31,0,0)
GPGPU-Sim uArch: cycles simulated: 110500  inst.: 7688127 (ipc=69.6) sim_rate=137287 (inst/sec) elapsed = 0:0:00:56 / Tue Mar 22 12:40:39 2016
GPGPU-Sim PTX: 8000000 instructions simulated : ctaid=(1,0,0) tid=(31,0,0)
GPGPU-Sim PTX: 8100000 instructions simulated : ctaid=(2,0,0) tid=(31,0,0)
GPGPU-Sim uArch: cycles simulated: 113000  inst.: 7852575 (ipc=69.5) sim_rate=137764 (inst/sec) elapsed = 0:0:00:57 / Tue Mar 22 12:40:40 2016
GPGPU-Sim PTX: 8200000 instructions simulated : ctaid=(8,0,0) tid=(31,0,0)
GPGPU-Sim uArch: cycles simulated: 115500  inst.: 7999007 (ipc=69.3) sim_rate=137913 (inst/sec) elapsed = 0:0:00:58 / Tue Mar 22 12:40:41 2016
GPGPU-Sim PTX: 8300000 instructions simulated : ctaid=(4,0,0) tid=(63,0,0)
GPGPU-Sim PTX: 8400000 instructions simulated : ctaid=(1,0,0) tid=(31,0,0)
GPGPU-Sim uArch: cycles simulated: 118000  inst.: 8149247 (ipc=69.1) sim_rate=138122 (inst/sec) elapsed = 0:0:00:59 / Tue Mar 22 12:40:42 2016
GPGPU-Sim PTX: 8500000 instructions simulated : ctaid=(7,0,0) tid=(63,0,0)
GPGPU-Sim uArch: cycles simulated: 120000  inst.: 8270911 (ipc=68.9) sim_rate=137848 (inst/sec) elapsed = 0:0:01:00 / Tue Mar 22 12:40:43 2016
GPGPU-Sim PTX: 8600000 instructions simulated : ctaid=(13,0,0) tid=(31,0,0)
GPGPU-Sim PTX: 8700000 instructions simulated : ctaid=(1,0,0) tid=(63,0,0)
GPGPU-Sim uArch: cycles simulated: 122500  inst.: 8449247 (ipc=69.0) sim_rate=138512 (inst/sec) elapsed = 0:0:01:01 / Tue Mar 22 12:40:44 2016
GPGPU-Sim PTX: 8800000 instructions simulated : ctaid=(9,0,0) tid=(31,0,0)
GPGPU-Sim PTX: 8900000 instructions simulated : ctaid=(14,0,0) tid=(63,0,0)
GPGPU-Sim uArch: cycles simulated: 125000  inst.: 8655359 (ipc=69.2) sim_rate=139602 (inst/sec) elapsed = 0:0:01:02 / Tue Mar 22 12:40:45 2016
GPGPU-Sim PTX: 9000000 instructions simulated : ctaid=(10,0,0) tid=(63,0,0)
GPGPU-Sim PTX: 9100000 instructions simulated : ctaid=(0,0,0) tid=(95,0,0)
GPGPU-Sim uArch: cycles simulated: 127000  inst.: 8869567 (ipc=69.8) sim_rate=140786 (inst/sec) elapsed = 0:0:01:03 / Tue Mar 22 12:40:46 2016
GPGPU-Sim PTX: 9200000 instructions simulated : ctaid=(0,0,0) tid=(127,0,0)
GPGPU-Sim PTX: 9300000 instructions simulated : ctaid=(13,0,0) tid=(127,0,0)
GPGPU-Sim PTX: 9400000 instructions simulated : ctaid=(8,0,0) tid=(127,0,0)
GPGPU-Sim uArch: cycles simulated: 129000  inst.: 9107775 (ipc=70.6) sim_rate=142308 (inst/sec) elapsed = 0:0:01:04 / Tue Mar 22 12:40:47 2016
GPGPU-Sim PTX: 9500000 instructions simulated : ctaid=(0,0,0) tid=(95,0,0)
GPGPU-Sim PTX: 9600000 instructions simulated : ctaid=(4,0,0) tid=(127,0,0)
GPGPU-Sim uArch: cycles simulated: 131000  inst.: 9341023 (ipc=71.3) sim_rate=143708 (inst/sec) elapsed = 0:0:01:05 / Tue Mar 22 12:40:48 2016
GPGPU-Sim PTX: 9700000 instructions simulated : ctaid=(1,0,0) tid=(95,0,0)
GPGPU-Sim PTX: 9800000 instructions simulated : ctaid=(5,0,0) tid=(95,0,0)
GPGPU-Sim uArch: cycles simulated: 132500  inst.: 9516415 (ipc=71.8) sim_rate=144188 (inst/sec) elapsed = 0:0:01:06 / Tue Mar 22 12:40:49 2016
GPGPU-Sim PTX: 9900000 instructions simulated : ctaid=(6,0,0) tid=(127,0,0)
GPGPU-Sim PTX: 10000000 instructions simulated : ctaid=(1,0,0) tid=(95,0,0)
GPGPU-Sim uArch: cycles simulated: 134500  inst.: 9748127 (ipc=72.5) sim_rate=145494 (inst/sec) elapsed = 0:0:01:07 / Tue Mar 22 12:40:50 2016
GPGPU-Sim PTX: 10100000 instructions simulated : ctaid=(2,0,0) tid=(127,0,0)
GPGPU-Sim PTX: 10200000 instructions simulated : ctaid=(3,0,0) tid=(127,0,0)
GPGPU-Sim uArch: cycles simulated: 136500  inst.: 9973855 (ipc=73.1) sim_rate=146674 (inst/sec) elapsed = 0:0:01:08 / Tue Mar 22 12:40:51 2016
GPGPU-Sim PTX: 10300000 instructions simulated : ctaid=(12,0,0) tid=(95,0,0)
GPGPU-Sim PTX: 10400000 instructions simulated : ctaid=(8,0,0) tid=(127,0,0)
GPGPU-Sim PTX: 10500000 instructions simulated : ctaid=(9,0,0) tid=(95,0,0)
GPGPU-Sim uArch: cycles simulated: 138500  inst.: 10210239 (ipc=73.7) sim_rate=147974 (inst/sec) elapsed = 0:0:01:09 / Tue Mar 22 12:40:52 2016
GPGPU-Sim PTX: 10600000 instructions simulated : ctaid=(7,0,0) tid=(95,0,0)
GPGPU-Sim uArch: cycles simulated: 140000  inst.: 10377791 (ipc=74.1) sim_rate=148254 (inst/sec) elapsed = 0:0:01:10 / Tue Mar 22 12:40:53 2016
GPGPU-Sim PTX: 10700000 instructions simulated : ctaid=(0,0,0) tid=(127,0,0)
GPGPU-Sim PTX: 10800000 instructions simulated : ctaid=(0,0,0) tid=(127,0,0)
GPGPU-Sim PTX: 10900000 instructions simulated : ctaid=(9,0,0) tid=(127,0,0)
GPGPU-Sim uArch: cycles simulated: 142000  inst.: 10601439 (ipc=74.7) sim_rate=149316 (inst/sec) elapsed = 0:0:01:11 / Tue Mar 22 12:40:54 2016
GPGPU-Sim PTX: 11000000 instructions simulated : ctaid=(6,0,0) tid=(127,0,0)
GPGPU-Sim uArch: cycles simulated: 143500  inst.: 10775295 (ipc=75.1) sim_rate=149656 (inst/sec) elapsed = 0:0:01:12 / Tue Mar 22 12:40:55 2016
GPGPU-Sim PTX: 11100000 instructions simulated : ctaid=(1,0,0) tid=(95,0,0)
GPGPU-Sim PTX: 11200000 instructions simulated : ctaid=(14,0,0) tid=(127,0,0)
GPGPU-Sim uArch: cycles simulated: 145000  inst.: 10947967 (ipc=75.5) sim_rate=149972 (inst/sec) elapsed = 0:0:01:13 / Tue Mar 22 12:40:56 2016
GPGPU-Sim PTX: 11300000 instructions simulated : ctaid=(1,0,0) tid=(95,0,0)
GPGPU-Sim PTX: 11400000 instructions simulated : ctaid=(9,0,0) tid=(127,0,0)
GPGPU-Sim uArch: cycles simulated: 146500  inst.: 11117887 (ipc=75.9) sim_rate=150241 (inst/sec) elapsed = 0:0:01:14 / Tue Mar 22 12:40:57 2016
GPGPU-Sim PTX: 11500000 instructions simulated : ctaid=(10,0,0) tid=(95,0,0)
GPGPU-Sim uArch: cycles simulated: 148000  inst.: 11279391 (ipc=76.2) sim_rate=150391 (inst/sec) elapsed = 0:0:01:15 / Tue Mar 22 12:40:58 2016
GPGPU-Sim PTX: 11600000 instructions simulated : ctaid=(14,0,0) tid=(127,0,0)
GPGPU-Sim PTX: 11700000 instructions simulated : ctaid=(14,0,0) tid=(95,0,0)
GPGPU-Sim uArch: cycles simulated: 149500  inst.: 11423199 (ipc=76.4) sim_rate=150305 (inst/sec) elapsed = 0:0:01:16 / Tue Mar 22 12:40:59 2016
GPGPU-Sim PTX: 11800000 instructions simulated : ctaid=(12,0,0) tid=(95,0,0)
GPGPU-Sim PTX: 11900000 instructions simulated : ctaid=(6,0,0) tid=(127,0,0)
GPGPU-Sim uArch: cycles simulated: 151500  inst.: 11600191 (ipc=76.6) sim_rate=150651 (inst/sec) elapsed = 0:0:01:17 / Tue Mar 22 12:41:00 2016
GPGPU-Sim PTX: 12000000 instructions simulated : ctaid=(1,0,0) tid=(127,0,0)
GPGPU-Sim uArch: cycles simulated: 153500  inst.: 11778751 (ipc=76.7) sim_rate=151009 (inst/sec) elapsed = 0:0:01:18 / Tue Mar 22 12:41:01 2016
GPGPU-Sim PTX: 12100000 instructions simulated : ctaid=(1,0,0) tid=(95,0,0)
GPGPU-Sim PTX: 12200000 instructions simulated : ctaid=(8,0,0) tid=(127,0,0)
GPGPU-Sim uArch: cycles simulated: 155500  inst.: 11933919 (ipc=76.7) sim_rate=151062 (inst/sec) elapsed = 0:0:01:19 / Tue Mar 22 12:41:02 2016
GPGPU-Sim PTX: 12300000 instructions simulated : ctaid=(4,0,0) tid=(95,0,0)
GPGPU-Sim uArch: cycles simulated: 157500  inst.: 12063839 (ipc=76.6) sim_rate=150797 (inst/sec) elapsed = 0:0:01:20 / Tue Mar 22 12:41:03 2016
GPGPU-Sim PTX: 12400000 instructions simulated : ctaid=(7,0,0) tid=(95,0,0)
GPGPU-Sim PTX: 12500000 instructions simulated : ctaid=(0,0,0) tid=(95,0,0)
GPGPU-Sim uArch: cycles simulated: 160000  inst.: 12198431 (ipc=76.2) sim_rate=150597 (inst/sec) elapsed = 0:0:01:21 / Tue Mar 22 12:41:04 2016
GPGPU-Sim PTX: 12600000 instructions simulated : ctaid=(3,0,0) tid=(95,0,0)
GPGPU-Sim PTX: 12700000 instructions simulated : ctaid=(9,0,0) tid=(95,0,0)
GPGPU-Sim uArch: cycles simulated: 163000  inst.: 12385343 (ipc=76.0) sim_rate=151040 (inst/sec) elapsed = 0:0:01:22 / Tue Mar 22 12:41:05 2016
GPGPU-Sim PTX: 12800000 instructions simulated : ctaid=(4,0,0) tid=(95,0,0)
GPGPU-Sim uArch: cycles simulated: 165500  inst.: 12540127 (ipc=75.8) sim_rate=151085 (inst/sec) elapsed = 0:0:01:23 / Tue Mar 22 12:41:06 2016
GPGPU-Sim PTX: 12900000 instructions simulated : ctaid=(3,0,0) tid=(127,0,0)
GPGPU-Sim PTX: 13000000 instructions simulated : ctaid=(4,0,0) tid=(127,0,0)
GPGPU-Sim uArch: cycles simulated: 168000  inst.: 12697023 (ipc=75.6) sim_rate=151155 (inst/sec) elapsed = 0:0:01:24 / Tue Mar 22 12:41:07 2016
GPGPU-Sim PTX: 13100000 instructions simulated : ctaid=(10,0,0) tid=(95,0,0)
GPGPU-Sim PTX: 13200000 instructions simulated : ctaid=(12,0,0) tid=(95,0,0)
GPGPU-Sim uArch: cycles simulated: 171000  inst.: 12879743 (ipc=75.3) sim_rate=151526 (inst/sec) elapsed = 0:0:01:25 / Tue Mar 22 12:41:08 2016
GPGPU-Sim PTX: 13300000 instructions simulated : ctaid=(8,0,0) tid=(127,0,0)
GPGPU-Sim PTX: 13400000 instructions simulated : ctaid=(14,0,0) tid=(95,0,0)
GPGPU-Sim uArch: cycles simulated: 173500  inst.: 13028703 (ipc=75.1) sim_rate=151496 (inst/sec) elapsed = 0:0:01:26 / Tue Mar 22 12:41:09 2016
GPGPU-Sim PTX: 13500000 instructions simulated : ctaid=(13,0,0) tid=(95,0,0)
GPGPU-Sim uArch: cycles simulated: 176000  inst.: 13180287 (ipc=74.9) sim_rate=151497 (inst/sec) elapsed = 0:0:01:27 / Tue Mar 22 12:41:10 2016
GPGPU-Sim PTX: 13600000 instructions simulated : ctaid=(0,0,0) tid=(95,0,0)
GPGPU-Sim PTX: 13700000 instructions simulated : ctaid=(10,0,0) tid=(127,0,0)
GPGPU-Sim uArch: cycles simulated: 179000  inst.: 13362303 (ipc=74.6) sim_rate=151844 (inst/sec) elapsed = 0:0:01:28 / Tue Mar 22 12:41:11 2016
GPGPU-Sim PTX: 13800000 instructions simulated : ctaid=(5,0,0) tid=(127,0,0)
GPGPU-Sim uArch: cycles simulated: 181000  inst.: 13487839 (ipc=74.5) sim_rate=151548 (inst/sec) elapsed = 0:0:01:29 / Tue Mar 22 12:41:12 2016
GPGPU-Sim PTX: 13900000 instructions simulated : ctaid=(3,0,0) tid=(95,0,0)
GPGPU-Sim PTX: 14000000 instructions simulated : ctaid=(2,0,0) tid=(127,0,0)
GPGPU-Sim uArch: cycles simulated: 184000  inst.: 13674399 (ipc=74.3) sim_rate=151937 (inst/sec) elapsed = 0:0:01:30 / Tue Mar 22 12:41:13 2016
GPGPU-Sim PTX: 14100000 instructions simulated : ctaid=(5,0,0) tid=(127,0,0)
GPGPU-Sim PTX: 14200000 instructions simulated : ctaid=(14,0,0) tid=(95,0,0)
GPGPU-Sim uArch: cycles simulated: 186500  inst.: 13831391 (ipc=74.2) sim_rate=151993 (inst/sec) elapsed = 0:0:01:31 / Tue Mar 22 12:41:14 2016
GPGPU-Sim PTX: 14300000 instructions simulated : ctaid=(5,0,0) tid=(127,0,0)
GPGPU-Sim uArch: cycles simulated: 188500  inst.: 13954015 (ipc=74.0) sim_rate=151674 (inst/sec) elapsed = 0:0:01:32 / Tue Mar 22 12:41:15 2016
GPGPU-Sim PTX: 14400000 instructions simulated : ctaid=(3,0,0) tid=(127,0,0)
GPGPU-Sim PTX: 14500000 instructions simulated : ctaid=(2,0,0) tid=(127,0,0)
GPGPU-Sim uArch: cycles simulated: 191000  inst.: 14117759 (ipc=73.9) sim_rate=151803 (inst/sec) elapsed = 0:0:01:33 / Tue Mar 22 12:41:16 2016
GPGPU-Sim PTX: 14600000 instructions simulated : ctaid=(6,0,0) tid=(127,0,0)
GPGPU-Sim PTX: 14700000 instructions simulated : ctaid=(0,0,0) tid=(127,0,0)
GPGPU-Sim uArch: cycles simulated: 194000  inst.: 14305791 (ipc=73.7) sim_rate=152189 (inst/sec) elapsed = 0:0:01:34 / Tue Mar 22 12:41:17 2016
GPGPU-Sim PTX: 14800000 instructions simulated : ctaid=(13,0,0) tid=(95,0,0)
GPGPU-Sim uArch: cycles simulated: 196000  inst.: 14433279 (ipc=73.6) sim_rate=151929 (inst/sec) elapsed = 0:0:01:35 / Tue Mar 22 12:41:18 2016
GPGPU-Sim PTX: 14900000 instructions simulated : ctaid=(0,0,0) tid=(127,0,0)
GPGPU-Sim PTX: 15000000 instructions simulated : ctaid=(10,0,0) tid=(127,0,0)
GPGPU-Sim uArch: cycles simulated: 198500  inst.: 14580575 (ipc=73.5) sim_rate=151880 (inst/sec) elapsed = 0:0:01:36 / Tue Mar 22 12:41:19 2016
GPGPU-Sim PTX: 15100000 instructions simulated : ctaid=(4,0,0) tid=(127,0,0)
GPGPU-Sim PTX: 15200000 instructions simulated : ctaid=(0,0,0) tid=(127,0,0)
GPGPU-Sim uArch: cycles simulated: 201500  inst.: 14766431 (ipc=73.3) sim_rate=152231 (inst/sec) elapsed = 0:0:01:37 / Tue Mar 22 12:41:20 2016
GPGPU-Sim PTX: 15300000 instructions simulated : ctaid=(1,0,0) tid=(127,0,0)
GPGPU-Sim PTX: 15400000 instructions simulated : ctaid=(8,0,0) tid=(127,0,0)
GPGPU-Sim uArch: cycles simulated: 204000  inst.: 14915263 (ipc=73.1) sim_rate=152196 (inst/sec) elapsed = 0:0:01:38 / Tue Mar 22 12:41:21 2016
GPGPU-Sim PTX: 15500000 instructions simulated : ctaid=(13,0,0) tid=(127,0,0)
GPGPU-Sim uArch: cycles simulated: 206500  inst.: 15071775 (ipc=73.0) sim_rate=152240 (inst/sec) elapsed = 0:0:01:39 / Tue Mar 22 12:41:22 2016
GPGPU-Sim PTX: 15600000 instructions simulated : ctaid=(8,0,0) tid=(127,0,0)
GPGPU-Sim PTX: 15700000 instructions simulated : ctaid=(14,0,0) tid=(95,0,0)
GPGPU-Sim uArch: cycles simulated: 209000  inst.: 15224319 (ipc=72.8) sim_rate=152243 (inst/sec) elapsed = 0:0:01:40 / Tue Mar 22 12:41:23 2016
GPGPU-Sim PTX: 15800000 instructions simulated : ctaid=(13,0,0) tid=(127,0,0)
GPGPU-Sim uArch: cycles simulated: 211500  inst.: 15372991 (ipc=72.7) sim_rate=152207 (inst/sec) elapsed = 0:0:01:41 / Tue Mar 22 12:41:24 2016
GPGPU-Sim PTX: 15900000 instructions simulated : ctaid=(0,0,0) tid=(95,0,0)
GPGPU-Sim PTX: 16000000 instructions simulated : ctaid=(5,0,0) tid=(95,0,0)
GPGPU-Sim uArch: cycles simulated: 214000  inst.: 15532159 (ipc=72.6) sim_rate=152276 (inst/sec) elapsed = 0:0:01:42 / Tue Mar 22 12:41:25 2016
GPGPU-Sim PTX: 16100000 instructions simulated : ctaid=(12,0,0) tid=(127,0,0)
GPGPU-Sim PTX: 16200000 instructions simulated : ctaid=(1,0,0) tid=(127,0,0)
GPGPU-Sim uArch: cycles simulated: 216500  inst.: 15688703 (ipc=72.5) sim_rate=152317 (inst/sec) elapsed = 0:0:01:43 / Tue Mar 22 12:41:26 2016
GPGPU-Sim PTX: 16300000 instructions simulated : ctaid=(8,0,0) tid=(95,0,0)
GPGPU-Sim PTX: 16400000 instructions simulated : ctaid=(7,0,0) tid=(127,0,0)
GPGPU-Sim uArch: cycles simulated: 219000  inst.: 15866623 (ipc=72.5) sim_rate=152563 (inst/sec) elapsed = 0:0:01:44 / Tue Mar 22 12:41:27 2016
GPGPU-Sim PTX: 16500000 instructions simulated : ctaid=(5,0,0) tid=(191,0,0)
GPGPU-Sim uArch: cycles simulated: 221000  inst.: 16020511 (ipc=72.5) sim_rate=152576 (inst/sec) elapsed = 0:0:01:45 / Tue Mar 22 12:41:28 2016
GPGPU-Sim PTX: 16600000 instructions simulated : ctaid=(11,0,0) tid=(95,0,0)
GPGPU-Sim PTX: 16700000 instructions simulated : ctaid=(4,0,0) tid=(159,0,0)
GPGPU-Sim PTX: 16800000 instructions simulated : ctaid=(11,0,0) tid=(127,0,0)
GPGPU-Sim uArch: cycles simulated: 223500  inst.: 16237247 (ipc=72.6) sim_rate=153181 (inst/sec) elapsed = 0:0:01:46 / Tue Mar 22 12:41:29 2016
GPGPU-Sim PTX: 16900000 instructions simulated : ctaid=(8,0,0) tid=(191,0,0)
GPGPU-Sim PTX: 17000000 instructions simulated : ctaid=(13,0,0) tid=(191,0,0)
GPGPU-Sim uArch: cycles simulated: 226000  inst.: 16479167 (ipc=72.9) sim_rate=154010 (inst/sec) elapsed = 0:0:01:47 / Tue Mar 22 12:41:30 2016
GPGPU-Sim PTX: 17100000 instructions simulated : ctaid=(5,0,0) tid=(159,0,0)
GPGPU-Sim PTX: 17200000 instructions simulated : ctaid=(0,0,0) tid=(159,0,0)
GPGPU-Sim PTX: 17300000 instructions simulated : ctaid=(11,0,0) tid=(191,0,0)
GPGPU-Sim uArch: cycles simulated: 228500  inst.: 16736831 (ipc=73.2) sim_rate=154970 (inst/sec) elapsed = 0:0:01:48 / Tue Mar 22 12:41:31 2016
GPGPU-Sim PTX: 17400000 instructions simulated : ctaid=(1,0,0) tid=(159,0,0)
GPGPU-Sim PTX: 17500000 instructions simulated : ctaid=(0,0,0) tid=(191,0,0)
GPGPU-Sim uArch: cycles simulated: 230500  inst.: 16967071 (ipc=73.6) sim_rate=155661 (inst/sec) elapsed = 0:0:01:49 / Tue Mar 22 12:41:32 2016
GPGPU-Sim PTX: 17600000 instructions simulated : ctaid=(6,0,0) tid=(191,0,0)
GPGPU-Sim PTX: 17700000 instructions simulated : ctaid=(10,0,0) tid=(159,0,0)
GPGPU-Sim uArch: cycles simulated: 232500  inst.: 17203871 (ipc=74.0) sim_rate=156398 (inst/sec) elapsed = 0:0:01:50 / Tue Mar 22 12:41:33 2016
GPGPU-Sim PTX: 17800000 instructions simulated : ctaid=(11,0,0) tid=(159,0,0)
GPGPU-Sim PTX: 17900000 instructions simulated : ctaid=(1,0,0) tid=(191,0,0)
GPGPU-Sim PTX: 18000000 instructions simulated : ctaid=(1,0,0) tid=(191,0,0)
GPGPU-Sim uArch: cycles simulated: 234500  inst.: 17427551 (ipc=74.3) sim_rate=157004 (inst/sec) elapsed = 0:0:01:51 / Tue Mar 22 12:41:34 2016
GPGPU-Sim PTX: 18100000 instructions simulated : ctaid=(9,0,0) tid=(191,0,0)
GPGPU-Sim PTX: 18200000 instructions simulated : ctaid=(13,0,0) tid=(159,0,0)
GPGPU-Sim uArch: cycles simulated: 236500  inst.: 17656447 (ipc=74.7) sim_rate=157646 (inst/sec) elapsed = 0:0:01:52 / Tue Mar 22 12:41:35 2016
GPGPU-Sim PTX: 18300000 instructions simulated : ctaid=(14,0,0) tid=(191,0,0)
GPGPU-Sim PTX: 18400000 instructions simulated : ctaid=(5,0,0) tid=(159,0,0)
GPGPU-Sim uArch: cycles simulated: 238500  inst.: 17882399 (ipc=75.0) sim_rate=158251 (inst/sec) elapsed = 0:0:01:53 / Tue Mar 22 12:41:36 2016
GPGPU-Sim PTX: 18500000 instructions simulated : ctaid=(8,0,0) tid=(191,0,0)
GPGPU-Sim PTX: 18600000 instructions simulated : ctaid=(14,0,0) tid=(159,0,0)
GPGPU-Sim uArch: cycles simulated: 240000  inst.: 18046111 (ipc=75.2) sim_rate=158299 (inst/sec) elapsed = 0:0:01:54 / Tue Mar 22 12:41:37 2016
GPGPU-Sim PTX: 18700000 instructions simulated : ctaid=(9,0,0) tid=(159,0,0)
GPGPU-Sim PTX: 18800000 instructions simulated : ctaid=(7,0,0) tid=(191,0,0)
GPGPU-Sim uArch: cycles simulated: 242000  inst.: 18263199 (ipc=75.5) sim_rate=158810 (inst/sec) elapsed = 0:0:01:55 / Tue Mar 22 12:41:38 2016
GPGPU-Sim PTX: 18900000 instructions simulated : ctaid=(6,0,0) tid=(191,0,0)
GPGPU-Sim PTX: 19000000 instructions simulated : ctaid=(3,0,0) tid=(159,0,0)
GPGPU-Sim uArch: cycles simulated: 244000  inst.: 18472159 (ipc=75.7) sim_rate=159242 (inst/sec) elapsed = 0:0:01:56 / Tue Mar 22 12:41:39 2016
GPGPU-Sim PTX: 19100000 instructions simulated : ctaid=(9,0,0) tid=(191,0,0)
GPGPU-Sim PTX: 19200000 instructions simulated : ctaid=(5,0,0) tid=(159,0,0)
GPGPU-Sim uArch: cycles simulated: 246000  inst.: 18677087 (ipc=75.9) sim_rate=159633 (inst/sec) elapsed = 0:0:01:57 / Tue Mar 22 12:41:40 2016
GPGPU-Sim PTX: 19300000 instructions simulated : ctaid=(14,0,0) tid=(191,0,0)
GPGPU-Sim PTX: 19400000 instructions simulated : ctaid=(5,0,0) tid=(159,0,0)
GPGPU-Sim uArch: cycles simulated: 248000  inst.: 18865471 (ipc=76.1) sim_rate=159876 (inst/sec) elapsed = 0:0:01:58 / Tue Mar 22 12:41:41 2016
GPGPU-Sim PTX: 19500000 instructions simulated : ctaid=(10,0,0) tid=(159,0,0)
GPGPU-Sim PTX: 19600000 instructions simulated : ctaid=(12,0,0) tid=(191,0,0)
GPGPU-Sim uArch: cycles simulated: 250000  inst.: 19047135 (ipc=76.2) sim_rate=160059 (inst/sec) elapsed = 0:0:01:59 / Tue Mar 22 12:41:42 2016
GPGPU-Sim PTX: 19700000 instructions simulated : ctaid=(2,0,0) tid=(191,0,0)
GPGPU-Sim PTX: 19800000 instructions simulated : ctaid=(6,0,0) tid=(159,0,0)
GPGPU-Sim uArch: cycles simulated: 252000  inst.: 19231935 (ipc=76.3) sim_rate=160266 (inst/sec) elapsed = 0:0:02:00 / Tue Mar 22 12:41:43 2016
GPGPU-Sim PTX: 19900000 instructions simulated : ctaid=(7,0,0) tid=(191,0,0)
GPGPU-Sim PTX: 20000000 instructions simulated : ctaid=(11,0,0) tid=(159,0,0)
GPGPU-Sim uArch: cycles simulated: 254000  inst.: 19413471 (ipc=76.4) sim_rate=160441 (inst/sec) elapsed = 0:0:02:01 / Tue Mar 22 12:41:44 2016
GPGPU-Sim PTX: 20100000 instructions simulated : ctaid=(10,0,0) tid=(159,0,0)
GPGPU-Sim PTX: 20200000 instructions simulated : ctaid=(13,0,0) tid=(191,0,0)
GPGPU-Sim uArch: cycles simulated: 256500  inst.: 19608287 (ipc=76.4) sim_rate=160723 (inst/sec) elapsed = 0:0:02:02 / Tue Mar 22 12:41:45 2016
GPGPU-Sim PTX: 20300000 instructions simulated : ctaid=(12,0,0) tid=(159,0,0)
GPGPU-Sim uArch: cycles simulated: 259000  inst.: 19770143 (ipc=76.3) sim_rate=160732 (inst/sec) elapsed = 0:0:02:03 / Tue Mar 22 12:41:46 2016
GPGPU-Sim PTX: 20400000 instructions simulated : ctaid=(5,0,0) tid=(191,0,0)
GPGPU-Sim PTX: 20500000 instructions simulated : ctaid=(4,0,0) tid=(159,0,0)
GPGPU-Sim uArch: cycles simulated: 262500  inst.: 19973247 (ipc=76.1) sim_rate=161074 (inst/sec) elapsed = 0:0:02:04 / Tue Mar 22 12:41:47 2016
GPGPU-Sim PTX: 20600000 instructions simulated : ctaid=(0,0,0) tid=(159,0,0)
GPGPU-Sim PTX: 20700000 instructions simulated : ctaid=(7,0,0) tid=(191,0,0)
GPGPU-Sim uArch: cycles simulated: 265000  inst.: 20129343 (ipc=76.0) sim_rate=161034 (inst/sec) elapsed = 0:0:02:05 / Tue Mar 22 12:41:48 2016
GPGPU-Sim PTX: 20800000 instructions simulated : ctaid=(0,0,0) tid=(159,0,0)
GPGPU-Sim PTX: 20900000 instructions simulated : ctaid=(9,0,0) tid=(159,0,0)
GPGPU-Sim uArch: cycles simulated: 268000  inst.: 20311135 (ipc=75.8) sim_rate=161199 (inst/sec) elapsed = 0:0:02:06 / Tue Mar 22 12:41:49 2016
GPGPU-Sim PTX: 21000000 instructions simulated : ctaid=(1,0,0) tid=(191,0,0)
GPGPU-Sim PTX: 21100000 instructions simulated : ctaid=(7,0,0) tid=(191,0,0)
GPGPU-Sim uArch: cycles simulated: 271500  inst.: 20527999 (ipc=75.6) sim_rate=161637 (inst/sec) elapsed = 0:0:02:07 / Tue Mar 22 12:41:50 2016
GPGPU-Sim PTX: 21200000 instructions simulated : ctaid=(4,0,0) tid=(159,0,0)
GPGPU-Sim PTX: 21300000 instructions simulated : ctaid=(7,0,0) tid=(159,0,0)
GPGPU-Sim uArch: cycles simulated: 274000  inst.: 20675743 (ipc=75.5) sim_rate=161529 (inst/sec) elapsed = 0:0:02:08 / Tue Mar 22 12:41:51 2016
GPGPU-Sim PTX: 21400000 instructions simulated : ctaid=(0,0,0) tid=(191,0,0)
GPGPU-Sim PTX: 21500000 instructions simulated : ctaid=(10,0,0) tid=(159,0,0)
GPGPU-Sim uArch: cycles simulated: 277000  inst.: 20863839 (ipc=75.3) sim_rate=161735 (inst/sec) elapsed = 0:0:02:09 / Tue Mar 22 12:41:52 2016
GPGPU-Sim PTX: 21600000 instructions simulated : ctaid=(0,0,0) tid=(191,0,0)
GPGPU-Sim PTX: 21700000 instructions simulated : ctaid=(8,0,0) tid=(191,0,0)
GPGPU-Sim uArch: cycles simulated: 280500  inst.: 21077983 (ipc=75.1) sim_rate=162138 (inst/sec) elapsed = 0:0:02:10 / Tue Mar 22 12:41:53 2016
GPGPU-Sim PTX: 21800000 instructions simulated : ctaid=(12,0,0) tid=(159,0,0)
GPGPU-Sim PTX: 21900000 instructions simulated : ctaid=(12,0,0) tid=(191,0,0)
GPGPU-Sim uArch: cycles simulated: 283500  inst.: 21266207 (ipc=75.0) sim_rate=162337 (inst/sec) elapsed = 0:0:02:11 / Tue Mar 22 12:41:54 2016
GPGPU-Sim PTX: 22000000 instructions simulated : ctaid=(14,0,0) tid=(191,0,0)
GPGPU-Sim PTX: 22100000 instructions simulated : ctaid=(8,0,0) tid=(159,0,0)
GPGPU-Sim uArch: cycles simulated: 287000  inst.: 21485567 (ipc=74.9) sim_rate=162769 (inst/sec) elapsed = 0:0:02:12 / Tue Mar 22 12:41:55 2016
GPGPU-Sim PTX: 22200000 instructions simulated : ctaid=(4,0,0) tid=(191,0,0)
GPGPU-Sim PTX: 22300000 instructions simulated : ctaid=(6,0,0) tid=(159,0,0)
GPGPU-Sim uArch: cycles simulated: 290000  inst.: 21670015 (ipc=74.7) sim_rate=162932 (inst/sec) elapsed = 0:0:02:13 / Tue Mar 22 12:41:56 2016
GPGPU-Sim PTX: 22400000 instructions simulated : ctaid=(2,0,0) tid=(191,0,0)
GPGPU-Sim PTX: 22500000 instructions simulated : ctaid=(8,0,0) tid=(191,0,0)
GPGPU-Sim uArch: cycles simulated: 292500  inst.: 21827359 (ipc=74.6) sim_rate=162890 (inst/sec) elapsed = 0:0:02:14 / Tue Mar 22 12:41:57 2016
GPGPU-Sim PTX: 22600000 instructions simulated : ctaid=(13,0,0) tid=(159,0,0)
GPGPU-Sim PTX: 22700000 instructions simulated : ctaid=(3,0,0) tid=(159,0,0)
GPGPU-Sim uArch: cycles simulated: 295500  inst.: 22012543 (ipc=74.5) sim_rate=163055 (inst/sec) elapsed = 0:0:02:15 / Tue Mar 22 12:41:58 2016
GPGPU-Sim PTX: 22800000 instructions simulated : ctaid=(10,0,0) tid=(159,0,0)
GPGPU-Sim PTX: 22900000 instructions simulated : ctaid=(11,0,0) tid=(159,0,0)
GPGPU-Sim uArch: cycles simulated: 298500  inst.: 22195327 (ipc=74.4) sim_rate=163200 (inst/sec) elapsed = 0:0:02:16 / Tue Mar 22 12:41:59 2016
GPGPU-Sim PTX: 23000000 instructions simulated : ctaid=(9,0,0) tid=(191,0,0)
GPGPU-Sim PTX: 23100000 instructions simulated : ctaid=(3,0,0) tid=(159,0,0)
GPGPU-Sim uArch: cycles simulated: 301500  inst.: 22374399 (ipc=74.2) sim_rate=163316 (inst/sec) elapsed = 0:0:02:17 / Tue Mar 22 12:42:00 2016
GPGPU-Sim PTX: 23200000 instructions simulated : ctaid=(5,0,0) tid=(159,0,0)
GPGPU-Sim PTX: 23300000 instructions simulated : ctaid=(11,0,0) tid=(159,0,0)
GPGPU-Sim uArch: cycles simulated: 304500  inst.: 22559839 (ipc=74.1) sim_rate=163477 (inst/sec) elapsed = 0:0:02:18 / Tue Mar 22 12:42:01 2016
GPGPU-Sim PTX: 23400000 instructions simulated : ctaid=(7,0,0) tid=(159,0,0)
GPGPU-Sim PTX: 23500000 instructions simulated : ctaid=(12,0,0) tid=(159,0,0)
GPGPU-Sim uArch: cycles simulated: 307500  inst.: 22741951 (ipc=74.0) sim_rate=163611 (inst/sec) elapsed = 0:0:02:19 / Tue Mar 22 12:42:02 2016
GPGPU-Sim PTX: 23600000 instructions simulated : ctaid=(7,0,0) tid=(159,0,0)
GPGPU-Sim PTX: 23700000 instructions simulated : ctaid=(12,0,0) tid=(191,0,0)
GPGPU-Sim uArch: cycles simulated: 310500  inst.: 22920735 (ipc=73.8) sim_rate=163719 (inst/sec) elapsed = 0:0:02:20 / Tue Mar 22 12:42:03 2016
GPGPU-Sim PTX: 23800000 instructions simulated : ctaid=(6,0,0) tid=(159,0,0)
GPGPU-Sim PTX: 23900000 instructions simulated : ctaid=(12,0,0) tid=(191,0,0)
GPGPU-Sim uArch: cycles simulated: 313500  inst.: 23113663 (ipc=73.7) sim_rate=163926 (inst/sec) elapsed = 0:0:02:21 / Tue Mar 22 12:42:04 2016
GPGPU-Sim PTX: 24000000 instructions simulated : ctaid=(10,0,0) tid=(191,0,0)
GPGPU-Sim PTX: 24100000 instructions simulated : ctaid=(1,0,0) tid=(159,0,0)
GPGPU-Sim uArch: cycles simulated: 316500  inst.: 23322015 (ipc=73.7) sim_rate=164239 (inst/sec) elapsed = 0:0:02:22 / Tue Mar 22 12:42:05 2016
GPGPU-Sim PTX: 24200000 instructions simulated : ctaid=(14,0,0) tid=(191,0,0)
GPGPU-Sim PTX: 24300000 instructions simulated : ctaid=(4,0,0) tid=(191,0,0)
GPGPU-Sim uArch: cycles simulated: 319500  inst.: 23549087 (ipc=73.7) sim_rate=164678 (inst/sec) elapsed = 0:0:02:23 / Tue Mar 22 12:42:06 2016
GPGPU-Sim PTX: 24400000 instructions simulated : ctaid=(13,0,0) tid=(255,0,0)
GPGPU-Sim PTX: 24500000 instructions simulated : ctaid=(5,0,0) tid=(223,0,0)
GPGPU-Sim uArch: cycles simulated: 322000  inst.: 23754527 (ipc=73.8) sim_rate=164961 (inst/sec) elapsed = 0:0:02:24 / Tue Mar 22 12:42:07 2016
GPGPU-Sim PTX: 24600000 instructions simulated : ctaid=(5,0,0) tid=(255,0,0)
GPGPU-Sim PTX: 24700000 instructions simulated : ctaid=(7,0,0) tid=(255,0,0)
GPGPU-Sim PTX: 24800000 instructions simulated : ctaid=(11,0,0) tid=(159,0,0)
GPGPU-Sim uArch: cycles simulated: 325000  inst.: 24021375 (ipc=73.9) sim_rate=165664 (inst/sec) elapsed = 0:0:02:25 / Tue Mar 22 12:42:08 2016
GPGPU-Sim PTX: 24900000 instructions simulated : ctaid=(0,0,0) tid=(159,0,0)
GPGPU-Sim PTX: 25000000 instructions simulated : ctaid=(2,0,0) tid=(159,0,0)
GPGPU-Sim PTX: 25100000 instructions simulated : ctaid=(13,0,0) tid=(255,0,0)
GPGPU-Sim uArch: cycles simulated: 327500  inst.: 24259583 (ipc=74.1) sim_rate=166161 (inst/sec) elapsed = 0:0:02:26 / Tue Mar 22 12:42:09 2016
GPGPU-Sim PTX: 25200000 instructions simulated : ctaid=(5,0,0) tid=(223,0,0)
GPGPU-Sim PTX: 25300000 instructions simulated : ctaid=(10,0,0) tid=(223,0,0)
GPGPU-Sim uArch: cycles simulated: 330000  inst.: 24526591 (ipc=74.3) sim_rate=166847 (inst/sec) elapsed = 0:0:02:27 / Tue Mar 22 12:42:10 2016
GPGPU-Sim PTX: 25400000 instructions simulated : ctaid=(8,0,0) tid=(255,0,0)
GPGPU-Sim PTX: 25500000 instructions simulated : ctaid=(10,0,0) tid=(255,0,0)
GPGPU-Sim PTX: 25600000 instructions simulated : ctaid=(14,0,0) tid=(223,0,0)
GPGPU-Sim uArch: cycles simulated: 332000  inst.: 24763071 (ipc=74.6) sim_rate=167318 (inst/sec) elapsed = 0:0:02:28 / Tue Mar 22 12:42:11 2016
GPGPU-Sim PTX: 25700000 instructions simulated : ctaid=(10,0,0) tid=(223,0,0)
GPGPU-Sim PTX: 25800000 instructions simulated : ctaid=(5,0,0) tid=(255,0,0)
GPGPU-Sim PTX: 25900000 instructions simulated : ctaid=(4,0,0) tid=(223,0,0)
GPGPU-Sim uArch: cycles simulated: 334500  inst.: 25057599 (ipc=74.9) sim_rate=168171 (inst/sec) elapsed = 0:0:02:29 / Tue Mar 22 12:42:12 2016
GPGPU-Sim PTX: 26000000 instructions simulated : ctaid=(4,0,0) tid=(255,0,0)
GPGPU-Sim PTX: 26100000 instructions simulated : ctaid=(0,0,0) tid=(223,0,0)
GPGPU-Sim uArch: cycles simulated: 336500  inst.: 25297471 (ipc=75.2) sim_rate=168649 (inst/sec) elapsed = 0:0:02:30 / Tue Mar 22 12:42:13 2016
GPGPU-Sim PTX: 26200000 instructions simulated : ctaid=(8,0,0) tid=(255,0,0)
GPGPU-Sim PTX: 26300000 instructions simulated : ctaid=(14,0,0) tid=(223,0,0)
GPGPU-Sim uArch: cycles simulated: 338500  inst.: 25538431 (ipc=75.4) sim_rate=169128 (inst/sec) elapsed = 0:0:02:31 / Tue Mar 22 12:42:14 2016
GPGPU-Sim PTX: 26400000 instructions simulated : ctaid=(8,0,0) tid=(255,0,0)
GPGPU-Sim PTX: 26500000 instructions simulated : ctaid=(14,0,0) tid=(255,0,0)
GPGPU-Sim PTX: 26600000 instructions simulated : ctaid=(7,0,0) tid=(255,0,0)
GPGPU-Sim uArch: cycles simulated: 340500  inst.: 25771999 (ipc=75.7) sim_rate=169552 (inst/sec) elapsed = 0:0:02:32 / Tue Mar 22 12:42:15 2016
GPGPU-Sim PTX: 26700000 instructions simulated : ctaid=(14,0,0) tid=(223,0,0)
GPGPU-Sim PTX: 26800000 instructions simulated : ctaid=(4,0,0) tid=(223,0,0)
GPGPU-Sim uArch: cycles simulated: 342500  inst.: 25996799 (ipc=75.9) sim_rate=169913 (inst/sec) elapsed = 0:0:02:33 / Tue Mar 22 12:42:16 2016
GPGPU-Sim PTX: 26900000 instructions simulated : ctaid=(14,0,0) tid=(223,0,0)
GPGPU-Sim PTX: 27000000 instructions simulated : ctaid=(4,0,0) tid=(255,0,0)
GPGPU-Sim PTX: 27100000 instructions simulated : ctaid=(9,0,0) tid=(223,0,0)
GPGPU-Sim uArch: cycles simulated: 345000  inst.: 26264575 (ipc=76.1) sim_rate=170549 (inst/sec) elapsed = 0:0:02:34 / Tue Mar 22 12:42:17 2016
GPGPU-Sim PTX: 27200000 instructions simulated : ctaid=(10,0,0) tid=(223,0,0)
GPGPU-Sim PTX: 27300000 instructions simulated : ctaid=(14,0,0) tid=(255,0,0)
GPGPU-Sim uArch: cycles simulated: 347000  inst.: 26473951 (ipc=76.3) sim_rate=170799 (inst/sec) elapsed = 0:0:02:35 / Tue Mar 22 12:42:18 2016
GPGPU-Sim PTX: 27400000 instructions simulated : ctaid=(11,0,0) tid=(255,0,0)
GPGPU-Sim PTX: 27500000 instructions simulated : ctaid=(0,0,0) tid=(223,0,0)
GPGPU-Sim uArch: cycles simulated: 349000  inst.: 26665823 (ipc=76.4) sim_rate=170934 (inst/sec) elapsed = 0:0:02:36 / Tue Mar 22 12:42:19 2016
GPGPU-Sim PTX: 27600000 instructions simulated : ctaid=(5,0,0) tid=(255,0,0)
GPGPU-Sim PTX: 27700000 instructions simulated : ctaid=(14,0,0) tid=(223,0,0)
GPGPU-Sim uArch: cycles simulated: 351500  inst.: 26894911 (ipc=76.5) sim_rate=171305 (inst/sec) elapsed = 0:0:02:37 / Tue Mar 22 12:42:20 2016
GPGPU-Sim PTX: 27800000 instructions simulated : ctaid=(10,0,0) tid=(223,0,0)
GPGPU-Sim PTX: 27900000 instructions simulated : ctaid=(3,0,0) tid=(223,0,0)
GPGPU-Sim uArch: cycles simulated: 354000  inst.: 27096255 (ipc=76.5) sim_rate=171495 (inst/sec) elapsed = 0:0:02:38 / Tue Mar 22 12:42:21 2016
GPGPU-Sim PTX: 28000000 instructions simulated : ctaid=(11,0,0) tid=(255,0,0)
GPGPU-Sim PTX: 28100000 instructions simulated : ctaid=(12,0,0) tid=(255,0,0)
GPGPU-Sim uArch: cycles simulated: 356500  inst.: 27275583 (ipc=76.5) sim_rate=171544 (inst/sec) elapsed = 0:0:02:39 / Tue Mar 22 12:42:22 2016
GPGPU-Sim PTX: 28200000 instructions simulated : ctaid=(2,0,0) tid=(223,0,0)
GPGPU-Sim PTX: 28300000 instructions simulated : ctaid=(3,0,0) tid=(255,0,0)
GPGPU-Sim uArch: cycles simulated: 359000  inst.: 27446847 (ipc=76.5) sim_rate=171542 (inst/sec) elapsed = 0:0:02:40 / Tue Mar 22 12:42:23 2016
GPGPU-Sim PTX: 28400000 instructions simulated : ctaid=(2,0,0) tid=(223,0,0)
GPGPU-Sim uArch: cycles simulated: 361500  inst.: 27598463 (ipc=76.3) sim_rate=171419 (inst/sec) elapsed = 0:0:02:41 / Tue Mar 22 12:42:24 2016
GPGPU-Sim PTX: 28500000 instructions simulated : ctaid=(5,0,0) tid=(223,0,0)
GPGPU-Sim PTX: 28600000 instructions simulated : ctaid=(14,0,0) tid=(223,0,0)
GPGPU-Sim uArch: cycles simulated: 364000  inst.: 27752511 (ipc=76.2) sim_rate=171311 (inst/sec) elapsed = 0:0:02:42 / Tue Mar 22 12:42:25 2016
GPGPU-Sim PTX: 28700000 instructions simulated : ctaid=(6,0,0) tid=(255,0,0)
GPGPU-Sim PTX: 28800000 instructions simulated : ctaid=(0,0,0) tid=(223,0,0)
GPGPU-Sim uArch: cycles simulated: 367000  inst.: 27939743 (ipc=76.1) sim_rate=171409 (inst/sec) elapsed = 0:0:02:43 / Tue Mar 22 12:42:26 2016
GPGPU-Sim PTX: 28900000 instructions simulated : ctaid=(5,0,0) tid=(223,0,0)
GPGPU-Sim PTX: 29000000 instructions simulated : ctaid=(1,0,0) tid=(255,0,0)
GPGPU-Sim uArch: cycles simulated: 370000  inst.: 28122815 (ipc=76.0) sim_rate=171480 (inst/sec) elapsed = 0:0:02:44 / Tue Mar 22 12:42:27 2016
GPGPU-Sim PTX: 29100000 instructions simulated : ctaid=(8,0,0) tid=(223,0,0)
GPGPU-Sim PTX: 29200000 instructions simulated : ctaid=(6,0,0) tid=(223,0,0)
GPGPU-Sim uArch: cycles simulated: 373500  inst.: 28336767 (ipc=75.9) sim_rate=171737 (inst/sec) elapsed = 0:0:02:45 / Tue Mar 22 12:42:28 2016
GPGPU-Sim PTX: 29300000 instructions simulated : ctaid=(8,0,0) tid=(223,0,0)
GPGPU-Sim PTX: 29400000 instructions simulated : ctaid=(4,0,0) tid=(223,0,0)
GPGPU-Sim uArch: cycles simulated: 376500  inst.: 28523583 (ipc=75.8) sim_rate=171828 (inst/sec) elapsed = 0:0:02:46 / Tue Mar 22 12:42:29 2016
GPGPU-Sim PTX: 29500000 instructions simulated : ctaid=(6,0,0) tid=(223,0,0)
GPGPU-Sim PTX: 29600000 instructions simulated : ctaid=(8,0,0) tid=(255,0,0)
GPGPU-Sim uArch: cycles simulated: 380000  inst.: 28731167 (ipc=75.6) sim_rate=172042 (inst/sec) elapsed = 0:0:02:47 / Tue Mar 22 12:42:30 2016
GPGPU-Sim PTX: 29700000 instructions simulated : ctaid=(9,0,0) tid=(223,0,0)
GPGPU-Sim PTX: 29800000 instructions simulated : ctaid=(4,0,0) tid=(255,0,0)
[...]
dram[1]:     91780     86849     99779    119729    194503    111888     98208     93868     97316     89444    270244    278453    117760     98612     88093     92953 
dram[2]:     94843    206425    100107    120214     94897    106228     92293    193772    101215    101588    270244    278453    182810     95786     88351     87567 
dram[3]:     86559    103297    103577     97150     84368     98150     94641    101292     98108    127706    257959    268614    106188    101505     93677     87409 
dram[4]:    200378     98570    100722    118753    101885    185963    204320     93872    109651    106154    260541    219224     99506    115531     93112    164461 
dram[5]:     99533    200759    101080     99110    102649    187647    190895     96169    107330    123314    269440    163981    101536     98579     88328     93290 
average row accesses per activate:
dram[0]:  2.623529  2.540230  2.714286  2.923077  2.623967  2.572581  2.737052  2.692913  2.677419  2.538168  2.333333  2.318182  2.429658  2.498039  2.547244  2.490494 
dram[1]:  2.589147  2.509434  2.746606  2.941748  2.621399  2.651452  2.623077  2.703557  2.660000  2.587549  2.461255  2.483146  2.536000  2.610656  2.722689  2.666667 
dram[2]:  2.516981  2.539924  2.730942  2.754545  2.644628  2.561753  2.571970  2.573034  2.503759  2.459259  2.526515  2.430657  2.503937  2.412879  2.477612  2.438662 
dram[3]:  2.579767  2.670683  2.811060  2.937198  2.778261  2.564000  2.536765  2.683794  2.440741  2.423358  2.534091  2.370504  2.554217  2.513834  2.638554  2.852814 
dram[4]:  2.517110  2.629921  2.717489  2.937500  2.672269  2.691667  2.712598  2.952174  2.547893  2.595331  2.526515  2.382672  2.509881  2.668067  2.552529  2.593626 
dram[5]:  2.498113  2.648000  2.908654  2.743243  2.536000  2.592000  2.771429  2.610687  2.346290  2.468401  2.481343  2.335689  2.509881  2.578947  2.498099  2.507692 
average row locality = 62590/24202 = 2.586150
number of total memory accesses made:
dram[0]:         0         0         0         0         0         0         0         0         0         0         0         0         0         0         0         0 
dram[1]:         0         0         0         0         0         0         0         0         0         0         0         0         0         0         0         0 
dram[2]:         0         0         0         0         0         0         0         0         0         0         0         0         0         0         0         0 
dram[3]:         0         0         0         0         0         0         0         0         0         0         0         0         0         0         0         0 
dram[4]:         0         0         0         0         0         0         0         0         0         0         0         0         0         0         0         0 
dram[5]:         0         0         0         0         0         0         0         0         0         0         0         0         0         0         0         0 
total accesses: 0
min_bank_accesses = 0!
min_chip_accesses = 0!
number of total read accesses:
dram[0]:       265       263       232       230       244       246       278       277       252       250       242       240       224       224       242       246 
dram[1]:       264       264       232       230       244       248       274       276       250       250       242       240       224       224       242       244 
dram[2]:       266       264       232       230       248       248       270       283       250       252       242       240       224       224       252       244 
dram[3]:       261       264       231       230       246       246       283       272       249       251       242       240       224       224       248       244 
dram[4]:       260       268       231       230       242       252       282       272       252       250       241       240       224       224       246       248 
dram[5]:       259       263       230       230       242       252       272       278       250       250       241       240       224       224       246       246 
total reads: 23736
bank skew: 283/224 = 1.26
chip skew: 3969/3947 = 1.01
number of total write accesses:
dram[0]:       404       400       376       378       391       392       409       407       412       415       423       423       415       413       405       409 
dram[1]:       404       401       375       376       393       391       408       408       415       415       425       423       410       413       406       412 
dram[2]:       401       404       377       376       392       395       409       404       416       412       425       426       412       413       412       412 
dram[3]:       402       401       379       378       393       395       407       407       410       413       427       419       412       412       409       415 
dram[4]:       402       400       375       381       394       394       407       407       413       417       426       420       411       411       410       403 
dram[5]:       403       399       375       379       392       396       407       406       414       414       424       421       411       413       411       406 
total reads: 38854
bank skew: 427/375 = 1.14
chip skew: 6486/6471 = 1.00
average mf latency per bank:
dram[0]:       2631      2539      2766      2737      3790      3481      2585      2703      2609      2589      2590      2557      2649      2684      2603      2597
dram[1]:       2477      2564      2795      2728      3104      3646      3310      2746      2542      2638      2593      2604      2660      2626      2637      2714
dram[2]:       2594      2618      2693      2753      3756      3510      2572      3317      2628      2692      2490      2580      2719      2640      2513      2566
dram[3]:       2565      2522      2721      2800      3004      3255      3217      2904      2632      2597      2579      2656      2669      2652      2678      2602
dram[4]:       2672      2622      2838      2711      3437      3947      2722      2500      2619      2663      2598      2566      2691      2730      2601      2617
dram[5]:       2539      2572      2770      2724      4289      3022      2552      3067      2537      2607      2630      2580      2697      2614      2611      2665
maximum mf latency per bank:
dram[0]:       1124      1049      1050      1023      1041       936      1002       869      1126      1060      1014       895       979       877      1051       957
dram[1]:        973      1000       994       973       930       935       826       825       987      1064       887       914       813       884       950      1038
dram[2]:       1117      1045      1043      1018      1032       929       995       865      1128      1056      1006       891       972       871      1044       952
dram[3]:        944      1013       911       986       840       926       789       873      1012      1033       883       884       778       866       916       942
dram[4]:       1119      1144      1092      1126      1082      1088       956      1001      1194      1203      1024      1012      1004       979      1097      1082
dram[5]:        980       960       950       940       944       953       808       857      1051      1019       894       876       863       845       955       941

Number of Memory Banks Accessed per Memory Operation per Warp (from 0):
0	0	0	0	0	0	0	0	0	0	0	0	0	0	0	0	0	0	0	0	0	0	0	0	0	0	0	0	0	0	0	0	0	0	0	0	0	0	0	0	0	0	0	0	0	0	0	0	0	0	0	0	0	0	0	0	0	0	0	0	0	0	0	0	0	0	0	0	0	0	0	0	0	0	0	0	0	0	0	0	0	0	0	0	0	0	0	0	0	0	0	0	0	0	0	0	
Average # of Memory Banks Accessed per Memory Operation per Warp=-nan

position of mrq chosen
0	0	0	0	0	0	0	0	0	0	0	0	0	0	0	0	

average position of mrq chosen = -nan
Memory Partition 0: 
Cache L2_bank_000:
MSHR contents

Cache L2_bank_001:
MSHR contents

In Dram Latency Queue (total = 0): 
DRAM[0]: 16 bks, busW=4 BL=8 CL=12, tRRD=2 tCCD=6, tRCD=12 tRAS=28 tRP=12 tRC=40
n_cmd=2194754 n_nop=2169392 n_act=4060 n_pre=4044 n_req=10427 n_rd=7910 n_write=9348 bw_util=0.01573
n_activity=146332 dram_eff=0.2359
bk0: 530a 2180850i bk1: 526a 2180324i bk2: 464a 2182159i bk3: 460a 2182578i bk4: 488a 2181775i bk5: 492a 2181294i bk6: 556a 2181221i bk7: 554a 2180824i bk8: 504a 2181255i bk9: 500a 2180779i bk10: 484a 2180250i bk11: 480a 2179770i bk12: 448a 2180664i bk13: 448a 2180630i bk14: 484a 2180961i bk15: 492a 2180265i 
dram_util_bins: 0 0 0 0 0 0 0 0 0 0
dram_eff_bins: 0 0 0 0 0 0 0 0 0 0
mrqq: max=16 avg=0.0685813
Memory Partition 1: 
Cache L2_bank_002:
MSHR contents

Cache L2_bank_003:
MSHR contents

In Dram Latency Queue (total = 0): 
DRAM[1]: 16 bks, busW=4 BL=8 CL=12, tRRD=2 tCCD=6, tRCD=12 tRAS=28 tRP=12 tRC=40
n_cmd=2194754 n_nop=2169581 n_act=3970 n_pre=3954 n_req=10423 n_rd=7896 n_write=9353 bw_util=0.01572
n_activity=144193 dram_eff=0.2392
bk0: 528a 2181144i bk1: 528a 2180306i bk2: 464a 2182322i bk3: 460a 2182315i bk4: 488a 2181148i bk5: 496a 2181234i bk6: 548a 2181174i bk7: 552a 2180876i bk8: 500a 2181276i bk9: 500a 2180750i bk10: 484a 2180194i bk11: 480a 2180074i bk12: 448a 2180684i bk13: 448a 2180881i bk14: 484a 2181031i bk15: 488a 2180531i 
dram_util_bins: 0 0 0 0 0 0 0 0 0 0
dram_eff_bins: 0 0 0 0 0 0 0 0 0 0
mrqq: max=16 avg=0.0684637
Memory Partition 2: 
Cache L2_bank_004:
MSHR contents

Cache L2_bank_005:
MSHR contents

In Dram Latency Queue (total = 0): 
DRAM[2]: 16 bks, busW=4 BL=8 CL=12, tRRD=2 tCCD=6, tRCD=12 tRAS=28 tRP=12 tRC=40
n_cmd=2194754 n_nop=2169210 n_act=4124 n_pre=4108 n_req=10455 n_rd=7938 n_write=9374 bw_util=0.01578
n_activity=149165 dram_eff=0.2321
bk0: 532a 2180995i bk1: 528a 2180953i bk2: 464a 2182527i bk3: 460a 2182349i bk4: 496a 2181654i bk5: 496a 2181423i bk6: 540a 2180585i bk7: 566a 2180602i bk8: 500a 2180846i bk9: 504a 2181013i bk10: 484a 2180568i bk11: 480a 2180182i bk12: 448a 2181227i bk13: 448a 2180689i bk14: 504a 2180384i bk15: 488a 2180445i 
dram_util_bins: 0 0 0 0 0 0 0 0 0 0
dram_eff_bins: 0 0 0 0 0 0 0 0 0 0
mrqq: max=16 avg=0.0642455
Memory Partition 3: 
Cache L2_bank_006:
MSHR contents

Cache L2_bank_007:
MSHR contents

In Dram Latency Queue (total = 0): 
DRAM[3]: 16 bks, busW=4 BL=8 CL=12, tRRD=2 tCCD=6, tRCD=12 tRAS=28 tRP=12 tRC=40
n_cmd=2194754 n_nop=2169492 n_act=4003 n_pre=3987 n_req=10434 n_rd=7910 n_write=9362 bw_util=0.01574
n_activity=144661 dram_eff=0.2388
bk0: 522a 2181036i bk1: 528a 2181306i bk2: 462a 2182517i bk3: 460a 2182613i bk4: 492a 2181818i bk5: 492a 2181206i bk6: 566a 2180655i bk7: 544a 2180692i bk8: 498a 2180727i bk9: 502a 2180551i bk10: 484a 2180248i bk11: 480a 2180019i bk12: 448a 2181082i bk13: 448a 2180440i bk14: 496a 2180596i bk15: 488a 2180805i 
dram_util_bins: 0 0 0 0 0 0 0 0 0 0
dram_eff_bins: 0 0 0 0 0 0 0 0 0 0
mrqq: max=16 avg=0.0667842
Memory Partition 4: 
Cache L2_bank_008:
MSHR contents

Cache L2_bank_009:
MSHR contents

In Dram Latency Queue (total = 0): 
DRAM[4]: 16 bks, busW=4 BL=8 CL=12, tRRD=2 tCCD=6, tRCD=12 tRAS=28 tRP=12 tRC=40
n_cmd=2194754 n_nop=2169563 n_act=3968 n_pre=3952 n_req=10433 n_rd=7924 n_write=9347 bw_util=0.01574
n_activity=143635 dram_eff=0.2405
bk0: 520a 2180628i bk1: 536a 2180544i bk2: 462a 2181957i bk3: 460a 2182228i bk4: 484a 2181373i bk5: 504a 2181400i bk6: 564a 2181105i bk7: 544a 2181286i bk8: 504a 2181014i bk9: 500a 2180774i bk10: 482a 2180154i bk11: 480a 2179995i bk12: 448a 2180511i bk13: 448a 2181033i bk14: 492a 2180158i bk15: 496a 2180339i 
dram_util_bins: 0 0 0 0 0 0 0 0 0 0
dram_eff_bins: 0 0 0 0 0 0 0 0 0 0
mrqq: max=16 avg=0.0687243
Memory Partition 5: 
Cache L2_bank_010:
MSHR contents

Cache L2_bank_011:
MSHR contents

In Dram Latency Queue (total = 0): 
DRAM[5]: 16 bks, busW=4 BL=8 CL=12, tRRD=2 tCCD=6, tRCD=12 tRAS=28 tRP=12 tRC=40
n_cmd=2194754 n_nop=2169375 n_act=4078 n_pre=4062 n_req=10418 n_rd=7894 n_write=9345 bw_util=0.01571
n_activity=147225 dram_eff=0.2342
bk0: 518a 2180854i bk1: 526a 2180803i bk2: 460a 2182711i bk3: 460a 2182351i bk4: 484a 2181431i bk5: 504a 2181185i bk6: 544a 2181638i bk7: 556a 2180939i bk8: 500a 2180751i bk9: 500a 2180791i bk10: 482a 2180399i bk11: 480a 2180141i bk12: 448a 2181209i bk13: 448a 2181305i bk14: 492a 2180472i bk15: 492a 2180476i 
dram_util_bins: 0 0 0 0 0 0 0 0 0 0
dram_eff_bins: 0 0 0 0 0 0 0 0 0 0
mrqq: max=16 avg=0.0637702

========= L2 cache stats =========
L2_cache_bank[0]: Access = 81523, Miss = 1979, Miss_rate = 0.024, Pending_hits = 10, Reservation_fails = 909
L2_cache_bank[1]: Access = 80426, Miss = 1976, Miss_rate = 0.025, Pending_hits = 12, Reservation_fails = 754
L2_cache_bank[2]: Access = 81182, Miss = 1972, Miss_rate = 0.024, Pending_hits = 8, Reservation_fails = 600
L2_cache_bank[3]: Access = 81357, Miss = 1976, Miss_rate = 0.024, Pending_hits = 9, Reservation_fails = 723
L2_cache_bank[4]: Access = 81011, Miss = 1984, Miss_rate = 0.024, Pending_hits = 11, Reservation_fails = 822
L2_cache_bank[5]: Access = 83919, Miss = 1985, Miss_rate = 0.024, Pending_hits = 15, Reservation_fails = 875
L2_cache_bank[6]: Access = 81469, Miss = 1984, Miss_rate = 0.024, Pending_hits = 6, Reservation_fails = 488
L2_cache_bank[7]: Access = 80841, Miss = 1971, Miss_rate = 0.024, Pending_hits = 17, Reservation_fails = 812
L2_cache_bank[8]: Access = 81139, Miss = 1978, Miss_rate = 0.024, Pending_hits = 1, Reservation_fails = 594
L2_cache_bank[9]: Access = 81801, Miss = 1984, Miss_rate = 0.024, Pending_hits = 11, Reservation_fails = 806
L2_cache_bank[10]: Access = 82739, Miss = 1964, Miss_rate = 0.024, Pending_hits = 3, Reservation_fails = 433
L2_cache_bank[11]: Access = 80481, Miss = 1983, Miss_rate = 0.025, Pending_hits = 10, Reservation_fails = 656
L2_total_cache_accesses = 977888
L2_total_cache_misses = 23736
L2_total_cache_miss_rate = 0.0243
L2_total_cache_pending_hits = 113
L2_total_cache_reservation_fails = 8472
L2_total_cache_breakdown:
	L2_cache_stats_breakdown[GLOBAL_ACC_R][HIT] = 233025
	L2_cache_stats_breakdown[GLOBAL_ACC_R][HIT_RESERVED] = 41
	L2_cache_stats_breakdown[GLOBAL_ACC_R][MISS] = 1817
	L2_cache_stats_breakdown[GLOBAL_ACC_R][RESERVATION_FAIL] = 371
	L2_cache_stats_breakdown[CONST_ACC_R][HIT] = 26
	L2_cache_stats_breakdown[CONST_ACC_R][HIT_RESERVED] = 3
	L2_cache_stats_breakdown[CONST_ACC_R][MISS] = 1
	L2_cache_stats_breakdown[CONST_ACC_R][RESERVATION_FAIL] = 94
	L2_cache_stats_breakdown[GLOBAL_ACC_W][HIT] = 720633
	L2_cache_stats_breakdown[GLOBAL_ACC_W][HIT_RESERVED] = 14
	L2_cache_stats_breakdown[GLOBAL_ACC_W][MISS] = 21877
	L2_cache_stats_breakdown[GLOBAL_ACC_W][RESERVATION_FAIL] = 6122
	L2_cache_stats_breakdown[INST_ACC_R][HIT] = 355
	L2_cache_stats_breakdown[INST_ACC_R][HIT_RESERVED] = 55
	L2_cache_stats_breakdown[INST_ACC_R][MISS] = 41
	L2_cache_stats_breakdown[INST_ACC_R][RESERVATION_FAIL] = 1885
L2_cache_data_port_util = 0.083
L2_cache_fill_port_util = 0.005

icnt_total_pkts_mem_to_simt=1919284
icnt_total_pkts_simt_to_mem=1727908
LD_mem_lat_dist  0 0 0 0 0 0 0 0 0 0 0 0 0 0 0 0 0 0 0 0 0 0 0 0 0 0 0
ST_mem_lat_dist  0 0 0 0 0 0 0 0 0 0 0 0 0 0 0 0 0 0 0 0 0 0 0 0 0 0 0
----------------------------Interconnect-DETAILS--------------------------------
Class 0:
Packet latency average = 16.5097
	minimum = 6
	maximum = 539
Network latency average = 11.8958
	minimum = 6
	maximum = 528
Slowest packet = 6360
Flit latency average = 12.7595
	minimum = 6
	maximum = 527
Slowest flit = 18072
Fragmentation average = 0.000460687
	minimum = 0
	maximum = 399
Injected packet rate average = 0.0435656
	minimum = 0.0294246 (at node 9)
	maximum = 0.0609529 (at node 4)
Accepted packet rate average = 0.0435656
	minimum = 0.0294246 (at node 9)
	maximum = 0.0609529 (at node 4)
Injected flit rate average = 0.0812424
	minimum = 0.0525202 (at node 9)
	maximum = 0.107144 (at node 4)
Accepted flit rate average= 0.0812424
	minimum = 0.0556615 (at node 9)
	maximum = 0.121845 (at node 4)
Injected packet length average = 1.86483
Accepted packet length average = 1.86483
Total in-flight flits = 0 (0 measured)
====== Overall Traffic Statistics ======
====== Traffic class 0 ======
Packet latency average = 16.5097 (1 samples)
	minimum = 6 (1 samples)
	maximum = 539 (1 samples)
Network latency average = 11.8958 (1 samples)
	minimum = 6 (1 samples)
	maximum = 528 (1 samples)
Flit latency average = 12.7595 (1 samples)
	minimum = 6 (1 samples)
	maximum = 527 (1 samples)
Fragmentation average = 0.000460687 (1 samples)
	minimum = 0 (1 samples)
	maximum = 399 (1 samples)
Injected packet rate average = 0.0435656 (1 samples)
	minimum = 0.0294246 (1 samples)
	maximum = 0.0609529 (1 samples)
Accepted packet rate average = 0.0435656 (1 samples)
	minimum = 0.0294246 (1 samples)
	maximum = 0.0609529 (1 samples)
Injected flit rate average = 0.0812424 (1 samples)
	minimum = 0.0525202 (1 samples)
	maximum = 0.107144 (1 samples)
Accepted flit rate average = 0.0812424 (1 samples)
	minimum = 0.0556615 (1 samples)
	maximum = 0.121845 (1 samples)
Injected packet size average = 1.86483 (1 samples)
Accepted packet size average = 1.86483 (1 samples)
Hops average = 1 (1 samples)
----------------------------END-of-Interconnect-DETAILS-------------------------


gpgpu_simulation_time = 0 days, 0 hrs, 8 min, 13 sec (493 sec)
gpgpu_simulation_rate = 165241 (inst/sec)
gpgpu_simulation_rate = 3372 (cycle/sec)
kernel '_Z10sum_kernelPfi' transfer to GPU hardware scheduler
GPGPU-Sim uArch: Shader 6 bind to kernel 2 '_Z10sum_kernelPfi'
GPGPU-Sim uArch: CTA/core = 3, limited by: threads
GPGPU-Sim uArch: core:  6, cta: 0 initialized @(1,1662693)
GPGPU-Sim uArch: Shader 7 bind to kernel 2 '_Z10sum_kernelPfi'
GPGPU-Sim uArch: core:  7, cta: 0 initialized @(1,1662693)
GPGPU-Sim uArch: Shader 8 bind to kernel 2 '_Z10sum_kernelPfi'
GPGPU-Sim uArch: core:  8, cta: 0 initialized @(1,1662693)
GPGPU-Sim uArch: Shader 9 bind to kernel 2 '_Z10sum_kernelPfi'
GPGPU-Sim uArch: core:  9, cta: 0 initialized @(1,1662693)
GPGPU-Sim uArch: Shader 10 bind to kernel 2 '_Z10sum_kernelPfi'
GPGPU-Sim uArch: core: 10, cta: 0 initialized @(1,1662693)
GPGPU-Sim uArch: Shader 11 bind to kernel 2 '_Z10sum_kernelPfi'
GPGPU-Sim uArch: core: 11, cta: 0 initialized @(1,1662693)
GPGPU-Sim uArch: Shader 12 bind to kernel 2 '_Z10sum_kernelPfi'
GPGPU-Sim uArch: core: 12, cta: 0 initialized @(1,1662693)
GPGPU-Sim uArch: Shader 13 bind to kernel 2 '_Z10sum_kernelPfi'
GPGPU-Sim uArch: core: 13, cta: 0 initialized @(1,1662693)
GPGPU-Sim uArch: Shader 14 bind to kernel 2 '_Z10sum_kernelPfi'
GPGPU-Sim uArch: core: 14, cta: 0 initialized @(1,1662693)
GPGPU-Sim uArch: Shader 0 bind to kernel 2 '_Z10sum_kernelPfi'
GPGPU-Sim uArch: core:  0, cta: 0 initialized @(1,1662693)
GPGPU-Sim uArch: Shader 1 bind to kernel 2 '_Z10sum_kernelPfi'
GPGPU-Sim uArch: core:  1, cta: 0 initialized @(1,1662693)
GPGPU-Sim uArch: Shader 2 bind to kernel 2 '_Z10sum_kernelPfi'
GPGPU-Sim uArch: core:  2, cta: 0 initialized @(1,1662693)
GPGPU-Sim uArch: Shader 3 bind to kernel 2 '_Z10sum_kernelPfi'
GPGPU-Sim uArch: core:  3, cta: 0 initialized @(1,1662693)
GPGPU-Sim uArch: Shader 4 bind to kernel 2 '_Z10sum_kernelPfi'
GPGPU-Sim uArch: core:  4, cta: 0 initialized @(1,1662693)
GPGPU-Sim uArch: Shader 5 bind to kernel 2 '_Z10sum_kernelPfi'
GPGPU-Sim uArch: core:  5, cta: 0 initialized @(1,1662693)
GPGPU-Sim uArch: core:  6, cta: 1 initialized @(2,1662693)
GPGPU-Sim uArch: core:  7, cta: 1 initialized @(2,1662693)
GPGPU-Sim uArch: core:  8, cta: 1 initialized @(2,1662693)
GPGPU-Sim uArch: core:  9, cta: 1 initialized @(2,1662693)
GPGPU-Sim uArch: core: 10, cta: 1 initialized @(2,1662693)
GPGPU-Sim uArch: cycles simulated: 1663193  inst.: 81466599 (ipc= 5.1) sim_rate=164578 (inst/sec) elapsed = 0:0:08:15 / Tue Mar 22 12:47:58 2016
GPGPU-Sim PTX: 84400000 instructions simulated : ctaid=(14,0,0) tid=(119,0,0)
GPGPU-Sim uArch: Shader 5 finished CTA #0 (971,1662693), 0 CTAs running
GPGPU-Sim uArch: Shader 5 empty (release kernel 2 '_Z10sum_kernelPfi').
