

        *** GPGPU-Sim Simulator Version 3.2.2  [build 0] ***


GPGPU-Sim PTX: simulation mode 0 (can change with PTX_SIM_MODE_FUNC environment variable:
               1=functional simulation only, 0=detailed performance simulator)
GPGPU-Sim: Configuration options:

-network_mode                           1 # Interconnection network mode
-inter_config_file   config_fermi_islip.icnt # Interconnection network config file
-gpgpu_ptx_use_cuobjdump                    1 # Use cuobjdump to extract ptx and sass from binaries
-gpgpu_experimental_lib_support                    0 # Try to extract code from cuda libraries [Broken because of unknown cudaGetExportTable]
-gpgpu_ptx_convert_to_ptxplus                    0 # Convert SASS (native ISA) to ptxplus and run ptxplus
-gpgpu_ptx_force_max_capability                   20 # Force maximum compute capability
-gpgpu_ptx_inst_debug_to_file                    0 # Dump executed instructions' debug information to file
-gpgpu_ptx_inst_debug_file       inst_debug.txt # Executed instructions' debug output file
-gpgpu_ptx_inst_debug_thread_uid                    1 # Thread UID for executed instructions' debug output
-gpgpu_simd_model                       1 # 1 = post-dominator
-gpgpu_shader_core_pipeline              1536:32 # shader core pipeline config, i.e., {<nthread>:<warpsize>}
-gpgpu_tex_cache:l1  4:128:24,L:R:m:N:L,F:128:4,128:2 # per-shader L1 texture cache  (READ-ONLY) config  {<nsets>:<bsize>:<assoc>,<rep>:<wr>:<alloc>:<wr_alloc>,<mshr>:<N>:<merge>,<mq>:<rf>}
-gpgpu_const_cache:l1 64:64:2,L:R:f:N:L,A:2:32,4 # per-shader L1 constant memory cache  (READ-ONLY) config  {<nsets>:<bsize>:<assoc>,<rep>:<wr>:<alloc>:<wr_alloc>,<mshr>:<N>:<merge>,<mq>} 
-gpgpu_cache:il1     4:128:4,L:R:f:N:L,A:2:32,4 # shader L1 instruction cache config  {<nsets>:<bsize>:<assoc>,<rep>:<wr>:<alloc>:<wr_alloc>,<mshr>:<N>:<merge>,<mq>} 
-gpgpu_cache:dl1     32:128:4,L:L:m:N:H,A:32:8,8:2,0,1:0:1:1:0:1,1:4:8:16:32:64,/sciclone/data10/hwang07/GPU_RESEARCH/swl/swl_outputs/RESULTS/gto/ # per-shader L1 data cache config  {<nsets>:<bsize>:<assoc>,<rep>:<wr>:<alloc>:<wr_alloc>,<mshr>:<N>:<merge>,<mq> | none}
-gpgpu_cache:dl1PrefL1                 none # per-shader L1 data cache config  {<nsets>:<bsize>:<assoc>,<rep>:<wr>:<alloc>:<wr_alloc>,<mshr>:<N>:<merge>,<mq> | none}
-gpgpu_cache:dl1PreShared                 none # per-shader L1 data cache config  {<nsets>:<bsize>:<assoc>,<rep>:<wr>:<alloc>:<wr_alloc>,<mshr>:<N>:<merge>,<mq> | none}
-gmem_skip_L1D                          0 # global memory access skip L1D cache (implements -Xptxas -dlcm=cg, default=no skip)
-gpgpu_perfect_mem                      0 # enable perfect memory mode (no cache miss)
-n_regfile_gating_group                    4 # group of lanes that should be read/written together)
-gpgpu_clock_gated_reg_file                    0 # enable clock gated reg file for power calculations
-gpgpu_clock_gated_lanes                    0 # enable clock gated lanes for power calculations
-gpgpu_shader_registers                32768 # Number of registers per shader core. Limits number of concurrent CTAs. (default 8192)
-gpgpu_shader_cta                       8 # Maximum number of concurrent CTAs in shader (default 8)
-gpgpu_num_cta_barriers                   16 # Maximum number of named barriers per CTA (default 16)
-gpgpu_n_clusters                      15 # number of processing clusters
-gpgpu_n_cores_per_cluster                    1 # number of simd cores per cluster
-gpgpu_n_cluster_ejection_buffer_size                    8 # number of packets in ejection buffer
-gpgpu_n_ldst_response_buffer_size                    2 # number of response packets in ld/st unit ejection buffer
-gpgpu_shmem_size                   16384 # Size of shared memory per shader core (default 16kB)
-gpgpu_shmem_size                   49152 # Size of shared memory per shader core (default 16kB)
-gpgpu_shmem_size_PrefL1                16384 # Size of shared memory per shader core (default 16kB)
-gpgpu_shmem_size_PrefShared                16384 # Size of shared memory per shader core (default 16kB)
-gpgpu_shmem_num_banks                   32 # Number of banks in the shared memory in each shader core (default 16)
-gpgpu_shmem_limited_broadcast                    0 # Limit shared memory to do one broadcast per cycle (default on)
-gpgpu_shmem_warp_parts                    1 # Number of portions a warp is divided into for shared memory bank conflict check 
-gpgpu_warpdistro_shader                   -1 # Specify which shader core to collect the warp size distribution from
-gpgpu_warp_issue_shader                    0 # Specify which shader core to collect the warp issue distribution from
-gpgpu_local_mem_map                    1 # Mapping from local memory space address to simulated GPU physical address space (default = enabled)
-gpgpu_num_reg_banks                   16 # Number of register banks (default = 8)
-gpgpu_reg_bank_use_warp_id                    0 # Use warp ID in mapping registers to banks (default = off)
-gpgpu_operand_collector_num_units_sp                    6 # number of collector units (default = 4)
-gpgpu_operand_collector_num_units_sfu                    8 # number of collector units (default = 4)
-gpgpu_operand_collector_num_units_mem                    2 # number of collector units (default = 2)
-gpgpu_operand_collector_num_units_gen                    0 # number of collector units (default = 0)
-gpgpu_operand_collector_num_in_ports_sp                    2 # number of collector unit in ports (default = 1)
-gpgpu_operand_collector_num_in_ports_sfu                    1 # number of collector unit in ports (default = 1)
-gpgpu_operand_collector_num_in_ports_mem                    1 # number of collector unit in ports (default = 1)
-gpgpu_operand_collector_num_in_ports_gen                    0 # number of collector unit in ports (default = 0)
-gpgpu_operand_collector_num_out_ports_sp                    2 # number of collector unit in ports (default = 1)
-gpgpu_operand_collector_num_out_ports_sfu                    1 # number of collector unit in ports (default = 1)
-gpgpu_operand_collector_num_out_ports_mem                    1 # number of collector unit in ports (default = 1)
-gpgpu_operand_collector_num_out_ports_gen                    0 # number of collector unit in ports (default = 0)
-gpgpu_coalesce_arch                   13 # Coalescing arch (default = 13, anything else is off for now)
-gpgpu_num_sched_per_core                    2 # Number of warp schedulers per core
-gpgpu_max_insn_issue_per_warp                    1 # Max number of instructions that can be issued per warp in one cycle by scheduler
-gpgpu_simt_core_sim_order                    1 # Select the simulation order of cores in a cluster (0=Fix, 1=Round-Robin)
-gpgpu_pipeline_widths        2,1,1,2,1,1,2 # Pipeline widths ID_OC_SP,ID_OC_SFU,ID_OC_MEM,OC_EX_SP,OC_EX_SFU,OC_EX_MEM,EX_WB
-gpgpu_num_sp_units                     2 # Number of SP units (default=1)
-gpgpu_num_sfu_units                    1 # Number of SF units (default=1)
-gpgpu_num_mem_units                    1 # Number if ldst units (default=1) WARNING: not hooked up to anything
-gpgpu_scheduler                      gto # Scheduler configuration: < lrr | gto | two_level_active > If two_level_active:<num_active_warps>:<inner_prioritization>:<outer_prioritization>For complete list of prioritization values see shader.h enum scheduler_prioritization_typeDefault: gto
-gpgpu_dram_scheduler                    1 # 0 = fifo, 1 = FR-FCFS (defaul)
-gpgpu_dram_partition_queues              8:8:8:8 # i2$:$2d:d2$:$2i
-l2_ideal                               0 # Use a ideal L2 cache that always hit
-gpgpu_cache:dl2     64:128:8,L:B:m:W:L,A:32:4,4:0,32 # unified banked L2 data cache config  {<nsets>:<bsize>:<assoc>,<rep>:<wr>:<alloc>:<wr_alloc>,<mshr>:<N>:<merge>,<mq>}
-gpgpu_cache:dl2_texture_only                    0 # L2 cache used for texture only
-gpgpu_n_mem                            6 # number of memory modules (e.g. memory controllers) in gpu
-gpgpu_n_sub_partition_per_mchannel                    2 # number of memory subpartition in each memory module
-gpgpu_n_mem_per_ctrlr                    2 # number of memory chips per memory controller
-gpgpu_memlatency_stat                   14 # track and display latency statistics 0x2 enables MC, 0x4 enables queue logs
-gpgpu_frfcfs_dram_sched_queue_size                   16 # 0 = unlimited (default); # entries per chip
-gpgpu_dram_return_queue_size                  116 # 0 = unlimited (default); # entries per chip
-gpgpu_dram_buswidth                    4 # default = 4 bytes (8 bytes per cycle at DDR)
-gpgpu_dram_burst_length                    8 # Burst length of each DRAM request (default = 4 data bus cycle)
-dram_data_command_freq_ratio                    4 # Frequency ratio between DRAM data bus and command bus (default = 2 times, i.e. DDR)
-gpgpu_dram_timing_opt nbk=16:CCD=2:RRD=6:RCD=12:RAS=28:RP=12:RC=40: CL=12:WL=4:CDLR=5:WR=12:nbkgrp=4:CCDL=3:RTPL=2 # DRAM timing parameters = {nbk:tCCD:tRRD:tRCD:tRAS:tRP:tRC:CL:WL:tCDLR:tWR:nbkgrp:tCCDL:tRTPL}
-rop_latency                          120 # ROP queue latency (default 85)
-dram_latency                         100 # DRAM latency (default 30)
-gpgpu_mem_addr_mapping dramid@8;00000000.00000000.00000000.00000000.0000RRRR.RRRRRRRR.BBBCCCCB.CCSSSSSS # mapping memory address to dram model {dramid@<start bit>;<memory address map>}
-gpgpu_mem_addr_test                    0 # run sweep test to check address mapping for aliased address
-gpgpu_mem_address_mask                    1 # 0 = old addressing mask, 1 = new addressing mask, 2 = new add. mask + flipped bank sel and chip sel bits
-gpuwattch_xml_file  gpuwattch_gtx480.xml # GPUWattch XML file
-power_simulation_enabled                    0 # Turn on power simulator (1=On, 0=Off)
-power_per_cycle_dump                    0 # Dump detailed power output each cycle
-power_trace_enabled                    0 # produce a file for the power trace (1=On, 0=Off)
-power_trace_zlevel                     6 # Compression level of the power trace output log (0=no comp, 9=highest)
-steady_power_levels_enabled                    0 # produce a file for the steady power levels (1=On, 0=Off)
-steady_state_definition                  8:4 # allowed deviation:number of samples
-gpgpu_max_cycle                        0 # terminates gpu simulation early (0 = no limit)
-gpgpu_max_insn                         0 # terminates gpu simulation early (0 = no limit)
-gpgpu_max_cta                          0 # terminates gpu simulation early (0 = no limit)
-gpgpu_runtime_stat                   500 # display runtime statistics such as dram utilization {<freq>:<flag>}
-liveness_message_freq                    1 # Minimum number of seconds between simulation liveness messages (0 = always print)
-gpgpu_flush_l1_cache                    0 # Flush L1 cache at the end of each kernel call
-gpgpu_flush_l2_cache                    0 # Flush L2 cache at the end of each kernel call
-gpgpu_deadlock_detect                    1 # Stop the simulation at deadlock (1=on (default), 0=off)
-gpgpu_ptx_instruction_classification                    0 # if enabled will classify ptx instruction types per kernel (Max 255 kernels now)
-gpgpu_ptx_sim_mode                     0 # Select between Performance (default) or Functional simulation (1)
-gpgpu_clock_domains 700.0:700.0:700.0:924.0 # Clock Domain Frequencies in MhZ {<Core Clock>:<ICNT Clock>:<L2 Clock>:<DRAM Clock>}
-gpgpu_max_concurrent_kernel                    8 # maximum kernels that can run concurrently on GPU
-gpgpu_cflog_interval                    0 # Interval between each snapshot in control flow logger
-visualizer_enabled                     0 # Turn on visualizer output (1=On, 0=Off)
-visualizer_outputfile                 NULL # Specifies the output log file for visualizer
-visualizer_zlevel                      6 # Compression level of the visualizer output log (0=no comp, 9=highest)
-trace_enabled                          0 # Turn on traces
-trace_components                    none # comma seperated list of traces to enable. Complete list found in trace_streams.tup. Default none
-trace_sampling_core                    0 # The core which is printed using CORE_DPRINTF. Default 0
-trace_sampling_memory_partition                   -1 # The memory partition which is printed using MEMPART_DPRINTF. Default -1 (i.e. all)
-enable_ptx_file_line_stats                    1 # Turn on PTX source line statistic profiling. (1 = On)
-ptx_line_stats_filename gpgpu_inst_stats.txt # Output file for PTX source line statistics.
-save_embedded_ptx                      0 # saves ptx files embedded in binary as <n>.ptx
-keep                                   0 # keep intermediate files created by GPGPU-Sim when interfacing with external programs
-gpgpu_ptx_save_converted_ptxplus                    0 # Saved converted ptxplus to a file
-ptx_opcode_latency_int         4,13,4,5,145 # Opcode latencies for integers <ADD,MAX,MUL,MAD,DIV>Default 1,1,19,25,145
-ptx_opcode_latency_fp          4,13,4,5,39 # Opcode latencies for single precision floating points <ADD,MAX,MUL,MAD,DIV>Default 1,1,1,1,30
-ptx_opcode_latency_dp         8,19,8,8,330 # Opcode latencies for double precision floating points <ADD,MAX,MUL,MAD,DIV>Default 8,8,8,8,335
-ptx_opcode_initiation_int            1,2,2,1,8 # Opcode initiation intervals for integers <ADD,MAX,MUL,MAD,DIV>Default 1,1,4,4,32
-ptx_opcode_initiation_fp            1,2,1,1,4 # Opcode initiation intervals for single precision floating points <ADD,MAX,MUL,MAD,DIV>Default 1,1,1,1,5
-ptx_opcode_initiation_dp         8,16,8,8,130 # Opcode initiation intervals for double precision floating points <ADD,MAX,MUL,MAD,DIV>Default 8,8,8,8,130
DRAM Timing Options:
nbk                                    16 # number of banks
CCD                                     2 # column to column delay
RRD                                     6 # minimal delay between activation of rows in different banks
RCD                                    12 # row to column delay
RAS                                    28 # time needed to activate row
RP                                     12 # time needed to precharge (deactivate) row
RC                                     40 # row cycle time
CDLR                                    5 # switching from write to read (changes tWTR)
WR                                     12 # last data-in to row precharge
CL                                     12 # CAS latency
WL                                      4 # Write latency
nbkgrp                                  4 # number of bank groups
CCDL                                    3 # column to column delay between accesses to different bank groups
RTPL                                    2 # read to precharge delay between accesses to different bank groups
Total number of memory sub partition = 12
addr_dec_mask[CHIP]  = 0000000000000000 	high:64 low:0
addr_dec_mask[BK]    = 000000000000e100 	high:16 low:8
addr_dec_mask[ROW]   = 000000000fff0000 	high:28 low:16
addr_dec_mask[COL]   = 0000000000001eff 	high:13 low:0
addr_dec_mask[BURST] = 000000000000003f 	high:6 low:0
sub_partition_id_mask = 0000000000000100
GPGPU-Sim uArch: clock freqs: 700000000.000000:700000000.000000:700000000.000000:924000000.000000
GPGPU-Sim uArch: clock periods: 0.00000000142857142857:0.00000000142857142857:0.00000000142857142857:0.00000000108225108225
*** Initializing Memory Statistics ***
GPGPU-Sim uArch: interconnect node map (shaderID+MemID to icntID)
GPGPU-Sim uArch: Memory nodes ID start from index: 15
GPGPU-Sim uArch:    0   1   2   3   4
GPGPU-Sim uArch:    5   6   7   8   9
GPGPU-Sim uArch:   10  11  12  13  14
GPGPU-Sim uArch:   15  16  17  18  19
GPGPU-Sim uArch:   20  21  22  23  24
GPGPU-Sim uArch:   25  26
GPGPU-Sim uArch: interconnect node reverse map (icntID to shaderID+MemID)
GPGPU-Sim uArch: Memory nodes start from ID: 15
GPGPU-Sim uArch:    0   1   2   3   4
GPGPU-Sim uArch:    5   6   7   8   9
GPGPU-Sim uArch:   10  11  12  13  14
GPGPU-Sim uArch:   15  16  17  18  19
GPGPU-Sim uArch:   20  21  22  23  24
GPGPU-Sim uArch:   25  26
a5bfea9a69faaeaeb73abbaec6868abd  /sciclone/data10/hwang07/adwait/applications/benchmarks/rodinia/cuda/streamcluster/gpgpu_ptx_sim__streamcluster
GPGPU-Sim uArch: performance model initialization complete.
GPGPU-Sim PTX: __cudaRegisterFatBinary, fat_cubin_handle = 1, filename=streamcluster_cuda.cu
self exe links to: /sciclone/data10/hwang07/adwait/applications/benchmarks/rodinia/cuda/streamcluster/gpgpu_ptx_sim__streamcluster
Running md5sum using "md5sum /sciclone/data10/hwang07/adwait/applications/benchmarks/rodinia/cuda/streamcluster/gpgpu_ptx_sim__streamcluster "
Parsing file _cuobjdump_complete_output_ufaT0B
######### cuobjdump parser ########
## Adding new section ELF
Adding arch: sm_20
Adding identifier: streamcluster_cuda.cu
## Adding new section PTX
Adding ptx filename: _cuobjdump_1.ptx
Adding arch: sm_20
Adding identifier: streamcluster_cuda.cu
Done parsing!!!
GPGPU-Sim PTX: __cudaRegisterFunction _Z12pgain_kerneliilP5PointiPfS1_PiPb : hostFun 0x0x404fe3, fat_cubin_handle = 1
GPGPU-Sim PTX: allocating shared region for "coord_s" from 0x0 to 0x0 (shared memory space)
GPGPU-Sim PTX: instruction assembly for function '_Z12pgain_kerneliilP5PointiPfS1_PiPb'...   done.
GPGPU-Sim PTX: finding reconvergence points for '_Z12pgain_kerneliilP5PointiPfS1_PiPb'...
GPGPU-Sim PTX: Finding dominators for '_Z12pgain_kerneliilP5PointiPfS1_PiPb'...
GPGPU-Sim PTX: Finding immediate dominators for '_Z12pgain_kerneliilP5PointiPfS1_PiPb'...
GPGPU-Sim PTX: Finding postdominators for '_Z12pgain_kerneliilP5PointiPfS1_PiPb'...
GPGPU-Sim PTX: Finding immediate postdominators for '_Z12pgain_kerneliilP5PointiPfS1_PiPb'...
GPGPU-Sim PTX: pre-decoding instructions for '_Z12pgain_kerneliilP5PointiPfS1_PiPb'...
GPGPU-Sim PTX: reconvergence points for _Z12pgain_kerneliilP5PointiPfS1_PiPb...
GPGPU-Sim PTX:  1 (potential) branch divergence @  PC=0x030 (_1.ptx:76) @%p2 bra $Lt_0_3842;
GPGPU-Sim PTX:    immediate post dominator      @  PC=0x0e0 (_1.ptx:103) mov.u64 %rd1, coord_s;
GPGPU-Sim PTX:  2 (potential) branch divergence @  PC=0x038 (_1.ptx:77) @!%p1 bra $Lt_0_4354;
GPGPU-Sim PTX:    immediate post dominator      @  PC=0x0d8 (_1.ptx:101) mov.u64 %rd1, coord_s;
GPGPU-Sim PTX:  3 (potential) branch divergence @  PC=0x0d0 (_1.ptx:99) @%p3 bra $Lt_0_4866;
GPGPU-Sim PTX:    immediate post dominator      @  PC=0x0d8 (_1.ptx:101) mov.u64 %rd1, coord_s;
GPGPU-Sim PTX:  4 (potential) branch divergence @  PC=0x110 (_1.ptx:110) @!%p1 bra $Lt_0_7170;
GPGPU-Sim PTX:    immediate post dominator      @  PC=0x218 (_1.ptx:149) ld.param.u64 %rd15, [__cudaparm__Z12pgain_kerneliilP5PointiPfS1_PiPb_p];
GPGPU-Sim PTX:  5 (potential) branch divergence @  PC=0x1d8 (_1.ptx:138) @%p4 bra $Lt_0_5890;
GPGPU-Sim PTX:    immediate post dominator      @  PC=0x1e0 (_1.ptx:139) bra.uni $Lt_0_5378;
GPGPU-Sim PTX:  6 (potential) branch divergence @  PC=0x1e0 (_1.ptx:139) bra.uni $Lt_0_5378;
GPGPU-Sim PTX:    immediate post dominator      @  PC=0x218 (_1.ptx:149) ld.param.u64 %rd15, [__cudaparm__Z12pgain_kerneliilP5PointiPfS1_PiPb_p];
GPGPU-Sim PTX:  7 (potential) branch divergence @  PC=0x288 (_1.ptx:164) @!%p5 bra $Lt_0_6658;
GPGPU-Sim PTX:    immediate post dominator      @  PC=0x358 (_1.ptx:197) exit;
GPGPU-Sim PTX:  8 (potential) branch divergence @  PC=0x2e8 (_1.ptx:178) bra.uni $Lt_0_6402;
GPGPU-Sim PTX:    immediate post dominator      @  PC=0x358 (_1.ptx:197) exit;
GPGPU-Sim PTX: ... end of reconvergence points for _Z12pgain_kerneliilP5PointiPfS1_PiPb
GPGPU-Sim PTX: ... done pre-decoding instructions for '_Z12pgain_kerneliilP5PointiPfS1_PiPb'.
GPGPU-Sim PTX: finished parsing EMBEDDED .ptx file _1.ptx
Adding _cuobjdump_1.ptx with cubin handle 1
GPGPU-Sim PTX: extracting embedded .ptx to temporary file "_ptx_E2PEag"
Running: cat _ptx_E2PEag | sed 's/.version 1.5/.version 1.4/' | sed 's/, texmode_independent//' | sed 's/\(\.extern \.const\[1\] .b8 \w\+\)\[\]/\1\[1\]/' | sed 's/const\[.\]/const\[0\]/g' > _ptx2_Z3zkRV
GPGPU-Sim PTX: generating ptxinfo using "$CUDA_INSTALL_PATH/bin/ptxas --gpu-name=sm_20 -v _ptx2_Z3zkRV --output-file  /dev/null 2> _ptx_E2PEaginfo"
GPGPU-Sim PTX: Kernel '_Z12pgain_kerneliilP5PointiPfS1_PiPb' : regs=12, lmem=0, smem=0, cmem=96
GPGPU-Sim PTX: removing ptxinfo using "rm -f _ptx_E2PEag _ptx2_Z3zkRV _ptx_E2PEaginfo"
GPGPU-Sim PTX: loading globals with explicit initializers... 
GPGPU-Sim PTX: finished loading globals (0 bytes total).
GPGPU-Sim PTX: loading constants with explicit initializers...  done.
PARSEC Benchmark Suite

GPGPU-Sim PTX: cudaLaunch for 0x0x404fe3 (mode=performance simulation) on stream 0
GPGPU-Sim PTX: pushing kernel '_Z12pgain_kerneliilP5PointiPfS1_PiPb' to stream 0, gridDim= (128,1,1) blockDim = (512,1,1) 
kernel '_Z12pgain_kerneliilP5PointiPfS1_PiPb' transfer to GPU hardware scheduler
GPGPU-Sim uArch: Shader 1 bind to kernel 1 '_Z12pgain_kerneliilP5PointiPfS1_PiPb'
GPGPU-Sim uArch: CTA/core = 3, limited by: threads
GPGPU-Sim uArch: core:  1, cta: 0 initialized @(1,0)
GPGPU-Sim uArch: Shader 2 bind to kernel 1 '_Z12pgain_kerneliilP5PointiPfS1_PiPb'
GPGPU-Sim uArch: core:  2, cta: 0 initialized @(1,0)
GPGPU-Sim uArch: Shader 3 bind to kernel 1 '_Z12pgain_kerneliilP5PointiPfS1_PiPb'
GPGPU-Sim uArch: core:  3, cta: 0 initialized @(1,0)
GPGPU-Sim uArch: Shader 4 bind to kernel 1 '_Z12pgain_kerneliilP5PointiPfS1_PiPb'
GPGPU-Sim uArch: core:  4, cta: 0 initialized @(1,0)
GPGPU-Sim uArch: Shader 5 bind to kernel 1 '_Z12pgain_kerneliilP5PointiPfS1_PiPb'
GPGPU-Sim uArch: core:  5, cta: 0 initialized @(1,0)
GPGPU-Sim uArch: Shader 6 bind to kernel 1 '_Z12pgain_kerneliilP5PointiPfS1_PiPb'
GPGPU-Sim uArch: core:  6, cta: 0 initialized @(1,0)
GPGPU-Sim uArch: Shader 7 bind to kernel 1 '_Z12pgain_kerneliilP5PointiPfS1_PiPb'
GPGPU-Sim uArch: core:  7, cta: 0 initialized @(1,0)
GPGPU-Sim uArch: Shader 8 bind to kernel 1 '_Z12pgain_kerneliilP5PointiPfS1_PiPb'
GPGPU-Sim uArch: core:  8, cta: 0 initialized @(1,0)
GPGPU-Sim uArch: Shader 9 bind to kernel 1 '_Z12pgain_kerneliilP5PointiPfS1_PiPb'
GPGPU-Sim uArch: core:  9, cta: 0 initialized @(1,0)
GPGPU-Sim uArch: Shader 10 bind to kernel 1 '_Z12pgain_kerneliilP5PointiPfS1_PiPb'
GPGPU-Sim uArch: core: 10, cta: 0 initialized @(1,0)
GPGPU-Sim uArch: Shader 11 bind to kernel 1 '_Z12pgain_kerneliilP5PointiPfS1_PiPb'
GPGPU-Sim uArch: core: 11, cta: 0 initialized @(1,0)
GPGPU-Sim uArch: Shader 12 bind to kernel 1 '_Z12pgain_kerneliilP5PointiPfS1_PiPb'
GPGPU-Sim uArch: core: 12, cta: 0 initialized @(1,0)
GPGPU-Sim uArch: Shader 13 bind to kernel 1 '_Z12pgain_kerneliilP5PointiPfS1_PiPb'
GPGPU-Sim uArch: core: 13, cta: 0 initialized @(1,0)
GPGPU-Sim uArch: Shader 14 bind to kernel 1 '_Z12pgain_kerneliilP5PointiPfS1_PiPb'
GPGPU-Sim uArch: core: 14, cta: 0 initialized @(1,0)
GPGPU-Sim uArch: Shader 0 bind to kernel 1 '_Z12pgain_kerneliilP5PointiPfS1_PiPb'
GPGPU-Sim uArch: core:  0, cta: 0 initialized @(1,0)
GPGPU-Sim uArch: core:  1, cta: 1 initialized @(2,0)
GPGPU-Sim uArch: core:  2, cta: 1 initialized @(2,0)
GPGPU-Sim uArch: core:  3, cta: 1 initialized @(2,0)
GPGPU-Sim uArch: core:  4, cta: 1 initialized @(2,0)
GPGPU-Sim uArch: core:  5, cta: 1 initialized @(2,0)
GPGPU-Sim uArch: core:  6, cta: 1 initialized @(2,0)
GPGPU-Sim uArch: core:  7, cta: 1 initialized @(2,0)
GPGPU-Sim uArch: core:  8, cta: 1 initialized @(2,0)
GPGPU-Sim uArch: core:  9, cta: 1 initialized @(2,0)
GPGPU-Sim uArch: core: 10, cta: 1 initialized @(2,0)
GPGPU-Sim uArch: core: 11, cta: 1 initialized @(2,0)
GPGPU-Sim uArch: core: 12, cta: 1 initialized @(2,0)
GPGPU-Sim uArch: core: 13, cta: 1 initialized @(2,0)
GPGPU-Sim uArch: core: 14, cta: 1 initialized @(2,0)
GPGPU-Sim uArch: core:  0, cta: 1 initialized @(2,0)
GPGPU-Sim uArch: core:  1, cta: 2 initialized @(3,0)
GPGPU-Sim uArch: core:  2, cta: 2 initialized @(3,0)
GPGPU-Sim uArch: core:  3, cta: 2 initialized @(3,0)
GPGPU-Sim uArch: core:  4, cta: 2 initialized @(3,0)
GPGPU-Sim uArch: core:  5, cta: 2 initialized @(3,0)
GPGPU-Sim uArch: core:  6, cta: 2 initialized @(3,0)
GPGPU-Sim uArch: core:  7, cta: 2 initialized @(3,0)
GPGPU-Sim uArch: core:  8, cta: 2 initialized @(3,0)
GPGPU-Sim uArch: core:  9, cta: 2 initialized @(3,0)
GPGPU-Sim uArch: core: 10, cta: 2 initialized @(3,0)
GPGPU-Sim uArch: core: 11, cta: 2 initialized @(3,0)
GPGPU-Sim uArch: core: 12, cta: 2 initialized @(3,0)
GPGPU-Sim uArch: core: 13, cta: 2 initialized @(3,0)
GPGPU-Sim uArch: core: 14, cta: 2 initialized @(3,0)
GPGPU-Sim uArch: core:  0, cta: 2 initialized @(3,0)
GPGPU-Sim uArch: cycles simulated: 500  inst.: 17760 (ipc=35.5) sim_rate=1268 (inst/sec) elapsed = 0:0:00:14 / Tue Mar 22 07:37:05 2016
GPGPU-Sim PTX: 100000 instructions simulated : ctaid=(36,0,0) tid=(40,0,0)
GPGPU-Sim PTX: 200000 instructions simulated : ctaid=(27,0,0) tid=(454,0,0)
GPGPU-Sim uArch: cycles simulated: 1000  inst.: 203476 (ipc=203.5) sim_rate=11969 (inst/sec) elapsed = 0:0:00:17 / Tue Mar 22 07:37:08 2016
GPGPU-Sim uArch: cycles simulated: 5000  inst.: 209070 (ipc=41.8) sim_rate=11615 (inst/sec) elapsed = 0:0:00:18 / Tue Mar 22 07:37:09 2016
GPGPU-Sim uArch: cycles simulated: 9500  inst.: 213590 (ipc=22.5) sim_rate=11241 (inst/sec) elapsed = 0:0:00:19 / Tue Mar 22 07:37:10 2016
GPGPU-Sim uArch: cycles simulated: 14000  inst.: 218205 (ipc=15.6) sim_rate=10910 (inst/sec) elapsed = 0:0:00:20 / Tue Mar 22 07:37:11 2016
GPGPU-Sim uArch: cycles simulated: 18500  inst.: 222930 (ipc=12.1) sim_rate=10615 (inst/sec) elapsed = 0:0:00:21 / Tue Mar 22 07:37:12 2016
GPGPU-Sim uArch: cycles simulated: 23000  inst.: 227576 (ipc= 9.9) sim_rate=10344 (inst/sec) elapsed = 0:0:00:22 / Tue Mar 22 07:37:13 2016
GPGPU-Sim uArch: cycles simulated: 27000  inst.: 231736 (ipc= 8.6) sim_rate=10075 (inst/sec) elapsed = 0:0:00:23 / Tue Mar 22 07:37:14 2016
GPGPU-Sim uArch: cycles simulated: 31500  inst.: 236172 (ipc= 7.5) sim_rate=9840 (inst/sec) elapsed = 0:0:00:24 / Tue Mar 22 07:37:15 2016
GPGPU-Sim uArch: cycles simulated: 36000  inst.: 240885 (ipc= 6.7) sim_rate=9635 (inst/sec) elapsed = 0:0:00:25 / Tue Mar 22 07:37:16 2016
GPGPU-Sim uArch: cycles simulated: 40500  inst.: 245610 (ipc= 6.1) sim_rate=9446 (inst/sec) elapsed = 0:0:00:26 / Tue Mar 22 07:37:17 2016
GPGPU-Sim uArch: cycles simulated: 45000  inst.: 250144 (ipc= 5.6) sim_rate=9264 (inst/sec) elapsed = 0:0:00:27 / Tue Mar 22 07:37:18 2016
GPGPU-Sim uArch: cycles simulated: 49500  inst.: 254745 (ipc= 5.1) sim_rate=9098 (inst/sec) elapsed = 0:0:00:28 / Tue Mar 22 07:37:19 2016
GPGPU-Sim uArch: cycles simulated: 54000  inst.: 259470 (ipc= 4.8) sim_rate=8947 (inst/sec) elapsed = 0:0:00:29 / Tue Mar 22 07:37:20 2016
GPGPU-Sim uArch: cycles simulated: 58500  inst.: 264130 (ipc= 4.5) sim_rate=8804 (inst/sec) elapsed = 0:0:00:30 / Tue Mar 22 07:37:21 2016
GPGPU-Sim uArch: cycles simulated: 63000  inst.: 268605 (ipc= 4.3) sim_rate=8664 (inst/sec) elapsed = 0:0:00:31 / Tue Mar 22 07:37:22 2016
GPGPU-Sim uArch: cycles simulated: 67500  inst.: 273330 (ipc= 4.0) sim_rate=8541 (inst/sec) elapsed = 0:0:00:32 / Tue Mar 22 07:37:23 2016
GPGPU-Sim uArch: cycles simulated: 71500  inst.: 277425 (ipc= 3.9) sim_rate=8406 (inst/sec) elapsed = 0:0:00:33 / Tue Mar 22 07:37:24 2016
GPGPU-Sim uArch: cycles simulated: 76000  inst.: 282150 (ipc= 3.7) sim_rate=8298 (inst/sec) elapsed = 0:0:00:34 / Tue Mar 22 07:37:25 2016
GPGPU-Sim PTX: 300000 instructions simulated : ctaid=(32,0,0) tid=(126,0,0)
GPGPU-Sim PTX: 400000 instructions simulated : ctaid=(30,0,0) tid=(457,0,0)
GPGPU-Sim PTX: 500000 instructions simulated : ctaid=(19,0,0) tid=(137,0,0)
GPGPU-Sim PTX: 600000 instructions simulated : ctaid=(22,0,0) tid=(361,0,0)
GPGPU-Sim uArch: cycles simulated: 80000  inst.: 644367 (ipc= 8.1) sim_rate=18410 (inst/sec) elapsed = 0:0:00:35 / Tue Mar 22 07:37:26 2016
GPGPU-Sim PTX: 700000 instructions simulated : ctaid=(0,0,0) tid=(297,0,0)
GPGPU-Sim PTX: 800000 instructions simulated : ctaid=(37,0,0) tid=(169,0,0)
GPGPU-Sim PTX: 900000 instructions simulated : ctaid=(25,0,0) tid=(137,0,0)
GPGPU-Sim uArch: cycles simulated: 81000  inst.: 953103 (ipc=11.8) sim_rate=26475 (inst/sec) elapsed = 0:0:00:36 / Tue Mar 22 07:37:27 2016
GPGPU-Sim PTX: 1000000 instructions simulated : ctaid=(31,0,0) tid=(201,0,0)
GPGPU-Sim PTX: 1100000 instructions simulated : ctaid=(23,0,0) tid=(41,0,0)
GPGPU-Sim PTX: 1200000 instructions simulated : ctaid=(10,0,0) tid=(393,0,0)
GPGPU-Sim PTX: 1300000 instructions simulated : ctaid=(34,0,0) tid=(137,0,0)
GPGPU-Sim uArch: cycles simulated: 82000  inst.: 1313231 (ipc=16.0) sim_rate=35492 (inst/sec) elapsed = 0:0:00:37 / Tue Mar 22 07:37:28 2016
GPGPU-Sim PTX: 1400000 instructions simulated : ctaid=(10,0,0) tid=(265,0,0)
GPGPU-Sim PTX: 1500000 instructions simulated : ctaid=(36,0,0) tid=(265,0,0)
GPGPU-Sim PTX: 1600000 instructions simulated : ctaid=(13,0,0) tid=(201,0,0)
GPGPU-Sim PTX: 1700000 instructions simulated : ctaid=(3,0,0) tid=(169,0,0)
GPGPU-Sim uArch: cycles simulated: 83000  inst.: 1698607 (ipc=20.5) sim_rate=44700 (inst/sec) elapsed = 0:0:00:38 / Tue Mar 22 07:37:29 2016
GPGPU-Sim PTX: 1800000 instructions simulated : ctaid=(8,0,0) tid=(201,0,0)
GPGPU-Sim PTX: 1900000 instructions simulated : ctaid=(25,0,0) tid=(41,0,0)
GPGPU-Sim PTX: 2000000 instructions simulated : ctaid=(5,0,0) tid=(329,0,0)
GPGPU-Sim PTX: 2100000 instructions simulated : ctaid=(15,0,0) tid=(457,0,0)
GPGPU-Sim uArch: cycles simulated: 84000  inst.: 2075887 (ipc=24.7) sim_rate=53227 (inst/sec) elapsed = 0:0:00:39 / Tue Mar 22 07:37:30 2016
GPGPU-Sim PTX: 2200000 instructions simulated : ctaid=(20,0,0) tid=(105,0,0)
GPGPU-Sim PTX: 2300000 instructions simulated : ctaid=(28,0,0) tid=(329,0,0)
GPGPU-Sim PTX: 2400000 instructions simulated : ctaid=(12,0,0) tid=(425,0,0)
GPGPU-Sim uArch: cycles simulated: 85000  inst.: 2449711 (ipc=28.8) sim_rate=61242 (inst/sec) elapsed = 0:0:00:40 / Tue Mar 22 07:37:31 2016
GPGPU-Sim PTX: 2500000 instructions simulated : ctaid=(43,0,0) tid=(169,0,0)
GPGPU-Sim PTX: 2600000 instructions simulated : ctaid=(4,0,0) tid=(137,0,0)
GPGPU-Sim PTX: 2700000 instructions simulated : ctaid=(33,0,0) tid=(201,0,0)
GPGPU-Sim PTX: 2800000 instructions simulated : ctaid=(42,0,0) tid=(73,0,0)
GPGPU-Sim uArch: cycles simulated: 86000  inst.: 2819727 (ipc=32.8) sim_rate=68773 (inst/sec) elapsed = 0:0:00:41 / Tue Mar 22 07:37:32 2016
GPGPU-Sim PTX: 2900000 instructions simulated : ctaid=(32,0,0) tid=(137,0,0)
GPGPU-Sim PTX: 3000000 instructions simulated : ctaid=(8,0,0) tid=(169,0,0)
GPGPU-Sim PTX: 3100000 instructions simulated : ctaid=(40,0,0) tid=(329,0,0)
GPGPU-Sim PTX: 3200000 instructions simulated : ctaid=(2,0,0) tid=(329,0,0)
GPGPU-Sim uArch: cycles simulated: 87000  inst.: 3181871 (ipc=36.6) sim_rate=75758 (inst/sec) elapsed = 0:0:00:42 / Tue Mar 22 07:37:33 2016
GPGPU-Sim PTX: 3300000 instructions simulated : ctaid=(10,0,0) tid=(425,0,0)
GPGPU-Sim PTX: 3400000 instructions simulated : ctaid=(36,0,0) tid=(393,0,0)
GPGPU-Sim PTX: 3500000 instructions simulated : ctaid=(1,0,0) tid=(361,0,0)
GPGPU-Sim PTX: 3600000 instructions simulated : ctaid=(3,0,0) tid=(361,0,0)
GPGPU-Sim uArch: cycles simulated: 88000  inst.: 3562415 (ipc=40.5) sim_rate=82846 (inst/sec) elapsed = 0:0:00:43 / Tue Mar 22 07:37:34 2016
GPGPU-Sim PTX: 3700000 instructions simulated : ctaid=(27,0,0) tid=(201,0,0)
GPGPU-Sim PTX: 3800000 instructions simulated : ctaid=(5,0,0) tid=(297,0,0)
GPGPU-Sim PTX: 3900000 instructions simulated : ctaid=(14,0,0) tid=(425,0,0)
GPGPU-Sim uArch: cycles simulated: 89000  inst.: 3930863 (ipc=44.2) sim_rate=89337 (inst/sec) elapsed = 0:0:00:44 / Tue Mar 22 07:37:35 2016
GPGPU-Sim PTX: 4000000 instructions simulated : ctaid=(9,0,0) tid=(233,0,0)
GPGPU-Sim PTX: 4100000 instructions simulated : ctaid=(18,0,0) tid=(457,0,0)
GPGPU-Sim PTX: 4200000 instructions simulated : ctaid=(4,0,0) tid=(73,0,0)
GPGPU-Sim PTX: 4300000 instructions simulated : ctaid=(23,0,0) tid=(169,0,0)
GPGPU-Sim uArch: cycles simulated: 90000  inst.: 4308815 (ipc=47.9) sim_rate=95751 (inst/sec) elapsed = 0:0:00:45 / Tue Mar 22 07:37:36 2016
GPGPU-Sim PTX: 4400000 instructions simulated : ctaid=(35,0,0) tid=(9,0,0)
GPGPU-Sim PTX: 4500000 instructions simulated : ctaid=(15,0,0) tid=(233,0,0)
GPGPU-Sim PTX: 4600000 instructions simulated : ctaid=(41,0,0) tid=(169,0,0)
GPGPU-Sim PTX: 4700000 instructions simulated : ctaid=(5,0,0) tid=(73,0,0)
GPGPU-Sim uArch: cycles simulated: 91000  inst.: 4672943 (ipc=51.4) sim_rate=101585 (inst/sec) elapsed = 0:0:00:46 / Tue Mar 22 07:37:37 2016
GPGPU-Sim PTX: 4800000 instructions simulated : ctaid=(5,0,0) tid=(457,0,0)
GPGPU-Sim PTX: 4900000 instructions simulated : ctaid=(20,0,0) tid=(297,0,0)
GPGPU-Sim PTX: 5000000 instructions simulated : ctaid=(27,0,0) tid=(297,0,0)
GPGPU-Sim uArch: cycles simulated: 92000  inst.: 5034223 (ipc=54.7) sim_rate=107111 (inst/sec) elapsed = 0:0:00:47 / Tue Mar 22 07:37:38 2016
GPGPU-Sim PTX: 5100000 instructions simulated : ctaid=(38,0,0) tid=(329,0,0)
GPGPU-Sim PTX: 5200000 instructions simulated : ctaid=(18,0,0) tid=(41,0,0)
GPGPU-Sim PTX: 5300000 instructions simulated : ctaid=(12,0,0) tid=(137,0,0)
GPGPU-Sim PTX: 5400000 instructions simulated : ctaid=(18,0,0) tid=(41,0,0)
GPGPU-Sim uArch: cycles simulated: 93000  inst.: 5410927 (ipc=58.2) sim_rate=112727 (inst/sec) elapsed = 0:0:00:48 / Tue Mar 22 07:37:39 2016
GPGPU-Sim PTX: 5500000 instructions simulated : ctaid=(41,0,0) tid=(73,0,0)
GPGPU-Sim PTX: 5600000 instructions simulated : ctaid=(36,0,0) tid=(73,0,0)
GPGPU-Sim PTX: 5700000 instructions simulated : ctaid=(35,0,0) tid=(265,0,0)
GPGPU-Sim PTX: 5800000 instructions simulated : ctaid=(32,0,0) tid=(393,0,0)
GPGPU-Sim uArch: cycles simulated: 94000  inst.: 5780143 (ipc=61.5) sim_rate=117962 (inst/sec) elapsed = 0:0:00:49 / Tue Mar 22 07:37:40 2016
GPGPU-Sim PTX: 5900000 instructions simulated : ctaid=(37,0,0) tid=(137,0,0)
GPGPU-Sim PTX: 6000000 instructions simulated : ctaid=(23,0,0) tid=(393,0,0)
GPGPU-Sim PTX: 6100000 instructions simulated : ctaid=(1,0,0) tid=(201,0,0)
GPGPU-Sim uArch: cycles simulated: 95000  inst.: 6148111 (ipc=64.7) sim_rate=122962 (inst/sec) elapsed = 0:0:00:50 / Tue Mar 22 07:37:41 2016
GPGPU-Sim PTX: 6200000 instructions simulated : ctaid=(6,0,0) tid=(105,0,0)
GPGPU-Sim PTX: 6300000 instructions simulated : ctaid=(16,0,0) tid=(41,0,0)
GPGPU-Sim PTX: 6400000 instructions simulated : ctaid=(14,0,0) tid=(329,0,0)
GPGPU-Sim PTX: 6500000 instructions simulated : ctaid=(7,0,0) tid=(169,0,0)
GPGPU-Sim uArch: cycles simulated: 96000  inst.: 6517295 (ipc=67.9) sim_rate=127790 (inst/sec) elapsed = 0:0:00:51 / Tue Mar 22 07:37:42 2016
GPGPU-Sim PTX: 6600000 instructions simulated : ctaid=(34,0,0) tid=(105,0,0)
GPGPU-Sim PTX: 6700000 instructions simulated : ctaid=(20,0,0) tid=(137,0,0)
GPGPU-Sim PTX: 6800000 instructions simulated : ctaid=(0,0,0) tid=(105,0,0)
GPGPU-Sim PTX: 6900000 instructions simulated : ctaid=(15,0,0) tid=(137,0,0)
GPGPU-Sim uArch: cycles simulated: 97000  inst.: 6891375 (ipc=71.0) sim_rate=132526 (inst/sec) elapsed = 0:0:00:52 / Tue Mar 22 07:37:43 2016
GPGPU-Sim PTX: 7000000 instructions simulated : ctaid=(11,0,0) tid=(105,0,0)
GPGPU-Sim PTX: 7100000 instructions simulated : ctaid=(28,0,0) tid=(457,0,0)
GPGPU-Sim PTX: 7200000 instructions simulated : ctaid=(43,0,0) tid=(329,0,0)
GPGPU-Sim PTX: 7300000 instructions simulated : ctaid=(6,0,0) tid=(425,0,0)
GPGPU-Sim uArch: cycles simulated: 98000  inst.: 7276591 (ipc=74.3) sim_rate=137294 (inst/sec) elapsed = 0:0:00:53 / Tue Mar 22 07:37:44 2016
GPGPU-Sim PTX: 7400000 instructions simulated : ctaid=(13,0,0) tid=(169,0,0)
GPGPU-Sim PTX: 7500000 instructions simulated : ctaid=(30,0,0) tid=(329,0,0)
GPGPU-Sim PTX: 7600000 instructions simulated : ctaid=(12,0,0) tid=(137,0,0)
GPGPU-Sim PTX: 7700000 instructions simulated : ctaid=(12,0,0) tid=(329,0,0)
GPGPU-Sim uArch: cycles simulated: 99000  inst.: 7665071 (ipc=77.4) sim_rate=141945 (inst/sec) elapsed = 0:0:00:54 / Tue Mar 22 07:37:45 2016
GPGPU-Sim PTX: 7800000 instructions simulated : ctaid=(9,0,0) tid=(457,0,0)
GPGPU-Sim PTX: 7900000 instructions simulated : ctaid=(1,0,0) tid=(393,0,0)
GPGPU-Sim PTX: 8000000 instructions simulated : ctaid=(33,0,0) tid=(265,0,0)
GPGPU-Sim uArch: cycles simulated: 100000  inst.: 8049455 (ipc=80.5) sim_rate=146353 (inst/sec) elapsed = 0:0:00:55 / Tue Mar 22 07:37:46 2016
GPGPU-Sim PTX: 8100000 instructions simulated : ctaid=(41,0,0) tid=(393,0,0)
GPGPU-Sim PTX: 8200000 instructions simulated : ctaid=(44,0,0) tid=(137,0,0)
GPGPU-Sim PTX: 8300000 instructions simulated : ctaid=(3,0,0) tid=(137,0,0)
GPGPU-Sim PTX: 8400000 instructions simulated : ctaid=(28,0,0) tid=(9,0,0)
GPGPU-Sim uArch: cycles simulated: 101000  inst.: 8429775 (ipc=83.5) sim_rate=150531 (inst/sec) elapsed = 0:0:00:56 / Tue Mar 22 07:37:47 2016
GPGPU-Sim PTX: 8500000 instructions simulated : ctaid=(40,0,0) tid=(41,0,0)
GPGPU-Sim PTX: 8600000 instructions simulated : ctaid=(39,0,0) tid=(265,0,0)
GPGPU-Sim PTX: 8700000 instructions simulated : ctaid=(22,0,0) tid=(393,0,0)
GPGPU-Sim PTX: 8800000 instructions simulated : ctaid=(31,0,0) tid=(201,0,0)
GPGPU-Sim uArch: cycles simulated: 102000  inst.: 8807567 (ipc=86.3) sim_rate=154518 (inst/sec) elapsed = 0:0:00:57 / Tue Mar 22 07:37:48 2016
GPGPU-Sim PTX: 8900000 instructions simulated : ctaid=(10,0,0) tid=(425,0,0)
GPGPU-Sim PTX: 9000000 instructions simulated : ctaid=(26,0,0) tid=(169,0,0)
GPGPU-Sim PTX: 9100000 instructions simulated : ctaid=(21,0,0) tid=(137,0,0)
GPGPU-Sim PTX: 9200000 instructions simulated : ctaid=(6,0,0) tid=(329,0,0)
GPGPU-Sim uArch: cycles simulated: 103000  inst.: 9187887 (ipc=89.2) sim_rate=158411 (inst/sec) elapsed = 0:0:00:58 / Tue Mar 22 07:37:49 2016
GPGPU-Sim PTX: 9300000 instructions simulated : ctaid=(34,0,0) tid=(201,0,0)
GPGPU-Sim PTX: 9400000 instructions simulated : ctaid=(35,0,0) tid=(201,0,0)
GPGPU-Sim PTX: 9500000 instructions simulated : ctaid=(16,0,0) tid=(393,0,0)
GPGPU-Sim PTX: 9600000 instructions simulated : ctaid=(34,0,0) tid=(297,0,0)
GPGPU-Sim uArch: cycles simulated: 104000  inst.: 9561679 (ipc=91.9) sim_rate=162062 (inst/sec) elapsed = 0:0:00:59 / Tue Mar 22 07:37:50 2016
GPGPU-Sim PTX: 9700000 instructions simulated : ctaid=(15,0,0) tid=(105,0,0)
GPGPU-Sim PTX: 9800000 instructions simulated : ctaid=(15,0,0) tid=(297,0,0)
GPGPU-Sim PTX: 9900000 instructions simulated : ctaid=(12,0,0) tid=(73,0,0)
GPGPU-Sim uArch: cycles simulated: 105000  inst.: 9894607 (ipc=94.2) sim_rate=164910 (inst/sec) elapsed = 0:0:01:00 / Tue Mar 22 07:37:51 2016
GPGPU-Sim PTX: 10000000 instructions simulated : ctaid=(37,0,0) tid=(329,0,0)
GPGPU-Sim PTX: 10100000 instructions simulated : ctaid=(13,0,0) tid=(265,0,0)
GPGPU-Sim PTX: 10200000 instructions simulated : ctaid=(12,0,0) tid=(9,0,0)
GPGPU-Sim PTX: 10300000 instructions simulated : ctaid=(5,0,0) tid=(329,0,0)
GPGPU-Sim uArch: cycles simulated: 106000  inst.: 10279983 (ipc=97.0) sim_rate=168524 (inst/sec) elapsed = 0:0:01:01 / Tue Mar 22 07:37:52 2016
GPGPU-Sim PTX: 10400000 instructions simulated : ctaid=(38,0,0) tid=(393,0,0)
GPGPU-Sim PTX: 10500000 instructions simulated : ctaid=(40,0,0) tid=(73,0,0)
GPGPU-Sim PTX: 10600000 instructions simulated : ctaid=(43,0,0) tid=(137,0,0)
GPGPU-Sim PTX: 10700000 instructions simulated : ctaid=(9,0,0) tid=(73,0,0)
GPGPU-Sim uArch: cycles simulated: 107000  inst.: 10656847 (ipc=99.6) sim_rate=171884 (inst/sec) elapsed = 0:0:01:02 / Tue Mar 22 07:37:53 2016
GPGPU-Sim PTX: 10800000 instructions simulated : ctaid=(8,0,0) tid=(9,0,0)
GPGPU-Sim PTX: 10900000 instructions simulated : ctaid=(28,0,0) tid=(265,0,0)
GPGPU-Sim PTX: 11000000 instructions simulated : ctaid=(21,0,0) tid=(9,0,0)
GPGPU-Sim PTX: 11100000 instructions simulated : ctaid=(3,0,0) tid=(137,0,0)
GPGPU-Sim PTX: 11200000 instructions simulated : ctaid=(7,0,0) tid=(105,0,0)
GPGPU-Sim uArch: cycles simulated: 108500  inst.: 11204655 (ipc=103.3) sim_rate=177851 (inst/sec) elapsed = 0:0:01:03 / Tue Mar 22 07:37:54 2016
GPGPU-Sim PTX: 11300000 instructions simulated : ctaid=(6,0,0) tid=(329,0,0)
GPGPU-Sim PTX: 11400000 instructions simulated : ctaid=(15,0,0) tid=(297,0,0)
GPGPU-Sim PTX: 11500000 instructions simulated : ctaid=(39,0,0) tid=(9,0,0)
GPGPU-Sim PTX: 11600000 instructions simulated : ctaid=(28,0,0) tid=(169,0,0)
GPGPU-Sim uArch: cycles simulated: 109500  inst.: 11575855 (ipc=105.7) sim_rate=180872 (inst/sec) elapsed = 0:0:01:04 / Tue Mar 22 07:37:55 2016
GPGPU-Sim PTX: 11700000 instructions simulated : ctaid=(42,0,0) tid=(201,0,0)
GPGPU-Sim PTX: 11800000 instructions simulated : ctaid=(4,0,0) tid=(201,0,0)
GPGPU-Sim PTX: 11900000 instructions simulated : ctaid=(40,0,0) tid=(105,0,0)
GPGPU-Sim uArch: cycles simulated: 110500  inst.: 11954735 (ipc=108.2) sim_rate=183919 (inst/sec) elapsed = 0:0:01:05 / Tue Mar 22 07:37:56 2016
GPGPU-Sim PTX: 12000000 instructions simulated : ctaid=(44,0,0) tid=(329,0,0)
GPGPU-Sim PTX: 12100000 instructions simulated : ctaid=(1,0,0) tid=(73,0,0)
GPGPU-Sim PTX: 12200000 instructions simulated : ctaid=(10,0,0) tid=(73,0,0)
GPGPU-Sim PTX: 12300000 instructions simulated : ctaid=(38,0,0) tid=(9,0,0)
GPGPU-Sim uArch: cycles simulated: 111500  inst.: 12340815 (ipc=110.7) sim_rate=186982 (inst/sec) elapsed = 0:0:01:06 / Tue Mar 22 07:37:57 2016
GPGPU-Sim PTX: 12400000 instructions simulated : ctaid=(30,0,0) tid=(9,0,0)
GPGPU-Sim PTX: 12500000 instructions simulated : ctaid=(0,0,0) tid=(233,0,0)
GPGPU-Sim PTX: 12600000 instructions simulated : ctaid=(13,0,0) tid=(361,0,0)
GPGPU-Sim PTX: 12700000 instructions simulated : ctaid=(6,0,0) tid=(297,0,0)
GPGPU-Sim uArch: cycles simulated: 112500  inst.: 12711951 (ipc=113.0) sim_rate=189730 (inst/sec) elapsed = 0:0:01:07 / Tue Mar 22 07:37:58 2016
GPGPU-Sim PTX: 12800000 instructions simulated : ctaid=(18,0,0) tid=(393,0,0)
GPGPU-Sim PTX: 12900000 instructions simulated : ctaid=(24,0,0) tid=(137,0,0)
GPGPU-Sim PTX: 13000000 instructions simulated : ctaid=(21,0,0) tid=(457,0,0)
GPGPU-Sim PTX: 13100000 instructions simulated : ctaid=(3,0,0) tid=(329,0,0)
GPGPU-Sim uArch: cycles simulated: 113500  inst.: 13096303 (ipc=115.4) sim_rate=192592 (inst/sec) elapsed = 0:0:01:08 / Tue Mar 22 07:37:59 2016
GPGPU-Sim PTX: 13200000 instructions simulated : ctaid=(32,0,0) tid=(329,0,0)
GPGPU-Sim PTX: 13300000 instructions simulated : ctaid=(4,0,0) tid=(169,0,0)
GPGPU-Sim PTX: 13400000 instructions simulated : ctaid=(22,0,0) tid=(169,0,0)
GPGPU-Sim PTX: 13500000 instructions simulated : ctaid=(26,0,0) tid=(265,0,0)
GPGPU-Sim uArch: cycles simulated: 114500  inst.: 13478543 (ipc=117.7) sim_rate=195341 (inst/sec) elapsed = 0:0:01:09 / Tue Mar 22 07:38:00 2016
GPGPU-Sim PTX: 13600000 instructions simulated : ctaid=(9,0,0) tid=(169,0,0)
GPGPU-Sim PTX: 13700000 instructions simulated : ctaid=(27,0,0) tid=(9,0,0)
GPGPU-Sim PTX: 13800000 instructions simulated : ctaid=(25,0,0) tid=(489,0,0)
GPGPU-Sim PTX: 13900000 instructions simulated : ctaid=(18,0,0) tid=(41,0,0)
GPGPU-Sim uArch: cycles simulated: 115500  inst.: 13862607 (ipc=120.0) sim_rate=198037 (inst/sec) elapsed = 0:0:01:10 / Tue Mar 22 07:38:01 2016
GPGPU-Sim PTX: 14000000 instructions simulated : ctaid=(0,0,0) tid=(233,0,0)
GPGPU-Sim PTX: 14100000 instructions simulated : ctaid=(7,0,0) tid=(41,0,0)
GPGPU-Sim PTX: 14200000 instructions simulated : ctaid=(16,0,0) tid=(457,0,0)
GPGPU-Sim uArch: cycles simulated: 116500  inst.: 14230735 (ipc=122.2) sim_rate=200432 (inst/sec) elapsed = 0:0:01:11 / Tue Mar 22 07:38:02 2016
GPGPU-Sim PTX: 14300000 instructions simulated : ctaid=(32,0,0) tid=(201,0,0)
GPGPU-Sim PTX: 14400000 instructions simulated : ctaid=(38,0,0) tid=(73,0,0)
GPGPU-Sim PTX: 14500000 instructions simulated : ctaid=(24,0,0) tid=(297,0,0)
GPGPU-Sim PTX: 14600000 instructions simulated : ctaid=(26,0,0) tid=(201,0,0)
GPGPU-Sim uArch: cycles simulated: 117500  inst.: 14610031 (ipc=124.3) sim_rate=202917 (inst/sec) elapsed = 0:0:01:12 / Tue Mar 22 07:38:03 2016
GPGPU-Sim PTX: 14700000 instructions simulated : ctaid=(0,0,0) tid=(425,0,0)
GPGPU-Sim PTX: 14800000 instructions simulated : ctaid=(0,0,0) tid=(393,0,0)
GPGPU-Sim PTX: 14900000 instructions simulated : ctaid=(2,0,0) tid=(361,0,0)
GPGPU-Sim PTX: 15000000 instructions simulated : ctaid=(4,0,0) tid=(457,0,0)
GPGPU-Sim uArch: cycles simulated: 118500  inst.: 14989071 (ipc=126.5) sim_rate=205329 (inst/sec) elapsed = 0:0:01:13 / Tue Mar 22 07:38:04 2016
GPGPU-Sim PTX: 15100000 instructions simulated : ctaid=(14,0,0) tid=(489,0,0)
GPGPU-Sim PTX: 15200000 instructions simulated : ctaid=(11,0,0) tid=(393,0,0)
GPGPU-Sim PTX: 15300000 instructions simulated : ctaid=(39,0,0) tid=(105,0,0)
GPGPU-Sim uArch: cycles simulated: 119500  inst.: 15352431 (ipc=128.5) sim_rate=207465 (inst/sec) elapsed = 0:0:01:14 / Tue Mar 22 07:38:05 2016
GPGPU-Sim PTX: 15400000 instructions simulated : ctaid=(20,0,0) tid=(457,0,0)
GPGPU-Sim PTX: 15500000 instructions simulated : ctaid=(16,0,0) tid=(297,0,0)
GPGPU-Sim PTX: 15600000 instructions simulated : ctaid=(24,0,0) tid=(201,0,0)
GPGPU-Sim PTX: 15700000 instructions simulated : ctaid=(2,0,0) tid=(41,0,0)
GPGPU-Sim uArch: cycles simulated: 120500  inst.: 15726191 (ipc=130.5) sim_rate=209682 (inst/sec) elapsed = 0:0:01:15 / Tue Mar 22 07:38:06 2016
GPGPU-Sim PTX: 15800000 instructions simulated : ctaid=(3,0,0) tid=(489,0,0)
GPGPU-Sim PTX: 15900000 instructions simulated : ctaid=(20,0,0) tid=(9,0,0)
GPGPU-Sim PTX: 16000000 instructions simulated : ctaid=(3,0,0) tid=(457,0,0)
GPGPU-Sim PTX: 16100000 instructions simulated : ctaid=(43,0,0) tid=(137,0,0)
GPGPU-Sim uArch: cycles simulated: 121500  inst.: 16103375 (ipc=132.5) sim_rate=211886 (inst/sec) elapsed = 0:0:01:16 / Tue Mar 22 07:38:07 2016
GPGPU-Sim PTX: 16200000 instructions simulated : ctaid=(2,0,0) tid=(41,0,0)
GPGPU-Sim PTX: 16300000 instructions simulated : ctaid=(0,0,0) tid=(201,0,0)
GPGPU-Sim PTX: 16400000 instructions simulated : ctaid=(28,0,0) tid=(137,0,0)
GPGPU-Sim PTX: 16500000 instructions simulated : ctaid=(29,0,0) tid=(489,0,0)
GPGPU-Sim uArch: cycles simulated: 122500  inst.: 16477231 (ipc=134.5) sim_rate=213990 (inst/sec) elapsed = 0:0:01:17 / Tue Mar 22 07:38:08 2016
GPGPU-Sim PTX: 16600000 instructions simulated : ctaid=(3,0,0) tid=(361,0,0)
GPGPU-Sim PTX: 16700000 instructions simulated : ctaid=(32,0,0) tid=(457,0,0)
GPGPU-Sim PTX: 16800000 instructions simulated : ctaid=(12,0,0) tid=(329,0,0)
GPGPU-Sim uArch: cycles simulated: 123500  inst.: 16852143 (ipc=136.5) sim_rate=216053 (inst/sec) elapsed = 0:0:01:18 / Tue Mar 22 07:38:09 2016
GPGPU-Sim PTX: 16900000 instructions simulated : ctaid=(9,0,0) tid=(393,0,0)
GPGPU-Sim PTX: 17000000 instructions simulated : ctaid=(23,0,0) tid=(105,0,0)
GPGPU-Sim PTX: 17100000 instructions simulated : ctaid=(12,0,0) tid=(105,0,0)
GPGPU-Sim PTX: 17200000 instructions simulated : ctaid=(43,0,0) tid=(137,0,0)
GPGPU-Sim uArch: cycles simulated: 124500  inst.: 17228367 (ipc=138.4) sim_rate=218080 (inst/sec) elapsed = 0:0:01:19 / Tue Mar 22 07:38:10 2016
GPGPU-Sim PTX: 17300000 instructions simulated : ctaid=(12,0,0) tid=(169,0,0)
GPGPU-Sim PTX: 17400000 instructions simulated : ctaid=(9,0,0) tid=(361,0,0)
GPGPU-Sim PTX: 17500000 instructions simulated : ctaid=(25,0,0) tid=(329,0,0)
GPGPU-Sim PTX: 17600000 instructions simulated : ctaid=(17,0,0) tid=(329,0,0)
GPGPU-Sim uArch: cycles simulated: 125500  inst.: 17602959 (ipc=140.3) sim_rate=220036 (inst/sec) elapsed = 0:0:01:20 / Tue Mar 22 07:38:11 2016
GPGPU-Sim PTX: 17700000 instructions simulated : ctaid=(24,0,0) tid=(425,0,0)
GPGPU-Sim PTX: 17800000 instructions simulated : ctaid=(7,0,0) tid=(297,0,0)
GPGPU-Sim PTX: 17900000 instructions simulated : ctaid=(13,0,0) tid=(41,0,0)
GPGPU-Sim PTX: 18000000 instructions simulated : ctaid=(44,0,0) tid=(329,0,0)
GPGPU-Sim uArch: cycles simulated: 126500  inst.: 17980591 (ipc=142.1) sim_rate=221982 (inst/sec) elapsed = 0:0:01:21 / Tue Mar 22 07:38:12 2016
GPGPU-Sim PTX: 18100000 instructions simulated : ctaid=(12,0,0) tid=(425,0,0)
GPGPU-Sim PTX: 18200000 instructions simulated : ctaid=(0,0,0) tid=(265,0,0)
GPGPU-Sim PTX: 18300000 instructions simulated : ctaid=(11,0,0) tid=(361,0,0)
GPGPU-Sim PTX: 18400000 instructions simulated : ctaid=(18,0,0) tid=(137,0,0)
GPGPU-Sim uArch: cycles simulated: 127500  inst.: 18359887 (ipc=144.0) sim_rate=223901 (inst/sec) elapsed = 0:0:01:22 / Tue Mar 22 07:38:13 2016
GPGPU-Sim PTX: 18500000 instructions simulated : ctaid=(43,0,0) tid=(265,0,0)
GPGPU-Sim PTX: 18600000 instructions simulated : ctaid=(16,0,0) tid=(457,0,0)
GPGPU-Sim PTX: 18700000 instructions simulated : ctaid=(25,0,0) tid=(393,0,0)
GPGPU-Sim uArch: cycles simulated: 128500  inst.: 18751311 (ipc=145.9) sim_rate=225919 (inst/sec) elapsed = 0:0:01:23 / Tue Mar 22 07:38:14 2016
GPGPU-Sim PTX: 18800000 instructions simulated : ctaid=(23,0,0) tid=(137,0,0)
GPGPU-Sim PTX: 18900000 instructions simulated : ctaid=(22,0,0) tid=(137,0,0)
GPGPU-Sim PTX: 19000000 instructions simulated : ctaid=(11,0,0) tid=(169,0,0)
GPGPU-Sim PTX: 19100000 instructions simulated : ctaid=(17,0,0) tid=(425,0,0)
GPGPU-Sim uArch: cycles simulated: 129500  inst.: 19129039 (ipc=147.7) sim_rate=227726 (inst/sec) elapsed = 0:0:01:24 / Tue Mar 22 07:38:15 2016
GPGPU-Sim PTX: 19200000 instructions simulated : ctaid=(24,0,0) tid=(457,0,0)
GPGPU-Sim PTX: 19300000 instructions simulated : ctaid=(6,0,0) tid=(233,0,0)
GPGPU-Sim PTX: 19400000 instructions simulated : ctaid=(16,0,0) tid=(169,0,0)
GPGPU-Sim PTX: 19500000 instructions simulated : ctaid=(33,0,0) tid=(105,0,0)
GPGPU-Sim uArch: cycles simulated: 130500  inst.: 19507343 (ipc=149.5) sim_rate=229498 (inst/sec) elapsed = 0:0:01:25 / Tue Mar 22 07:38:16 2016
GPGPU-Sim PTX: 19600000 instructions simulated : ctaid=(12,0,0) tid=(201,0,0)
GPGPU-Sim PTX: 19700000 instructions simulated : ctaid=(19,0,0) tid=(297,0,0)
GPGPU-Sim PTX: 19800000 instructions simulated : ctaid=(40,0,0) tid=(265,0,0)
GPGPU-Sim PTX: 19900000 instructions simulated : ctaid=(6,0,0) tid=(425,0,0)
GPGPU-Sim uArch: cycles simulated: 131500  inst.: 19875119 (ipc=151.1) sim_rate=231106 (inst/sec) elapsed = 0:0:01:26 / Tue Mar 22 07:38:17 2016
GPGPU-Sim PTX: 20000000 instructions simulated : ctaid=(3,0,0) tid=(265,0,0)
GPGPU-Sim PTX: 20100000 instructions simulated : ctaid=(5,0,0) tid=(41,0,0)
GPGPU-Sim PTX: 20200000 instructions simulated : ctaid=(16,0,0) tid=(265,0,0)
GPGPU-Sim uArch: cycles simulated: 132500  inst.: 20252335 (ipc=152.8) sim_rate=232785 (inst/sec) elapsed = 0:0:01:27 / Tue Mar 22 07:38:18 2016
GPGPU-Sim PTX: 20300000 instructions simulated : ctaid=(38,0,0) tid=(137,0,0)
GPGPU-Sim PTX: 20400000 instructions simulated : ctaid=(17,0,0) tid=(233,0,0)
GPGPU-Sim PTX: 20500000 instructions simulated : ctaid=(28,0,0) tid=(297,0,0)
GPGPU-Sim PTX: 20600000 instructions simulated : ctaid=(20,0,0) tid=(489,0,0)
GPGPU-Sim uArch: cycles simulated: 133500  inst.: 20628015 (ipc=154.5) sim_rate=234409 (inst/sec) elapsed = 0:0:01:28 / Tue Mar 22 07:38:19 2016
GPGPU-Sim PTX: 20700000 instructions simulated : ctaid=(22,0,0) tid=(361,0,0)
GPGPU-Sim PTX: 20800000 instructions simulated : ctaid=(36,0,0) tid=(201,0,0)
GPGPU-Sim PTX: 20900000 instructions simulated : ctaid=(14,0,0) tid=(425,0,0)
GPGPU-Sim PTX: 21000000 instructions simulated : ctaid=(24,0,0) tid=(201,0,0)
GPGPU-Sim uArch: cycles simulated: 134500  inst.: 20995631 (ipc=156.1) sim_rate=235905 (inst/sec) elapsed = 0:0:01:29 / Tue Mar 22 07:38:20 2016
GPGPU-Sim PTX: 21100000 instructions simulated : ctaid=(10,0,0) tid=(361,0,0)
GPGPU-Sim PTX: 21200000 instructions simulated : ctaid=(33,0,0) tid=(41,0,0)
GPGPU-Sim PTX: 21300000 instructions simulated : ctaid=(9,0,0) tid=(265,0,0)
GPGPU-Sim PTX: 21400000 instructions simulated : ctaid=(3,0,0) tid=(169,0,0)
GPGPU-Sim uArch: cycles simulated: 135500  inst.: 21374063 (ipc=157.7) sim_rate=237489 (inst/sec) elapsed = 0:0:01:30 / Tue Mar 22 07:38:21 2016
GPGPU-Sim PTX: 21500000 instructions simulated : ctaid=(22,0,0) tid=(9,0,0)
GPGPU-Sim PTX: 21600000 instructions simulated : ctaid=(44,0,0) tid=(105,0,0)
GPGPU-Sim PTX: 21700000 instructions simulated : ctaid=(28,0,0) tid=(169,0,0)
GPGPU-Sim uArch: cycles simulated: 136500  inst.: 21744815 (ipc=159.3) sim_rate=238954 (inst/sec) elapsed = 0:0:01:31 / Tue Mar 22 07:38:22 2016
GPGPU-Sim PTX: 21800000 instructions simulated : ctaid=(23,0,0) tid=(297,0,0)
GPGPU-Sim PTX: 21900000 instructions simulated : ctaid=(9,0,0) tid=(41,0,0)
GPGPU-Sim PTX: 22000000 instructions simulated : ctaid=(9,0,0) tid=(329,0,0)
GPGPU-Sim PTX: 22100000 instructions simulated : ctaid=(27,0,0) tid=(73,0,0)
GPGPU-Sim uArch: cycles simulated: 137500  inst.: 22126159 (ipc=160.9) sim_rate=240501 (inst/sec) elapsed = 0:0:01:32 / Tue Mar 22 07:38:23 2016
GPGPU-Sim PTX: 22200000 instructions simulated : ctaid=(21,0,0) tid=(105,0,0)
GPGPU-Sim PTX: 22300000 instructions simulated : ctaid=(43,0,0) tid=(265,0,0)
GPGPU-Sim PTX: 22400000 instructions simulated : ctaid=(25,0,0) tid=(297,0,0)
GPGPU-Sim PTX: 22500000 instructions simulated : ctaid=(13,0,0) tid=(457,0,0)
GPGPU-Sim uArch: cycles simulated: 138500  inst.: 22506959 (ipc=162.5) sim_rate=242010 (inst/sec) elapsed = 0:0:01:33 / Tue Mar 22 07:38:24 2016
GPGPU-Sim PTX: 22600000 instructions simulated : ctaid=(8,0,0) tid=(265,0,0)
GPGPU-Sim PTX: 22700000 instructions simulated : ctaid=(14,0,0) tid=(105,0,0)
GPGPU-Sim PTX: 22800000 instructions simulated : ctaid=(3,0,0) tid=(9,0,0)
GPGPU-Sim PTX: 22900000 instructions simulated : ctaid=(33,0,0) tid=(73,0,0)
GPGPU-Sim PTX: 23000000 instructions simulated : ctaid=(12,0,0) tid=(41,0,0)
GPGPU-Sim uArch: cycles simulated: 140000  inst.: 23054415 (ipc=164.7) sim_rate=245259 (inst/sec) elapsed = 0:0:01:34 / Tue Mar 22 07:38:25 2016
GPGPU-Sim PTX: 23100000 instructions simulated : ctaid=(36,0,0) tid=(137,0,0)
GPGPU-Sim PTX: 23200000 instructions simulated : ctaid=(6,0,0) tid=(201,0,0)
GPGPU-Sim PTX: 23300000 instructions simulated : ctaid=(20,0,0) tid=(73,0,0)
GPGPU-Sim PTX: 23400000 instructions simulated : ctaid=(0,0,0) tid=(201,0,0)
GPGPU-Sim uArch: cycles simulated: 141000  inst.: 23427919 (ipc=166.2) sim_rate=246609 (inst/sec) elapsed = 0:0:01:35 / Tue Mar 22 07:38:26 2016
GPGPU-Sim PTX: 23500000 instructions simulated : ctaid=(30,0,0) tid=(73,0,0)
GPGPU-Sim PTX: 23600000 instructions simulated : ctaid=(18,0,0) tid=(329,0,0)
GPGPU-Sim PTX: 23700000 instructions simulated : ctaid=(0,0,0) tid=(265,0,0)
GPGPU-Sim PTX: 23800000 instructions simulated : ctaid=(6,0,0) tid=(169,0,0)
GPGPU-Sim uArch: cycles simulated: 142000  inst.: 23806319 (ipc=167.7) sim_rate=247982 (inst/sec) elapsed = 0:0:01:36 / Tue Mar 22 07:38:27 2016
GPGPU-Sim PTX: 23900000 instructions simulated : ctaid=(36,0,0) tid=(41,0,0)
GPGPU-Sim PTX: 24000000 instructions simulated : ctaid=(15,0,0) tid=(105,0,0)
GPGPU-Sim PTX: 24100000 instructions simulated : ctaid=(42,0,0) tid=(457,0,0)
GPGPU-Sim PTX: 24200000 instructions simulated : ctaid=(25,0,0) tid=(297,0,0)
GPGPU-Sim uArch: cycles simulated: 143000  inst.: 24185711 (ipc=169.1) sim_rate=249337 (inst/sec) elapsed = 0:0:01:37 / Tue Mar 22 07:38:28 2016
GPGPU-Sim PTX: 24300000 instructions simulated : ctaid=(5,0,0) tid=(9,0,0)
GPGPU-Sim PTX: 24400000 instructions simulated : ctaid=(34,0,0) tid=(329,0,0)
GPGPU-Sim PTX: 24500000 instructions simulated : ctaid=(40,0,0) tid=(329,0,0)
GPGPU-Sim uArch: cycles simulated: 144000  inst.: 24551983 (ipc=170.5) sim_rate=250530 (inst/sec) elapsed = 0:0:01:38 / Tue Mar 22 07:38:29 2016
GPGPU-Sim PTX: 24600000 instructions simulated : ctaid=(1,0,0) tid=(73,0,0)
GPGPU-Sim PTX: 24700000 instructions simulated : ctaid=(40,0,0) tid=(297,0,0)
GPGPU-Sim PTX: 24800000 instructions simulated : ctaid=(42,0,0) tid=(457,0,0)
GPGPU-Sim PTX: 24900000 instructions simulated : ctaid=(4,0,0) tid=(169,0,0)
GPGPU-Sim uArch: cycles simulated: 145000  inst.: 24929679 (ipc=171.9) sim_rate=251814 (inst/sec) elapsed = 0:0:01:39 / Tue Mar 22 07:38:30 2016
GPGPU-Sim PTX: 25000000 instructions simulated : ctaid=(19,0,0) tid=(169,0,0)
GPGPU-Sim PTX: 25100000 instructions simulated : ctaid=(18,0,0) tid=(169,0,0)
GPGPU-Sim PTX: 25200000 instructions simulated : ctaid=(37,0,0) tid=(201,0,0)
GPGPU-Sim PTX: 25300000 instructions simulated : ctaid=(36,0,0) tid=(265,0,0)
GPGPU-Sim uArch: cycles simulated: 146000  inst.: 25301327 (ipc=173.3) sim_rate=253013 (inst/sec) elapsed = 0:0:01:40 / Tue Mar 22 07:38:31 2016
GPGPU-Sim PTX: 25400000 instructions simulated : ctaid=(11,0,0) tid=(201,0,0)
GPGPU-Sim PTX: 25500000 instructions simulated : ctaid=(13,0,0) tid=(233,0,0)
GPGPU-Sim PTX: 25600000 instructions simulated : ctaid=(44,0,0) tid=(137,0,0)
GPGPU-Sim uArch: cycles simulated: 147000  inst.: 25629775 (ipc=174.4) sim_rate=253760 (inst/sec) elapsed = 0:0:01:41 / Tue Mar 22 07:38:32 2016
GPGPU-Sim PTX: 25700000 instructions simulated : ctaid=(3,0,0) tid=(329,0,0)
GPGPU-Sim PTX: 25800000 instructions simulated : ctaid=(9,0,0) tid=(425,0,0)
GPGPU-Sim PTX: 25900000 instructions simulated : ctaid=(6,0,0) tid=(73,0,0)
GPGPU-Sim PTX: 26000000 instructions simulated : ctaid=(2,0,0) tid=(201,0,0)
GPGPU-Sim uArch: cycles simulated: 148000  inst.: 26008655 (ipc=175.7) sim_rate=254986 (inst/sec) elapsed = 0:0:01:42 / Tue Mar 22 07:38:33 2016
GPGPU-Sim PTX: 26100000 instructions simulated : ctaid=(2,0,0) tid=(489,0,0)
GPGPU-Sim PTX: 26200000 instructions simulated : ctaid=(9,0,0) tid=(233,0,0)
GPGPU-Sim PTX: 26300000 instructions simulated : ctaid=(15,0,0) tid=(489,0,0)
GPGPU-Sim PTX: 26400000 instructions simulated : ctaid=(8,0,0) tid=(137,0,0)
GPGPU-Sim uArch: cycles simulated: 149000  inst.: 26384143 (ipc=177.1) sim_rate=256156 (inst/sec) elapsed = 0:0:01:43 / Tue Mar 22 07:38:34 2016
GPGPU-Sim PTX: 26500000 instructions simulated : ctaid=(19,0,0) tid=(105,0,0)
GPGPU-Sim PTX: 26600000 instructions simulated : ctaid=(8,0,0) tid=(425,0,0)
GPGPU-Sim uArch: cycles simulated: 149500  inst.: 26571215 (ipc=177.7) sim_rate=255492 (inst/sec) elapsed = 0:0:01:44 / Tue Mar 22 07:38:35 2016
GPGPU-Sim PTX: 26700000 instructions simulated : ctaid=(12,0,0) tid=(41,0,0)
GPGPU-Sim PTX: 26800000 instructions simulated : ctaid=(1,0,0) tid=(105,0,0)
GPGPU-Sim PTX: 26900000 instructions simulated : ctaid=(42,0,0) tid=(329,0,0)
GPGPU-Sim uArch: cycles simulated: 150500  inst.: 26951791 (ipc=179.1) sim_rate=256683 (inst/sec) elapsed = 0:0:01:45 / Tue Mar 22 07:38:36 2016
GPGPU-Sim PTX: 27000000 instructions simulated : ctaid=(21,0,0) tid=(201,0,0)
GPGPU-Sim PTX: 27100000 instructions simulated : ctaid=(25,0,0) tid=(201,0,0)
GPGPU-Sim uArch: cycles simulated: 151000  inst.: 27143439 (ipc=179.8) sim_rate=256070 (inst/sec) elapsed = 0:0:01:46 / Tue Mar 22 07:38:37 2016
GPGPU-Sim PTX: 27200000 instructions simulated : ctaid=(18,0,0) tid=(457,0,0)
GPGPU-Sim PTX: 27300000 instructions simulated : ctaid=(5,0,0) tid=(457,0,0)
GPGPU-Sim PTX: 27400000 instructions simulated : ctaid=(13,0,0) tid=(265,0,0)
GPGPU-Sim PTX: 27500000 instructions simulated : ctaid=(5,0,0) tid=(201,0,0)
GPGPU-Sim uArch: cycles simulated: 152000  inst.: 27530607 (ipc=181.1) sim_rate=257295 (inst/sec) elapsed = 0:0:01:47 / Tue Mar 22 07:38:38 2016
GPGPU-Sim PTX: 27600000 instructions simulated : ctaid=(14,0,0) tid=(425,0,0)
GPGPU-Sim PTX: 27700000 instructions simulated : ctaid=(13,0,0) tid=(41,0,0)
GPGPU-Sim uArch: cycles simulated: 152500  inst.: 27719567 (ipc=181.8) sim_rate=256662 (inst/sec) elapsed = 0:0:01:48 / Tue Mar 22 07:38:39 2016
GPGPU-Sim PTX: 27800000 instructions simulated : ctaid=(15,0,0) tid=(457,0,0)
GPGPU-Sim PTX: 27900000 instructions simulated : ctaid=(0,0,0) tid=(393,0,0)
GPGPU-Sim PTX: 28000000 instructions simulated : ctaid=(5,0,0) tid=(41,0,0)
GPGPU-Sim PTX: 28100000 instructions simulated : ctaid=(26,0,0) tid=(457,0,0)
GPGPU-Sim uArch: cycles simulated: 153500  inst.: 28096143 (ipc=183.0) sim_rate=257762 (inst/sec) elapsed = 0:0:01:49 / Tue Mar 22 07:38:40 2016
GPGPU-Sim PTX: 28200000 instructions simulated : ctaid=(13,0,0) tid=(201,0,0)
GPGPU-Sim PTX: 28300000 instructions simulated : ctaid=(1,0,0) tid=(137,0,0)
GPGPU-Sim PTX: 28400000 instructions simulated : ctaid=(4,0,0) tid=(73,0,0)
GPGPU-Sim PTX: 28500000 instructions simulated : ctaid=(42,0,0) tid=(457,0,0)
GPGPU-Sim uArch: cycles simulated: 154500  inst.: 28482575 (ipc=184.4) sim_rate=258932 (inst/sec) elapsed = 0:0:01:50 / Tue Mar 22 07:38:41 2016
GPGPU-Sim PTX: 28600000 instructions simulated : ctaid=(27,0,0) tid=(169,0,0)
GPGPU-Sim PTX: 28700000 instructions simulated : ctaid=(30,0,0) tid=(457,0,0)
GPGPU-Sim uArch: cycles simulated: 155000  inst.: 28669903 (ipc=185.0) sim_rate=258287 (inst/sec) elapsed = 0:0:01:51 / Tue Mar 22 07:38:42 2016
GPGPU-Sim PTX: 28800000 instructions simulated : ctaid=(38,0,0) tid=(137,0,0)
GPGPU-Sim PTX: 28900000 instructions simulated : ctaid=(26,0,0) tid=(201,0,0)
GPGPU-Sim PTX: 29000000 instructions simulated : ctaid=(23,0,0) tid=(73,0,0)
GPGPU-Sim uArch: cycles simulated: 156000  inst.: 29045167 (ipc=186.2) sim_rate=259331 (inst/sec) elapsed = 0:0:01:52 / Tue Mar 22 07:38:43 2016
GPGPU-Sim PTX: 29100000 instructions simulated : ctaid=(18,0,0) tid=(233,0,0)
GPGPU-Sim PTX: 29200000 instructions simulated : ctaid=(7,0,0) tid=(361,0,0)
GPGPU-Sim uArch: cycles simulated: 156500  inst.: 29231151 (ipc=186.8) sim_rate=258682 (inst/sec) elapsed = 0:0:01:53 / Tue Mar 22 07:38:44 2016
GPGPU-Sim PTX: 29300000 instructions simulated : ctaid=(16,0,0) tid=(393,0,0)
GPGPU-Sim PTX: 29400000 instructions simulated : ctaid=(21,0,0) tid=(105,0,0)
GPGPU-Sim PTX: 29500000 instructions simulated : ctaid=(5,0,0) tid=(297,0,0)
GPGPU-Sim PTX: 29600000 instructions simulated : ctaid=(5,0,0) tid=(233,0,0)
GPGPU-Sim uArch: cycles simulated: 157500  inst.: 29602863 (ipc=188.0) sim_rate=259674 (inst/sec) elapsed = 0:0:01:54 / Tue Mar 22 07:38:45 2016
GPGPU-Sim PTX: 29700000 instructions simulated : ctaid=(29,0,0) tid=(137,0,0)
GPGPU-Sim PTX: 29800000 instructions simulated : ctaid=(44,0,0) tid=(9,0,0)
GPGPU-Sim PTX: 29900000 instructions simulated : ctaid=(4,0,0) tid=(297,0,0)
GPGPU-Sim PTX: 30000000 instructions simulated : ctaid=(34,0,0) tid=(393,0,0)
GPGPU-Sim uArch: cycles simulated: 158500  inst.: 29977839 (ipc=189.1) sim_rate=260676 (inst/sec) elapsed = 0:0:01:55 / Tue Mar 22 07:38:46 2016
GPGPU-Sim PTX: 30100000 instructions simulated : ctaid=(25,0,0) tid=(233,0,0)
GPGPU-Sim PTX: 30200000 instructions simulated : ctaid=(20,0,0) tid=(329,0,0)
GPGPU-Sim uArch: cycles simulated: 159000  inst.: 30163951 (ipc=189.7) sim_rate=260034 (inst/sec) elapsed = 0:0:01:56 / Tue Mar 22 07:38:47 2016
GPGPU-Sim PTX: 30300000 instructions simulated : ctaid=(0,0,0) tid=(393,0,0)
GPGPU-Sim PTX: 30400000 instructions simulated : ctaid=(26,0,0) tid=(457,0,0)
GPGPU-Sim PTX: 30500000 instructions simulated : ctaid=(2,0,0) tid=(105,0,0)
GPGPU-Sim uArch: cycles simulated: 160000  inst.: 30549423 (ipc=190.9) sim_rate=261106 (inst/sec) elapsed = 0:0:01:57 / Tue Mar 22 07:38:48 2016
GPGPU-Sim PTX: 30600000 instructions simulated : ctaid=(30,0,0) tid=(393,0,0)
GPGPU-Sim PTX: 30700000 instructions simulated : ctaid=(9,0,0) tid=(297,0,0)
GPGPU-Sim uArch: cycles simulated: 160500  inst.: 30740079 (ipc=191.5) sim_rate=260509 (inst/sec) elapsed = 0:0:01:58 / Tue Mar 22 07:38:49 2016
GPGPU-Sim PTX: 30800000 instructions simulated : ctaid=(19,0,0) tid=(329,0,0)
GPGPU-Sim PTX: 30900000 instructions simulated : ctaid=(28,0,0) tid=(457,0,0)
GPGPU-Sim PTX: 31000000 instructions simulated : ctaid=(29,0,0) tid=(489,0,0)
GPGPU-Sim PTX: 31100000 instructions simulated : ctaid=(43,0,0) tid=(265,0,0)
GPGPU-Sim uArch: cycles simulated: 161500  inst.: 31118191 (ipc=192.7) sim_rate=261497 (inst/sec) elapsed = 0:0:01:59 / Tue Mar 22 07:38:50 2016
GPGPU-Sim PTX: 31200000 instructions simulated : ctaid=(3,0,0) tid=(41,0,0)
GPGPU-Sim PTX: 31300000 instructions simulated : ctaid=(11,0,0) tid=(9,0,0)
GPGPU-Sim PTX: 31400000 instructions simulated : ctaid=(25,0,0) tid=(265,0,0)
GPGPU-Sim PTX: 31500000 instructions simulated : ctaid=(30,0,0) tid=(137,0,0)
GPGPU-Sim uArch: cycles simulated: 162500  inst.: 31498959 (ipc=193.8) sim_rate=262491 (inst/sec) elapsed = 0:0:02:00 / Tue Mar 22 07:38:51 2016
GPGPU-Sim PTX: 31600000 instructions simulated : ctaid=(35,0,0) tid=(9,0,0)
GPGPU-Sim PTX: 31700000 instructions simulated : ctaid=(43,0,0) tid=(233,0,0)
GPGPU-Sim uArch: cycles simulated: 163000  inst.: 31690863 (ipc=194.4) sim_rate=261907 (inst/sec) elapsed = 0:0:02:01 / Tue Mar 22 07:38:52 2016
GPGPU-Sim PTX: 31800000 instructions simulated : ctaid=(25,0,0) tid=(201,0,0)
GPGPU-Sim PTX: 31900000 instructions simulated : ctaid=(17,0,0) tid=(169,0,0)
GPGPU-Sim uArch: cycles simulated: 163500  inst.: 31882479 (ipc=195.0) sim_rate=261331 (inst/sec) elapsed = 0:0:02:02 / Tue Mar 22 07:38:53 2016
GPGPU-Sim PTX: 32000000 instructions simulated : ctaid=(13,0,0) tid=(137,0,0)
GPGPU-Sim PTX: 32100000 instructions simulated : ctaid=(12,0,0) tid=(105,0,0)
GPGPU-Sim PTX: 32200000 instructions simulated : ctaid=(28,0,0) tid=(169,0,0)
GPGPU-Sim PTX: 32300000 instructions simulated : ctaid=(4,0,0) tid=(297,0,0)
GPGPU-Sim uArch: cycles simulated: 164500  inst.: 32268943 (ipc=196.2) sim_rate=262349 (inst/sec) elapsed = 0:0:02:03 / Tue Mar 22 07:38:54 2016
GPGPU-Sim PTX: 32400000 instructions simulated : ctaid=(11,0,0) tid=(105,0,0)
GPGPU-Sim PTX: 32500000 instructions simulated : ctaid=(23,0,0) tid=(457,0,0)
GPGPU-Sim PTX: 32600000 instructions simulated : ctaid=(12,0,0) tid=(361,0,0)
GPGPU-Sim PTX: 32700000 instructions simulated : ctaid=(19,0,0) tid=(73,0,0)
GPGPU-Sim uArch: cycles simulated: 165500  inst.: 32657199 (ipc=197.3) sim_rate=263364 (inst/sec) elapsed = 0:0:02:04 / Tue Mar 22 07:38:55 2016
GPGPU-Sim PTX: 32800000 instructions simulated : ctaid=(34,0,0) tid=(201,0,0)
GPGPU-Sim PTX: 32900000 instructions simulated : ctaid=(0,0,0) tid=(201,0,0)
GPGPU-Sim PTX: 33000000 instructions simulated : ctaid=(26,0,0) tid=(393,0,0)
GPGPU-Sim uArch: cycles simulated: 166500  inst.: 33038831 (ipc=198.4) sim_rate=264310 (inst/sec) elapsed = 0:0:02:05 / Tue Mar 22 07:38:56 2016
GPGPU-Sim PTX: 33100000 instructions simulated : ctaid=(8,0,0) tid=(457,0,0)
GPGPU-Sim PTX: 33200000 instructions simulated : ctaid=(13,0,0) tid=(233,0,0)
GPGPU-Sim uArch: cycles simulated: 167000  inst.: 33234159 (ipc=199.0) sim_rate=263763 (inst/sec) elapsed = 0:0:02:06 / Tue Mar 22 07:38:57 2016
GPGPU-Sim PTX: 33300000 instructions simulated : ctaid=(36,0,0) tid=(137,0,0)
GPGPU-Sim PTX: 33400000 instructions simulated : ctaid=(36,0,0) tid=(233,0,0)
GPGPU-Sim PTX: 33500000 instructions simulated : ctaid=(43,0,0) tid=(9,0,0)
GPGPU-Sim PTX: 33600000 instructions simulated : ctaid=(2,0,0) tid=(457,0,0)
GPGPU-Sim uArch: cycles simulated: 168000  inst.: 33609839 (ipc=200.1) sim_rate=264644 (inst/sec) elapsed = 0:0:02:07 / Tue Mar 22 07:38:58 2016
GPGPU-Sim PTX: 33700000 instructions simulated : ctaid=(24,0,0) tid=(137,0,0)
GPGPU-Sim PTX: 33800000 instructions simulated : ctaid=(38,0,0) tid=(201,0,0)
GPGPU-Sim PTX: 33900000 instructions simulated : ctaid=(13,0,0) tid=(233,0,0)
GPGPU-Sim PTX: 34000000 instructions simulated : ctaid=(32,0,0) tid=(73,0,0)
GPGPU-Sim uArch: cycles simulated: 169000  inst.: 33975087 (ipc=201.0) sim_rate=265430 (inst/sec) elapsed = 0:0:02:08 / Tue Mar 22 07:38:59 2016
GPGPU-Sim PTX: 34100000 instructions simulated : ctaid=(11,0,0) tid=(393,0,0)
GPGPU-Sim PTX: 34200000 instructions simulated : ctaid=(5,0,0) tid=(329,0,0)
GPGPU-Sim PTX: 34300000 instructions simulated : ctaid=(38,0,0) tid=(137,0,0)
GPGPU-Sim uArch: cycles simulated: 170000  inst.: 34350223 (ipc=202.1) sim_rate=266280 (inst/sec) elapsed = 0:0:02:09 / Tue Mar 22 07:39:00 2016
GPGPU-Sim PTX: 34400000 instructions simulated : ctaid=(3,0,0) tid=(73,0,0)
GPGPU-Sim PTX: 34500000 instructions simulated : ctaid=(20,0,0) tid=(201,0,0)
GPGPU-Sim PTX: 34600000 instructions simulated : ctaid=(8,0,0) tid=(9,0,0)
GPGPU-Sim PTX: 34700000 instructions simulated : ctaid=(14,0,0) tid=(201,0,0)
GPGPU-Sim uArch: cycles simulated: 171000  inst.: 34721711 (ipc=203.1) sim_rate=267090 (inst/sec) elapsed = 0:0:02:10 / Tue Mar 22 07:39:01 2016
GPGPU-Sim PTX: 34800000 instructions simulated : ctaid=(26,0,0) tid=(329,0,0)
GPGPU-Sim PTX: 34900000 instructions simulated : ctaid=(37,0,0) tid=(329,0,0)
GPGPU-Sim uArch: cycles simulated: 171500  inst.: 34907535 (ipc=203.5) sim_rate=266469 (inst/sec) elapsed = 0:0:02:11 / Tue Mar 22 07:39:02 2016
GPGPU-Sim PTX: 35000000 instructions simulated : ctaid=(29,0,0) tid=(457,0,0)
GPGPU-Sim PTX: 35100000 instructions simulated : ctaid=(26,0,0) tid=(41,0,0)
GPGPU-Sim PTX: 35200000 instructions simulated : ctaid=(9,0,0) tid=(329,0,0)
GPGPU-Sim PTX: 35300000 instructions simulated : ctaid=(6,0,0) tid=(297,0,0)
GPGPU-Sim uArch: cycles simulated: 172500  inst.: 35278671 (ipc=204.5) sim_rate=267262 (inst/sec) elapsed = 0:0:02:12 / Tue Mar 22 07:39:03 2016
GPGPU-Sim PTX: 35400000 instructions simulated : ctaid=(31,0,0) tid=(137,0,0)
GPGPU-Sim PTX: 35500000 instructions simulated : ctaid=(19,0,0) tid=(425,0,0)
GPGPU-Sim PTX: 35600000 instructions simulated : ctaid=(20,0,0) tid=(329,0,0)
GPGPU-Sim uArch: cycles simulated: 173500  inst.: 35650831 (ipc=205.5) sim_rate=268051 (inst/sec) elapsed = 0:0:02:13 / Tue Mar 22 07:39:04 2016
GPGPU-Sim PTX: 35700000 instructions simulated : ctaid=(10,0,0) tid=(73,0,0)
GPGPU-Sim PTX: 35800000 instructions simulated : ctaid=(11,0,0) tid=(457,0,0)
GPGPU-Sim uArch: cycles simulated: 174000  inst.: 35841071 (ipc=206.0) sim_rate=267470 (inst/sec) elapsed = 0:0:02:14 / Tue Mar 22 07:39:05 2016
GPGPU-Sim PTX: 35900000 instructions simulated : ctaid=(38,0,0) tid=(73,0,0)
GPGPU-Sim PTX: 36000000 instructions simulated : ctaid=(14,0,0) tid=(233,0,0)
GPGPU-Sim PTX: 36100000 instructions simulated : ctaid=(34,0,0) tid=(329,0,0)
GPGPU-Sim PTX: 36200000 instructions simulated : ctaid=(4,0,0) tid=(73,0,0)
GPGPU-Sim uArch: cycles simulated: 175000  inst.: 36214863 (ipc=206.9) sim_rate=268258 (inst/sec) elapsed = 0:0:02:15 / Tue Mar 22 07:39:06 2016
GPGPU-Sim PTX: 36300000 instructions simulated : ctaid=(43,0,0) tid=(73,0,0)
GPGPU-Sim PTX: 36400000 instructions simulated : ctaid=(35,0,0) tid=(297,0,0)
GPGPU-Sim PTX: 36500000 instructions simulated : ctaid=(38,0,0) tid=(233,0,0)
GPGPU-Sim PTX: 36600000 instructions simulated : ctaid=(8,0,0) tid=(361,0,0)
GPGPU-Sim uArch: cycles simulated: 176000  inst.: 36597391 (ipc=207.9) sim_rate=269098 (inst/sec) elapsed = 0:0:02:16 / Tue Mar 22 07:39:07 2016
GPGPU-Sim PTX: 36700000 instructions simulated : ctaid=(24,0,0) tid=(329,0,0)
GPGPU-Sim PTX: 36800000 instructions simulated : ctaid=(22,0,0) tid=(9,0,0)
GPGPU-Sim uArch: cycles simulated: 176500  inst.: 36792271 (ipc=208.5) sim_rate=268556 (inst/sec) elapsed = 0:0:02:17 / Tue Mar 22 07:39:08 2016
GPGPU-Sim PTX: 36900000 instructions simulated : ctaid=(38,0,0) tid=(137,0,0)
GPGPU-Sim PTX: 37000000 instructions simulated : ctaid=(30,0,0) tid=(329,0,0)
GPGPU-Sim PTX: 37100000 instructions simulated : ctaid=(6,0,0) tid=(73,0,0)
GPGPU-Sim PTX: 37200000 instructions simulated : ctaid=(25,0,0) tid=(265,0,0)
GPGPU-Sim uArch: cycles simulated: 177500  inst.: 37168303 (ipc=209.4) sim_rate=269335 (inst/sec) elapsed = 0:0:02:18 / Tue Mar 22 07:39:09 2016
GPGPU-Sim PTX: 37300000 instructions simulated : ctaid=(4,0,0) tid=(329,0,0)
GPGPU-Sim PTX: 37400000 instructions simulated : ctaid=(25,0,0) tid=(265,0,0)
GPGPU-Sim PTX: 37500000 instructions simulated : ctaid=(29,0,0) tid=(105,0,0)
GPGPU-Sim uArch: cycles simulated: 178500  inst.: 37549327 (ipc=210.4) sim_rate=270139 (inst/sec) elapsed = 0:0:02:19 / Tue Mar 22 07:39:10 2016
GPGPU-Sim PTX: 37600000 instructions simulated : ctaid=(16,0,0) tid=(201,0,0)
GPGPU-Sim PTX: 37700000 instructions simulated : ctaid=(16,0,0) tid=(137,0,0)
GPGPU-Sim uArch: cycles simulated: 179000  inst.: 37738799 (ipc=210.8) sim_rate=269562 (inst/sec) elapsed = 0:0:02:20 / Tue Mar 22 07:39:11 2016
GPGPU-Sim PTX: 37800000 instructions simulated : ctaid=(5,0,0) tid=(425,0,0)
GPGPU-Sim PTX: 37900000 instructions simulated : ctaid=(11,0,0) tid=(361,0,0)
GPGPU-Sim PTX: 38000000 instructions simulated : ctaid=(14,0,0) tid=(425,0,0)
GPGPU-Sim PTX: 38100000 instructions simulated : ctaid=(13,0,0) tid=(265,0,0)
GPGPU-Sim uArch: cycles simulated: 180000  inst.: 38111631 (ipc=211.7) sim_rate=270295 (inst/sec) elapsed = 0:0:02:21 / Tue Mar 22 07:39:12 2016
GPGPU-Sim PTX: 38200000 instructions simulated : ctaid=(33,0,0) tid=(201,0,0)
GPGPU-Sim PTX: 38300000 instructions simulated : ctaid=(24,0,0) tid=(393,0,0)
GPGPU-Sim uArch: cycles simulated: 180500  inst.: 38292463 (ipc=212.1) sim_rate=269665 (inst/sec) elapsed = 0:0:02:22 / Tue Mar 22 07:39:13 2016
GPGPU-Sim PTX: 38400000 instructions simulated : ctaid=(26,0,0) tid=(489,0,0)
GPGPU-Sim PTX: 38500000 instructions simulated : ctaid=(0,0,0) tid=(489,0,0)
GPGPU-Sim uArch: cycles simulated: 181000  inst.: 38471983 (ipc=212.6) sim_rate=269034 (inst/sec) elapsed = 0:0:02:23 / Tue Mar 22 07:39:14 2016
GPGPU-Sim PTX: 38600000 instructions simulated : ctaid=(34,0,0) tid=(137,0,0)
GPGPU-Sim PTX: 38700000 instructions simulated : ctaid=(27,0,0) tid=(201,0,0)
GPGPU-Sim PTX: 38800000 instructions simulated : ctaid=(33,0,0) tid=(457,0,0)
GPGPU-Sim uArch: cycles simulated: 182000  inst.: 38852431 (ipc=213.5) sim_rate=269808 (inst/sec) elapsed = 0:0:02:24 / Tue Mar 22 07:39:15 2016
GPGPU-Sim PTX: 38900000 instructions simulated : ctaid=(14,0,0) tid=(329,0,0)
GPGPU-Sim PTX: 39000000 instructions simulated : ctaid=(19,0,0) tid=(105,0,0)
GPGPU-Sim PTX: 39100000 instructions simulated : ctaid=(13,0,0) tid=(169,0,0)
GPGPU-Sim PTX: 39200000 instructions simulated : ctaid=(20,0,0) tid=(393,0,0)
GPGPU-Sim uArch: cycles simulated: 183000  inst.: 39225167 (ipc=214.3) sim_rate=270518 (inst/sec) elapsed = 0:0:02:25 / Tue Mar 22 07:39:16 2016
GPGPU-Sim PTX: 39300000 instructions simulated : ctaid=(16,0,0) tid=(265,0,0)
GPGPU-Sim PTX: 39400000 instructions simulated : ctaid=(30,0,0) tid=(265,0,0)
GPGPU-Sim PTX: 39500000 instructions simulated : ctaid=(30,0,0) tid=(457,0,0)
GPGPU-Sim PTX: 39600000 instructions simulated : ctaid=(37,0,0) tid=(457,0,0)
GPGPU-Sim uArch: cycles simulated: 184000  inst.: 39565775 (ipc=215.0) sim_rate=270998 (inst/sec) elapsed = 0:0:02:26 / Tue Mar 22 07:39:17 2016
GPGPU-Sim PTX: 39700000 instructions simulated : ctaid=(12,0,0) tid=(265,0,0)
GPGPU-Sim uArch: cycles simulated: 184500  inst.: 39749615 (ipc=215.4) sim_rate=270405 (inst/sec) elapsed = 0:0:02:27 / Tue Mar 22 07:39:18 2016
GPGPU-Sim PTX: 39800000 instructions simulated : ctaid=(28,0,0) tid=(41,0,0)
GPGPU-Sim PTX: 39900000 instructions simulated : ctaid=(18,0,0) tid=(457,0,0)
GPGPU-Sim PTX: 40000000 instructions simulated : ctaid=(27,0,0) tid=(73,0,0)
GPGPU-Sim PTX: 40100000 instructions simulated : ctaid=(1,0,0) tid=(41,0,0)
GPGPU-Sim uArch: cycles simulated: 185500  inst.: 40126319 (ipc=216.3) sim_rate=271123 (inst/sec) elapsed = 0:0:02:28 / Tue Mar 22 07:39:19 2016
GPGPU-Sim PTX: 40200000 instructions simulated : ctaid=(1,0,0) tid=(393,0,0)
GPGPU-Sim PTX: 40300000 instructions simulated : ctaid=(38,0,0) tid=(73,0,0)
GPGPU-Sim PTX: 40400000 instructions simulated : ctaid=(13,0,0) tid=(329,0,0)
GPGPU-Sim PTX: 40500000 instructions simulated : ctaid=(42,0,0) tid=(9,0,0)
GPGPU-Sim uArch: cycles simulated: 186500  inst.: 40484655 (ipc=217.1) sim_rate=271709 (inst/sec) elapsed = 0:0:02:29 / Tue Mar 22 07:39:20 2016
GPGPU-Sim PTX: 40600000 instructions simulated : ctaid=(7,0,0) tid=(41,0,0)
GPGPU-Sim PTX: 40700000 instructions simulated : ctaid=(33,0,0) tid=(169,0,0)
GPGPU-Sim PTX: 40800000 instructions simulated : ctaid=(15,0,0) tid=(457,0,0)
GPGPU-Sim PTX: 40900000 instructions simulated : ctaid=(24,0,0) tid=(425,0,0)
GPGPU-Sim uArch: cycles simulated: 187500  inst.: 40857519 (ipc=217.9) sim_rate=272383 (inst/sec) elapsed = 0:0:02:30 / Tue Mar 22 07:39:21 2016
GPGPU-Sim PTX: 41000000 instructions simulated : ctaid=(5,0,0) tid=(489,0,0)
GPGPU-Sim uArch: cycles simulated: 188000  inst.: 41048687 (ipc=218.3) sim_rate=271845 (inst/sec) elapsed = 0:0:02:31 / Tue Mar 22 07:39:22 2016
GPGPU-Sim PTX: 41100000 instructions simulated : ctaid=(13,0,0) tid=(329,0,0)
GPGPU-Sim PTX: 41200000 instructions simulated : ctaid=(7,0,0) tid=(361,0,0)
GPGPU-Sim uArch: cycles simulated: 188500  inst.: 41220879 (ipc=218.7) sim_rate=271189 (inst/sec) elapsed = 0:0:02:32 / Tue Mar 22 07:39:23 2016
GPGPU-Sim PTX: 41300000 instructions simulated : ctaid=(28,0,0) tid=(489,0,0)
GPGPU-Sim PTX: 41400000 instructions simulated : ctaid=(40,0,0) tid=(91,0,0)
GPGPU-Sim PTX: 41500000 instructions simulated : ctaid=(2,0,0) tid=(113,0,0)
GPGPU-Sim PTX: 41600000 instructions simulated : ctaid=(14,0,0) tid=(203,0,0)
GPGPU-Sim uArch: cycles simulated: 189500  inst.: 41567782 (ipc=219.4) sim_rate=271684 (inst/sec) elapsed = 0:0:02:33 / Tue Mar 22 07:39:24 2016
GPGPU-Sim PTX: 41700000 instructions simulated : ctaid=(1,0,0) tid=(268,0,0)
GPGPU-Sim PTX: 41800000 instructions simulated : ctaid=(21,0,0) tid=(270,0,0)
GPGPU-Sim PTX: 41900000 instructions simulated : ctaid=(29,0,0) tid=(100,0,0)
GPGPU-Sim uArch: cycles simulated: 190500  inst.: 41874877 (ipc=219.8) sim_rate=271914 (inst/sec) elapsed = 0:0:02:34 / Tue Mar 22 07:39:25 2016
GPGPU-Sim PTX: 42000000 instructions simulated : ctaid=(24,0,0) tid=(21,0,0)
GPGPU-Sim uArch: cycles simulated: 191000  inst.: 42004400 (ipc=219.9) sim_rate=270996 (inst/sec) elapsed = 0:0:02:35 / Tue Mar 22 07:39:26 2016
GPGPU-Sim PTX: 42100000 instructions simulated : ctaid=(29,0,0) tid=(384,0,0)
GPGPU-Sim PTX: 42200000 instructions simulated : ctaid=(3,0,0) tid=(163,0,0)
GPGPU-Sim uArch: cycles simulated: 192000  inst.: 42230928 (ipc=220.0) sim_rate=270711 (inst/sec) elapsed = 0:0:02:36 / Tue Mar 22 07:39:27 2016
GPGPU-Sim PTX: 42300000 instructions simulated : ctaid=(9,0,0) tid=(334,0,0)
GPGPU-Sim PTX: 42400000 instructions simulated : ctaid=(38,0,0) tid=(308,0,0)
GPGPU-Sim PTX: 42500000 instructions simulated : ctaid=(2,0,0) tid=(268,0,0)
GPGPU-Sim uArch: cycles simulated: 193000  inst.: 42549558 (ipc=220.5) sim_rate=271016 (inst/sec) elapsed = 0:0:02:37 / Tue Mar 22 07:39:28 2016
GPGPU-Sim PTX: 42600000 instructions simulated : ctaid=(41,0,0) tid=(197,0,0)
GPGPU-Sim PTX: 42700000 instructions simulated : ctaid=(14,0,0) tid=(141,0,0)
GPGPU-Sim PTX: 42800000 instructions simulated : ctaid=(28,0,0) tid=(421,0,0)
GPGPU-Sim uArch: cycles simulated: 194000  inst.: 42836145 (ipc=220.8) sim_rate=271114 (inst/sec) elapsed = 0:0:02:38 / Tue Mar 22 07:39:29 2016
GPGPU-Sim PTX: 42900000 instructions simulated : ctaid=(0,0,0) tid=(50,0,0)
GPGPU-Sim PTX: 43000000 instructions simulated : ctaid=(39,0,0) tid=(384,0,0)
GPGPU-Sim PTX: 43100000 instructions simulated : ctaid=(2,0,0) tid=(6,0,0)
GPGPU-Sim uArch: cycles simulated: 195000  inst.: 43061428 (ipc=220.8) sim_rate=270826 (inst/sec) elapsed = 0:0:02:39 / Tue Mar 22 07:39:30 2016
GPGPU-Sim PTX: 43200000 instructions simulated : ctaid=(16,0,0) tid=(79,0,0)
GPGPU-Sim PTX: 43300000 instructions simulated : ctaid=(20,0,0) tid=(461,0,0)
GPGPU-Sim uArch: cycles simulated: 196000  inst.: 43325062 (ipc=221.0) sim_rate=270781 (inst/sec) elapsed = 0:0:02:40 / Tue Mar 22 07:39:31 2016
GPGPU-Sim PTX: 43400000 instructions simulated : ctaid=(26,0,0) tid=(308,0,0)
GPGPU-Sim PTX: 43500000 instructions simulated : ctaid=(0,0,0) tid=(70,0,0)
GPGPU-Sim uArch: cycles simulated: 197000  inst.: 43548708 (ipc=221.1) sim_rate=270488 (inst/sec) elapsed = 0:0:02:41 / Tue Mar 22 07:39:32 2016
GPGPU-Sim PTX: 43600000 instructions simulated : ctaid=(43,0,0) tid=(333,0,0)
GPGPU-Sim PTX: 43700000 instructions simulated : ctaid=(12,0,0) tid=(243,0,0)
GPGPU-Sim PTX: 43800000 instructions simulated : ctaid=(30,0,0) tid=(68,0,0)
GPGPU-Sim uArch: cycles simulated: 198000  inst.: 43773820 (ipc=221.1) sim_rate=270208 (inst/sec) elapsed = 0:0:02:42 / Tue Mar 22 07:39:33 2016
GPGPU-Sim PTX: 43900000 instructions simulated : ctaid=(37,0,0) tid=(412,0,0)
GPGPU-Sim uArch: cycles simulated: 198500  inst.: 43870181 (ipc=221.0) sim_rate=269142 (inst/sec) elapsed = 0:0:02:43 / Tue Mar 22 07:39:34 2016
GPGPU-Sim PTX: 44000000 instructions simulated : ctaid=(25,0,0) tid=(21,0,0)
GPGPU-Sim PTX: 44100000 instructions simulated : ctaid=(33,0,0) tid=(16,0,0)
[...]
traffic_breakdown_coretomem[GLOBAL_ACC_R] = 9407864 {8:1175983,}
traffic_breakdown_coretomem[GLOBAL_ACC_W] = 4514512 {40:10327,72:1856,136:29175,}
traffic_breakdown_coretomem[INST_ACC_R] = 840 {8:105,}
traffic_breakdown_memtocore[CONST_ACC_R] = 1080 {72:15,}
traffic_breakdown_memtocore[GLOBAL_ACC_R] = 159933688 {136:1175983,}
traffic_breakdown_memtocore[GLOBAL_ACC_W] = 330864 {8:41358,}
traffic_breakdown_memtocore[INST_ACC_R] = 14280 {136:105,}
maxmrqlatency = 857 
maxdqlatency = 0 
maxmflatency = 1442 
averagemflatency = 340 
max_icnt2mem_latency = 721 
max_icnt2sh_latency = 1392167 
mrq_lat_table:592949 	37581 	49697 	113552 	173757 	107459 	58640 	14114 	827 	27 	0 	0 	0 	0 	0 	0 	0 	0 	0 	0 	0 	0 	0 	0 	0 	0 	0 	0 	0 	0 	0 	0 	
dq_lat_table:0 	0 	0 	0 	0 	0 	0 	0 	0 	0 	0 	0 	0 	0 	0 	0 	0 	0 	0 	0 	0 	0 	0 	0 	0 	0 	0 	0 	0 	0 	0 	0 	
mf_lat_table:0 	0 	0 	0 	0 	0 	0 	35758 	1108123 	73354 	121 	0 	0 	0 	0 	0 	0 	0 	0 	0 	0 	0 	0 	0 	0 	0 	0 	0 	0 	0 	0 	0 	
icnt2mem_lat_table:0 	0 	0 	1030935 	36568 	43967 	53973 	39237 	12412 	369 	0 	0 	0 	0 	0 	0 	0 	0 	0 	0 	0 	0 	0 	0 	
icnt2sh_lat_table:0 	0 	0 	251270 	677366 	242239 	5115 	8 	0 	0 	0 	0 	0 	0 	0 	0 	0 	9660 	12238 	12820 	6640 	0 	0 	0 	
mf_lat_pw_table:0 	0 	0 	0 	0 	0 	0 	16 	2759 	7 	0 	0 	0 	0 	0 	0 	0 	0 	0 	0 	0 	0 	0 	0 	0 	0 	0 	0 	0 	0 	0 	0 	
maximum concurrent accesses to same row:
dram[0]:        16        14        58        64        57        46        32        43        32        36        27        23        32        32        31        31 
dram[1]:        19        20        48        42        42        46        37        39        32        36        24        23        32        32        31        31 
dram[2]:        19        25        58        62        44        54        42        32        32        32        24        32        30        32        31        32 
dram[3]:        18        18        44        46        44        42        42        33        32        32        25        24        32        32        31        31 
dram[4]:        22        18        42        50        51        43        32        32        37        32        26        24        32        32        32        30 
dram[5]:        20        18        42        48        46        43        32        32        36        32        24        24        32        26        32        30 
maximum service time to same row:
dram[0]:     80955     81550     97099     97482     99475     89227     81135     81156    104059    102762     80435     80396     81406     81196     81229     81256 
dram[1]:     79484     81699     95784     90378     90025     91294     81222     81216    102885     97478     80435     80401     81357     81202     81400     81185 
dram[2]:     81701     81659     96327     97366     93707    104380     81154     77642    104839    104018     80527     80407     81326     81204     81274     81282 
dram[3]:     81743     81667     90493     95797     88053     93153     81207     81124     97273    102966     80553     80420     81325     81103     81279     81235 
dram[4]:     81594     81664     97138     95456    102743     92966     81184     81266    104569    103478     80382     80457     79776     81266     81324     81310 
dram[5]:     81435     81794     95857     90688     90445     91772     81094     81276    102681     97010     80390     80452     81188     81397     81216     81408 
average row accesses per activate:
dram[0]:  2.348162  2.211784  2.079564  2.137171  1.880450  1.743861  2.582158  2.511932  2.104126  1.801425  1.831711  1.650648  2.351539  2.564436  1.944490  1.698953 
dram[1]:  2.304670  2.225996  2.197458  1.837586  1.773325  1.750553  2.736600  2.574086  1.914907  1.898116  1.909457  1.741623  2.670275  2.475434  1.838224  1.761119 
dram[2]:  2.117350  2.251716  2.129596  1.976309  1.765669  1.921185  2.476785  2.404430  1.946274  2.042261  1.848409  1.950617  2.355750  2.723845  1.728838  1.898110 
dram[3]:  2.194032  2.365659  1.980741  2.199520  1.764881  1.764252  2.164184  2.645319  1.915230  1.941234  1.723927  1.864967  2.519149  2.909136  1.731754  1.763742 
dram[4]:  2.258040  2.359548  2.410469  1.952818  1.805450  1.585249  2.398387  2.705642  1.944690  1.770526  1.988922  1.851562  2.362468  2.603342  1.940347  1.740153 
dram[5]:  2.328730  2.261567  2.190590  2.056753  1.794251  1.658141  2.783442  2.570164  1.971467  1.844351  1.824027  1.802830  2.510070  2.074654  1.750702  1.798572 
average row locality = 1148603/560772 = 2.048253
number of total memory accesses made:
dram[0]:         0         0         0         0         0         0         0         0         0         0         0         0         0         0         0         0 
dram[1]:         0         0         0         0         0         0         0         0         0         0         0         0         0         0         0         0 
dram[2]:         0         0         0         0         0         0         0         0         0         0         0         0         0         0         0         0 
dram[3]:         0         0         0         0         0         0         0         0         0         0         0         0         0         0         0         0 
dram[4]:         0         0         0         0         0         0         0         0         0         0         0         0         0         0         0         0 
dram[5]:         0         0         0         0         0         0         0         0         0         0         0         0         0         0         0         0 
total accesses: 0
min_bank_accesses = 0!
min_chip_accesses = 0!
number of total read accesses:
dram[0]:     11663     11652     12614     11577     11562     11562     11584     11584     11584     11584     11565     11562     11552     11552     11552     11552 
dram[1]:     11660     11652     11583     12477     11562     11562     11584     11584     11584     11584     11564     11562     11552     11552     11552     11552 
dram[2]:     11661     11662     11581     11582     11562     11571     11584     12607     11584     11590     11564     11562     11552     11558     11558     11560 
dram[3]:     11656     11650     11583     11578     11562     11584     12471     11584     11584     11594     11564     11562     11552     11558     11552     11552 
dram[4]:     11664     11652     11579     11579     11562     11564     11584     11584     11584     11584     11562     11562     12578     11552     11552     11552 
dram[5]:     11660     11651     11578     11580     11562     11564     11590     11589     11584     11584     11570     11562     11552     12440     11552     11552 
total reads: 1117455
bank skew: 12614/11552 = 1.09
chip skew: 186338/186166 = 1.00
number of total write accesses:
dram[0]:       477       473       350       342       298       298       312       310       298       300       288       288       288       288       288       288 
dram[1]:       481       473       347       342       298       298       312       316       298       302       288       288       288       288       288       288 
dram[2]:       482       477       349       347       298       300       312       312       298       298       288       288       288       288       288       288 
dram[3]:       477       474       347       339       298       300       315       312       300       298       288       288       288       288       288       288 
dram[4]:       482       469       348       341       298       300       312       310       300       298       288       288       288       288       288       288 
dram[5]:       482       471       341       343       298       300       312       316       300       301       288       288       288       288       288       288 
total reads: 31148
bank skew: 482/288 = 1.67
chip skew: 5201/5186 = 1.00
average mf latency per bank:
dram[0]:        352       323       528       328       373       336       354       326       379       342       364       334       360       325       378       347
dram[1]:        339       336       344       520       360       333       334       348       363       343       350       333       339       348       365       343
dram[2]:        329       366       329       372       338       393       328       532       342       401       334       375       328       377       352       394
dram[3]:        342       341       341       344       339       373       521       341       345       369       337       348       348       352       346       362
dram[4]:        363       337       359       339       365       349       369       340       369       349       366       345       539       336       368       353
dram[5]:        326       337       329       332       340       338       332       349       338       338       343       334       326       513       345       343
maximum mf latency per bank:
dram[0]:       1133      1025       995       944      1084       861      1101      1059       924      1138      1074       854      1088       797      1008       898
dram[1]:       1043       871      1062       980       944       847       920       876      1071       824       987       760      1109       922       913       822
dram[2]:       1181      1442       851      1045       912      1171       932      1145       831      1176       878      1079       832      1190       930      1140
dram[3]:        983      1118      1020       987       901      1101       932       987      1024      1131       951      1123       929      1090       940      1004
dram[4]:       1073      1171       951       992      1059       878       971       937      1162       861       975       972       988      1163       882       920
dram[5]:        873      1197       844       923       837      1018       828       956       880       956       913       981       802      1001       899       900

Number of Memory Banks Accessed per Memory Operation per Warp (from 0):
0	0	0	0	0	0	0	0	0	0	0	0	0	0	0	0	0	0	0	0	0	0	0	0	0	0	0	0	0	0	0	0	0	0	0	0	0	0	0	0	0	0	0	0	0	0	0	0	0	0	0	0	0	0	0	0	0	0	0	0	0	0	0	0	0	0	0	0	0	0	0	0	0	0	0	0	0	0	0	0	0	0	0	0	0	0	0	0	0	0	0	0	0	0	0	0	
Average # of Memory Banks Accessed per Memory Operation per Warp=-nan

position of mrq chosen
0	0	0	0	0	0	0	0	0	0	0	0	0	0	0	0	

average position of mrq chosen = -nan
Memory Partition 0: 
Cache L2_bank_000:
MSHR contents

Cache L2_bank_001:
MSHR contents

In Dram Latency Queue (total = 0): 
DRAM[0]: 16 bks, busW=4 BL=8 CL=12, tRRD=2 tCCD=6, tRCD=12 tRAS=28 tRP=12 tRC=40
n_cmd=1837661 n_nop=1267960 n_act=93517 n_pre=93501 n_req=191487 n_rd=372602 n_write=10081 bw_util=0.4165
n_activity=1499033 dram_eff=0.5106
bk0: 23326a 1552579i bk1: 23304a 1552123i bk2: 25228a 1526600i bk3: 23154a 1547641i bk4: 23124a 1508572i bk5: 23124a 1494013i bk6: 23168a 1558517i bk7: 23168a 1559235i bk8: 23168a 1545175i bk9: 23168a 1511246i bk10: 23130a 1513865i bk11: 23124a 1498066i bk12: 23104a 1557310i bk13: 23104a 1572488i bk14: 23104a 1494350i bk15: 23104a 1462498i 
dram_util_bins: 0 0 0 0 0 0 0 0 0 0
dram_eff_bins: 0 0 0 0 0 0 0 0 0 0
mrqq: max=16 avg=2.14443
Memory Partition 1: 
Cache L2_bank_002:
MSHR contents

Cache L2_bank_003:
MSHR contents

In Dram Latency Queue (total = 0): 
DRAM[1]: 16 bks, busW=4 BL=8 CL=12, tRRD=2 tCCD=6, tRCD=12 tRAS=28 tRP=12 tRC=40
n_cmd=1837661 n_nop=1268420 n_act=93412 n_pre=93396 n_req=191361 n_rd=372332 n_write=10101 bw_util=0.4162
n_activity=1510360 dram_eff=0.5064
bk0: 23320a 1555192i bk1: 23304a 1551113i bk2: 23166a 1562651i bk3: 24954a 1499136i bk4: 23124a 1499460i bk5: 23124a 1495554i bk6: 23168a 1574817i bk7: 23168a 1557927i bk8: 23168a 1531377i bk9: 23168a 1518027i bk10: 23128a 1530165i bk11: 23124a 1514744i bk12: 23104a 1582509i bk13: 23104a 1568509i bk14: 23104a 1493437i bk15: 23104a 1472206i 
dram_util_bins: 0 0 0 0 0 0 0 0 0 0
dram_eff_bins: 0 0 0 0 0 0 0 0 0 0
mrqq: max=16 avg=2.11858
Memory Partition 2: 
Cache L2_bank_004:
MSHR contents

Cache L2_bank_005:
MSHR contents

In Dram Latency Queue (total = 0): 
DRAM[2]: 16 bks, busW=4 BL=8 CL=12, tRRD=2 tCCD=6, tRCD=12 tRAS=28 tRP=12 tRC=40
n_cmd=1837661 n_nop=1269479 n_act=92718 n_pre=92702 n_req=191539 n_rd=372676 n_write=10086 bw_util=0.4166
n_activity=1500227 dram_eff=0.5103
bk0: 23322a 1548552i bk1: 23324a 1538808i bk2: 23162a 1558366i bk3: 23164a 1526649i bk4: 23124a 1507318i bk5: 23142a 1501765i bk6: 23168a 1568320i bk7: 25214a 1520950i bk8: 23168a 1535022i bk9: 23180a 1527795i bk10: 23128a 1531336i bk11: 23124a 1521069i bk12: 23104a 1570517i bk13: 23116a 1567485i bk14: 23116a 1481643i bk15: 23120a 1475530i 
dram_util_bins: 0 0 0 0 0 0 0 0 0 0
dram_eff_bins: 0 0 0 0 0 0 0 0 0 0
mrqq: max=16 avg=2.15664
Memory Partition 3: 
Cache L2_bank_006:
MSHR contents

Cache L2_bank_007:
MSHR contents

In Dram Latency Queue (total = 0): 
DRAM[3]: 16 bks, busW=4 BL=8 CL=12, tRRD=2 tCCD=6, tRCD=12 tRAS=28 tRP=12 tRC=40
n_cmd=1837661 n_nop=1267525 n_act=93839 n_pre=93823 n_req=191374 n_rd=372372 n_write=10102 bw_util=0.4163
n_activity=1512216 dram_eff=0.5058
bk0: 23312a 1556101i bk1: 23300a 1555920i bk2: 23166a 1550169i bk3: 23156a 1553083i bk4: 23124a 1510918i bk5: 23168a 1499906i bk6: 24942a 1525030i bk7: 23168a 1562883i bk8: 23168a 1531617i bk9: 23188a 1525935i bk10: 23128a 1522777i bk11: 23124a 1518645i bk12: 23104a 1573201i bk13: 23116a 1586349i bk14: 23104a 1483118i bk15: 23104a 1470381i 
dram_util_bins: 0 0 0 0 0 0 0 0 0 0
dram_eff_bins: 0 0 0 0 0 0 0 0 0 0
mrqq: max=16 avg=2.04788
Memory Partition 4: 
Cache L2_bank_008:
MSHR contents

Cache L2_bank_009:
MSHR contents

In Dram Latency Queue (total = 0): 
DRAM[4]: 16 bks, busW=4 BL=8 CL=12, tRRD=2 tCCD=6, tRCD=12 tRAS=28 tRP=12 tRC=40
n_cmd=1837661 n_nop=1268903 n_act=93057 n_pre=93041 n_req=191480 n_rd=372588 n_write=10072 bw_util=0.4165
n_activity=1493854 dram_eff=0.5123
bk0: 23328a 1550430i bk1: 23304a 1555487i bk2: 23158a 1571263i bk3: 23158a 1527256i bk4: 23124a 1503658i bk5: 23128a 1467228i bk6: 23168a 1547219i bk7: 23168a 1552513i bk8: 23168a 1530038i bk9: 23168a 1502686i bk10: 23124a 1530198i bk11: 23124a 1514479i bk12: 25156a 1547830i bk13: 23104a 1566853i bk14: 23104a 1496557i bk15: 23104a 1463780i 
dram_util_bins: 0 0 0 0 0 0 0 0 0 0
dram_eff_bins: 0 0 0 0 0 0 0 0 0 0
mrqq: max=16 avg=2.30089
Memory Partition 5: 
Cache L2_bank_010:
MSHR contents

Cache L2_bank_011:
MSHR contents

In Dram Latency Queue (total = 0): 
DRAM[5]: 16 bks, busW=4 BL=8 CL=12, tRRD=2 tCCD=6, tRCD=12 tRAS=28 tRP=12 tRC=40
n_cmd=1837661 n_nop=1266782 n_act=94229 n_pre=94213 n_req=191362 n_rd=372340 n_write=10097 bw_util=0.4162
n_activity=1514653 dram_eff=0.505
bk0: 23320a 1564932i bk1: 23302a 1555837i bk2: 23156a 1565298i bk3: 23160a 1541633i bk4: 23124a 1512313i bk5: 23128a 1488125i bk6: 23180a 1584484i bk7: 23178a 1560375i bk8: 23168a 1544349i bk9: 23168a 1519543i bk10: 23140a 1530422i bk11: 23124a 1522500i bk12: 23104a 1587364i bk13: 24880a 1525917i bk14: 23104a 1488880i bk15: 23104a 1474715i 
dram_util_bins: 0 0 0 0 0 0 0 0 0 0
dram_eff_bins: 0 0 0 0 0 0 0 0 0 0
mrqq: max=16 avg=1.88351

========= L2 cache stats =========
L2_cache_bank[0]: Access = 105279, Miss = 93676, Miss_rate = 0.890, Pending_hits = 2048, Reservation_fails = 75767
L2_cache_bank[1]: Access = 96794, Miss = 92625, Miss_rate = 0.957, Pending_hits = 13, Reservation_fails = 6794
L2_cache_bank[2]: Access = 96937, Miss = 92641, Miss_rate = 0.956, Pending_hits = 19, Reservation_fails = 15613
L2_cache_bank[3]: Access = 105345, Miss = 93525, Miss_rate = 0.888, Pending_hits = 2214, Reservation_fails = 60139
L2_cache_bank[4]: Access = 97361, Miss = 92646, Miss_rate = 0.952, Pending_hits = 33, Reservation_fails = 5468
L2_cache_bank[5]: Access = 106765, Miss = 93692, Miss_rate = 0.878, Pending_hits = 2049, Reservation_fails = 78042
L2_cache_bank[6]: Access = 105205, Miss = 93524, Miss_rate = 0.889, Pending_hits = 2197, Reservation_fails = 56247
L2_cache_bank[7]: Access = 98550, Miss = 92662, Miss_rate = 0.940, Pending_hits = 36, Reservation_fails = 11783
L2_cache_bank[8]: Access = 105209, Miss = 93665, Miss_rate = 0.890, Pending_hits = 2027, Reservation_fails = 76538
L2_cache_bank[9]: Access = 96911, Miss = 92629, Miss_rate = 0.956, Pending_hits = 14, Reservation_fails = 9028
L2_cache_bank[10]: Access = 97553, Miss = 92648, Miss_rate = 0.950, Pending_hits = 24, Reservation_fails = 6575
L2_cache_bank[11]: Access = 105552, Miss = 93522, Miss_rate = 0.886, Pending_hits = 2207, Reservation_fails = 54496
L2_total_cache_accesses = 1217461
L2_total_cache_misses = 1117455
L2_total_cache_miss_rate = 0.9179
L2_total_cache_pending_hits = 12881
L2_total_cache_reservation_fails = 456490
L2_total_cache_breakdown:
	L2_cache_stats_breakdown[GLOBAL_ACC_R][HIT] = 47434
	L2_cache_stats_breakdown[GLOBAL_ACC_R][HIT_RESERVED] = 12694
	L2_cache_stats_breakdown[GLOBAL_ACC_R][MISS] = 1115855
	L2_cache_stats_breakdown[GLOBAL_ACC_R][RESERVATION_FAIL] = 455663
	L2_cache_stats_breakdown[CONST_ACC_R][HIT] = 11
	L2_cache_stats_breakdown[CONST_ACC_R][HIT_RESERVED] = 3
	L2_cache_stats_breakdown[CONST_ACC_R][MISS] = 1
	L2_cache_stats_breakdown[CONST_ACC_R][RESERVATION_FAIL] = 109
	L2_cache_stats_breakdown[GLOBAL_ACC_W][HIT] = 39599
	L2_cache_stats_breakdown[GLOBAL_ACC_W][HIT_RESERVED] = 167
	L2_cache_stats_breakdown[GLOBAL_ACC_W][MISS] = 1592
	L2_cache_stats_breakdown[GLOBAL_ACC_W][RESERVATION_FAIL] = 299
	L2_cache_stats_breakdown[INST_ACC_R][HIT] = 81
	L2_cache_stats_breakdown[INST_ACC_R][HIT_RESERVED] = 17
	L2_cache_stats_breakdown[INST_ACC_R][MISS] = 7
	L2_cache_stats_breakdown[INST_ACC_R][RESERVATION_FAIL] = 419
L2_cache_data_port_util = 0.026
L2_cache_fill_port_util = 0.268

icnt_total_pkts_mem_to_simt=5921843
icnt_total_pkts_simt_to_mem=1348200
LD_mem_lat_dist  0 0 0 0 0 0 0 0 0 0 0 0 0 0 0 0 0 0 0 0 0 0 0 0 0 0 0
ST_mem_lat_dist  0 0 0 0 0 0 0 0 0 0 0 0 0 0 0 0 0 0 0 0 0 0 0 0 0 0 0
----------------------------Interconnect-DETAILS--------------------------------
Class 0:
Packet latency average = 15.9026
	minimum = 6
	maximum = 468
Network latency average = 13.1448
	minimum = 6
	maximum = 468
Slowest packet = 1949140
Flit latency average = 12.1024
	minimum = 6
	maximum = 468
Slowest flit = 5815108
Fragmentation average = 0.00762775
	minimum = 0
	maximum = 438
Injected packet rate average = 0.06392
	minimum = 0.0538722 (at node 4)
	maximum = 0.0811947 (at node 18)
Accepted packet rate average = 0.06392
	minimum = 0.0538722 (at node 4)
	maximum = 0.0811947 (at node 18)
Injected flit rate average = 0.191414
	minimum = 0.0570486 (at node 4)
	maximum = 0.400972 (at node 18)
Accepted flit rate average= 0.191414
	minimum = 0.0729986 (at node 16)
	maximum = 0.299577 (at node 2)
Injected packet length average = 2.99459
Accepted packet length average = 2.99459
Total in-flight flits = 0 (0 measured)
====== Overall Traffic Statistics ======
====== Traffic class 0 ======
Packet latency average = 17.8522 (2 samples)
	minimum = 6 (2 samples)
	maximum = 552 (2 samples)
Network latency average = 14.324 (2 samples)
	minimum = 6 (2 samples)
	maximum = 527.5 (2 samples)
Flit latency average = 12.6616 (2 samples)
	minimum = 6 (2 samples)
	maximum = 527.5 (2 samples)
Fragmentation average = 0.0124744 (2 samples)
	minimum = 0 (2 samples)
	maximum = 424 (2 samples)
Injected packet rate average = 0.0647567 (2 samples)
	minimum = 0.0545282 (2 samples)
	maximum = 0.082468 (2 samples)
Accepted packet rate average = 0.0647567 (2 samples)
	minimum = 0.0545282 (2 samples)
	maximum = 0.082468 (2 samples)
Injected flit rate average = 0.193361 (2 samples)
	minimum = 0.0603276 (2 samples)
	maximum = 0.402629 (2 samples)
Accepted flit rate average = 0.193361 (2 samples)
	minimum = 0.0771354 (2 samples)
	maximum = 0.299659 (2 samples)
Injected packet size average = 2.98596 (2 samples)
Accepted packet size average = 2.98596 (2 samples)
Hops average = 1 (2 samples)
