

        *** GPGPU-Sim Simulator Version 3.2.2  [build 0] ***


GPGPU-Sim PTX: simulation mode 0 (can change with PTX_SIM_MODE_FUNC environment variable:
               1=functional simulation only, 0=detailed performance simulator)
GPGPU-Sim: Configuration options:

-network_mode                           1 # Interconnection network mode
-inter_config_file   config_fermi_islip.icnt # Interconnection network config file
-gpgpu_ptx_use_cuobjdump                    1 # Use cuobjdump to extract ptx and sass from binaries
-gpgpu_experimental_lib_support                    0 # Try to extract code from cuda libraries [Broken because of unknown cudaGetExportTable]
-gpgpu_ptx_convert_to_ptxplus                    0 # Convert SASS (native ISA) to ptxplus and run ptxplus
-gpgpu_ptx_force_max_capability                   20 # Force maximum compute capability
-gpgpu_ptx_inst_debug_to_file                    0 # Dump executed instructions' debug information to file
-gpgpu_ptx_inst_debug_file       inst_debug.txt # Executed instructions' debug output file
-gpgpu_ptx_inst_debug_thread_uid                    1 # Thread UID for executed instructions' debug output
-gpgpu_simd_model                       1 # 1 = post-dominator
-gpgpu_shader_core_pipeline              1536:32 # shader core pipeline config, i.e., {<nthread>:<warpsize>}
-gpgpu_tex_cache:l1  4:128:24,L:R:m:N:L,F:128:4,128:2 # per-shader L1 texture cache  (READ-ONLY) config  {<nsets>:<bsize>:<assoc>,<rep>:<wr>:<alloc>:<wr_alloc>,<mshr>:<N>:<merge>,<mq>:<rf>}
-gpgpu_const_cache:l1 64:64:2,L:R:f:N:L,A:2:32,4 # per-shader L1 constant memory cache  (READ-ONLY) config  {<nsets>:<bsize>:<assoc>,<rep>:<wr>:<alloc>:<wr_alloc>,<mshr>:<N>:<merge>,<mq>} 
-gpgpu_cache:il1     4:128:4,L:R:f:N:L,A:2:32,4 # shader L1 instruction cache config  {<nsets>:<bsize>:<assoc>,<rep>:<wr>:<alloc>:<wr_alloc>,<mshr>:<N>:<merge>,<mq>} 
-gpgpu_cache:dl1     32:128:4,L:L:m:N:H,A:32:8,8:2,0,1:0:1:1:0:1,1:4:8:16:32:64,/sciclone/data10/hwang07/GPU_RESEARCH/swl/swl_outputs/RESULTS/twolevel601/ # per-shader L1 data cache config  {<nsets>:<bsize>:<assoc>,<rep>:<wr>:<alloc>:<wr_alloc>,<mshr>:<N>:<merge>,<mq> | none}
-gpgpu_cache:dl1PrefL1                 none # per-shader L1 data cache config  {<nsets>:<bsize>:<assoc>,<rep>:<wr>:<alloc>:<wr_alloc>,<mshr>:<N>:<merge>,<mq> | none}
-gpgpu_cache:dl1PreShared                 none # per-shader L1 data cache config  {<nsets>:<bsize>:<assoc>,<rep>:<wr>:<alloc>:<wr_alloc>,<mshr>:<N>:<merge>,<mq> | none}
-gmem_skip_L1D                          0 # global memory access skip L1D cache (implements -Xptxas -dlcm=cg, default=no skip)
-gpgpu_perfect_mem                      0 # enable perfect memory mode (no cache miss)
-n_regfile_gating_group                    4 # group of lanes that should be read/written together)
-gpgpu_clock_gated_reg_file                    0 # enable clock gated reg file for power calculations
-gpgpu_clock_gated_lanes                    0 # enable clock gated lanes for power calculations
-gpgpu_shader_registers                32768 # Number of registers per shader core. Limits number of concurrent CTAs. (default 8192)
-gpgpu_shader_cta                       8 # Maximum number of concurrent CTAs in shader (default 8)
-gpgpu_num_cta_barriers                   16 # Maximum number of named barriers per CTA (default 16)
-gpgpu_n_clusters                      15 # number of processing clusters
-gpgpu_n_cores_per_cluster                    1 # number of simd cores per cluster
-gpgpu_n_cluster_ejection_buffer_size                    8 # number of packets in ejection buffer
-gpgpu_n_ldst_response_buffer_size                    2 # number of response packets in ld/st unit ejection buffer
-gpgpu_shmem_size                   16384 # Size of shared memory per shader core (default 16kB)
-gpgpu_shmem_size                   49152 # Size of shared memory per shader core (default 16kB)
-gpgpu_shmem_size_PrefL1                16384 # Size of shared memory per shader core (default 16kB)
-gpgpu_shmem_size_PrefShared                16384 # Size of shared memory per shader core (default 16kB)
-gpgpu_shmem_num_banks                   32 # Number of banks in the shared memory in each shader core (default 16)
-gpgpu_shmem_limited_broadcast                    0 # Limit shared memory to do one broadcast per cycle (default on)
-gpgpu_shmem_warp_parts                    1 # Number of portions a warp is divided into for shared memory bank conflict check 
-gpgpu_warpdistro_shader                   -1 # Specify which shader core to collect the warp size distribution from
-gpgpu_warp_issue_shader                    0 # Specify which shader core to collect the warp issue distribution from
-gpgpu_local_mem_map                    1 # Mapping from local memory space address to simulated GPU physical address space (default = enabled)
-gpgpu_num_reg_banks                   16 # Number of register banks (default = 8)
-gpgpu_reg_bank_use_warp_id                    0 # Use warp ID in mapping registers to banks (default = off)
-gpgpu_operand_collector_num_units_sp                    6 # number of collector units (default = 4)
-gpgpu_operand_collector_num_units_sfu                    8 # number of collector units (default = 4)
-gpgpu_operand_collector_num_units_mem                    2 # number of collector units (default = 2)
-gpgpu_operand_collector_num_units_gen                    0 # number of collector units (default = 0)
-gpgpu_operand_collector_num_in_ports_sp                    2 # number of collector unit in ports (default = 1)
-gpgpu_operand_collector_num_in_ports_sfu                    1 # number of collector unit in ports (default = 1)
-gpgpu_operand_collector_num_in_ports_mem                    1 # number of collector unit in ports (default = 1)
-gpgpu_operand_collector_num_in_ports_gen                    0 # number of collector unit in ports (default = 0)
-gpgpu_operand_collector_num_out_ports_sp                    2 # number of collector unit in ports (default = 1)
-gpgpu_operand_collector_num_out_ports_sfu                    1 # number of collector unit in ports (default = 1)
-gpgpu_operand_collector_num_out_ports_mem                    1 # number of collector unit in ports (default = 1)
-gpgpu_operand_collector_num_out_ports_gen                    0 # number of collector unit in ports (default = 0)
-gpgpu_coalesce_arch                   13 # Coalescing arch (default = 13, anything else is off for now)
-gpgpu_num_sched_per_core                    2 # Number of warp schedulers per core
-gpgpu_max_insn_issue_per_warp                    1 # Max number of instructions that can be issued per warp in one cycle by scheduler
-gpgpu_simt_core_sim_order                    1 # Select the simulation order of cores in a cluster (0=Fix, 1=Round-Robin)
-gpgpu_pipeline_widths        2,1,1,2,1,1,2 # Pipeline widths ID_OC_SP,ID_OC_SFU,ID_OC_MEM,OC_EX_SP,OC_EX_SFU,OC_EX_MEM,EX_WB
-gpgpu_num_sp_units                     2 # Number of SP units (default=1)
-gpgpu_num_sfu_units                    1 # Number of SF units (default=1)
-gpgpu_num_mem_units                    1 # Number if ldst units (default=1) WARNING: not hooked up to anything
-gpgpu_scheduler     two_level_active:6:0:1 # Scheduler configuration: < lrr | gto | two_level_active > If two_level_active:<num_active_warps>:<inner_prioritization>:<outer_prioritization>For complete list of prioritization values see shader.h enum scheduler_prioritization_typeDefault: gto
-gpgpu_dram_scheduler                    1 # 0 = fifo, 1 = FR-FCFS (defaul)
-gpgpu_dram_partition_queues              8:8:8:8 # i2$:$2d:d2$:$2i
-l2_ideal                               0 # Use a ideal L2 cache that always hit
-gpgpu_cache:dl2     64:128:8,L:B:m:W:L,A:32:4,4:0,32 # unified banked L2 data cache config  {<nsets>:<bsize>:<assoc>,<rep>:<wr>:<alloc>:<wr_alloc>,<mshr>:<N>:<merge>,<mq>}
-gpgpu_cache:dl2_texture_only                    0 # L2 cache used for texture only
-gpgpu_n_mem                            6 # number of memory modules (e.g. memory controllers) in gpu
-gpgpu_n_sub_partition_per_mchannel                    2 # number of memory subpartition in each memory module
-gpgpu_n_mem_per_ctrlr                    2 # number of memory chips per memory controller
-gpgpu_memlatency_stat                   14 # track and display latency statistics 0x2 enables MC, 0x4 enables queue logs
-gpgpu_frfcfs_dram_sched_queue_size                   16 # 0 = unlimited (default); # entries per chip
-gpgpu_dram_return_queue_size                  116 # 0 = unlimited (default); # entries per chip
-gpgpu_dram_buswidth                    4 # default = 4 bytes (8 bytes per cycle at DDR)
-gpgpu_dram_burst_length                    8 # Burst length of each DRAM request (default = 4 data bus cycle)
-dram_data_command_freq_ratio                    4 # Frequency ratio between DRAM data bus and command bus (default = 2 times, i.e. DDR)
-gpgpu_dram_timing_opt nbk=16:CCD=2:RRD=6:RCD=12:RAS=28:RP=12:RC=40: CL=12:WL=4:CDLR=5:WR=12:nbkgrp=4:CCDL=3:RTPL=2 # DRAM timing parameters = {nbk:tCCD:tRRD:tRCD:tRAS:tRP:tRC:CL:WL:tCDLR:tWR:nbkgrp:tCCDL:tRTPL}
-rop_latency                          120 # ROP queue latency (default 85)
-dram_latency                         100 # DRAM latency (default 30)
-gpgpu_mem_addr_mapping dramid@8;00000000.00000000.00000000.00000000.0000RRRR.RRRRRRRR.BBBCCCCB.CCSSSSSS # mapping memory address to dram model {dramid@<start bit>;<memory address map>}
-gpgpu_mem_addr_test                    0 # run sweep test to check address mapping for aliased address
-gpgpu_mem_address_mask                    1 # 0 = old addressing mask, 1 = new addressing mask, 2 = new add. mask + flipped bank sel and chip sel bits
-gpuwattch_xml_file  gpuwattch_gtx480.xml # GPUWattch XML file
-power_simulation_enabled                    0 # Turn on power simulator (1=On, 0=Off)
-power_per_cycle_dump                    0 # Dump detailed power output each cycle
-power_trace_enabled                    0 # produce a file for the power trace (1=On, 0=Off)
-power_trace_zlevel                     6 # Compression level of the power trace output log (0=no comp, 9=highest)
-steady_power_levels_enabled                    0 # produce a file for the steady power levels (1=On, 0=Off)
-steady_state_definition                  8:4 # allowed deviation:number of samples
-gpgpu_max_cycle                        0 # terminates gpu simulation early (0 = no limit)
-gpgpu_max_insn                         0 # terminates gpu simulation early (0 = no limit)
-gpgpu_max_cta                          0 # terminates gpu simulation early (0 = no limit)
-gpgpu_runtime_stat                   500 # display runtime statistics such as dram utilization {<freq>:<flag>}
-liveness_message_freq                    1 # Minimum number of seconds between simulation liveness messages (0 = always print)
-gpgpu_flush_l1_cache                    0 # Flush L1 cache at the end of each kernel call
-gpgpu_flush_l2_cache                    0 # Flush L2 cache at the end of each kernel call
-gpgpu_deadlock_detect                    1 # Stop the simulation at deadlock (1=on (default), 0=off)
-gpgpu_ptx_instruction_classification                    0 # if enabled will classify ptx instruction types per kernel (Max 255 kernels now)
-gpgpu_ptx_sim_mode                     0 # Select between Performance (default) or Functional simulation (1)
-gpgpu_clock_domains 700.0:700.0:700.0:924.0 # Clock Domain Frequencies in MhZ {<Core Clock>:<ICNT Clock>:<L2 Clock>:<DRAM Clock>}
-gpgpu_max_concurrent_kernel                    8 # maximum kernels that can run concurrently on GPU
-gpgpu_cflog_interval                    0 # Interval between each snapshot in control flow logger
-visualizer_enabled                     0 # Turn on visualizer output (1=On, 0=Off)
-visualizer_outputfile                 NULL # Specifies the output log file for visualizer
-visualizer_zlevel                      6 # Compression level of the visualizer output log (0=no comp, 9=highest)
-trace_enabled                          0 # Turn on traces
-trace_components                    none # comma seperated list of traces to enable. Complete list found in trace_streams.tup. Default none
-trace_sampling_core                    0 # The core which is printed using CORE_DPRINTF. Default 0
-trace_sampling_memory_partition                   -1 # The memory partition which is printed using MEMPART_DPRINTF. Default -1 (i.e. all)
-enable_ptx_file_line_stats                    1 # Turn on PTX source line statistic profiling. (1 = On)
-ptx_line_stats_filename gpgpu_inst_stats.txt # Output file for PTX source line statistics.
-save_embedded_ptx                      0 # saves ptx files embedded in binary as <n>.ptx
-keep                                   0 # keep intermediate files created by GPGPU-Sim when interfacing with external programs
-gpgpu_ptx_save_converted_ptxplus                    0 # Saved converted ptxplus to a file
-ptx_opcode_latency_int         4,13,4,5,145 # Opcode latencies for integers <ADD,MAX,MUL,MAD,DIV>Default 1,1,19,25,145
-ptx_opcode_latency_fp          4,13,4,5,39 # Opcode latencies for single precision floating points <ADD,MAX,MUL,MAD,DIV>Default 1,1,1,1,30
-ptx_opcode_latency_dp         8,19,8,8,330 # Opcode latencies for double precision floating points <ADD,MAX,MUL,MAD,DIV>Default 8,8,8,8,335
-ptx_opcode_initiation_int            1,2,2,1,8 # Opcode initiation intervals for integers <ADD,MAX,MUL,MAD,DIV>Default 1,1,4,4,32
-ptx_opcode_initiation_fp            1,2,1,1,4 # Opcode initiation intervals for single precision floating points <ADD,MAX,MUL,MAD,DIV>Default 1,1,1,1,5
-ptx_opcode_initiation_dp         8,16,8,8,130 # Opcode initiation intervals for double precision floating points <ADD,MAX,MUL,MAD,DIV>Default 8,8,8,8,130
DRAM Timing Options:
nbk                                    16 # number of banks
CCD                                     2 # column to column delay
RRD                                     6 # minimal delay between activation of rows in different banks
RCD                                    12 # row to column delay
RAS                                    28 # time needed to activate row
RP                                     12 # time needed to precharge (deactivate) row
RC                                     40 # row cycle time
CDLR                                    5 # switching from write to read (changes tWTR)
WR                                     12 # last data-in to row precharge
CL                                     12 # CAS latency
WL                                      4 # Write latency
nbkgrp                                  4 # number of bank groups
CCDL                                    3 # column to column delay between accesses to different bank groups
RTPL                                    2 # read to precharge delay between accesses to different bank groups
Total number of memory sub partition = 12
addr_dec_mask[CHIP]  = 0000000000000000 	high:64 low:0
addr_dec_mask[BK]    = 000000000000e100 	high:16 low:8
addr_dec_mask[ROW]   = 000000000fff0000 	high:28 low:16
addr_dec_mask[COL]   = 0000000000001eff 	high:13 low:0
addr_dec_mask[BURST] = 000000000000003f 	high:6 low:0
sub_partition_id_mask = 0000000000000100
GPGPU-Sim uArch: clock freqs: 700000000.000000:700000000.000000:700000000.000000:924000000.000000
GPGPU-Sim uArch: clock periods: 0.00000000142857142857:0.00000000142857142857:0.00000000142857142857:0.00000000108225108225
*** Initializing Memory Statistics ***
GPGPU-Sim uArch: interconnect node map (shaderID+MemID to icntID)
GPGPU-Sim uArch: Memory nodes ID start from index: 15
GPGPU-Sim uArch:    0   1   2   3   4
GPGPU-Sim uArch:    5   6   7   8   9
GPGPU-Sim uArch:   10  11  12  13  14
GPGPU-Sim uArch:   15  16  17  18  19
GPGPU-Sim uArch:   20  21  22  23  24
GPGPU-Sim uArch:   25  26
GPGPU-Sim uArch: interconnect node reverse map (icntID to shaderID+MemID)
GPGPU-Sim uArch: Memory nodes start from ID: 15
GPGPU-Sim uArch:    0   1   2   3   4
GPGPU-Sim uArch:    5   6   7   8   9
GPGPU-Sim uArch:   10  11  12  13  14
GPGPU-Sim uArch:   15  16  17  18  19
GPGPU-Sim uArch:   20  21  22  23  24
GPGPU-Sim uArch:   25  26
af04f0b458cb08397a3295dafdcb0262  /sciclone/data10/hwang07/adwait/applications/benchmarks/CUDA/TRA/gpgpu_ptx_sim__TRA
GPGPU-Sim uArch: performance model initialization complete.
GPGPU-Sim PTX: __cudaRegisterFatBinary, fat_cubin_handle = 1, filename=transpose.cu
self exe links to: /sciclone/data10/hwang07/adwait/applications/benchmarks/CUDA/TRA/gpgpu_ptx_sim__TRA
Running md5sum using "md5sum /sciclone/data10/hwang07/adwait/applications/benchmarks/CUDA/TRA/gpgpu_ptx_sim__TRA "
Parsing file _cuobjdump_complete_output_kgGmYZ
######### cuobjdump parser ########
## Adding new section ELF
Adding arch: sm_20
Adding identifier: transpose.cu
## Adding new section PTX
Adding ptx filename: _cuobjdump_1.ptx
Adding arch: sm_20
Adding identifier: transpose.cu
Done parsing!!!
GPGPU-Sim PTX: __cudaRegisterFunction _Z15transpose_naivePfS_ii : hostFun 0x0x404f49, fat_cubin_handle = 1
GPGPU-Sim PTX: allocating shared region for "__cuda___cuda_local_var_42235_32_non_const_block24" from 0x0 to 0x440 (shared memory space)
GPGPU-Sim PTX: instruction assembly for function '_Z9transposePfS_ii'...   done.
GPGPU-Sim PTX: finding reconvergence points for '_Z9transposePfS_ii'...
GPGPU-Sim PTX: Finding dominators for '_Z9transposePfS_ii'...
GPGPU-Sim PTX: Finding immediate dominators for '_Z9transposePfS_ii'...
GPGPU-Sim PTX: Finding postdominators for '_Z9transposePfS_ii'...
GPGPU-Sim PTX: Finding immediate postdominators for '_Z9transposePfS_ii'...
GPGPU-Sim PTX: pre-decoding instructions for '_Z9transposePfS_ii'...
GPGPU-Sim PTX: reconvergence points for _Z9transposePfS_ii...
GPGPU-Sim PTX:  1 (potential) branch divergence @  PC=0x088 (_1.ptx:81) @%p1 bra $Lt_0_2306;
GPGPU-Sim PTX:    immediate post dominator      @  PC=0x108 (_1.ptx:99) mov.u64 %rd1, __cuda___cuda_local_var_42235_32_non_const_block24;
GPGPU-Sim PTX:  2 (potential) branch divergence @  PC=0x160 (_1.ptx:111) @%p2 bra $Lt_0_2818;
GPGPU-Sim PTX:    immediate post dominator      @  PC=0x1d8 (_1.ptx:129) exit;
GPGPU-Sim PTX: ... end of reconvergence points for _Z9transposePfS_ii
GPGPU-Sim PTX: ... done pre-decoding instructions for '_Z9transposePfS_ii'.
GPGPU-Sim PTX: instruction assembly for function '_Z15transpose_naivePfS_ii'...   done.
GPGPU-Sim PTX: finding reconvergence points for '_Z15transpose_naivePfS_ii'...
GPGPU-Sim PTX: Finding dominators for '_Z15transpose_naivePfS_ii'...
GPGPU-Sim PTX: Finding immediate dominators for '_Z15transpose_naivePfS_ii'...
GPGPU-Sim PTX: Finding postdominators for '_Z15transpose_naivePfS_ii'...
GPGPU-Sim PTX: Finding immediate postdominators for '_Z15transpose_naivePfS_ii'...
GPGPU-Sim PTX: pre-decoding instructions for '_Z15transpose_naivePfS_ii'...
GPGPU-Sim PTX: reconvergence points for _Z15transpose_naivePfS_ii...
GPGPU-Sim PTX:  1 (potential) branch divergence @  PC=0x278 (_1.ptx:164) @%p1 bra $Lt_1_1282;
GPGPU-Sim PTX:    immediate post dominator      @  PC=0x2f0 (_1.ptx:182) exit;
GPGPU-Sim PTX: ... end of reconvergence points for _Z15transpose_naivePfS_ii
GPGPU-Sim PTX: ... done pre-decoding instructions for '_Z15transpose_naivePfS_ii'.
GPGPU-Sim PTX: finished parsing EMBEDDED .ptx file _1.ptx
Adding _cuobjdump_1.ptx with cubin handle 1
GPGPU-Sim PTX: extracting embedded .ptx to temporary file "_ptx_WwGaZZ"
Running: cat _ptx_WwGaZZ | sed 's/.version 1.5/.version 1.4/' | sed 's/, texmode_independent//' | sed 's/\(\.extern \.const\[1\] .b8 \w\+\)\[\]/\1\[1\]/' | sed 's/const\[.\]/const\[0\]/g' > _ptx2_IE6AE0
GPGPU-Sim PTX: generating ptxinfo using "$CUDA_INSTALL_PATH/bin/ptxas --gpu-name=sm_20 -v _ptx2_IE6AE0 --output-file  /dev/null 2> _ptx_WwGaZZinfo"
GPGPU-Sim PTX: Kernel '_Z15transpose_naivePfS_ii' : regs=8, lmem=0, smem=0, cmem=56
GPGPU-Sim PTX: Kernel '_Z9transposePfS_ii' : regs=9, lmem=0, smem=1088, cmem=56
GPGPU-Sim PTX: removing ptxinfo using "rm -f _ptx_WwGaZZ _ptx2_IE6AE0 _ptx_WwGaZZinfo"
GPGPU-Sim PTX: loading globals with explicit initializers... 
GPGPU-Sim PTX: finished loading globals (0 bytes total).
GPGPU-Sim PTX: loading constants with explicit initializers...  done.
GPGPU-Sim PTX: __cudaRegisterFunction _Z9transposePfS_ii : hostFun 0x0x404e59, fat_cubin_handle = 1

GPGPU-Sim PTX: cudaLaunch for 0x0x404f49 (mode=performance simulation) on stream 0
GPGPU-Sim PTX: pushing kernel '_Z15transpose_naivePfS_ii' to stream 0, gridDim= (16,256,1) blockDim = (16,16,1) 
kernel '_Z15transpose_naivePfS_ii' transfer to GPU hardware scheduler
GPGPU-Sim uArch: Shader 1 bind to kernel 1 '_Z15transpose_naivePfS_ii'
GPGPU-Sim uArch: CTA/core = 6, limited by: threads
GPGPU-Sim uArch: core:  1, cta: 0 initialized @(1,0)
GPGPU-Sim uArch: Shader 2 bind to kernel 1 '_Z15transpose_naivePfS_ii'
GPGPU-Sim uArch: core:  2, cta: 0 initialized @(1,0)
GPGPU-Sim uArch: Shader 3 bind to kernel 1 '_Z15transpose_naivePfS_ii'
GPGPU-Sim uArch: core:  3, cta: 0 initialized @(1,0)
GPGPU-Sim uArch: Shader 4 bind to kernel 1 '_Z15transpose_naivePfS_ii'
GPGPU-Sim uArch: core:  4, cta: 0 initialized @(1,0)
GPGPU-Sim uArch: Shader 5 bind to kernel 1 '_Z15transpose_naivePfS_ii'
GPGPU-Sim uArch: core:  5, cta: 0 initialized @(1,0)
GPGPU-Sim uArch: Shader 6 bind to kernel 1 '_Z15transpose_naivePfS_ii'
GPGPU-Sim uArch: core:  6, cta: 0 initialized @(1,0)
GPGPU-Sim uArch: Shader 7 bind to kernel 1 '_Z15transpose_naivePfS_ii'
GPGPU-Sim uArch: core:  7, cta: 0 initialized @(1,0)
GPGPU-Sim uArch: Shader 8 bind to kernel 1 '_Z15transpose_naivePfS_ii'
GPGPU-Sim uArch: core:  8, cta: 0 initialized @(1,0)
GPGPU-Sim uArch: Shader 9 bind to kernel 1 '_Z15transpose_naivePfS_ii'
GPGPU-Sim uArch: core:  9, cta: 0 initialized @(1,0)
GPGPU-Sim uArch: Shader 10 bind to kernel 1 '_Z15transpose_naivePfS_ii'
GPGPU-Sim uArch: core: 10, cta: 0 initialized @(1,0)
GPGPU-Sim uArch: Shader 11 bind to kernel 1 '_Z15transpose_naivePfS_ii'
GPGPU-Sim uArch: core: 11, cta: 0 initialized @(1,0)
GPGPU-Sim uArch: Shader 12 bind to kernel 1 '_Z15transpose_naivePfS_ii'
GPGPU-Sim uArch: core: 12, cta: 0 initialized @(1,0)
GPGPU-Sim uArch: Shader 13 bind to kernel 1 '_Z15transpose_naivePfS_ii'
GPGPU-Sim uArch: core: 13, cta: 0 initialized @(1,0)
GPGPU-Sim uArch: Shader 14 bind to kernel 1 '_Z15transpose_naivePfS_ii'
GPGPU-Sim uArch: core: 14, cta: 0 initialized @(1,0)
GPGPU-Sim uArch: Shader 0 bind to kernel 1 '_Z15transpose_naivePfS_ii'
GPGPU-Sim uArch: core:  0, cta: 0 initialized @(1,0)
GPGPU-Sim uArch: core:  1, cta: 1 initialized @(2,0)
GPGPU-Sim uArch: core:  2, cta: 1 initialized @(2,0)
GPGPU-Sim uArch: core:  3, cta: 1 initialized @(2,0)
GPGPU-Sim uArch: core:  4, cta: 1 initialized @(2,0)
GPGPU-Sim uArch: core:  5, cta: 1 initialized @(2,0)
GPGPU-Sim uArch: core:  6, cta: 1 initialized @(2,0)
GPGPU-Sim uArch: core:  7, cta: 1 initialized @(2,0)
GPGPU-Sim uArch: core:  8, cta: 1 initialized @(2,0)
GPGPU-Sim uArch: core:  9, cta: 1 initialized @(2,0)
GPGPU-Sim uArch: core: 10, cta: 1 initialized @(2,0)
GPGPU-Sim uArch: core: 11, cta: 1 initialized @(2,0)
GPGPU-Sim uArch: core: 12, cta: 1 initialized @(2,0)
GPGPU-Sim uArch: core: 13, cta: 1 initialized @(2,0)
GPGPU-Sim uArch: core: 14, cta: 1 initialized @(2,0)
GPGPU-Sim uArch: core:  0, cta: 1 initialized @(2,0)
GPGPU-Sim uArch: core:  1, cta: 2 initialized @(3,0)
GPGPU-Sim uArch: core:  2, cta: 2 initialized @(3,0)
GPGPU-Sim uArch: core:  3, cta: 2 initialized @(3,0)
GPGPU-Sim uArch: core:  4, cta: 2 initialized @(3,0)
GPGPU-Sim uArch: core:  5, cta: 2 initialized @(3,0)
GPGPU-Sim uArch: core:  6, cta: 2 initialized @(3,0)
GPGPU-Sim uArch: core:  7, cta: 2 initialized @(3,0)
GPGPU-Sim uArch: core:  8, cta: 2 initialized @(3,0)
GPGPU-Sim uArch: core:  9, cta: 2 initialized @(3,0)
GPGPU-Sim uArch: core: 10, cta: 2 initialized @(3,0)
GPGPU-Sim uArch: core: 11, cta: 2 initialized @(3,0)
GPGPU-Sim uArch: core: 12, cta: 2 initialized @(3,0)
GPGPU-Sim uArch: core: 13, cta: 2 initialized @(3,0)
GPGPU-Sim uArch: core: 14, cta: 2 initialized @(3,0)
GPGPU-Sim uArch: core:  0, cta: 2 initialized @(3,0)
GPGPU-Sim uArch: core:  1, cta: 3 initialized @(4,0)
GPGPU-Sim uArch: core:  2, cta: 3 initialized @(4,0)
GPGPU-Sim uArch: core:  3, cta: 3 initialized @(4,0)
GPGPU-Sim uArch: core:  4, cta: 3 initialized @(4,0)
GPGPU-Sim uArch: core:  5, cta: 3 initialized @(4,0)
GPGPU-Sim uArch: core:  6, cta: 3 initialized @(4,0)
GPGPU-Sim uArch: core:  7, cta: 3 initialized @(4,0)
GPGPU-Sim uArch: core:  8, cta: 3 initialized @(4,0)
GPGPU-Sim uArch: core:  9, cta: 3 initialized @(4,0)
GPGPU-Sim uArch: core: 10, cta: 3 initialized @(4,0)
GPGPU-Sim uArch: core: 11, cta: 3 initialized @(4,0)
GPGPU-Sim uArch: core: 12, cta: 3 initialized @(4,0)
GPGPU-Sim uArch: core: 13, cta: 3 initialized @(4,0)
GPGPU-Sim uArch: core: 14, cta: 3 initialized @(4,0)
GPGPU-Sim uArch: core:  0, cta: 3 initialized @(4,0)
GPGPU-Sim uArch: core:  1, cta: 4 initialized @(5,0)
GPGPU-Sim uArch: core:  2, cta: 4 initialized @(5,0)
GPGPU-Sim uArch: core:  3, cta: 4 initialized @(5,0)
GPGPU-Sim uArch: core:  4, cta: 4 initialized @(5,0)
GPGPU-Sim uArch: core:  5, cta: 4 initialized @(5,0)
GPGPU-Sim uArch: core:  6, cta: 4 initialized @(5,0)
GPGPU-Sim uArch: core:  7, cta: 4 initialized @(5,0)
GPGPU-Sim uArch: core:  8, cta: 4 initialized @(5,0)
GPGPU-Sim uArch: core:  9, cta: 4 initialized @(5,0)
GPGPU-Sim uArch: core: 10, cta: 4 initialized @(5,0)
GPGPU-Sim uArch: core: 11, cta: 4 initialized @(5,0)
GPGPU-Sim uArch: core: 12, cta: 4 initialized @(5,0)
GPGPU-Sim uArch: core: 13, cta: 4 initialized @(5,0)
GPGPU-Sim uArch: core: 14, cta: 4 initialized @(5,0)
GPGPU-Sim uArch: core:  0, cta: 4 initialized @(5,0)
GPGPU-Sim uArch: core:  1, cta: 5 initialized @(6,0)
GPGPU-Sim uArch: core:  2, cta: 5 initialized @(6,0)
GPGPU-Sim uArch: core:  3, cta: 5 initialized @(6,0)
GPGPU-Sim uArch: core:  4, cta: 5 initialized @(6,0)
GPGPU-Sim uArch: core:  5, cta: 5 initialized @(6,0)
GPGPU-Sim uArch: core:  6, cta: 5 initialized @(6,0)
GPGPU-Sim uArch: core:  7, cta: 5 initialized @(6,0)
GPGPU-Sim uArch: core:  8, cta: 5 initialized @(6,0)
GPGPU-Sim uArch: core:  9, cta: 5 initialized @(6,0)
GPGPU-Sim uArch: core: 10, cta: 5 initialized @(6,0)
GPGPU-Sim uArch: core: 11, cta: 5 initialized @(6,0)
GPGPU-Sim uArch: core: 12, cta: 5 initialized @(6,0)
GPGPU-Sim uArch: core: 13, cta: 5 initialized @(6,0)
GPGPU-Sim uArch: core: 14, cta: 5 initialized @(6,0)
GPGPU-Sim uArch: core:  0, cta: 5 initialized @(6,0)
GPGPU-Sim uArch: cycles simulated: 500  inst.: 23040 (ipc=46.1) sim_rate=11520 (inst/sec) elapsed = 0:0:00:02 / Tue Mar 22 13:11:31 2016
GPGPU-Sim PTX: 100000 instructions simulated : ctaid=(4,1,0) tid=(15,9,0)
GPGPU-Sim PTX: 200000 instructions simulated : ctaid=(6,2,0) tid=(15,3,0)
GPGPU-Sim PTX: 300000 instructions simulated : ctaid=(9,3,0) tid=(15,13,0)
GPGPU-Sim PTX: 400000 instructions simulated : ctaid=(4,4,0) tid=(15,9,0)
GPGPU-Sim PTX: 500000 instructions simulated : ctaid=(5,2,0) tid=(15,1,0)
GPGPU-Sim PTX: 600000 instructions simulated : ctaid=(0,5,0) tid=(15,7,0)
GPGPU-Sim uArch: cycles simulated: 2000  inst.: 608416 (ipc=304.2) sim_rate=202805 (inst/sec) elapsed = 0:0:00:03 / Tue Mar 22 13:11:32 2016
GPGPU-Sim uArch: cycles simulated: 3000  inst.: 633984 (ipc=211.3) sim_rate=158496 (inst/sec) elapsed = 0:0:00:04 / Tue Mar 22 13:11:33 2016
GPGPU-Sim uArch: cycles simulated: 5000  inst.: 664928 (ipc=133.0) sim_rate=132985 (inst/sec) elapsed = 0:0:00:05 / Tue Mar 22 13:11:34 2016
GPGPU-Sim PTX: 700000 instructions simulated : ctaid=(14,1,0) tid=(15,13,0)
GPGPU-Sim uArch: cycles simulated: 7000  inst.: 676480 (ipc=96.6) sim_rate=112746 (inst/sec) elapsed = 0:0:00:06 / Tue Mar 22 13:11:35 2016
GPGPU-Sim uArch: cycles simulated: 9000  inst.: 681376 (ipc=75.7) sim_rate=97339 (inst/sec) elapsed = 0:0:00:07 / Tue Mar 22 13:11:36 2016
GPGPU-Sim uArch: cycles simulated: 11000  inst.: 693024 (ipc=63.0) sim_rate=86628 (inst/sec) elapsed = 0:0:00:08 / Tue Mar 22 13:11:37 2016
GPGPU-Sim uArch: cycles simulated: 13000  inst.: 715168 (ipc=55.0) sim_rate=79463 (inst/sec) elapsed = 0:0:00:09 / Tue Mar 22 13:11:38 2016
GPGPU-Sim uArch: Shader 0 finished CTA #2 (14789,0), 5 CTAs running
GPGPU-Sim uArch: core:  0, cta: 2 initialized @(14790,0)
GPGPU-Sim uArch: cycles simulated: 15000  inst.: 753280 (ipc=50.2) sim_rate=75328 (inst/sec) elapsed = 0:0:00:10 / Tue Mar 22 13:11:39 2016
GPGPU-Sim PTX: 800000 instructions simulated : ctaid=(4,5,0) tid=(15,11,0)
GPGPU-Sim uArch: cycles simulated: 17500  inst.: 774048 (ipc=44.2) sim_rate=70368 (inst/sec) elapsed = 0:0:00:11 / Tue Mar 22 13:11:40 2016
GPGPU-Sim uArch: Shader 10 finished CTA #2 (18072,0), 5 CTAs running
GPGPU-Sim uArch: core: 10, cta: 2 initialized @(18073,0)
GPGPU-Sim uArch: Shader 11 finished CTA #2 (18644,0), 5 CTAs running
GPGPU-Sim uArch: core: 11, cta: 2 initialized @(18645,0)
GPGPU-Sim uArch: Shader 9 finished CTA #2 (18673,0), 5 CTAs running
GPGPU-Sim uArch: core:  9, cta: 2 initialized @(18674,0)
GPGPU-Sim uArch: Shader 12 finished CTA #3 (19050,0), 5 CTAs running
GPGPU-Sim uArch: core: 12, cta: 3 initialized @(19051,0)
GPGPU-Sim uArch: Shader 14 finished CTA #3 (19277,0), 5 CTAs running
GPGPU-Sim uArch: core: 14, cta: 3 initialized @(19278,0)
GPGPU-Sim uArch: Shader 7 finished CTA #2 (19756,0), 5 CTAs running
GPGPU-Sim uArch: core:  7, cta: 2 initialized @(19757,0)
GPGPU-Sim uArch: Shader 0 finished CTA #4 (19931,0), 5 CTAs running
GPGPU-Sim uArch: core:  0, cta: 4 initialized @(19932,0)
GPGPU-Sim uArch: Shader 8 finished CTA #2 (19939,0), 5 CTAs running
GPGPU-Sim uArch: core:  8, cta: 2 initialized @(19940,0)
GPGPU-Sim uArch: Shader 13 finished CTA #2 (19997,0), 5 CTAs running
GPGPU-Sim uArch: core: 13, cta: 2 initialized @(19998,0)
GPGPU-Sim uArch: cycles simulated: 20000  inst.: 806144 (ipc=40.3) sim_rate=67178 (inst/sec) elapsed = 0:0:00:12 / Tue Mar 22 13:11:41 2016
GPGPU-Sim uArch: Shader 6 finished CTA #4 (20261,0), 5 CTAs running
GPGPU-Sim uArch: core:  6, cta: 4 initialized @(20262,0)
GPGPU-Sim uArch: Shader 12 finished CTA #4 (20331,0), 5 CTAs running
GPGPU-Sim uArch: core: 12, cta: 4 initialized @(20332,0)
GPGPU-Sim uArch: Shader 14 finished CTA #4 (20498,0), 5 CTAs running
GPGPU-Sim uArch: core: 14, cta: 4 initialized @(20499,0)
GPGPU-Sim uArch: Shader 0 finished CTA #5 (20545,0), 5 CTAs running
GPGPU-Sim uArch: core:  0, cta: 5 initialized @(20546,0)
GPGPU-Sim uArch: Shader 11 finished CTA #4 (20808,0), 5 CTAs running
GPGPU-Sim uArch: core: 11, cta: 4 initialized @(20809,0)
GPGPU-Sim uArch: Shader 7 finished CTA #4 (20841,0), 5 CTAs running
GPGPU-Sim uArch: core:  7, cta: 4 initialized @(20842,0)
GPGPU-Sim uArch: Shader 11 finished CTA #5 (21040,0), 5 CTAs running
GPGPU-Sim uArch: core: 11, cta: 5 initialized @(21041,0)
GPGPU-Sim uArch: Shader 6 finished CTA #2 (21104,0), 5 CTAs running
GPGPU-Sim uArch: core:  6, cta: 2 initialized @(21105,0)
GPGPU-Sim uArch: Shader 0 finished CTA #3 (21134,0), 5 CTAs running
GPGPU-Sim uArch: core:  0, cta: 3 initialized @(21135,0)
GPGPU-Sim uArch: Shader 1 finished CTA #2 (21173,0), 5 CTAs running
GPGPU-Sim uArch: core:  1, cta: 2 initialized @(21174,0)
GPGPU-Sim uArch: Shader 13 finished CTA #3 (21195,0), 5 CTAs running
GPGPU-Sim uArch: core: 13, cta: 3 initialized @(21196,0)
GPGPU-Sim uArch: Shader 10 finished CTA #3 (21289,0), 5 CTAs running
GPGPU-Sim uArch: core: 10, cta: 3 initialized @(21290,0)
GPGPU-Sim uArch: Shader 5 finished CTA #4 (21564,0), 5 CTAs running
GPGPU-Sim uArch: core:  5, cta: 4 initialized @(21565,0)
GPGPU-Sim uArch: Shader 9 finished CTA #3 (21842,0), 5 CTAs running
GPGPU-Sim uArch: core:  9, cta: 3 initialized @(21843,0)
GPGPU-Sim uArch: Shader 11 finished CTA #3 (21844,0), 5 CTAs running
GPGPU-Sim uArch: core: 11, cta: 3 initialized @(21845,0)
GPGPU-Sim uArch: Shader 12 finished CTA #1 (21890,0), 5 CTAs running
GPGPU-Sim uArch: core: 12, cta: 1 initialized @(21891,0)
GPGPU-Sim uArch: Shader 0 finished CTA #0 (21892,0), 5 CTAs running
GPGPU-Sim uArch: core:  0, cta: 0 initialized @(21893,0)
GPGPU-Sim uArch: cycles simulated: 22000  inst.: 856256 (ipc=38.9) sim_rate=65865 (inst/sec) elapsed = 0:0:00:13 / Tue Mar 22 13:11:42 2016
GPGPU-Sim uArch: Shader 14 finished CTA #1 (22067,0), 5 CTAs running
GPGPU-Sim uArch: core: 14, cta: 1 initialized @(22068,0)
GPGPU-Sim uArch: Shader 4 finished CTA #5 (22123,0), 5 CTAs running
GPGPU-Sim uArch: core:  4, cta: 5 initialized @(22124,0)
GPGPU-Sim PTX: 900000 instructions simulated : ctaid=(0,6,0) tid=(15,15,0)
GPGPU-Sim uArch: Shader 0 finished CTA #1 (22431,0), 5 CTAs running
GPGPU-Sim uArch: core:  0, cta: 1 initialized @(22432,0)
GPGPU-Sim uArch: Shader 7 finished CTA #1 (22500,0), 5 CTAs running
GPGPU-Sim uArch: core:  7, cta: 1 initialized @(22501,0)
GPGPU-Sim uArch: Shader 11 finished CTA #1 (22547,0), 5 CTAs running
GPGPU-Sim uArch: core: 11, cta: 1 initialized @(22548,0)
GPGPU-Sim uArch: Shader 12 finished CTA #2 (22607,0), 5 CTAs running
GPGPU-Sim uArch: core: 12, cta: 2 initialized @(22608,0)
GPGPU-Sim uArch: Shader 10 finished CTA #0 (22755,0), 5 CTAs running
GPGPU-Sim uArch: core: 10, cta: 0 initialized @(22756,0)
GPGPU-Sim uArch: Shader 10 finished CTA #4 (22784,0), 5 CTAs running
GPGPU-Sim uArch: core: 10, cta: 4 initialized @(22785,0)
GPGPU-Sim PTX: 1000000 instructions simulated : ctaid=(11,6,0) tid=(15,9,0)
GPGPU-Sim uArch: Shader 5 finished CTA #2 (23174,0), 5 CTAs running
GPGPU-Sim uArch: Shader 8 finished CTA #0 (23174,0), 5 CTAs running
GPGPU-Sim uArch: core:  5, cta: 2 initialized @(23175,0)
GPGPU-Sim uArch: core:  8, cta: 0 initialized @(23175,0)
GPGPU-Sim uArch: Shader 6 finished CTA #3 (23211,0), 5 CTAs running
GPGPU-Sim uArch: core:  6, cta: 3 initialized @(23212,0)
GPGPU-Sim uArch: Shader 14 finished CTA #0 (23266,0), 5 CTAs running
GPGPU-Sim uArch: core: 14, cta: 0 initialized @(23267,0)
GPGPU-Sim uArch: Shader 6 finished CTA #0 (23659,0), 5 CTAs running
GPGPU-Sim uArch: core:  6, cta: 0 initialized @(23660,0)
GPGPU-Sim uArch: Shader 13 finished CTA #0 (23763,0), 5 CTAs running
GPGPU-Sim uArch: core: 13, cta: 0 initialized @(23764,0)
GPGPU-Sim uArch: Shader 10 finished CTA #5 (23770,0), 5 CTAs running
GPGPU-Sim uArch: core: 10, cta: 5 initialized @(23771,0)
GPGPU-Sim uArch: Shader 9 finished CTA #0 (23880,0), 5 CTAs running
GPGPU-Sim uArch: core:  9, cta: 0 initialized @(23881,0)
GPGPU-Sim PTX: 1100000 instructions simulated : ctaid=(3,8,0) tid=(15,13,0)
GPGPU-Sim uArch: Shader 8 finished CTA #3 (23955,0), 5 CTAs running
GPGPU-Sim uArch: core:  8, cta: 3 initialized @(23956,0)
GPGPU-Sim uArch: Shader 5 finished CTA #1 (23963,0), 5 CTAs running
GPGPU-Sim uArch: core:  5, cta: 1 initialized @(23964,0)
GPGPU-Sim uArch: cycles simulated: 24000  inst.: 1070208 (ipc=44.6) sim_rate=76443 (inst/sec) elapsed = 0:0:00:14 / Tue Mar 22 13:11:43 2016
GPGPU-Sim uArch: Shader 8 finished CTA #1 (24119,0), 5 CTAs running
GPGPU-Sim uArch: core:  8, cta: 1 initialized @(24120,0)
GPGPU-Sim uArch: Shader 4 finished CTA #3 (24216,0), 5 CTAs running
GPGPU-Sim uArch: core:  4, cta: 3 initialized @(24217,0)
GPGPU-Sim uArch: Shader 5 finished CTA #3 (24266,0), 5 CTAs running
GPGPU-Sim uArch: core:  5, cta: 3 initialized @(24267,0)
GPGPU-Sim uArch: Shader 1 finished CTA #0 (24384,0), 5 CTAs running
GPGPU-Sim uArch: core:  1, cta: 0 initialized @(24385,0)
GPGPU-Sim uArch: Shader 4 finished CTA #2 (24432,0), 5 CTAs running
GPGPU-Sim uArch: core:  4, cta: 2 initialized @(24433,0)
GPGPU-Sim uArch: Shader 3 finished CTA #5 (24503,0), 5 CTAs running
GPGPU-Sim uArch: core:  3, cta: 5 initialized @(24504,0)
GPGPU-Sim uArch: Shader 1 finished CTA #4 (24543,0), 5 CTAs running
GPGPU-Sim uArch: core:  1, cta: 4 initialized @(24544,0)
GPGPU-Sim uArch: Shader 3 finished CTA #0 (24624,0), 5 CTAs running
GPGPU-Sim uArch: core:  3, cta: 0 initialized @(24625,0)
GPGPU-Sim uArch: Shader 1 finished CTA #3 (24634,0), 5 CTAs running
GPGPU-Sim uArch: core:  1, cta: 3 initialized @(24635,0)
GPGPU-Sim uArch: Shader 4 finished CTA #4 (24677,0), 5 CTAs running
GPGPU-Sim uArch: core:  4, cta: 4 initialized @(24678,0)
GPGPU-Sim uArch: Shader 1 finished CTA #1 (24757,0), 5 CTAs running
GPGPU-Sim uArch: core:  1, cta: 1 initialized @(24758,0)
GPGPU-Sim uArch: Shader 13 finished CTA #5 (24786,0), 5 CTAs running
GPGPU-Sim uArch: core: 13, cta: 5 initialized @(24787,0)
GPGPU-Sim uArch: Shader 5 finished CTA #0 (24791,0), 5 CTAs running
GPGPU-Sim uArch: core:  5, cta: 0 initialized @(24792,0)
GPGPU-Sim uArch: Shader 8 finished CTA #5 (24794,0), 5 CTAs running
GPGPU-Sim uArch: core:  8, cta: 5 initialized @(24795,0)
GPGPU-Sim uArch: Shader 3 finished CTA #3 (24808,0), 5 CTAs running
GPGPU-Sim uArch: core:  3, cta: 3 initialized @(24809,0)
GPGPU-Sim uArch: Shader 3 finished CTA #4 (24833,0), 5 CTAs running
GPGPU-Sim uArch: core:  3, cta: 4 initialized @(24834,0)
GPGPU-Sim uArch: Shader 5 finished CTA #5 (24938,0), 5 CTAs running
GPGPU-Sim uArch: core:  5, cta: 5 initialized @(24939,0)
GPGPU-Sim uArch: Shader 2 finished CTA #2 (25002,0), 5 CTAs running
GPGPU-Sim uArch: core:  2, cta: 2 initialized @(25003,0)
GPGPU-Sim uArch: Shader 2 finished CTA #0 (25011,0), 5 CTAs running
GPGPU-Sim uArch: core:  2, cta: 0 initialized @(25012,0)
GPGPU-Sim PTX: 1200000 instructions simulated : ctaid=(5,9,0) tid=(15,13,0)
GPGPU-Sim uArch: Shader 4 finished CTA #0 (25137,0), 5 CTAs running
GPGPU-Sim uArch: core:  4, cta: 0 initialized @(25138,0)
GPGPU-Sim uArch: Shader 2 finished CTA #3 (25143,0), 5 CTAs running
GPGPU-Sim uArch: core:  2, cta: 3 initialized @(25144,0)
GPGPU-Sim uArch: Shader 4 finished CTA #1 (25236,0), 5 CTAs running
GPGPU-Sim uArch: core:  4, cta: 1 initialized @(25237,0)
GPGPU-Sim uArch: Shader 3 finished CTA #2 (25374,0), 5 CTAs running
GPGPU-Sim uArch: core:  3, cta: 2 initialized @(25375,0)
GPGPU-Sim uArch: Shader 3 finished CTA #1 (25383,0), 5 CTAs running
GPGPU-Sim uArch: core:  3, cta: 1 initialized @(25384,0)
GPGPU-Sim uArch: Shader 2 finished CTA #4 (25429,0), 5 CTAs running
GPGPU-Sim uArch: core:  2, cta: 4 initialized @(25430,0)
GPGPU-Sim uArch: Shader 8 finished CTA #4 (25442,0), 5 CTAs running
GPGPU-Sim uArch: core:  8, cta: 4 initialized @(25443,0)
GPGPU-Sim uArch: Shader 2 finished CTA #1 (25444,0), 5 CTAs running
GPGPU-Sim uArch: core:  2, cta: 1 initialized @(25445,0)
GPGPU-Sim uArch: cycles simulated: 25500  inst.: 1225248 (ipc=48.0) sim_rate=81683 (inst/sec) elapsed = 0:0:00:15 / Tue Mar 22 13:11:44 2016
GPGPU-Sim PTX: 1300000 instructions simulated : ctaid=(13,9,0) tid=(15,7,0)
GPGPU-Sim uArch: Shader 2 finished CTA #5 (25872,0), 5 CTAs running
GPGPU-Sim uArch: core:  2, cta: 5 initialized @(25873,0)
GPGPU-Sim uArch: Shader 1 finished CTA #5 (26083,0), 5 CTAs running
GPGPU-Sim uArch: core:  1, cta: 5 initialized @(26084,0)
GPGPU-Sim uArch: cycles simulated: 26500  inst.: 1310112 (ipc=49.4) sim_rate=81882 (inst/sec) elapsed = 0:0:00:16 / Tue Mar 22 13:11:45 2016
GPGPU-Sim PTX: 1400000 instructions simulated : ctaid=(15,8,0) tid=(15,15,0)
GPGPU-Sim uArch: cycles simulated: 28500  inst.: 1356224 (ipc=47.6) sim_rate=79777 (inst/sec) elapsed = 0:0:00:17 / Tue Mar 22 13:11:46 2016
GPGPU-Sim uArch: cycles simulated: 30500  inst.: 1370560 (ipc=44.9) sim_rate=76142 (inst/sec) elapsed = 0:0:00:18 / Tue Mar 22 13:11:47 2016
GPGPU-Sim uArch: Shader 9 finished CTA #5 (30541,0), 5 CTAs running
GPGPU-Sim uArch: core:  9, cta: 5 initialized @(30542,0)
GPGPU-Sim uArch: Shader 6 finished CTA #1 (30603,0), 5 CTAs running
GPGPU-Sim uArch: core:  6, cta: 1 initialized @(30604,0)
GPGPU-Sim uArch: Shader 14 finished CTA #2 (31542,0), 5 CTAs running
GPGPU-Sim uArch: core: 14, cta: 2 initialized @(31543,0)
GPGPU-Sim uArch: Shader 14 finished CTA #5 (31641,0), 5 CTAs running
GPGPU-Sim uArch: core: 14, cta: 5 initialized @(31642,0)
GPGPU-Sim uArch: cycles simulated: 32500  inst.: 1407008 (ipc=43.3) sim_rate=74053 (inst/sec) elapsed = 0:0:00:19 / Tue Mar 22 13:11:48 2016
GPGPU-Sim uArch: Shader 14 finished CTA #1 (32601,0), 5 CTAs running
GPGPU-Sim uArch: core: 14, cta: 1 initialized @(32602,0)
GPGPU-Sim uArch: Shader 11 finished CTA #0 (32628,0), 5 CTAs running
GPGPU-Sim uArch: core: 11, cta: 0 initialized @(32629,0)
GPGPU-Sim uArch: Shader 12 finished CTA #5 (32724,0), 5 CTAs running
GPGPU-Sim uArch: core: 12, cta: 5 initialized @(32725,0)
GPGPU-Sim uArch: Shader 7 finished CTA #5 (33305,0), 5 CTAs running
GPGPU-Sim uArch: core:  7, cta: 5 initialized @(33306,0)
GPGPU-Sim uArch: Shader 12 finished CTA #1 (33450,0), 5 CTAs running
GPGPU-Sim uArch: core: 12, cta: 1 initialized @(33451,0)
GPGPU-Sim uArch: Shader 7 finished CTA #3 (33740,0), 5 CTAs running
GPGPU-Sim uArch: core:  7, cta: 3 initialized @(33741,0)
GPGPU-Sim uArch: Shader 13 finished CTA #4 (33910,0), 5 CTAs running
GPGPU-Sim uArch: core: 13, cta: 4 initialized @(33911,0)
GPGPU-Sim uArch: Shader 12 finished CTA #0 (33976,0), 5 CTAs running
GPGPU-Sim uArch: core: 12, cta: 0 initialized @(33977,0)
GPGPU-Sim uArch: cycles simulated: 34000  inst.: 1450112 (ipc=42.7) sim_rate=72505 (inst/sec) elapsed = 0:0:00:20 / Tue Mar 22 13:11:49 2016
GPGPU-Sim PTX: 1500000 instructions simulated : ctaid=(11,10,0) tid=(15,9,0)
GPGPU-Sim uArch: Shader 6 finished CTA #5 (34040,0), 5 CTAs running
GPGPU-Sim uArch: core:  6, cta: 5 initialized @(34041,0)
GPGPU-Sim uArch: Shader 7 finished CTA #2 (34123,0), 5 CTAs running
GPGPU-Sim uArch: core:  7, cta: 2 initialized @(34124,0)
GPGPU-Sim uArch: Shader 12 finished CTA #3 (34235,0), 5 CTAs running
GPGPU-Sim uArch: core: 12, cta: 3 initialized @(34236,0)
GPGPU-Sim uArch: Shader 12 finished CTA #4 (34534,0), 5 CTAs running
GPGPU-Sim uArch: core: 12, cta: 4 initialized @(34535,0)
GPGPU-Sim uArch: Shader 14 finished CTA #4 (34890,0), 5 CTAs running
GPGPU-Sim uArch: core: 14, cta: 4 initialized @(34891,0)
GPGPU-Sim uArch: Shader 4 finished CTA #5 (35106,0), 5 CTAs running
GPGPU-Sim uArch: core:  4, cta: 5 initialized @(35107,0)
GPGPU-Sim uArch: Shader 7 finished CTA #1 (35332,0), 5 CTAs running
GPGPU-Sim uArch: core:  7, cta: 1 initialized @(35333,0)
GPGPU-Sim uArch: Shader 12 finished CTA #2 (35344,0), 5 CTAs running
GPGPU-Sim uArch: core: 12, cta: 2 initialized @(35345,0)
GPGPU-Sim uArch: Shader 10 finished CTA #2 (35398,0), 5 CTAs running
GPGPU-Sim uArch: core: 10, cta: 2 initialized @(35399,0)
GPGPU-Sim uArch: Shader 14 finished CTA #3 (35610,0), 5 CTAs running
GPGPU-Sim uArch: core: 14, cta: 3 initialized @(35611,0)
GPGPU-Sim uArch: Shader 6 finished CTA #2 (35759,0), 5 CTAs running
GPGPU-Sim uArch: core:  6, cta: 2 initialized @(35760,0)
GPGPU-Sim uArch: Shader 6 finished CTA #3 (35861,0), 5 CTAs running
GPGPU-Sim uArch: core:  6, cta: 3 initialized @(35862,0)
GPGPU-Sim uArch: cycles simulated: 36000  inst.: 1540384 (ipc=42.8) sim_rate=73351 (inst/sec) elapsed = 0:0:00:21 / Tue Mar 22 13:11:50 2016
GPGPU-Sim uArch: Shader 14 finished CTA #0 (36321,0), 5 CTAs running
GPGPU-Sim uArch: core: 14, cta: 0 initialized @(36322,0)
GPGPU-Sim uArch: Shader 3 finished CTA #0 (36325,0), 5 CTAs running
GPGPU-Sim uArch: core:  3, cta: 0 initialized @(36326,0)
GPGPU-Sim PTX: 1600000 instructions simulated : ctaid=(0,10,0) tid=(15,7,0)
GPGPU-Sim uArch: Shader 6 finished CTA #4 (36363,0), 5 CTAs running
GPGPU-Sim uArch: core:  6, cta: 4 initialized @(36364,0)
GPGPU-Sim uArch: Shader 0 finished CTA #2 (36428,0), 5 CTAs running
GPGPU-Sim uArch: core:  0, cta: 2 initialized @(36429,0)
GPGPU-Sim uArch: Shader 2 finished CTA #3 (36550,0), 5 CTAs running
GPGPU-Sim uArch: core:  2, cta: 3 initialized @(36551,0)
GPGPU-Sim uArch: Shader 10 finished CTA #4 (36725,0), 5 CTAs running
GPGPU-Sim uArch: core: 10, cta: 4 initialized @(36726,0)
GPGPU-Sim uArch: Shader 11 finished CTA #3 (36734,0), 5 CTAs running
GPGPU-Sim uArch: core: 11, cta: 3 initialized @(36735,0)
GPGPU-Sim uArch: Shader 0 finished CTA #0 (36748,0), 5 CTAs running
GPGPU-Sim uArch: core:  0, cta: 0 initialized @(36749,0)
GPGPU-Sim uArch: Shader 10 finished CTA #0 (36854,0), 5 CTAs running
GPGPU-Sim uArch: core: 10, cta: 0 initialized @(36855,0)
GPGPU-Sim uArch: Shader 13 finished CTA #1 (36997,0), 5 CTAs running
GPGPU-Sim uArch: core: 13, cta: 1 initialized @(36998,0)
GPGPU-Sim uArch: Shader 0 finished CTA #5 (37038,0), 5 CTAs running
GPGPU-Sim uArch: core:  0, cta: 5 initialized @(37039,0)
GPGPU-Sim uArch: Shader 0 finished CTA #1 (37078,0), 5 CTAs running
GPGPU-Sim uArch: core:  0, cta: 1 initialized @(37079,0)
GPGPU-Sim uArch: Shader 0 finished CTA #3 (37224,0), 5 CTAs running
GPGPU-Sim uArch: core:  0, cta: 3 initialized @(37225,0)
GPGPU-Sim uArch: Shader 0 finished CTA #4 (37326,0), 5 CTAs running
GPGPU-Sim uArch: core:  0, cta: 4 initialized @(37327,0)
GPGPU-Sim uArch: cycles simulated: 37500  inst.: 1636704 (ipc=43.6) sim_rate=74395 (inst/sec) elapsed = 0:0:00:22 / Tue Mar 22 13:11:51 2016
GPGPU-Sim uArch: Shader 10 finished CTA #1 (37541,0), 5 CTAs running
GPGPU-Sim uArch: core: 10, cta: 1 initialized @(37542,0)
GPGPU-Sim PTX: 1700000 instructions simulated : ctaid=(12,11,0) tid=(15,3,0)
GPGPU-Sim uArch: Shader 9 finished CTA #4 (37896,0), 5 CTAs running
GPGPU-Sim uArch: core:  9, cta: 4 initialized @(37897,0)
GPGPU-Sim uArch: Shader 2 finished CTA #2 (38137,0), 5 CTAs running
GPGPU-Sim uArch: core:  2, cta: 2 initialized @(38138,0)
GPGPU-Sim uArch: Shader 6 finished CTA #0 (38265,0), 5 CTAs running
GPGPU-Sim uArch: core:  6, cta: 0 initialized @(38266,0)
GPGPU-Sim uArch: Shader 11 finished CTA #4 (38331,0), 5 CTAs running
GPGPU-Sim uArch: core: 11, cta: 4 initialized @(38332,0)
GPGPU-Sim uArch: Shader 13 finished CTA #0 (38454,0), 5 CTAs running
GPGPU-Sim uArch: core: 13, cta: 0 initialized @(38455,0)
GPGPU-Sim uArch: Shader 4 finished CTA #4 (38603,0), 5 CTAs running
GPGPU-Sim uArch: core:  4, cta: 4 initialized @(38604,0)
GPGPU-Sim uArch: Shader 2 finished CTA #5 (38783,0), 5 CTAs running
GPGPU-Sim uArch: core:  2, cta: 5 initialized @(38784,0)
GPGPU-Sim uArch: Shader 13 finished CTA #2 (38983,0), 5 CTAs running
GPGPU-Sim uArch: core: 13, cta: 2 initialized @(38984,0)
GPGPU-Sim uArch: cycles simulated: 39000  inst.: 1724960 (ipc=44.2) sim_rate=74998 (inst/sec) elapsed = 0:0:00:23 / Tue Mar 22 13:11:52 2016
GPGPU-Sim uArch: Shader 13 finished CTA #3 (39039,0), 5 CTAs running
GPGPU-Sim uArch: core: 13, cta: 3 initialized @(39040,0)
GPGPU-Sim uArch: Shader 13 finished CTA #5 (39135,0), 5 CTAs running
GPGPU-Sim uArch: core: 13, cta: 5 initialized @(39136,0)
GPGPU-Sim uArch: Shader 11 finished CTA #5 (39279,0), 5 CTAs running
GPGPU-Sim uArch: core: 11, cta: 5 initialized @(39280,0)
GPGPU-Sim uArch: Shader 2 finished CTA #1 (39327,0), 5 CTAs running
GPGPU-Sim uArch: core:  2, cta: 1 initialized @(39328,0)
GPGPU-Sim uArch: Shader 3 finished CTA #3 (39329,0), 5 CTAs running
GPGPU-Sim uArch: core:  3, cta: 3 initialized @(39330,0)
GPGPU-Sim uArch: Shader 5 finished CTA #4 (39455,0), 5 CTAs running
GPGPU-Sim uArch: core:  5, cta: 4 initialized @(39456,0)
GPGPU-Sim PTX: 1800000 instructions simulated : ctaid=(13,11,0) tid=(15,7,0)
GPGPU-Sim uArch: Shader 9 finished CTA #2 (39731,0), 5 CTAs running
GPGPU-Sim uArch: core:  9, cta: 2 initialized @(39732,0)
GPGPU-Sim uArch: Shader 9 finished CTA #0 (39822,0), 5 CTAs running
GPGPU-Sim uArch: core:  9, cta: 0 initialized @(39823,0)
GPGPU-Sim uArch: Shader 9 finished CTA #1 (39852,0), 5 CTAs running
GPGPU-Sim uArch: core:  9, cta: 1 initialized @(39853,0)
GPGPU-Sim uArch: Shader 2 finished CTA #4 (39870,0), 5 CTAs running
GPGPU-Sim uArch: core:  2, cta: 4 initialized @(39871,0)
GPGPU-Sim uArch: Shader 9 finished CTA #3 (39931,0), 5 CTAs running
GPGPU-Sim uArch: core:  9, cta: 3 initialized @(39932,0)
GPGPU-Sim uArch: Shader 8 finished CTA #0 (40125,0), 5 CTAs running
GPGPU-Sim uArch: core:  8, cta: 0 initialized @(40126,0)
GPGPU-Sim uArch: Shader 4 finished CTA #3 (40381,0), 5 CTAs running
GPGPU-Sim uArch: core:  4, cta: 3 initialized @(40382,0)
GPGPU-Sim uArch: cycles simulated: 40500  inst.: 1810368 (ipc=44.7) sim_rate=75432 (inst/sec) elapsed = 0:0:00:24 / Tue Mar 22 13:11:53 2016
GPGPU-Sim uArch: Shader 11 finished CTA #1 (40649,0), 5 CTAs running
GPGPU-Sim uArch: core: 11, cta: 1 initialized @(40650,0)
GPGPU-Sim uArch: Shader 2 finished CTA #0 (40696,0), 5 CTAs running
GPGPU-Sim uArch: core:  2, cta: 0 initialized @(40697,0)
GPGPU-Sim PTX: 1900000 instructions simulated : ctaid=(5,11,0) tid=(15,13,0)
GPGPU-Sim uArch: Shader 9 finished CTA #5 (40998,0), 5 CTAs running
GPGPU-Sim uArch: core:  9, cta: 5 initialized @(40999,0)
GPGPU-Sim uArch: Shader 3 finished CTA #2 (41244,0), 5 CTAs running
GPGPU-Sim uArch: core:  3, cta: 2 initialized @(41245,0)
GPGPU-Sim uArch: Shader 4 finished CTA #0 (41381,0), 5 CTAs running
GPGPU-Sim uArch: core:  4, cta: 0 initialized @(41382,0)
GPGPU-Sim uArch: Shader 8 finished CTA #5 (41451,0), 5 CTAs running
GPGPU-Sim uArch: core:  8, cta: 5 initialized @(41452,0)
GPGPU-Sim uArch: Shader 3 finished CTA #5 (41672,0), 5 CTAs running
GPGPU-Sim uArch: core:  3, cta: 5 initialized @(41673,0)
GPGPU-Sim uArch: cycles simulated: 42000  inst.: 1906848 (ipc=45.4) sim_rate=76273 (inst/sec) elapsed = 0:0:00:25 / Tue Mar 22 13:11:54 2016
GPGPU-Sim uArch: Shader 1 finished CTA #0 (42761,0), 5 CTAs running
GPGPU-Sim uArch: core:  1, cta: 0 initialized @(42762,0)
GPGPU-Sim PTX: 2000000 instructions simulated : ctaid=(0,10,0) tid=(15,7,0)
GPGPU-Sim uArch: Shader 11 finished CTA #2 (43276,0), 5 CTAs running
GPGPU-Sim uArch: core: 11, cta: 2 initialized @(43277,0)
GPGPU-Sim uArch: cycles simulated: 43500  inst.: 1948896 (ipc=44.8) sim_rate=74957 (inst/sec) elapsed = 0:0:00:26 / Tue Mar 22 13:11:55 2016
GPGPU-Sim uArch: Shader 5 finished CTA #5 (44086,0), 5 CTAs running
GPGPU-Sim uArch: core:  5, cta: 5 initialized @(44087,0)
GPGPU-Sim uArch: Shader 5 finished CTA #3 (44730,0), 5 CTAs running
GPGPU-Sim uArch: core:  5, cta: 3 initialized @(44731,0)
GPGPU-Sim uArch: Shader 7 finished CTA #4 (44789,0), 5 CTAs running
GPGPU-Sim uArch: core:  7, cta: 4 initialized @(44790,0)
GPGPU-Sim uArch: Shader 5 finished CTA #2 (44802,0), 5 CTAs running
GPGPU-Sim uArch: core:  5, cta: 2 initialized @(44803,0)
GPGPU-Sim uArch: Shader 8 finished CTA #3 (44862,0), 5 CTAs running
GPGPU-Sim uArch: core:  8, cta: 3 initialized @(44863,0)
GPGPU-Sim uArch: Shader 7 finished CTA #0 (45016,0), 5 CTAs running
GPGPU-Sim uArch: core:  7, cta: 0 initialized @(45017,0)
GPGPU-Sim uArch: Shader 1 finished CTA #5 (45493,0), 5 CTAs running
GPGPU-Sim uArch: core:  1, cta: 5 initialized @(45494,0)
GPGPU-Sim uArch: cycles simulated: 45500  inst.: 1991008 (ipc=43.8) sim_rate=73741 (inst/sec) elapsed = 0:0:00:27 / Tue Mar 22 13:11:56 2016
GPGPU-Sim uArch: Shader 5 finished CTA #1 (45612,0), 5 CTAs running
GPGPU-Sim uArch: core:  5, cta: 1 initialized @(45613,0)
GPGPU-Sim uArch: Shader 1 finished CTA #2 (45717,0), 5 CTAs running
GPGPU-Sim uArch: core:  1, cta: 2 initialized @(45718,0)
GPGPU-Sim uArch: Shader 1 finished CTA #3 (46012,0), 5 CTAs running
GPGPU-Sim uArch: core:  1, cta: 3 initialized @(46013,0)
GPGPU-Sim PTX: 2100000 instructions simulated : ctaid=(13,14,0) tid=(15,1,0)
GPGPU-Sim uArch: Shader 10 finished CTA #3 (46564,0), 5 CTAs running
GPGPU-Sim uArch: core: 10, cta: 3 initialized @(46565,0)
GPGPU-Sim uArch: Shader 0 finished CTA #1 (46721,0), 5 CTAs running
GPGPU-Sim uArch: core:  0, cta: 1 initialized @(46722,0)
GPGPU-Sim uArch: Shader 1 finished CTA #4 (46928,0), 5 CTAs running
GPGPU-Sim uArch: core:  1, cta: 4 initialized @(46929,0)
GPGPU-Sim uArch: cycles simulated: 47000  inst.: 2068416 (ipc=44.0) sim_rate=73872 (inst/sec) elapsed = 0:0:00:28 / Tue Mar 22 13:11:57 2016
GPGPU-Sim uArch: Shader 10 finished CTA #4 (47347,0), 5 CTAs running
GPGPU-Sim uArch: core: 10, cta: 4 initialized @(47348,0)
GPGPU-Sim uArch: Shader 11 finished CTA #5 (47568,0), 5 CTAs running
GPGPU-Sim uArch: core: 11, cta: 5 initialized @(47569,0)
GPGPU-Sim uArch: Shader 7 finished CTA #3 (47646,0), 5 CTAs running
GPGPU-Sim uArch: core:  7, cta: 3 initialized @(47647,0)
GPGPU-Sim uArch: Shader 10 finished CTA #5 (48375,0), 5 CTAs running
GPGPU-Sim uArch: core: 10, cta: 5 initialized @(48376,0)
GPGPU-Sim uArch: Shader 6 finished CTA #3 (48581,0), 5 CTAs running
GPGPU-Sim uArch: core:  6, cta: 3 initialized @(48582,0)
GPGPU-Sim uArch: Shader 12 finished CTA #5 (48583,0), 5 CTAs running
GPGPU-Sim uArch: core: 12, cta: 5 initialized @(48584,0)
GPGPU-Sim uArch: Shader 10 finished CTA #2 (48665,0), 5 CTAs running
GPGPU-Sim uArch: core: 10, cta: 2 initialized @(48666,0)
GPGPU-Sim PTX: 2200000 instructions simulated : ctaid=(7,15,0) tid=(15,9,0)
GPGPU-Sim uArch: Shader 10 finished CTA #1 (48939,0), 5 CTAs running
GPGPU-Sim uArch: core: 10, cta: 1 initialized @(48940,0)
GPGPU-Sim uArch: cycles simulated: 49000  inst.: 2138304 (ipc=43.6) sim_rate=73734 (inst/sec) elapsed = 0:0:00:29 / Tue Mar 22 13:11:58 2016
GPGPU-Sim uArch: Shader 0 finished CTA #2 (49381,0), 5 CTAs running
GPGPU-Sim uArch: core:  0, cta: 2 initialized @(49382,0)
GPGPU-Sim uArch: Shader 10 finished CTA #0 (49401,0), 5 CTAs running
GPGPU-Sim uArch: core: 10, cta: 0 initialized @(49402,0)
GPGPU-Sim uArch: Shader 12 finished CTA #4 (49494,0), 5 CTAs running
GPGPU-Sim uArch: core: 12, cta: 4 initialized @(49495,0)
GPGPU-Sim uArch: Shader 6 finished CTA #5 (49714,0), 5 CTAs running
GPGPU-Sim uArch: core:  6, cta: 5 initialized @(49715,0)
GPGPU-Sim uArch: Shader 12 finished CTA #3 (49971,0), 5 CTAs running
GPGPU-Sim uArch: core: 12, cta: 3 initialized @(49972,0)
GPGPU-Sim uArch: Shader 0 finished CTA #0 (49998,0), 5 CTAs running
GPGPU-Sim uArch: core:  0, cta: 0 initialized @(49999,0)
GPGPU-Sim uArch: Shader 8 finished CTA #2 (50075,0), 5 CTAs running
GPGPU-Sim uArch: core:  8, cta: 2 initialized @(50076,0)
GPGPU-Sim uArch: Shader 12 finished CTA #2 (50171,0), 5 CTAs running
GPGPU-Sim uArch: core: 12, cta: 2 initialized @(50172,0)
GPGPU-Sim uArch: Shader 14 finished CTA #1 (50245,0), 5 CTAs running
GPGPU-Sim uArch: core: 14, cta: 1 initialized @(50246,0)
GPGPU-Sim uArch: Shader 8 finished CTA #4 (50410,0), 5 CTAs running
GPGPU-Sim uArch: core:  8, cta: 4 initialized @(50411,0)
GPGPU-Sim uArch: Shader 14 finished CTA #4 (50798,0), 5 CTAs running
GPGPU-Sim uArch: core: 14, cta: 4 initialized @(50799,0)
GPGPU-Sim uArch: Shader 14 finished CTA #3 (50813,0), 5 CTAs running
GPGPU-Sim uArch: core: 14, cta: 3 initialized @(50814,0)
GPGPU-Sim uArch: cycles simulated: 51000  inst.: 2224416 (ipc=43.6) sim_rate=74147 (inst/sec) elapsed = 0:0:00:30 / Tue Mar 22 13:11:59 2016
GPGPU-Sim uArch: Shader 14 finished CTA #0 (51006,0), 5 CTAs running
GPGPU-Sim uArch: core: 14, cta: 0 initialized @(51007,0)
GPGPU-Sim uArch: Shader 0 finished CTA #3 (51053,0), 5 CTAs running
GPGPU-Sim uArch: core:  0, cta: 3 initialized @(51054,0)
GPGPU-Sim PTX: 2300000 instructions simulated : ctaid=(10,16,0) tid=(15,5,0)
GPGPU-Sim uArch: Shader 12 finished CTA #0 (51102,0), 5 CTAs running
GPGPU-Sim uArch: core: 12, cta: 0 initialized @(51103,0)
GPGPU-Sim uArch: Shader 14 finished CTA #5 (51190,0), 5 CTAs running
GPGPU-Sim uArch: core: 14, cta: 5 initialized @(51191,0)
GPGPU-Sim uArch: Shader 7 finished CTA #5 (51318,0), 5 CTAs running
GPGPU-Sim uArch: core:  7, cta: 5 initialized @(51319,0)
GPGPU-Sim uArch: Shader 14 finished CTA #2 (51382,0), 5 CTAs running
GPGPU-Sim uArch: core: 14, cta: 2 initialized @(51383,0)
GPGPU-Sim uArch: Shader 0 finished CTA #5 (51798,0), 5 CTAs running
GPGPU-Sim uArch: core:  0, cta: 5 initialized @(51799,0)
GPGPU-Sim uArch: Shader 0 finished CTA #4 (52185,0), 5 CTAs running
GPGPU-Sim uArch: core:  0, cta: 4 initialized @(52186,0)
GPGPU-Sim uArch: Shader 3 finished CTA #1 (52349,0), 5 CTAs running
GPGPU-Sim uArch: core:  3, cta: 1 initialized @(52350,0)
GPGPU-Sim uArch: cycles simulated: 52500  inst.: 2325888 (ipc=44.3) sim_rate=75028 (inst/sec) elapsed = 0:0:00:31 / Tue Mar 22 13:12:00 2016
GPGPU-Sim PTX: 2400000 instructions simulated : ctaid=(1,17,0) tid=(15,3,0)
GPGPU-Sim uArch: Shader 13 finished CTA #1 (52672,0), 5 CTAs running
GPGPU-Sim uArch: core: 13, cta: 1 initialized @(52673,0)
GPGPU-Sim uArch: Shader 4 finished CTA #1 (52804,0), 5 CTAs running
GPGPU-Sim uArch: core:  4, cta: 1 initialized @(52805,0)
GPGPU-Sim uArch: Shader 4 finished CTA #2 (52914,0), 5 CTAs running
GPGPU-Sim uArch: core:  4, cta: 2 initialized @(52915,0)
GPGPU-Sim uArch: Shader 4 finished CTA #0 (52954,0), 5 CTAs running
GPGPU-Sim uArch: core:  4, cta: 0 initialized @(52955,0)
GPGPU-Sim uArch: Shader 2 finished CTA #5 (53325,0), 5 CTAs running
GPGPU-Sim uArch: core:  2, cta: 5 initialized @(53326,0)
GPGPU-Sim uArch: Shader 11 finished CTA #1 (53634,0), 5 CTAs running
GPGPU-Sim uArch: core: 11, cta: 1 initialized @(53635,0)
GPGPU-Sim uArch: Shader 4 finished CTA #4 (53690,0), 5 CTAs running
GPGPU-Sim uArch: core:  4, cta: 4 initialized @(53691,0)
GPGPU-Sim uArch: Shader 3 finished CTA #2 (53799,0), 5 CTAs running
GPGPU-Sim uArch: core:  3, cta: 2 initialized @(53800,0)
GPGPU-Sim uArch: Shader 3 finished CTA #4 (53822,0), 5 CTAs running
GPGPU-Sim uArch: core:  3, cta: 4 initialized @(53823,0)
GPGPU-Sim uArch: Shader 3 finished CTA #0 (54703,0), 5 CTAs running
GPGPU-Sim uArch: core:  3, cta: 0 initialized @(54704,0)
GPGPU-Sim uArch: cycles simulated: 55000  inst.: 2395072 (ipc=43.5) sim_rate=74846 (inst/sec) elapsed = 0:0:00:32 / Tue Mar 22 13:12:01 2016
GPGPU-Sim uArch: Shader 4 finished CTA #3 (55253,0), 5 CTAs running
GPGPU-Sim uArch: core:  4, cta: 3 initialized @(55254,0)
GPGPU-Sim uArch: Shader 4 finished CTA #5 (55282,0), 5 CTAs running
GPGPU-Sim uArch: core:  4, cta: 5 initialized @(55283,0)
GPGPU-Sim PTX: 2500000 instructions simulated : ctaid=(9,17,0) tid=(15,11,0)
GPGPU-Sim uArch: Shader 14 finished CTA #1 (55823,0), 5 CTAs running
GPGPU-Sim uArch: core: 14, cta: 1 initialized @(55824,0)
GPGPU-Sim uArch: Shader 2 finished CTA #3 (55848,0), 5 CTAs running
GPGPU-Sim uArch: core:  2, cta: 3 initialized @(55849,0)
GPGPU-Sim uArch: Shader 13 finished CTA #4 (55929,0), 5 CTAs running
GPGPU-Sim uArch: core: 13, cta: 4 initialized @(55930,0)
GPGPU-Sim uArch: Shader 11 finished CTA #0 (56412,0), 5 CTAs running
GPGPU-Sim uArch: core: 11, cta: 0 initialized @(56413,0)
GPGPU-Sim uArch: Shader 12 finished CTA #1 (56522,0), 5 CTAs running
GPGPU-Sim uArch: core: 12, cta: 1 initialized @(56523,0)
GPGPU-Sim uArch: Shader 13 finished CTA #5 (56893,0), 5 CTAs running
GPGPU-Sim uArch: core: 13, cta: 5 initialized @(56894,0)
GPGPU-Sim uArch: cycles simulated: 57000  inst.: 2488736 (ipc=43.7) sim_rate=75416 (inst/sec) elapsed = 0:0:00:33 / Tue Mar 22 13:12:02 2016
GPGPU-Sim uArch: Shader 8 finished CTA #5 (57115,0), 5 CTAs running
GPGPU-Sim uArch: core:  8, cta: 5 initialized @(57116,0)
GPGPU-Sim uArch: Shader 13 finished CTA #3 (57479,0), 5 CTAs running
GPGPU-Sim uArch: core: 13, cta: 3 initialized @(57480,0)
GPGPU-Sim uArch: Shader 8 finished CTA #1 (57541,0), 5 CTAs running
GPGPU-Sim uArch: core:  8, cta: 1 initialized @(57542,0)
GPGPU-Sim uArch: Shader 14 finished CTA #5 (57621,0), 5 CTAs running
GPGPU-Sim uArch: core: 14, cta: 5 initialized @(57622,0)
GPGPU-Sim uArch: Shader 6 finished CTA #0 (57686,0), 5 CTAs running
GPGPU-Sim uArch: core:  6, cta: 0 initialized @(57687,0)
GPGPU-Sim PTX: 2600000 instructions simulated : ctaid=(6,18,0) tid=(15,11,0)
GPGPU-Sim uArch: Shader 2 finished CTA #1 (57825,0), 5 CTAs running
GPGPU-Sim uArch: core:  2, cta: 1 initialized @(57826,0)
GPGPU-Sim uArch: Shader 6 finished CTA #1 (58029,0), 5 CTAs running
GPGPU-Sim uArch: core:  6, cta: 1 initialized @(58030,0)
GPGPU-Sim uArch: Shader 14 finished CTA #3 (58109,0), 5 CTAs running
GPGPU-Sim uArch: core: 14, cta: 3 initialized @(58110,0)
GPGPU-Sim uArch: Shader 11 finished CTA #2 (58250,0), 5 CTAs running
GPGPU-Sim uArch: core: 11, cta: 2 initialized @(58251,0)
GPGPU-Sim uArch: cycles simulated: 58500  inst.: 2554240 (ipc=43.7) sim_rate=75124 (inst/sec) elapsed = 0:0:00:34 / Tue Mar 22 13:12:03 2016
GPGPU-Sim uArch: Shader 14 finished CTA #4 (58603,0), 5 CTAs running
GPGPU-Sim uArch: core: 14, cta: 4 initialized @(58604,0)
GPGPU-Sim uArch: Shader 8 finished CTA #3 (58604,0), 5 CTAs running
GPGPU-Sim uArch: core:  8, cta: 3 initialized @(58605,0)
GPGPU-Sim uArch: Shader 8 finished CTA #2 (58617,0), 5 CTAs running
GPGPU-Sim uArch: core:  8, cta: 2 initialized @(58618,0)
GPGPU-Sim uArch: Shader 7 finished CTA #1 (58621,0), 5 CTAs running
GPGPU-Sim uArch: core:  7, cta: 1 initialized @(58622,0)
GPGPU-Sim uArch: Shader 11 finished CTA #3 (58672,0), 5 CTAs running
GPGPU-Sim uArch: core: 11, cta: 3 initialized @(58673,0)
GPGPU-Sim uArch: Shader 2 finished CTA #0 (58681,0), 5 CTAs running
GPGPU-Sim uArch: core:  2, cta: 0 initialized @(58682,0)
GPGPU-Sim uArch: Shader 6 finished CTA #3 (58847,0), 5 CTAs running
GPGPU-Sim uArch: core:  6, cta: 3 initialized @(58848,0)
GPGPU-Sim uArch: Shader 14 finished CTA #2 (58990,0), 5 CTAs running
GPGPU-Sim uArch: core: 14, cta: 2 initialized @(58991,0)
GPGPU-Sim uArch: Shader 8 finished CTA #0 (59012,0), 5 CTAs running
GPGPU-Sim uArch: core:  8, cta: 0 initialized @(59013,0)
GPGPU-Sim PTX: 2700000 instructions simulated : ctaid=(2,18,0) tid=(15,11,0)
GPGPU-Sim uArch: Shader 6 finished CTA #2 (59803,0), 5 CTAs running
GPGPU-Sim uArch: core:  6, cta: 2 initialized @(59804,0)
GPGPU-Sim uArch: cycles simulated: 60000  inst.: 2656352 (ipc=44.3) sim_rate=75895 (inst/sec) elapsed = 0:0:00:35 / Tue Mar 22 13:12:04 2016
GPGPU-Sim uArch: Shader 12 finished CTA #3 (60014,0), 5 CTAs running
GPGPU-Sim uArch: core: 12, cta: 3 initialized @(60015,0)
GPGPU-Sim uArch: Shader 7 finished CTA #4 (60590,0), 5 CTAs running
GPGPU-Sim uArch: core:  7, cta: 4 initialized @(60591,0)
GPGPU-Sim uArch: Shader 7 finished CTA #0 (60914,0), 5 CTAs running
GPGPU-Sim uArch: core:  7, cta: 0 initialized @(60915,0)
GPGPU-Sim uArch: cycles simulated: 61500  inst.: 2681696 (ipc=43.6) sim_rate=74491 (inst/sec) elapsed = 0:0:00:36 / Tue Mar 22 13:12:05 2016
GPGPU-Sim uArch: Shader 5 finished CTA #0 (61512,0), 5 CTAs running
GPGPU-Sim uArch: core:  5, cta: 0 initialized @(61513,0)
GPGPU-Sim uArch: Shader 9 finished CTA #0 (61659,0), 5 CTAs running
GPGPU-Sim uArch: core:  9, cta: 0 initialized @(61660,0)
GPGPU-Sim uArch: Shader 11 finished CTA #5 (61683,0), 5 CTAs running
GPGPU-Sim uArch: core: 11, cta: 5 initialized @(61684,0)
GPGPU-Sim uArch: Shader 7 finished CTA #2 (61722,0), 5 CTAs running
GPGPU-Sim uArch: core:  7, cta: 2 initialized @(61723,0)
GPGPU-Sim uArch: Shader 1 finished CTA #0 (61869,0), 5 CTAs running
GPGPU-Sim uArch: core:  1, cta: 0 initialized @(61870,0)
GPGPU-Sim uArch: Shader 9 finished CTA #1 (61947,0), 5 CTAs running
GPGPU-Sim uArch: core:  9, cta: 1 initialized @(61948,0)
GPGPU-Sim uArch: Shader 9 finished CTA #5 (62031,0), 5 CTAs running
GPGPU-Sim uArch: core:  9, cta: 5 initialized @(62032,0)
GPGPU-Sim PTX: 2800000 instructions simulated : ctaid=(7,19,0) tid=(15,9,0)
GPGPU-Sim uArch: Shader 9 finished CTA #2 (62167,0), 5 CTAs running
GPGPU-Sim uArch: core:  9, cta: 2 initialized @(62168,0)
GPGPU-Sim uArch: Shader 5 finished CTA #5 (62199,0), 5 CTAs running
GPGPU-Sim uArch: core:  5, cta: 5 initialized @(62200,0)
GPGPU-Sim uArch: Shader 1 finished CTA #2 (62248,0), 5 CTAs running
GPGPU-Sim uArch: core:  1, cta: 2 initialized @(62249,0)
GPGPU-Sim uArch: Shader 1 finished CTA #5 (62382,0), 5 CTAs running
GPGPU-Sim uArch: core:  1, cta: 5 initialized @(62383,0)
GPGPU-Sim uArch: Shader 9 finished CTA #4 (62439,0), 5 CTAs running
GPGPU-Sim uArch: core:  9, cta: 4 initialized @(62440,0)
GPGPU-Sim uArch: Shader 5 finished CTA #2 (62445,0), 5 CTAs running
GPGPU-Sim uArch: core:  5, cta: 2 initialized @(62446,0)
GPGPU-Sim uArch: Shader 1 finished CTA #1 (62471,0), 5 CTAs running
GPGPU-Sim uArch: core:  1, cta: 1 initialized @(62472,0)
GPGPU-Sim uArch: Shader 9 finished CTA #3 (62523,0), 5 CTAs running
GPGPU-Sim uArch: core:  9, cta: 3 initialized @(62524,0)
GPGPU-Sim uArch: Shader 12 finished CTA #2 (62633,0), 5 CTAs running
GPGPU-Sim uArch: core: 12, cta: 2 initialized @(62634,0)
GPGPU-Sim uArch: Shader 5 finished CTA #1 (62644,0), 5 CTAs running
GPGPU-Sim uArch: core:  5, cta: 1 initialized @(62645,0)
GPGPU-Sim uArch: Shader 1 finished CTA #3 (62725,0), 5 CTAs running
GPGPU-Sim uArch: core:  1, cta: 3 initialized @(62726,0)
GPGPU-Sim uArch: Shader 5 finished CTA #3 (62769,0), 5 CTAs running
GPGPU-Sim uArch: core:  5, cta: 3 initialized @(62770,0)
GPGPU-Sim uArch: Shader 1 finished CTA #4 (62884,0), 5 CTAs running
GPGPU-Sim uArch: core:  1, cta: 4 initialized @(62885,0)
GPGPU-Sim PTX: 2900000 instructions simulated : ctaid=(5,20,0) tid=(15,3,0)
GPGPU-Sim uArch: Shader 5 finished CTA #4 (62965,0), 5 CTAs running
GPGPU-Sim uArch: core:  5, cta: 4 initialized @(62966,0)
GPGPU-Sim uArch: cycles simulated: 63000  inst.: 2817216 (ipc=44.7) sim_rate=76140 (inst/sec) elapsed = 0:0:00:37 / Tue Mar 22 13:12:06 2016
GPGPU-Sim uArch: Shader 12 finished CTA #0 (63050,0), 5 CTAs running
GPGPU-Sim uArch: core: 12, cta: 0 initialized @(63051,0)
GPGPU-Sim uArch: Shader 10 finished CTA #2 (63615,0), 5 CTAs running
GPGPU-Sim uArch: core: 10, cta: 2 initialized @(63616,0)
GPGPU-Sim uArch: Shader 10 finished CTA #5 (63667,0), 5 CTAs running
GPGPU-Sim uArch: core: 10, cta: 5 initialized @(63668,0)
GPGPU-Sim uArch: Shader 10 finished CTA #0 (63714,0), 5 CTAs running
GPGPU-Sim uArch: core: 10, cta: 0 initialized @(63715,0)
GPGPU-Sim uArch: Shader 10 finished CTA #1 (63748,0), 5 CTAs running
GPGPU-Sim uArch: core: 10, cta: 1 initialized @(63749,0)
GPGPU-Sim uArch: Shader 10 finished CTA #3 (63807,0), 5 CTAs running
GPGPU-Sim uArch: core: 10, cta: 3 initialized @(63808,0)
GPGPU-Sim uArch: Shader 10 finished CTA #4 (63890,0), 5 CTAs running
GPGPU-Sim uArch: core: 10, cta: 4 initialized @(63891,0)
GPGPU-Sim uArch: cycles simulated: 64500  inst.: 2896896 (ipc=44.9) sim_rate=76234 (inst/sec) elapsed = 0:0:00:38 / Tue Mar 22 13:12:07 2016
GPGPU-Sim uArch: Shader 3 finished CTA #5 (64694,0), 5 CTAs running
GPGPU-Sim uArch: core:  3, cta: 5 initialized @(64695,0)
GPGPU-Sim PTX: 3000000 instructions simulated : ctaid=(3,21,0) tid=(15,5,0)
GPGPU-Sim uArch: cycles simulated: 66000  inst.: 2931648 (ipc=44.4) sim_rate=75170 (inst/sec) elapsed = 0:0:00:39 / Tue Mar 22 13:12:08 2016
GPGPU-Sim uArch: Shader 3 finished CTA #3 (66130,0), 5 CTAs running
GPGPU-Sim uArch: core:  3, cta: 3 initialized @(66131,0)
GPGPU-Sim uArch: Shader 13 finished CTA #0 (66309,0), 5 CTAs running
GPGPU-Sim uArch: core: 13, cta: 0 initialized @(66310,0)
GPGPU-Sim uArch: Shader 0 finished CTA #4 (66725,0), 5 CTAs running
GPGPU-Sim uArch: core:  0, cta: 4 initialized @(66726,0)
GPGPU-Sim uArch: Shader 3 finished CTA #1 (66937,0), 5 CTAs running
GPGPU-Sim uArch: core:  3, cta: 1 initialized @(66938,0)
GPGPU-Sim uArch: Shader 2 finished CTA #2 (68438,0), 5 CTAs running
GPGPU-Sim uArch: core:  2, cta: 2 initialized @(68439,0)
GPGPU-Sim uArch: cycles simulated: 68500  inst.: 2982592 (ipc=43.5) sim_rate=74564 (inst/sec) elapsed = 0:0:00:40 / Tue Mar 22 13:12:09 2016
GPGPU-Sim uArch: Shader 3 finished CTA #4 (69069,0), 5 CTAs running
GPGPU-Sim uArch: core:  3, cta: 4 initialized @(69070,0)
GPGPU-Sim uArch: Shader 0 finished CTA #3 (69147,0), 5 CTAs running
GPGPU-Sim uArch: core:  0, cta: 3 initialized @(69148,0)
GPGPU-Sim uArch: Shader 0 finished CTA #1 (69340,0), 5 CTAs running
GPGPU-Sim uArch: core:  0, cta: 1 initialized @(69341,0)
GPGPU-Sim PTX: 3100000 instructions simulated : ctaid=(15,21,0) tid=(15,9,0)
GPGPU-Sim uArch: Shader 0 finished CTA #5 (69516,0), 5 CTAs running
GPGPU-Sim uArch: core:  0, cta: 5 initialized @(69517,0)
GPGPU-Sim uArch: Shader 0 finished CTA #2 (69529,0), 5 CTAs running
GPGPU-Sim uArch: core:  0, cta: 2 initialized @(69530,0)
GPGPU-Sim uArch: Shader 2 finished CTA #4 (69757,0), 5 CTAs running
GPGPU-Sim uArch: core:  2, cta: 4 initialized @(69758,0)
GPGPU-Sim uArch: Shader 9 finished CTA #5 (70231,0), 5 CTAs running
GPGPU-Sim uArch: core:  9, cta: 5 initialized @(70232,0)
GPGPU-Sim uArch: Shader 13 finished CTA #1 (70298,0), 5 CTAs running
GPGPU-Sim uArch: core: 13, cta: 1 initialized @(70299,0)
GPGPU-Sim uArch: Shader 1 finished CTA #5 (70405,0), 5 CTAs running
GPGPU-Sim uArch: core:  1, cta: 5 initialized @(70406,0)
GPGPU-Sim uArch: cycles simulated: 70500  inst.: 3050240 (ipc=43.3) sim_rate=74396 (inst/sec) elapsed = 0:0:00:41 / Tue Mar 22 13:12:10 2016
GPGPU-Sim uArch: Shader 0 finished CTA #0 (70641,0), 5 CTAs running
GPGPU-Sim uArch: core:  0, cta: 0 initialized @(70642,0)
GPGPU-Sim uArch: Shader 13 finished CTA #2 (70919,0), 5 CTAs running
GPGPU-Sim uArch: core: 13, cta: 2 initialized @(70920,0)
GPGPU-Sim uArch: Shader 5 finished CTA #0 (71878,0), 5 CTAs running
GPGPU-Sim uArch: core:  5, cta: 0 initialized @(71879,0)
GPGPU-Sim uArch: cycles simulated: 72000  inst.: 3087168 (ipc=42.9) sim_rate=73504 (inst/sec) elapsed = 0:0:00:42 / Tue Mar 22 13:12:11 2016
GPGPU-Sim uArch: Shader 12 finished CTA #4 (72169,0), 5 CTAs running
GPGPU-Sim uArch: core: 12, cta: 4 initialized @(72170,0)
GPGPU-Sim uArch: Shader 1 finished CTA #0 (72344,0), 5 CTAs running
GPGPU-Sim uArch: core:  1, cta: 0 initialized @(72345,0)
GPGPU-Sim uArch: Shader 5 finished CTA #2 (72372,0), 5 CTAs running
GPGPU-Sim uArch: core:  5, cta: 2 initialized @(72373,0)
GPGPU-Sim uArch: Shader 2 finished CTA #3 (72377,0), 5 CTAs running
GPGPU-Sim uArch: core:  2, cta: 3 initialized @(72378,0)
GPGPU-Sim uArch: Shader 14 finished CTA #0 (72575,0), 5 CTAs running
GPGPU-Sim uArch: core: 14, cta: 0 initialized @(72576,0)
GPGPU-Sim PTX: 3200000 instructions simulated : ctaid=(13,22,0) tid=(15,9,0)
GPGPU-Sim uArch: Shader 6 finished CTA #1 (72815,0), 5 CTAs running
GPGPU-Sim uArch: core:  6, cta: 1 initialized @(72816,0)
GPGPU-Sim uArch: Shader 7 finished CTA #5 (72865,0), 5 CTAs running
GPGPU-Sim uArch: core:  7, cta: 5 initialized @(72866,0)
GPGPU-Sim uArch: Shader 4 finished CTA #3 (73260,0), 5 CTAs running
GPGPU-Sim uArch: core:  4, cta: 3 initialized @(73261,0)
GPGPU-Sim uArch: cycles simulated: 73500  inst.: 3126400 (ipc=42.5) sim_rate=72706 (inst/sec) elapsed = 0:0:00:43 / Tue Mar 22 13:12:12 2016
GPGPU-Sim uArch: Shader 9 finished CTA #4 (73511,0), 5 CTAs running
GPGPU-Sim uArch: core:  9, cta: 4 initialized @(73512,0)
GPGPU-Sim uArch: Shader 10 finished CTA #2 (73663,0), 5 CTAs running
GPGPU-Sim uArch: core: 10, cta: 2 initialized @(73664,0)
GPGPU-Sim uArch: Shader 7 finished CTA #1 (73732,0), 5 CTAs running
GPGPU-Sim uArch: core:  7, cta: 1 initialized @(73733,0)
GPGPU-Sim uArch: Shader 9 finished CTA #1 (74159,0), 5 CTAs running
GPGPU-Sim uArch: core:  9, cta: 1 initialized @(74160,0)
GPGPU-Sim uArch: Shader 10 finished CTA #5 (74306,0), 5 CTAs running
GPGPU-Sim uArch: core: 10, cta: 5 initialized @(74307,0)
GPGPU-Sim uArch: Shader 9 finished CTA #2 (74538,0), 5 CTAs running
GPGPU-Sim uArch: core:  9, cta: 2 initialized @(74539,0)
GPGPU-Sim uArch: Shader 10 finished CTA #0 (74660,0), 5 CTAs running
GPGPU-Sim uArch: core: 10, cta: 0 initialized @(74661,0)
GPGPU-Sim uArch: Shader 6 finished CTA #3 (74666,0), 5 CTAs running
GPGPU-Sim uArch: core:  6, cta: 3 initialized @(74667,0)
GPGPU-Sim uArch: Shader 5 finished CTA #5 (74872,0), 5 CTAs running
GPGPU-Sim uArch: core:  5, cta: 5 initialized @(74873,0)
GPGPU-Sim uArch: Shader 6 finished CTA #4 (74923,0), 5 CTAs running
GPGPU-Sim uArch: core:  6, cta: 4 initialized @(74924,0)
GPGPU-Sim PTX: 3300000 instructions simulated : ctaid=(2,23,0) tid=(15,11,0)
GPGPU-Sim uArch: cycles simulated: 75000  inst.: 3205952 (ipc=42.7) sim_rate=72862 (inst/sec) elapsed = 0:0:00:44 / Tue Mar 22 13:12:13 2016
GPGPU-Sim uArch: Shader 6 finished CTA #2 (75029,0), 5 CTAs running
GPGPU-Sim uArch: core:  6, cta: 2 initialized @(75030,0)
GPGPU-Sim uArch: Shader 8 finished CTA #5 (75036,0), 5 CTAs running
GPGPU-Sim uArch: core:  8, cta: 5 initialized @(75037,0)
GPGPU-Sim uArch: Shader 5 finished CTA #3 (75199,0), 5 CTAs running
GPGPU-Sim uArch: core:  5, cta: 3 initialized @(75200,0)
GPGPU-Sim uArch: Shader 6 finished CTA #0 (75251,0), 5 CTAs running
GPGPU-Sim uArch: core:  6, cta: 0 initialized @(75252,0)
GPGPU-Sim uArch: Shader 10 finished CTA #4 (75253,0), 5 CTAs running
GPGPU-Sim uArch: core: 10, cta: 4 initialized @(75254,0)
GPGPU-Sim uArch: Shader 4 finished CTA #4 (75289,0), 5 CTAs running
GPGPU-Sim uArch: core:  4, cta: 4 initialized @(75290,0)
GPGPU-Sim uArch: Shader 12 finished CTA #5 (75513,0), 5 CTAs running
GPGPU-Sim uArch: core: 12, cta: 5 initialized @(75514,0)
GPGPU-Sim uArch: Shader 11 finished CTA #2 (75528,0), 5 CTAs running
GPGPU-Sim uArch: core: 11, cta: 2 initialized @(75529,0)
GPGPU-Sim uArch: Shader 10 finished CTA #3 (75602,0), 5 CTAs running
GPGPU-Sim uArch: core: 10, cta: 3 initialized @(75603,0)
GPGPU-Sim uArch: Shader 6 finished CTA #5 (75603,0), 5 CTAs running
GPGPU-Sim uArch: core:  6, cta: 5 initialized @(75604,0)
GPGPU-Sim uArch: Shader 1 finished CTA #4 (75698,0), 5 CTAs running
GPGPU-Sim uArch: core:  1, cta: 4 initialized @(75699,0)
GPGPU-Sim uArch: Shader 4 finished CTA #0 (75742,0), 5 CTAs running
GPGPU-Sim uArch: core:  4, cta: 0 initialized @(75743,0)
GPGPU-Sim uArch: Shader 14 finished CTA #2 (75923,0), 5 CTAs running
GPGPU-Sim uArch: core: 14, cta: 2 initialized @(75924,0)
GPGPU-Sim uArch: Shader 4 finished CTA #5 (75968,0), 5 CTAs running
GPGPU-Sim uArch: core:  4, cta: 5 initialized @(75969,0)
GPGPU-Sim uArch: Shader 8 finished CTA #4 (75974,0), 5 CTAs running
GPGPU-Sim uArch: core:  8, cta: 4 initialized @(75975,0)
GPGPU-Sim uArch: Shader 10 finished CTA #1 (75985,0), 5 CTAs running
GPGPU-Sim uArch: core: 10, cta: 1 initialized @(75986,0)
GPGPU-Sim PTX: 3400000 instructions simulated : ctaid=(13,23,0) tid=(15,3,0)
GPGPU-Sim uArch: Shader 4 finished CTA #2 (76243,0), 5 CTAs running
GPGPU-Sim uArch: core:  4, cta: 2 initialized @(76244,0)
GPGPU-Sim uArch: Shader 7 finished CTA #3 (76292,0), 5 CTAs running
GPGPU-Sim uArch: core:  7, cta: 3 initialized @(76293,0)
GPGPU-Sim uArch: Shader 8 finished CTA #3 (76402,0), 5 CTAs running
GPGPU-Sim uArch: core:  8, cta: 3 initialized @(76403,0)
GPGPU-Sim uArch: Shader 4 finished CTA #1 (76446,0), 5 CTAs running
GPGPU-Sim uArch: core:  4, cta: 1 initialized @(76447,0)
GPGPU-Sim uArch: cycles simulated: 76500  inst.: 3360384 (ipc=43.9) sim_rate=74675 (inst/sec) elapsed = 0:0:00:45 / Tue Mar 22 13:12:14 2016
GPGPU-Sim uArch: Shader 11 finished CTA #5 (76502,0), 5 CTAs running
GPGPU-Sim uArch: core: 11, cta: 5 initialized @(76503,0)
GPGPU-Sim uArch: Shader 11 finished CTA #4 (76572,0), 5 CTAs running
GPGPU-Sim uArch: core: 11, cta: 4 initialized @(76573,0)
GPGPU-Sim uArch: Shader 11 finished CTA #0 (76666,0), 5 CTAs running
GPGPU-Sim uArch: core: 11, cta: 0 initialized @(76667,0)
GPGPU-Sim PTX: 3500000 instructions simulated : ctaid=(4,24,0) tid=(15,13,0)
GPGPU-Sim uArch: Shader 8 finished CTA #0 (76743,0), 5 CTAs running
GPGPU-Sim uArch: core:  8, cta: 0 initialized @(76744,0)
GPGPU-Sim uArch: Shader 11 finished CTA #1 (76766,0), 5 CTAs running
GPGPU-Sim uArch: core: 11, cta: 1 initialized @(76767,0)
GPGPU-Sim uArch: Shader 11 finished CTA #3 (76925,0), 5 CTAs running
GPGPU-Sim uArch: core: 11, cta: 3 initialized @(76926,0)
GPGPU-Sim uArch: Shader 8 finished CTA #2 (76957,0), 5 CTAs running
GPGPU-Sim uArch: core:  8, cta: 2 initialized @(76958,0)
GPGPU-Sim uArch: Shader 12 finished CTA #0 (77102,0), 5 CTAs running
GPGPU-Sim uArch: core: 12, cta: 0 initialized @(77103,0)
GPGPU-Sim uArch: Shader 14 finished CTA #3 (77126,0), 5 CTAs running
GPGPU-Sim uArch: core: 14, cta: 3 initialized @(77127,0)
GPGPU-Sim uArch: Shader 14 finished CTA #1 (77148,0), 5 CTAs running
GPGPU-Sim uArch: core: 14, cta: 1 initialized @(77149,0)
GPGPU-Sim uArch: cycles simulated: 78000  inst.: 3459840 (ipc=44.4) sim_rate=75213 (inst/sec) elapsed = 0:0:00:46 / Tue Mar 22 13:12:15 2016
GPGPU-Sim uArch: Shader 3 finished CTA #1 (78054,0), 5 CTAs running
GPGPU-Sim uArch: core:  3, cta: 1 initialized @(78055,0)
GPGPU-Sim uArch: Shader 12 finished CTA #3 (78510,0), 5 CTAs running
GPGPU-Sim uArch: core: 12, cta: 3 initialized @(78511,0)
GPGPU-Sim uArch: Shader 8 finished CTA #1 (78527,0), 5 CTAs running
GPGPU-Sim uArch: core:  8, cta: 1 initialized @(78528,0)
GPGPU-Sim uArch: Shader 3 finished CTA #3 (78801,0), 5 CTAs running
GPGPU-Sim uArch: core:  3, cta: 3 initialized @(78802,0)
GPGPU-Sim uArch: Shader 2 finished CTA #1 (78888,0), 5 CTAs running
GPGPU-Sim uArch: core:  2, cta: 1 initialized @(78889,0)
GPGPU-Sim PTX: 3600000 instructions simulated : ctaid=(4,25,0) tid=(15,7,0)
GPGPU-Sim uArch: Shader 2 finished CTA #2 (79038,0), 5 CTAs running
GPGPU-Sim uArch: core:  2, cta: 2 initialized @(79039,0)
GPGPU-Sim uArch: cycles simulated: 79500  inst.: 3511968 (ipc=44.2) sim_rate=74722 (inst/sec) elapsed = 0:0:00:47 / Tue Mar 22 13:12:16 2016
GPGPU-Sim uArch: Shader 13 finished CTA #0 (80764,0), 5 CTAs running
GPGPU-Sim uArch: core: 13, cta: 0 initialized @(80765,0)
GPGPU-Sim uArch: Shader 3 finished CTA #0 (80920,0), 5 CTAs running
GPGPU-Sim uArch: core:  3, cta: 0 initialized @(80921,0)
GPGPU-Sim uArch: Shader 3 finished CTA #4 (81012,0), 5 CTAs running
GPGPU-Sim uArch: core:  3, cta: 4 initialized @(81013,0)
GPGPU-Sim uArch: Shader 11 finished CTA #1 (81405,0), 5 CTAs running
GPGPU-Sim uArch: core: 11, cta: 1 initialized @(81406,0)
GPGPU-Sim uArch: cycles simulated: 81500  inst.: 3558400 (ipc=43.7) sim_rate=74133 (inst/sec) elapsed = 0:0:00:48 / Tue Mar 22 13:12:17 2016
GPGPU-Sim uArch: Shader 1 finished CTA #1 (81612,0), 5 CTAs running
GPGPU-Sim uArch: core:  1, cta: 1 initialized @(81613,0)
GPGPU-Sim uArch: Shader 11 finished CTA #0 (82091,0), 5 CTAs running
GPGPU-Sim uArch: core: 11, cta: 0 initialized @(82092,0)
GPGPU-Sim uArch: Shader 3 finished CTA #5 (82402,0), 5 CTAs running
GPGPU-Sim uArch: core:  3, cta: 5 initialized @(82403,0)
GPGPU-Sim PTX: 3700000 instructions simulated : ctaid=(15,25,0) tid=(15,1,0)
GPGPU-Sim uArch: Shader 7 finished CTA #2 (82569,0), 5 CTAs running
GPGPU-Sim uArch: core:  7, cta: 2 initialized @(82570,0)
GPGPU-Sim uArch: Shader 13 finished CTA #5 (82771,0), 5 CTAs running
GPGPU-Sim uArch: core: 13, cta: 5 initialized @(82772,0)
GPGPU-Sim uArch: Shader 13 finished CTA #3 (82916,0), 5 CTAs running
GPGPU-Sim uArch: core: 13, cta: 3 initialized @(82917,0)
GPGPU-Sim uArch: cycles simulated: 83000  inst.: 3600736 (ipc=43.4) sim_rate=73484 (inst/sec) elapsed = 0:0:00:49 / Tue Mar 22 13:12:18 2016
GPGPU-Sim uArch: Shader 0 finished CTA #1 (83376,0), 5 CTAs running
GPGPU-Sim uArch: core:  0, cta: 1 initialized @(83377,0)
GPGPU-Sim uArch: Shader 13 finished CTA #2 (83763,0), 5 CTAs running
GPGPU-Sim uArch: core: 13, cta: 2 initialized @(83764,0)
GPGPU-Sim uArch: Shader 5 finished CTA #1 (84072,0), 5 CTAs running
GPGPU-Sim uArch: core:  5, cta: 1 initialized @(84073,0)
GPGPU-Sim uArch: Shader 11 finished CTA #5 (84185,0), 5 CTAs running
GPGPU-Sim uArch: core: 11, cta: 5 initialized @(84186,0)
GPGPU-Sim uArch: cycles simulated: 84500  inst.: 3663264 (ipc=43.4) sim_rate=73265 (inst/sec) elapsed = 0:0:00:50 / Tue Mar 22 13:12:19 2016
GPGPU-Sim uArch: Shader 1 finished CTA #3 (85025,0), 5 CTAs running
GPGPU-Sim uArch: core:  1, cta: 3 initialized @(85026,0)
GPGPU-Sim uArch: Shader 11 finished CTA #3 (85286,0), 5 CTAs running
GPGPU-Sim uArch: core: 11, cta: 3 initialized @(85287,0)
GPGPU-Sim PTX: 3800000 instructions simulated : ctaid=(4,24,0) tid=(15,3,0)
GPGPU-Sim uArch: Shader 1 finished CTA #2 (85430,0), 5 CTAs running
GPGPU-Sim uArch: core:  1, cta: 2 initialized @(85431,0)
GPGPU-Sim uArch: Shader 7 finished CTA #4 (85494,0), 5 CTAs running
GPGPU-Sim uArch: core:  7, cta: 4 initialized @(85495,0)
GPGPU-Sim uArch: Shader 7 finished CTA #1 (85514,0), 5 CTAs running
GPGPU-Sim uArch: core:  7, cta: 1 initialized @(85515,0)
GPGPU-Sim uArch: Shader 9 finished CTA #3 (85822,0), 5 CTAs running
GPGPU-Sim uArch: core:  9, cta: 3 initialized @(85823,0)
GPGPU-Sim uArch: Shader 5 finished CTA #4 (86335,0), 5 CTAs running
GPGPU-Sim uArch: core:  5, cta: 4 initialized @(86336,0)
GPGPU-Sim uArch: Shader 0 finished CTA #5 (86385,0), 5 CTAs running
GPGPU-Sim uArch: core:  0, cta: 5 initialized @(86386,0)
GPGPU-Sim uArch: Shader 9 finished CTA #0 (86557,0), 5 CTAs running
GPGPU-Sim uArch: core:  9, cta: 0 initialized @(86558,0)
GPGPU-Sim uArch: Shader 9 finished CTA #4 (86581,0), 5 CTAs running
[...]
traffic_breakdown_memtocore[CONST_ACC_R] = 1080 {72:15,}
traffic_breakdown_memtocore[GLOBAL_ACC_R] = 16886168 {136:124163,}
traffic_breakdown_memtocore[GLOBAL_ACC_W] = 4718592 {8:589824,}
traffic_breakdown_memtocore[INST_ACC_R] = 12240 {136:90,}
maxmrqlatency = 418 
maxdqlatency = 0 
maxmflatency = 2126 
averagemflatency = 726 
max_icnt2mem_latency = 1609 
max_icnt2sh_latency = 1018365 
mrq_lat_table:290129 	13685 	17931 	66133 	242357 	260398 	216514 	46308 	390 	0 	0 	0 	0 	0 	0 	0 	0 	0 	0 	0 	0 	0 	0 	0 	0 	0 	0 	0 	0 	0 	0 	0 	
dq_lat_table:0 	0 	0 	0 	0 	0 	0 	0 	0 	0 	0 	0 	0 	0 	0 	0 	0 	0 	0 	0 	0 	0 	0 	0 	0 	0 	0 	0 	0 	0 	0 	0 	
mf_lat_table:0 	0 	0 	0 	0 	0 	0 	18708 	147428 	450756 	97108 	2 	0 	0 	0 	0 	0 	0 	0 	0 	0 	0 	0 	0 	0 	0 	0 	0 	0 	0 	0 	0 	
icnt2mem_lat_table:0 	0 	0 	23650 	11350 	78436 	69978 	69437 	278094 	181428 	1719 	0 	0 	0 	0 	0 	0 	0 	0 	0 	0 	0 	0 	0 	
icnt2sh_lat_table:0 	0 	0 	42213 	50428 	27823 	3702 	12 	0 	0 	0 	670 	1957 	4100 	9536 	20942 	40823 	81085 	165339 	265372 	0 	0 	0 	0 	
mf_lat_pw_table:0 	0 	0 	0 	0 	0 	0 	1 	54 	1962 	16 	0 	0 	0 	0 	0 	0 	0 	0 	0 	0 	0 	0 	0 	0 	0 	0 	0 	0 	0 	0 	0 	
maximum concurrent accesses to same row:
dram[0]:        32        31        32        32        32        32        32        32        32        32        32        32        32        32        32        32 
dram[1]:        32        32        32        27        32        32        32        32        32        32        32        32        32        32        32        32 
dram[2]:        32        32        32        32        32        32        32        32        32        32        32        32        32        32        32        32 
dram[3]:        32        32        32        32        32        32        32        32        32        32        32        32        32        32        32        32 
dram[4]:        32        32        32        32        32        32        32        32        32        32        32        32        32        32        32        32 
dram[5]:        32        32        32        32        32        32        32        32        32        32        32        32        32        32        32        32 
maximum service time to same row:
dram[0]:     21161     25887     19522     25875     19720     23647     22245     24341     22521     24113     15628     23485     21756     25819     20685     25810 
dram[1]:     17588     38425     19062     38416     18925     36506     19620     36925     20025     36663     19655     23691     20073     34532     18882     38435 
dram[2]:     25331     21153     25882     19487     23693     18694     24350     22313     24038     22540     23487     18774     25822     21747     25813     21746 
dram[3]:     38429     18907     38419     15768     36484     19165     36931     20410     36663     20024     23660     21844     34532     20065     38438     18881 
dram[4]:     16912     25884     19521     25872     18658     23679     22281     24340     22526     24100     19509     23491     21756     25816     21757     25807 
dram[5]:     18892     38422     18219     38413     19939     34994     20389     36922     20031     36604     16856     23651     20073     34537     20073     38432 
average row accesses per activate:
dram[0]:  2.130121  2.118498  2.123729  2.121511  2.133368  2.133795  2.130868  2.126036  2.108131  2.124657  2.147016  2.136564  2.141456  2.134040  2.143959  2.136458 
dram[1]:  2.115497  2.115180  2.120841  2.127292  2.113827  2.122987  2.115562  2.145091  2.131917  2.149680  2.117488  2.159410  2.135298  2.165869  2.141697  2.147938 
dram[2]:  2.127226  2.126891  2.116343  2.120151  2.122907  2.118621  2.126469  2.123904  2.116618  2.112432  2.144004  2.145315  2.133080  2.139815  2.129336  2.145034 
dram[3]:  2.115741  2.116527  2.133994  2.123098  2.132105  2.112400  2.146130  2.122076  2.143450  2.133733  2.148405  2.116237  2.167274  2.138237  2.151147  2.139302 
dram[4]:  2.124979  2.125498  2.118557  2.117077  2.133655  2.127583  2.123626  2.133252  2.118219  2.117778  2.147247  2.148763  2.139198  2.137983  2.151492  2.124717 
dram[5]:  2.119121  2.118385  2.123186  2.125346  2.116530  2.129993  2.116485  2.143625  2.131737  2.149161  2.116573  2.135859  2.137444  2.171851  2.136501  2.150322 
average row locality = 1153845/541448 = 2.131036
number of total memory accesses made:
dram[0]:         0         0         0         0         0         0         0         0         0         0         0         0         0         0         0         0 
dram[1]:         0         0         0         0         0         0         0         0         0         0         0         0         0         0         0         0 
dram[2]:         0         0         0         0         0         0         0         0         0         0         0         0         0         0         0         0 
dram[3]:         0         0         0         0         0         0         0         0         0         0         0         0         0         0         0         0 
dram[4]:         0         0         0         0         0         0         0         0         0         0         0         0         0         0         0         0 
dram[5]:         0         0         0         0         0         0         0         0         0         0         0         0         0         0         0         0 
total accesses: 0
min_bank_accesses = 0!
min_chip_accesses = 0!
number of total read accesses:
dram[0]:      6108      6050      6065      5993      6100      6060      6117      6063      6150      6120      5876      5771      5657      5584      5686      5604 
dram[1]:      6076      6080      6048      6038      6106      6118      6147      6098      6174      6163      5861      5830      5619      5631      5647      5664 
dram[2]:      6051      6098      5993      6088      6055      6136      6070      6091      6095      6158      5835      5837      5562      5651      5599      5696 
dram[3]:      6066      6078      6028      6024      6104      6124      6121      6162      6145      6197      5869      5857      5630      5619      5651      5650 
dram[4]:      6099      6032      6065      5995      6109      6098      6096      6074      6143      6131      5857      5774      5655      5589      5686      5592 
dram[5]:      6085      6062      6040      6011      6101      6095      6162      6105      6191      6166      5839      5844      5648      5623      5636      5661 
total reads: 570908
bank skew: 6197/5562 = 1.11
chip skew: 95325/94995 = 1.00
number of total write accesses:
dram[0]:      6268      6250      6259      6246      6265      6252      6274      6251      6269      6254      5924      5869      5697      5688      5707      5700 
dram[1]:      6251      6279      6255      6262      6262      6276      6265      6247      6270      6260      5908      5874      5681      5690      5689      5690 
dram[2]:      6255      6272      6231      6264      6243      6277      6238      6268      6247      6280      5912      5885      5690      5705      5695      5707 
dram[3]:      6273      6255      6251      6256      6275      6261      6245      6267      6242      6264      5915      5886      5681      5688      5692      5699 
dram[4]:      6279      6247      6265      6229      6279      6259      6272      6237      6274      6258      5882      5868      5702      5691      5704      5686 
dram[5]:      6261      6267      6249      6265      6268      6276      6266      6253      6269      6254      5872      5884      5689      5688      5696      5697 
total reads: 582937
bank skew: 6280/5681 = 1.11
chip skew: 97173/97132 = 1.00
average mf latency per bank:
dram[0]:        445       439       453       446       456       445       452       445       452       446       450       439       454       448       456       448
dram[1]:        453       451       448       441       457       452       455       455       442       442       459       455       447       450       447       451
dram[2]:        439       443       445       450       444       452       444       451       445       450       439       449       448       453       452       457
dram[3]:        453       459       444       453       452       458       452       458       443       444       455       454       451       448       451       450
dram[4]:        437       445       447       451       446       450       446       450       446       447       444       449       448       452       449       456
dram[5]:        450       457       447       448       455       457       454       460       438       447       447       457       440       453       444       455
maximum mf latency per bank:
dram[0]:       1846      1636      1790      1580      1744      1642      1789      1631      1651      1570      1793      1511      1744      1511      1799      1546
dram[1]:       2126      1647      2068      1556      1895      1622      1682      1704      1693      1596      2016      1614      1522      1479      1733      1501
dram[2]:       1513      1727      1747      1726      1662      1878      1672      1751      1561      1863      1592      1762      1588      1723      1483      1762
dram[3]:       1760      1857      1607      1824      1584      1649      1569      1655      1629      1663      1552      1850      1561      1727      1509      1695
dram[4]:       1747      1607      1655      1623      1914      1638      1873      1617      1689      1540      1878      1598      1733      1492      1659      1509
dram[5]:       2015      1679      1857      1582      1880      1695      1733      1665      1709      1739      1655      1703      1534      1614      1732      1539

Number of Memory Banks Accessed per Memory Operation per Warp (from 0):
0	0	0	0	0	0	0	0	0	0	0	0	0	0	0	0	0	0	0	0	0	0	0	0	0	0	0	0	0	0	0	0	0	0	0	0	0	0	0	0	0	0	0	0	0	0	0	0	0	0	0	0	0	0	0	0	0	0	0	0	0	0	0	0	0	0	0	0	0	0	0	0	0	0	0	0	0	0	0	0	0	0	0	0	0	0	0	0	0	0	0	0	0	0	0	0	
Average # of Memory Banks Accessed per Memory Operation per Warp=-nan

position of mrq chosen
0	0	0	0	0	0	0	0	0	0	0	0	0	0	0	0	

average position of mrq chosen = -nan
Memory Partition 0: 
Cache L2_bank_000:
MSHR contents

Cache L2_bank_001:
MSHR contents

In Dram Latency Queue (total = 0): 
DRAM[0]: 16 bks, busW=4 BL=8 CL=12, tRRD=2 tCCD=6, tRCD=12 tRAS=28 tRP=12 tRC=40
n_cmd=1344242 n_nop=872559 n_act=90210 n_pre=90194 n_req=192177 n_rd=190008 n_write=101271 bw_util=0.4334
n_activity=1226738 dram_eff=0.4749
bk0: 12216a 956145i bk1: 12100a 955618i bk2: 12130a 947058i bk3: 11986a 945054i bk4: 12200a 939414i bk5: 12120a 940273i bk6: 12234a 934471i bk7: 12126a 932658i bk8: 12300a 951471i bk9: 12240a 949827i bk10: 11752a 965089i bk11: 11542a 969662i bk12: 11314a 971646i bk13: 11168a 971877i bk14: 11372a 964988i bk15: 11208a 966929i 
dram_util_bins: 0 0 0 0 0 0 0 0 0 0
dram_eff_bins: 0 0 0 0 0 0 0 0 0 0
mrqq: max=16 avg=7.23181
Memory Partition 1: 
Cache L2_bank_002:
MSHR contents

Cache L2_bank_003:
MSHR contents
MSHR: tag=0x8071ff80, atomic=0 1 entries : 0x7fac271f8d70 :  mf: uid=16452627, sid14:w03, part=1, addr=0x8071ffc0, load , size=64, unknown  status = IN_PARTITION_DRAM (1018363), 

In Dram Latency Queue (total = 0): 
DRAM[1]: 16 bks, busW=4 BL=8 CL=12, tRRD=2 tCCD=6, tRCD=12 tRAS=28 tRP=12 tRC=40
n_cmd=1344242 n_nop=871847 n_act=90256 n_pre=90240 n_req=192459 n_rd=190600 n_write=101299 bw_util=0.4343
n_activity=1230635 dram_eff=0.4744
bk0: 12152a 957586i bk1: 12160a 949280i bk2: 12096a 952094i bk3: 12076a 945417i bk4: 12212a 939533i bk5: 12236a 933704i bk6: 12294a 932821i bk7: 12196a 931133i bk8: 12348a 951854i bk9: 12326a 949677i bk10: 11722a 963051i bk11: 11660a 964428i bk12: 11238a 972661i bk13: 11262a 968430i bk14: 11294a 969843i bk15: 11328a 963844i 
dram_util_bins: 0 0 0 0 0 0 0 0 0 0
dram_eff_bins: 0 0 0 0 0 0 0 0 0 0
mrqq: max=16 avg=7.25231
Memory Partition 2: 
Cache L2_bank_004:
MSHR contents

Cache L2_bank_005:
MSHR contents

In Dram Latency Queue (total = 0): 
DRAM[2]: 16 bks, busW=4 BL=8 CL=12, tRRD=2 tCCD=6, tRCD=12 tRAS=28 tRP=12 tRC=40
n_cmd=1344242 n_nop=872326 n_act=90326 n_pre=90310 n_req=192184 n_rd=190030 n_write=101250 bw_util=0.4334
n_activity=1226022 dram_eff=0.4752
bk0: 12102a 958842i bk1: 12196a 952347i bk2: 11986a 947832i bk3: 12176a 944546i bk4: 12110a 942938i bk5: 12272a 938868i bk6: 12140a 933776i bk7: 12182a 933433i bk8: 12190a 952593i bk9: 12316a 948050i bk10: 11670a 965735i bk11: 11674a 967802i bk12: 11124a 973716i bk13: 11302a 968813i bk14: 11198a 966623i bk15: 11392a 963224i 
dram_util_bins: 0 0 0 0 0 0 0 0 0 0
dram_eff_bins: 0 0 0 0 0 0 0 0 0 0
mrqq: max=16 avg=7.23414
Memory Partition 3: 
Cache L2_bank_006:
MSHR contents

Cache L2_bank_007:
MSHR contents

In Dram Latency Queue (total = 0): 
DRAM[3]: 16 bks, busW=4 BL=8 CL=12, tRRD=2 tCCD=6, tRCD=12 tRAS=28 tRP=12 tRC=40
n_cmd=1344242 n_nop=871875 n_act=90223 n_pre=90207 n_req=192475 n_rd=190650 n_write=101287 bw_util=0.4344
n_activity=1230898 dram_eff=0.4743
bk0: 12132a 952492i bk1: 12156a 955785i bk2: 12056a 946926i bk3: 12048a 949549i bk4: 12208a 933592i bk5: 12248a 937880i bk6: 12242a 931103i bk7: 12324a 927721i bk8: 12290a 952906i bk9: 12394a 951990i bk10: 11738a 961512i bk11: 11714a 963707i bk12: 11260a 970871i bk13: 11238a 973450i bk14: 11302a 965529i bk15: 11300a 969409i 
dram_util_bins: 0 0 0 0 0 0 0 0 0 0
dram_eff_bins: 0 0 0 0 0 0 0 0 0 0
mrqq: max=16 avg=7.24101
Memory Partition 4: 
Cache L2_bank_008:
MSHR contents

Cache L2_bank_009:
MSHR contents

In Dram Latency Queue (total = 0): 
DRAM[4]: 16 bks, busW=4 BL=8 CL=12, tRRD=2 tCCD=6, tRCD=12 tRAS=28 tRP=12 tRC=40
n_cmd=1344242 n_nop=872724 n_act=90189 n_pre=90173 n_req=192127 n_rd=189990 n_write=101166 bw_util=0.4332
n_activity=1224357 dram_eff=0.4756
bk0: 12198a 954295i bk1: 12064a 957155i bk2: 12130a 946309i bk3: 11990a 945316i bk4: 12218a 940221i bk5: 12196a 936700i bk6: 12192a 933148i bk7: 12148a 930941i bk8: 12286a 950676i bk9: 12262a 950254i bk10: 11714a 966936i bk11: 11548a 969483i bk12: 11310a 967514i bk13: 11178a 970895i bk14: 11372a 963371i bk15: 11184a 967262i 
dram_util_bins: 0 0 0 0 0 0 0 0 0 0
dram_eff_bins: 0 0 0 0 0 0 0 0 0 0
mrqq: max=16 avg=7.24391
Memory Partition 5: 
Cache L2_bank_010:
MSHR contents

Cache L2_bank_011:
MSHR contents

In Dram Latency Queue (total = 0): 
DRAM[5]: 16 bks, busW=4 BL=8 CL=12, tRRD=2 tCCD=6, tRCD=12 tRAS=28 tRP=12 tRC=40
n_cmd=1344242 n_nop=871935 n_act=90245 n_pre=90229 n_req=192423 n_rd=190538 n_write=101295 bw_util=0.4342
n_activity=1231049 dram_eff=0.4741
bk0: 12170a 959925i bk1: 12124a 950059i bk2: 12080a 951683i bk3: 12022a 945237i bk4: 12202a 940847i bk5: 12190a 933892i bk6: 12324a 932601i bk7: 12210a 927852i bk8: 12382a 954909i bk9: 12332a 949758i bk10: 11678a 965233i bk11: 11688a 961692i bk12: 11296a 974959i bk13: 11246a 971097i bk14: 11272a 968559i bk15: 11322a 961417i 
dram_util_bins: 0 0 0 0 0 0 0 0 0 0
dram_eff_bins: 0 0 0 0 0 0 0 0 0 0
mrqq: max=16 avg=7.23697

========= L2 cache stats =========
L2_cache_bank[0]: Access = 59517, Miss = 47759, Miss_rate = 0.802, Pending_hits = 5402, Reservation_fails = 288248
L2_cache_bank[1]: Access = 59439, Miss = 47245, Miss_rate = 0.795, Pending_hits = 5716, Reservation_fails = 282170
L2_cache_bank[2]: Access = 59616, Miss = 47678, Miss_rate = 0.800, Pending_hits = 5388, Reservation_fails = 290072
L2_cache_bank[3]: Access = 59503, Miss = 47622, Miss_rate = 0.800, Pending_hits = 5371, Reservation_fails = 279885
L2_cache_bank[4]: Access = 59506, Miss = 47260, Miss_rate = 0.794, Pending_hits = 5744, Reservation_fails = 282274
L2_cache_bank[5]: Access = 59455, Miss = 47755, Miss_rate = 0.803, Pending_hits = 5432, Reservation_fails = 285887
L2_cache_bank[6]: Access = 59542, Miss = 47614, Miss_rate = 0.800, Pending_hits = 5291, Reservation_fails = 279298
L2_cache_bank[7]: Access = 59559, Miss = 47711, Miss_rate = 0.801, Pending_hits = 5431, Reservation_fails = 289239
L2_cache_bank[8]: Access = 59454, Miss = 47710, Miss_rate = 0.802, Pending_hits = 5500, Reservation_fails = 284668
L2_cache_bank[9]: Access = 59437, Miss = 47285, Miss_rate = 0.796, Pending_hits = 5674, Reservation_fails = 282669
L2_cache_bank[10]: Access = 59559, Miss = 47702, Miss_rate = 0.801, Pending_hits = 5400, Reservation_fails = 286834
L2_cache_bank[11]: Access = 59505, Miss = 47567, Miss_rate = 0.799, Pending_hits = 5354, Reservation_fails = 280844
L2_total_cache_accesses = 714092
L2_total_cache_misses = 570908
L2_total_cache_miss_rate = 0.7995
L2_total_cache_pending_hits = 65703
L2_total_cache_reservation_fails = 3412088
L2_total_cache_breakdown:
	L2_cache_stats_breakdown[GLOBAL_ACC_R][HIT] = 45886
	L2_cache_stats_breakdown[GLOBAL_ACC_R][HIT_RESERVED] = 11792
	L2_cache_stats_breakdown[GLOBAL_ACC_R][MISS] = 66485
	L2_cache_stats_breakdown[GLOBAL_ACC_R][RESERVATION_FAIL] = 19236
	L2_cache_stats_breakdown[CONST_ACC_R][HIT] = 11
	L2_cache_stats_breakdown[CONST_ACC_R][HIT_RESERVED] = 3
	L2_cache_stats_breakdown[CONST_ACC_R][MISS] = 1
	L2_cache_stats_breakdown[CONST_ACC_R][RESERVATION_FAIL] = 100
	L2_cache_stats_breakdown[GLOBAL_ACC_W][HIT] = 31518
	L2_cache_stats_breakdown[GLOBAL_ACC_W][HIT_RESERVED] = 53890
	L2_cache_stats_breakdown[GLOBAL_ACC_W][MISS] = 504416
	L2_cache_stats_breakdown[GLOBAL_ACC_W][RESERVATION_FAIL] = 3392101
	L2_cache_stats_breakdown[INST_ACC_R][HIT] = 66
	L2_cache_stats_breakdown[INST_ACC_R][HIT_RESERVED] = 18
	L2_cache_stats_breakdown[INST_ACC_R][MISS] = 6
	L2_cache_stats_breakdown[INST_ACC_R][RESERVATION_FAIL] = 651
L2_cache_data_port_util = 0.018
L2_cache_fill_port_util = 0.187

icnt_total_pkts_mem_to_simt=1211134
icnt_total_pkts_simt_to_mem=1369452
LD_mem_lat_dist  0 0 0 0 0 0 0 0 0 0 0 0 0 0 0 0 0 0 0 0 0 0 0 0 0 0 0
ST_mem_lat_dist  0 0 0 0 0 0 0 0 0 0 0 0 0 0 0 0 0 0 0 0 0 0 0 0 0 0 0
----------------------------Interconnect-DETAILS--------------------------------
Class 0:
Packet latency average = 72.5744
	minimum = 6
	maximum = 968
Network latency average = 44.1878
	minimum = 6
	maximum = 659
Slowest packet = 1179441
Flit latency average = 36.2476
	minimum = 6
	maximum = 659
Slowest flit = 2243299
Fragmentation average = 0.390699
	minimum = 0
	maximum = 386
Injected packet rate average = 0.0605122
	minimum = 0.0524225 (at node 2)
	maximum = 0.0683271 (at node 17)
Accepted packet rate average = 0.0605122
	minimum = 0.0524225 (at node 2)
	maximum = 0.0683271 (at node 17)
Injected flit rate average = 0.151019
	minimum = 0.105128 (at node 2)
	maximum = 0.20424 (at node 17)
Accepted flit rate average= 0.151019
	minimum = 0.136573 (at node 18)
	maximum = 0.176718 (at node 10)
Injected packet length average = 2.49568
Accepted packet length average = 2.49568
Total in-flight flits = 0 (0 measured)
====== Overall Traffic Statistics ======
====== Traffic class 0 ======
Packet latency average = 87.2352 (2 samples)
	minimum = 6 (2 samples)
	maximum = 1140 (2 samples)
Network latency average = 50.169 (2 samples)
	minimum = 6 (2 samples)
	maximum = 926 (2 samples)
Flit latency average = 49.3528 (2 samples)
	minimum = 6 (2 samples)
	maximum = 926 (2 samples)
Fragmentation average = 0.296485 (2 samples)
	minimum = 0 (2 samples)
	maximum = 446 (2 samples)
Injected packet rate average = 0.0554337 (2 samples)
	minimum = 0.0469934 (2 samples)
	maximum = 0.0625282 (2 samples)
Accepted packet rate average = 0.0554337 (2 samples)
	minimum = 0.0469934 (2 samples)
	maximum = 0.0625282 (2 samples)
Injected flit rate average = 0.117145 (2 samples)
	minimum = 0.0918916 (2 samples)
	maximum = 0.146987 (2 samples)
Accepted flit rate average = 0.117145 (2 samples)
	minimum = 0.0980142 (2 samples)
	maximum = 0.142158 (2 samples)
Injected packet size average = 2.11325 (2 samples)
Accepted packet size average = 2.11325 (2 samples)
Hops average = 1 (2 samples)
----------------------------END-of-Interconnect-DETAILS-------------------------
GPGPU-Sim API: Stream Manager State
