

        *** GPGPU-Sim Simulator Version 3.2.2  [build 0] ***


GPGPU-Sim PTX: simulation mode 0 (can change with PTX_SIM_MODE_FUNC environment variable:
               1=functional simulation only, 0=detailed performance simulator)
GPGPU-Sim: Configuration options:

-network_mode                           1 # Interconnection network mode
-inter_config_file   config_fermi_islip.icnt # Interconnection network config file
-gpgpu_ptx_use_cuobjdump                    1 # Use cuobjdump to extract ptx and sass from binaries
-gpgpu_experimental_lib_support                    0 # Try to extract code from cuda libraries [Broken because of unknown cudaGetExportTable]
-gpgpu_ptx_convert_to_ptxplus                    0 # Convert SASS (native ISA) to ptxplus and run ptxplus
-gpgpu_ptx_force_max_capability                   20 # Force maximum compute capability
-gpgpu_ptx_inst_debug_to_file                    0 # Dump executed instructions' debug information to file
-gpgpu_ptx_inst_debug_file       inst_debug.txt # Executed instructions' debug output file
-gpgpu_ptx_inst_debug_thread_uid                    1 # Thread UID for executed instructions' debug output
-gpgpu_simd_model                       1 # 1 = post-dominator
-gpgpu_shader_core_pipeline              1536:32 # shader core pipeline config, i.e., {<nthread>:<warpsize>}
-gpgpu_tex_cache:l1  4:128:24,L:R:m:N:L,F:128:4,128:2 # per-shader L1 texture cache  (READ-ONLY) config  {<nsets>:<bsize>:<assoc>,<rep>:<wr>:<alloc>:<wr_alloc>,<mshr>:<N>:<merge>,<mq>:<rf>}
-gpgpu_const_cache:l1 64:64:2,L:R:f:N:L,A:2:32,4 # per-shader L1 constant memory cache  (READ-ONLY) config  {<nsets>:<bsize>:<assoc>,<rep>:<wr>:<alloc>:<wr_alloc>,<mshr>:<N>:<merge>,<mq>} 
-gpgpu_cache:il1     4:128:4,L:R:f:N:L,A:2:32,4 # shader L1 instruction cache config  {<nsets>:<bsize>:<assoc>,<rep>:<wr>:<alloc>:<wr_alloc>,<mshr>:<N>:<merge>,<mq>} 
-gpgpu_cache:dl1     32:128:4,L:L:m:N:H,A:32:8,8:2,0,1:0:1:1:0:1,1:4:8:16:32:64,/sciclone/data10/hwang07/GPU_RESEARCH/swl/swl_outputs/RESULTS/lrr/ # per-shader L1 data cache config  {<nsets>:<bsize>:<assoc>,<rep>:<wr>:<alloc>:<wr_alloc>,<mshr>:<N>:<merge>,<mq> | none}
-gpgpu_cache:dl1PrefL1                 none # per-shader L1 data cache config  {<nsets>:<bsize>:<assoc>,<rep>:<wr>:<alloc>:<wr_alloc>,<mshr>:<N>:<merge>,<mq> | none}
-gpgpu_cache:dl1PreShared                 none # per-shader L1 data cache config  {<nsets>:<bsize>:<assoc>,<rep>:<wr>:<alloc>:<wr_alloc>,<mshr>:<N>:<merge>,<mq> | none}
-gmem_skip_L1D                          0 # global memory access skip L1D cache (implements -Xptxas -dlcm=cg, default=no skip)
-gpgpu_perfect_mem                      0 # enable perfect memory mode (no cache miss)
-n_regfile_gating_group                    4 # group of lanes that should be read/written together)
-gpgpu_clock_gated_reg_file                    0 # enable clock gated reg file for power calculations
-gpgpu_clock_gated_lanes                    0 # enable clock gated lanes for power calculations
-gpgpu_shader_registers                32768 # Number of registers per shader core. Limits number of concurrent CTAs. (default 8192)
-gpgpu_shader_cta                       8 # Maximum number of concurrent CTAs in shader (default 8)
-gpgpu_num_cta_barriers                   16 # Maximum number of named barriers per CTA (default 16)
-gpgpu_n_clusters                      15 # number of processing clusters
-gpgpu_n_cores_per_cluster                    1 # number of simd cores per cluster
-gpgpu_n_cluster_ejection_buffer_size                    8 # number of packets in ejection buffer
-gpgpu_n_ldst_response_buffer_size                    2 # number of response packets in ld/st unit ejection buffer
-gpgpu_shmem_size                   16384 # Size of shared memory per shader core (default 16kB)
-gpgpu_shmem_size                   49152 # Size of shared memory per shader core (default 16kB)
-gpgpu_shmem_size_PrefL1                16384 # Size of shared memory per shader core (default 16kB)
-gpgpu_shmem_size_PrefShared                16384 # Size of shared memory per shader core (default 16kB)
-gpgpu_shmem_num_banks                   32 # Number of banks in the shared memory in each shader core (default 16)
-gpgpu_shmem_limited_broadcast                    0 # Limit shared memory to do one broadcast per cycle (default on)
-gpgpu_shmem_warp_parts                    1 # Number of portions a warp is divided into for shared memory bank conflict check 
-gpgpu_warpdistro_shader                   -1 # Specify which shader core to collect the warp size distribution from
-gpgpu_warp_issue_shader                    0 # Specify which shader core to collect the warp issue distribution from
-gpgpu_local_mem_map                    1 # Mapping from local memory space address to simulated GPU physical address space (default = enabled)
-gpgpu_num_reg_banks                   16 # Number of register banks (default = 8)
-gpgpu_reg_bank_use_warp_id                    0 # Use warp ID in mapping registers to banks (default = off)
-gpgpu_operand_collector_num_units_sp                    6 # number of collector units (default = 4)
-gpgpu_operand_collector_num_units_sfu                    8 # number of collector units (default = 4)
-gpgpu_operand_collector_num_units_mem                    2 # number of collector units (default = 2)
-gpgpu_operand_collector_num_units_gen                    0 # number of collector units (default = 0)
-gpgpu_operand_collector_num_in_ports_sp                    2 # number of collector unit in ports (default = 1)
-gpgpu_operand_collector_num_in_ports_sfu                    1 # number of collector unit in ports (default = 1)
-gpgpu_operand_collector_num_in_ports_mem                    1 # number of collector unit in ports (default = 1)
-gpgpu_operand_collector_num_in_ports_gen                    0 # number of collector unit in ports (default = 0)
-gpgpu_operand_collector_num_out_ports_sp                    2 # number of collector unit in ports (default = 1)
-gpgpu_operand_collector_num_out_ports_sfu                    1 # number of collector unit in ports (default = 1)
-gpgpu_operand_collector_num_out_ports_mem                    1 # number of collector unit in ports (default = 1)
-gpgpu_operand_collector_num_out_ports_gen                    0 # number of collector unit in ports (default = 0)
-gpgpu_coalesce_arch                   13 # Coalescing arch (default = 13, anything else is off for now)
-gpgpu_num_sched_per_core                    2 # Number of warp schedulers per core
-gpgpu_max_insn_issue_per_warp                    1 # Max number of instructions that can be issued per warp in one cycle by scheduler
-gpgpu_simt_core_sim_order                    1 # Select the simulation order of cores in a cluster (0=Fix, 1=Round-Robin)
-gpgpu_pipeline_widths        2,1,1,2,1,1,2 # Pipeline widths ID_OC_SP,ID_OC_SFU,ID_OC_MEM,OC_EX_SP,OC_EX_SFU,OC_EX_MEM,EX_WB
-gpgpu_num_sp_units                     2 # Number of SP units (default=1)
-gpgpu_num_sfu_units                    1 # Number of SF units (default=1)
-gpgpu_num_mem_units                    1 # Number if ldst units (default=1) WARNING: not hooked up to anything
-gpgpu_scheduler                      lrr # Scheduler configuration: < lrr | gto | two_level_active > If two_level_active:<num_active_warps>:<inner_prioritization>:<outer_prioritization>For complete list of prioritization values see shader.h enum scheduler_prioritization_typeDefault: gto
-gpgpu_dram_scheduler                    1 # 0 = fifo, 1 = FR-FCFS (defaul)
-gpgpu_dram_partition_queues              8:8:8:8 # i2$:$2d:d2$:$2i
-l2_ideal                               0 # Use a ideal L2 cache that always hit
-gpgpu_cache:dl2     64:128:8,L:B:m:W:L,A:32:4,4:0,32 # unified banked L2 data cache config  {<nsets>:<bsize>:<assoc>,<rep>:<wr>:<alloc>:<wr_alloc>,<mshr>:<N>:<merge>,<mq>}
-gpgpu_cache:dl2_texture_only                    0 # L2 cache used for texture only
-gpgpu_n_mem                            6 # number of memory modules (e.g. memory controllers) in gpu
-gpgpu_n_sub_partition_per_mchannel                    2 # number of memory subpartition in each memory module
-gpgpu_n_mem_per_ctrlr                    2 # number of memory chips per memory controller
-gpgpu_memlatency_stat                   14 # track and display latency statistics 0x2 enables MC, 0x4 enables queue logs
-gpgpu_frfcfs_dram_sched_queue_size                   16 # 0 = unlimited (default); # entries per chip
-gpgpu_dram_return_queue_size                  116 # 0 = unlimited (default); # entries per chip
-gpgpu_dram_buswidth                    4 # default = 4 bytes (8 bytes per cycle at DDR)
-gpgpu_dram_burst_length                    8 # Burst length of each DRAM request (default = 4 data bus cycle)
-dram_data_command_freq_ratio                    4 # Frequency ratio between DRAM data bus and command bus (default = 2 times, i.e. DDR)
-gpgpu_dram_timing_opt nbk=16:CCD=2:RRD=6:RCD=12:RAS=28:RP=12:RC=40: CL=12:WL=4:CDLR=5:WR=12:nbkgrp=4:CCDL=3:RTPL=2 # DRAM timing parameters = {nbk:tCCD:tRRD:tRCD:tRAS:tRP:tRC:CL:WL:tCDLR:tWR:nbkgrp:tCCDL:tRTPL}
-rop_latency                          120 # ROP queue latency (default 85)
-dram_latency                         100 # DRAM latency (default 30)
-gpgpu_mem_addr_mapping dramid@8;00000000.00000000.00000000.00000000.0000RRRR.RRRRRRRR.BBBCCCCB.CCSSSSSS # mapping memory address to dram model {dramid@<start bit>;<memory address map>}
-gpgpu_mem_addr_test                    0 # run sweep test to check address mapping for aliased address
-gpgpu_mem_address_mask                    1 # 0 = old addressing mask, 1 = new addressing mask, 2 = new add. mask + flipped bank sel and chip sel bits
-gpuwattch_xml_file  gpuwattch_gtx480.xml # GPUWattch XML file
-power_simulation_enabled                    0 # Turn on power simulator (1=On, 0=Off)
-power_per_cycle_dump                    0 # Dump detailed power output each cycle
-power_trace_enabled                    0 # produce a file for the power trace (1=On, 0=Off)
-power_trace_zlevel                     6 # Compression level of the power trace output log (0=no comp, 9=highest)
-steady_power_levels_enabled                    0 # produce a file for the steady power levels (1=On, 0=Off)
-steady_state_definition                  8:4 # allowed deviation:number of samples
-gpgpu_max_cycle                        0 # terminates gpu simulation early (0 = no limit)
-gpgpu_max_insn                         0 # terminates gpu simulation early (0 = no limit)
-gpgpu_max_cta                          0 # terminates gpu simulation early (0 = no limit)
-gpgpu_runtime_stat                   500 # display runtime statistics such as dram utilization {<freq>:<flag>}
-liveness_message_freq                    1 # Minimum number of seconds between simulation liveness messages (0 = always print)
-gpgpu_flush_l1_cache                    0 # Flush L1 cache at the end of each kernel call
-gpgpu_flush_l2_cache                    0 # Flush L2 cache at the end of each kernel call
-gpgpu_deadlock_detect                    1 # Stop the simulation at deadlock (1=on (default), 0=off)
-gpgpu_ptx_instruction_classification                    0 # if enabled will classify ptx instruction types per kernel (Max 255 kernels now)
-gpgpu_ptx_sim_mode                     0 # Select between Performance (default) or Functional simulation (1)
-gpgpu_clock_domains 700.0:700.0:700.0:924.0 # Clock Domain Frequencies in MhZ {<Core Clock>:<ICNT Clock>:<L2 Clock>:<DRAM Clock>}
-gpgpu_max_concurrent_kernel                    8 # maximum kernels that can run concurrently on GPU
-gpgpu_cflog_interval                    0 # Interval between each snapshot in control flow logger
-visualizer_enabled                     0 # Turn on visualizer output (1=On, 0=Off)
-visualizer_outputfile                 NULL # Specifies the output log file for visualizer
-visualizer_zlevel                      6 # Compression level of the visualizer output log (0=no comp, 9=highest)
-trace_enabled                          0 # Turn on traces
-trace_components                    none # comma seperated list of traces to enable. Complete list found in trace_streams.tup. Default none
-trace_sampling_core                    0 # The core which is printed using CORE_DPRINTF. Default 0
-trace_sampling_memory_partition                   -1 # The memory partition which is printed using MEMPART_DPRINTF. Default -1 (i.e. all)
-enable_ptx_file_line_stats                    1 # Turn on PTX source line statistic profiling. (1 = On)
-ptx_line_stats_filename gpgpu_inst_stats.txt # Output file for PTX source line statistics.
-save_embedded_ptx                      0 # saves ptx files embedded in binary as <n>.ptx
-keep                                   0 # keep intermediate files created by GPGPU-Sim when interfacing with external programs
-gpgpu_ptx_save_converted_ptxplus                    0 # Saved converted ptxplus to a file
-ptx_opcode_latency_int         4,13,4,5,145 # Opcode latencies for integers <ADD,MAX,MUL,MAD,DIV>Default 1,1,19,25,145
-ptx_opcode_latency_fp          4,13,4,5,39 # Opcode latencies for single precision floating points <ADD,MAX,MUL,MAD,DIV>Default 1,1,1,1,30
-ptx_opcode_latency_dp         8,19,8,8,330 # Opcode latencies for double precision floating points <ADD,MAX,MUL,MAD,DIV>Default 8,8,8,8,335
-ptx_opcode_initiation_int            1,2,2,1,8 # Opcode initiation intervals for integers <ADD,MAX,MUL,MAD,DIV>Default 1,1,4,4,32
-ptx_opcode_initiation_fp            1,2,1,1,4 # Opcode initiation intervals for single precision floating points <ADD,MAX,MUL,MAD,DIV>Default 1,1,1,1,5
-ptx_opcode_initiation_dp         8,16,8,8,130 # Opcode initiation intervals for double precision floating points <ADD,MAX,MUL,MAD,DIV>Default 8,8,8,8,130
DRAM Timing Options:
nbk                                    16 # number of banks
CCD                                     2 # column to column delay
RRD                                     6 # minimal delay between activation of rows in different banks
RCD                                    12 # row to column delay
RAS                                    28 # time needed to activate row
RP                                     12 # time needed to precharge (deactivate) row
RC                                     40 # row cycle time
CDLR                                    5 # switching from write to read (changes tWTR)
WR                                     12 # last data-in to row precharge
CL                                     12 # CAS latency
WL                                      4 # Write latency
nbkgrp                                  4 # number of bank groups
CCDL                                    3 # column to column delay between accesses to different bank groups
RTPL                                    2 # read to precharge delay between accesses to different bank groups
Total number of memory sub partition = 12
addr_dec_mask[CHIP]  = 0000000000000000 	high:64 low:0
addr_dec_mask[BK]    = 000000000000e100 	high:16 low:8
addr_dec_mask[ROW]   = 000000000fff0000 	high:28 low:16
addr_dec_mask[COL]   = 0000000000001eff 	high:13 low:0
addr_dec_mask[BURST] = 000000000000003f 	high:6 low:0
sub_partition_id_mask = 0000000000000100
GPGPU-Sim uArch: clock freqs: 700000000.000000:700000000.000000:700000000.000000:924000000.000000
GPGPU-Sim uArch: clock periods: 0.00000000142857142857:0.00000000142857142857:0.00000000142857142857:0.00000000108225108225
*** Initializing Memory Statistics ***
GPGPU-Sim uArch: interconnect node map (shaderID+MemID to icntID)
GPGPU-Sim uArch: Memory nodes ID start from index: 15
GPGPU-Sim uArch:    0   1   2   3   4
GPGPU-Sim uArch:    5   6   7   8   9
GPGPU-Sim uArch:   10  11  12  13  14
GPGPU-Sim uArch:   15  16  17  18  19
GPGPU-Sim uArch:   20  21  22  23  24
GPGPU-Sim uArch:   25  26
GPGPU-Sim uArch: interconnect node reverse map (icntID to shaderID+MemID)
GPGPU-Sim uArch: Memory nodes start from ID: 15
GPGPU-Sim uArch:    0   1   2   3   4
GPGPU-Sim uArch:    5   6   7   8   9
GPGPU-Sim uArch:   10  11  12  13  14
GPGPU-Sim uArch:   15  16  17  18  19
GPGPU-Sim uArch:   20  21  22  23  24
GPGPU-Sim uArch:   25  26
ed571f9300f8f30179105ef9c117947b  /sciclone/data10/hwang07/adwait/applications/benchmarks/shoc/bin/Serial/CUDA/Scan
GPGPU-Sim uArch: performance model initialization complete.
GPGPU-Sim PTX: __cudaRegisterFatBinary, fat_cubin_handle = 1, filename=Scan.cu
self exe links to: /sciclone/data10/hwang07/adwait/applications/benchmarks/shoc/bin/Serial/CUDA/Scan
Running md5sum using "md5sum /sciclone/data10/hwang07/adwait/applications/benchmarks/shoc/bin/Serial/CUDA/Scan "
Parsing file _cuobjdump_complete_output_YVTBeF
######### cuobjdump parser ########
## Adding new section ELF
Adding arch: sm_12
Adding identifier: Scan.cu
## Adding new section ELF
Adding arch: sm_20
Adding identifier: Scan.cu
## Adding new section PTX
Adding ptx filename: _cuobjdump_1.ptx
Adding arch: sm_20
Adding identifier: Scan.cu
## Adding new section ELF
Adding arch: sm_13
Adding identifier: Scan.cu
Done parsing!!!
GPGPU-Sim PTX: __cudaRegisterFunction _Z11bottom_scanId7double4Li256EEvPKT_PS1_S3_i : hostFun 0x0x4065b0, fat_cubin_handle = 1
GPGPU-Sim PTX: allocating stack frame region for .param "__cudaretf__Z12scanLocalMemIfLi256EET_S0_PVS0_" from 0x0 to 0x4
GPGPU-Sim PTX: allocating stack frame region for .param "__cudaparmf1__Z12scanLocalMemIfLi256EET_S0_PVS0_" from 0x4 to 0x8
GPGPU-Sim PTX: allocating stack frame region for .param "__cudaparmf2__Z12scanLocalMemIfLi256EET_S0_PVS0_" from 0x8 to 0x10
GPGPU-Sim PTX: allocating stack frame region for .param "__cudaretf__Z12scanLocalMemIdLi256EET_S0_PVS0_" from 0x0 to 0x8
GPGPU-Sim PTX: allocating stack frame region for .param "__cudaparmf1__Z12scanLocalMemIdLi256EET_S0_PVS0_" from 0x8 to 0x10
GPGPU-Sim PTX: allocating stack frame region for .param "__cudaparmf2__Z12scanLocalMemIdLi256EET_S0_PVS0_" from 0x10 to 0x18
GPGPU-Sim PTX: instruction assembly for function '_Z12scanLocalMemIfLi256EET_S0_PVS0_'...   done.
GPGPU-Sim PTX: finding reconvergence points for '_Z12scanLocalMemIfLi256EET_S0_PVS0_'...
GPGPU-Sim PTX: Finding dominators for '_Z12scanLocalMemIfLi256EET_S0_PVS0_'...
GPGPU-Sim PTX: Finding immediate dominators for '_Z12scanLocalMemIfLi256EET_S0_PVS0_'...
GPGPU-Sim PTX: Finding postdominators for '_Z12scanLocalMemIfLi256EET_S0_PVS0_'...
GPGPU-Sim PTX: Finding immediate postdominators for '_Z12scanLocalMemIfLi256EET_S0_PVS0_'...
GPGPU-Sim PTX: pre-decoding instructions for '_Z12scanLocalMemIfLi256EET_S0_PVS0_'...
GPGPU-Sim PTX: reconvergence points for _Z12scanLocalMemIfLi256EET_S0_PVS0_...
GPGPU-Sim PTX: ... end of reconvergence points for _Z12scanLocalMemIfLi256EET_S0_PVS0_
GPGPU-Sim PTX: ... done pre-decoding instructions for '_Z12scanLocalMemIfLi256EET_S0_PVS0_'.
GPGPU-Sim PTX: instruction assembly for function '_Z12scanLocalMemIdLi256EET_S0_PVS0_'...   done.
GPGPU-Sim PTX: finding reconvergence points for '_Z12scanLocalMemIdLi256EET_S0_PVS0_'...
GPGPU-Sim PTX: Finding dominators for '_Z12scanLocalMemIdLi256EET_S0_PVS0_'...
GPGPU-Sim PTX: Finding immediate dominators for '_Z12scanLocalMemIdLi256EET_S0_PVS0_'...
GPGPU-Sim PTX: Finding postdominators for '_Z12scanLocalMemIdLi256EET_S0_PVS0_'...
GPGPU-Sim PTX: Finding immediate postdominators for '_Z12scanLocalMemIdLi256EET_S0_PVS0_'...
GPGPU-Sim PTX: pre-decoding instructions for '_Z12scanLocalMemIdLi256EET_S0_PVS0_'...
GPGPU-Sim PTX: reconvergence points for _Z12scanLocalMemIdLi256EET_S0_PVS0_...
GPGPU-Sim PTX: ... end of reconvergence points for _Z12scanLocalMemIdLi256EET_S0_PVS0_
GPGPU-Sim PTX: ... done pre-decoding instructions for '_Z12scanLocalMemIdLi256EET_S0_PVS0_'.
GPGPU-Sim PTX: allocating shared region for "s_float" from 0x0 to 0x0 (shared memory space)
GPGPU-Sim PTX: instruction assembly for function '_Z6reduceIfLi256EEvPKT_PS0_i'...   done.
GPGPU-Sim PTX: finding reconvergence points for '_Z6reduceIfLi256EEvPKT_PS0_i'...
GPGPU-Sim PTX: Finding dominators for '_Z6reduceIfLi256EEvPKT_PS0_i'...
GPGPU-Sim PTX: Finding immediate dominators for '_Z6reduceIfLi256EEvPKT_PS0_i'...
GPGPU-Sim PTX: Finding postdominators for '_Z6reduceIfLi256EEvPKT_PS0_i'...
GPGPU-Sim PTX: Finding immediate postdominators for '_Z6reduceIfLi256EEvPKT_PS0_i'...
GPGPU-Sim PTX: pre-decoding instructions for '_Z6reduceIfLi256EEvPKT_PS0_i'...
GPGPU-Sim PTX: reconvergence points for _Z6reduceIfLi256EEvPKT_PS0_i...
GPGPU-Sim PTX:  1 (potential) branch divergence @  PC=0x490 (_1.ptx:274) @%p2 bra $Lt_2_16130;
GPGPU-Sim PTX:    immediate post dominator      @  PC=0x540 (_1.ptx:302) mov.u64 %rd5, s_float;
GPGPU-Sim PTX:  2 (potential) branch divergence @  PC=0x528 (_1.ptx:296) @%p3 bra $Lt_2_13570;
GPGPU-Sim PTX:    immediate post dominator      @  PC=0x530 (_1.ptx:297) bra.uni $Lt_2_13058;
GPGPU-Sim PTX:  3 (potential) branch divergence @  PC=0x530 (_1.ptx:297) bra.uni $Lt_2_13058;
GPGPU-Sim PTX:    immediate post dominator      @  PC=0x540 (_1.ptx:302) mov.u64 %rd5, s_float;
GPGPU-Sim PTX:  4 (potential) branch divergence @  PC=0x580 (_1.ptx:311) @%p4 bra $Lt_2_14082;
GPGPU-Sim PTX:    immediate post dominator      @  PC=0x5a8 (_1.ptx:319) bar.sync 0;
GPGPU-Sim PTX:  5 (potential) branch divergence @  PC=0x5c0 (_1.ptx:322) @%p5 bra $Lt_2_14594;
GPGPU-Sim PTX:    immediate post dominator      @  PC=0x5e8 (_1.ptx:329) bar.sync 0;
GPGPU-Sim PTX:  6 (potential) branch divergence @  PC=0x600 (_1.ptx:332) @%p6 bra $Lt_2_15106;
GPGPU-Sim PTX:    immediate post dominator      @  PC=0x6c8 (_1.ptx:364) mov.u32 %r30, 0;
GPGPU-Sim PTX:  7 (potential) branch divergence @  PC=0x6d8 (_1.ptx:366) @%p7 bra $Lt_2_15618;
GPGPU-Sim PTX:    immediate post dominator      @  PC=0x710 (_1.ptx:376) exit;
GPGPU-Sim PTX: ... end of reconvergence points for _Z6reduceIfLi256EEvPKT_PS0_i
GPGPU-Sim PTX: ... done pre-decoding instructions for '_Z6reduceIfLi256EEvPKT_PS0_i'.
GPGPU-Sim PTX: instruction assembly for function '_Z17scan_single_blockIfLi256EEvPT_i'...   done.
GPGPU-Sim PTX: finding reconvergence points for '_Z17scan_single_blockIfLi256EEvPT_i'...
GPGPU-Sim PTX: Finding dominators for '_Z17scan_single_blockIfLi256EEvPT_i'...
GPGPU-Sim PTX: Finding immediate dominators for '_Z17scan_single_blockIfLi256EEvPT_i'...
GPGPU-Sim PTX: Finding postdominators for '_Z17scan_single_blockIfLi256EEvPT_i'...
GPGPU-Sim PTX: Finding immediate postdominators for '_Z17scan_single_blockIfLi256EEvPT_i'...
GPGPU-Sim PTX: pre-decoding instructions for '_Z17scan_single_blockIfLi256EEvPT_i'...
GPGPU-Sim PTX: reconvergence points for _Z17scan_single_blockIfLi256EEvPT_i...
GPGPU-Sim PTX:  1 (potential) branch divergence @  PC=0x730 (_1.ptx:393) @!%p1 bra $Lt_3_6402;
GPGPU-Sim PTX:    immediate post dominator      @  PC=0x770 (_1.ptx:405) mov.u64 %rd5, s_float;
GPGPU-Sim PTX:  2 (potential) branch divergence @  PC=0x760 (_1.ptx:400) bra.uni $Lt_3_6146;
GPGPU-Sim PTX:    immediate post dominator      @  PC=0x770 (_1.ptx:405) mov.u64 %rd5, s_float;
GPGPU-Sim PTX:  3 (potential) branch divergence @  PC=0x940 (_1.ptx:483) @!%p1 bra $Lt_3_6658;
GPGPU-Sim PTX:    immediate post dominator      @  PC=0x970 (_1.ptx:492) exit;
GPGPU-Sim PTX: ... end of reconvergence points for _Z17scan_single_blockIfLi256EEvPT_i
GPGPU-Sim PTX: ... done pre-decoding instructions for '_Z17scan_single_blockIfLi256EEvPT_i'.
GPGPU-Sim PTX: allocating shared region for "__cuda_local_var_79804_31_non_const_s_seed" from 0x0 to 0x4 (shared memory space)
GPGPU-Sim PTX: instruction assembly for function '_Z11bottom_scanIf6float4Li256EEvPKT_PS1_S3_i'...   done.
GPGPU-Sim PTX: finding reconvergence points for '_Z11bottom_scanIf6float4Li256EEvPKT_PS1_S3_i'...
GPGPU-Sim PTX: Finding dominators for '_Z11bottom_scanIf6float4Li256EEvPKT_PS1_S3_i'...
GPGPU-Sim PTX: Finding immediate dominators for '_Z11bottom_scanIf6float4Li256EEvPKT_PS1_S3_i'...
GPGPU-Sim PTX: Finding postdominators for '_Z11bottom_scanIf6float4Li256EEvPKT_PS1_S3_i'...
GPGPU-Sim PTX: Finding immediate postdominators for '_Z11bottom_scanIf6float4Li256EEvPKT_PS1_S3_i'...
GPGPU-Sim PTX: pre-decoding instructions for '_Z11bottom_scanIf6float4Li256EEvPKT_PS1_S3_i'...
GPGPU-Sim PTX: reconvergence points for _Z11bottom_scanIf6float4Li256EEvPKT_PS1_S3_i...
GPGPU-Sim PTX:  1 (potential) branch divergence @  PC=0x9f0 (_1.ptx:526) @%p1 bra $Lt_4_9474;
GPGPU-Sim PTX:    immediate post dominator      @  PC=0xa28 (_1.ptx:536) bar.sync 0;
GPGPU-Sim PTX:  2 (potential) branch divergence @  PC=0xa58 (_1.ptx:542) @%p3 bra $Lt_4_9986;
GPGPU-Sim PTX:    immediate post dominator      @  PC=0xd90 (_1.ptx:687) exit;
GPGPU-Sim PTX:  3 (potential) branch divergence @  PC=0xae0 (_1.ptx:561) @!%p5 bra $Lt_4_11010;
GPGPU-Sim PTX:    immediate post dominator      @  PC=0xb38 (_1.ptx:577) add.f32 %f6, %f3, %f2;
GPGPU-Sim PTX:  4 (potential) branch divergence @  PC=0xb10 (_1.ptx:568) bra.uni $Lt_4_10754;
GPGPU-Sim PTX:    immediate post dominator      @  PC=0xb38 (_1.ptx:577) add.f32 %f6, %f3, %f2;
GPGPU-Sim PTX:  5 (potential) branch divergence @  PC=0xd28 (_1.ptx:665) @!%p5 bra $Lt_4_11266;
GPGPU-Sim PTX:    immediate post dominator      @  PC=0xd58 (_1.ptx:674) bar.sync 0;
GPGPU-Sim PTX:  6 (potential) branch divergence @  PC=0xd60 (_1.ptx:675) @!%p4 bra $Lt_4_11778;
GPGPU-Sim PTX:    immediate post dominator      @  PC=0xd70 (_1.ptx:680) add.s32 %r13, %r13, 256;
GPGPU-Sim PTX:  7 (potential) branch divergence @  PC=0xd88 (_1.ptx:684) @%p6 bra $Lt_4_10498;
GPGPU-Sim PTX:    immediate post dominator      @  PC=0xd90 (_1.ptx:687) exit;
GPGPU-Sim PTX: ... end of reconvergence points for _Z11bottom_scanIf6float4Li256EEvPKT_PS1_S3_i
GPGPU-Sim PTX: ... done pre-decoding instructions for '_Z11bottom_scanIf6float4Li256EEvPKT_PS1_S3_i'.
GPGPU-Sim PTX: allocating shared region for "s_double" from 0x0 to 0x0 (shared memory space)
GPGPU-Sim PTX: instruction assembly for function '_Z6reduceIdLi256EEvPKT_PS0_i'...   done.
GPGPU-Sim PTX: finding reconvergence points for '_Z6reduceIdLi256EEvPKT_PS0_i'...
GPGPU-Sim PTX: Finding dominators for '_Z6reduceIdLi256EEvPKT_PS0_i'...
GPGPU-Sim PTX: Finding immediate dominators for '_Z6reduceIdLi256EEvPKT_PS0_i'...
GPGPU-Sim PTX: Finding postdominators for '_Z6reduceIdLi256EEvPKT_PS0_i'...
GPGPU-Sim PTX: Finding immediate postdominators for '_Z6reduceIdLi256EEvPKT_PS0_i'...
GPGPU-Sim PTX: pre-decoding instructions for '_Z6reduceIdLi256EEvPKT_PS0_i'...
GPGPU-Sim PTX: reconvergence points for _Z6reduceIdLi256EEvPKT_PS0_i...
GPGPU-Sim PTX:  1 (potential) branch divergence @  PC=0xe38 (_1.ptx:724) @%p2 bra $Lt_5_16130;
GPGPU-Sim PTX:    immediate post dominator      @  PC=0xee8 (_1.ptx:752) mov.u64 %rd5, s_double;
GPGPU-Sim PTX:  2 (potential) branch divergence @  PC=0xed0 (_1.ptx:746) @%p3 bra $Lt_5_13570;
GPGPU-Sim PTX:    immediate post dominator      @  PC=0xed8 (_1.ptx:747) bra.uni $Lt_5_13058;
GPGPU-Sim PTX:  3 (potential) branch divergence @  PC=0xed8 (_1.ptx:747) bra.uni $Lt_5_13058;
GPGPU-Sim PTX:    immediate post dominator      @  PC=0xee8 (_1.ptx:752) mov.u64 %rd5, s_double;
GPGPU-Sim PTX:  4 (potential) branch divergence @  PC=0xf28 (_1.ptx:761) @%p4 bra $Lt_5_14082;
GPGPU-Sim PTX:    immediate post dominator      @  PC=0xf50 (_1.ptx:769) bar.sync 0;
GPGPU-Sim PTX:  5 (potential) branch divergence @  PC=0xf68 (_1.ptx:772) @%p5 bra $Lt_5_14594;
GPGPU-Sim PTX:    immediate post dominator      @  PC=0xf90 (_1.ptx:779) bar.sync 0;
GPGPU-Sim PTX:  6 (potential) branch divergence @  PC=0xfa8 (_1.ptx:782) @%p6 bra $Lt_5_15106;
GPGPU-Sim PTX:    immediate post dominator      @  PC=0x1070 (_1.ptx:814) mov.u32 %r30, 0;
GPGPU-Sim PTX:  7 (potential) branch divergence @  PC=0x1080 (_1.ptx:816) @%p7 bra $Lt_5_15618;
GPGPU-Sim PTX:    immediate post dominator      @  PC=0x10b8 (_1.ptx:826) exit;
GPGPU-Sim PTX: ... end of reconvergence points for _Z6reduceIdLi256EEvPKT_PS0_i
GPGPU-Sim PTX: ... done pre-decoding instructions for '_Z6reduceIdLi256EEvPKT_PS0_i'.
GPGPU-Sim PTX: instruction assembly for function '_Z17scan_single_blockIdLi256EEvPT_i'...   done.
GPGPU-Sim PTX: finding reconvergence points for '_Z17scan_single_blockIdLi256EEvPT_i'...
GPGPU-Sim PTX: Finding dominators for '_Z17scan_single_blockIdLi256EEvPT_i'...
GPGPU-Sim PTX: Finding immediate dominators for '_Z17scan_single_blockIdLi256EEvPT_i'...
GPGPU-Sim PTX: Finding postdominators for '_Z17scan_single_blockIdLi256EEvPT_i'...
GPGPU-Sim PTX: Finding immediate postdominators for '_Z17scan_single_blockIdLi256EEvPT_i'...
GPGPU-Sim PTX: pre-decoding instructions for '_Z17scan_single_blockIdLi256EEvPT_i'...
GPGPU-Sim PTX: reconvergence points for _Z17scan_single_blockIdLi256EEvPT_i...
GPGPU-Sim PTX:  1 (potential) branch divergence @  PC=0x10d8 (_1.ptx:843) @!%p1 bra $Lt_6_6402;
GPGPU-Sim PTX:    immediate post dominator      @  PC=0x1118 (_1.ptx:855) mov.u64 %rd5, s_double;
GPGPU-Sim PTX:  2 (potential) branch divergence @  PC=0x1108 (_1.ptx:850) bra.uni $Lt_6_6146;
GPGPU-Sim PTX:    immediate post dominator      @  PC=0x1118 (_1.ptx:855) mov.u64 %rd5, s_double;
GPGPU-Sim PTX:  3 (potential) branch divergence @  PC=0x12e8 (_1.ptx:933) @!%p1 bra $Lt_6_6658;
GPGPU-Sim PTX:    immediate post dominator      @  PC=0x1318 (_1.ptx:942) exit;
GPGPU-Sim PTX: ... end of reconvergence points for _Z17scan_single_blockIdLi256EEvPT_i
GPGPU-Sim PTX: ... done pre-decoding instructions for '_Z17scan_single_blockIdLi256EEvPT_i'.
GPGPU-Sim PTX: allocating shared region for "__cuda_local_var_79804_31_non_const_s_seed" from 0x0 to 0x8 (shared memory space)
GPGPU-Sim PTX: instruction assembly for function '_Z11bottom_scanId7double4Li256EEvPKT_PS1_S3_i'...   done.
GPGPU-Sim PTX: finding reconvergence points for '_Z11bottom_scanId7double4Li256EEvPKT_PS1_S3_i'...
GPGPU-Sim PTX: Finding dominators for '_Z11bottom_scanId7double4Li256EEvPKT_PS1_S3_i'...
GPGPU-Sim PTX: Finding immediate dominators for '_Z11bottom_scanId7double4Li256EEvPKT_PS1_S3_i'...
GPGPU-Sim PTX: Finding postdominators for '_Z11bottom_scanId7double4Li256EEvPKT_PS1_S3_i'...
GPGPU-Sim PTX: Finding immediate postdominators for '_Z11bottom_scanId7double4Li256EEvPKT_PS1_S3_i'...
GPGPU-Sim PTX: pre-decoding instructions for '_Z11bottom_scanId7double4Li256EEvPKT_PS1_S3_i'...
GPGPU-Sim PTX: reconvergence points for _Z11bottom_scanId7double4Li256EEvPKT_PS1_S3_i...
GPGPU-Sim PTX:  1 (potential) branch divergence @  PC=0x1398 (_1.ptx:976) @%p1 bra $Lt_7_9474;
GPGPU-Sim PTX:    immediate post dominator      @  PC=0x13d0 (_1.ptx:986) bar.sync 0;
GPGPU-Sim PTX:  2 (potential) branch divergence @  PC=0x1400 (_1.ptx:992) @%p3 bra $Lt_7_9986;
GPGPU-Sim PTX:    immediate post dominator      @  PC=0x1748 (_1.ptx:1139) exit;
GPGPU-Sim PTX:  3 (potential) branch divergence @  PC=0x1488 (_1.ptx:1011) @!%p5 bra $Lt_7_11010;
GPGPU-Sim PTX:    immediate post dominator      @  PC=0x14e8 (_1.ptx:1028) add.f64 %fd6, %fd3, %fd2;
GPGPU-Sim PTX:  4 (potential) branch divergence @  PC=0x14c0 (_1.ptx:1019) bra.uni $Lt_7_10754;
GPGPU-Sim PTX:    immediate post dominator      @  PC=0x14e8 (_1.ptx:1028) add.f64 %fd6, %fd3, %fd2;
GPGPU-Sim PTX:  5 (potential) branch divergence @  PC=0x16d8 (_1.ptx:1116) @!%p5 bra $Lt_7_11266;
GPGPU-Sim PTX:    immediate post dominator      @  PC=0x1710 (_1.ptx:1126) bar.sync 0;
GPGPU-Sim PTX:  6 (potential) branch divergence @  PC=0x1718 (_1.ptx:1127) @!%p4 bra $Lt_7_11778;
GPGPU-Sim PTX:    immediate post dominator      @  PC=0x1728 (_1.ptx:1132) add.s32 %r13, %r13, 256;
GPGPU-Sim PTX:  7 (potential) branch divergence @  PC=0x1740 (_1.ptx:1136) @%p6 bra $Lt_7_10498;
GPGPU-Sim PTX:    immediate post dominator      @  PC=0x1748 (_1.ptx:1139) exit;
GPGPU-Sim PTX: ... end of reconvergence points for _Z11bottom_scanId7double4Li256EEvPKT_PS1_S3_i
GPGPU-Sim PTX: ... done pre-decoding instructions for '_Z11bottom_scanId7double4Li256EEvPKT_PS1_S3_i'.
GPGPU-Sim PTX: finished parsing EMBEDDED .ptx file _1.ptx
Adding _cuobjdump_1.ptx with cubin handle 1
GPGPU-Sim PTX: extracting embedded .ptx to temporary file "_ptx_tH4EjM"
Running: cat _ptx_tH4EjM | sed 's/.version 1.5/.version 1.4/' | sed 's/, texmode_independent//' | sed 's/\(\.extern \.const\[1\] .b8 \w\+\)\[\]/\1\[1\]/' | sed 's/const\[.\]/const\[0\]/g' > _ptx2_6swApV
GPGPU-Sim PTX: generating ptxinfo using "$CUDA_INSTALL_PATH/bin/ptxas --gpu-name=sm_20 -v _ptx2_6swApV --output-file  /dev/null 2> _ptx_tH4EjMinfo"
GPGPU-Sim PTX: Kernel '_Z11bottom_scanId7double4Li256EEvPKT_PS1_S3_i' : regs=18, lmem=0, smem=16, cmem=60
GPGPU-Sim PTX: Kernel '_Z17scan_single_blockIdLi256EEvPT_i' : regs=8, lmem=0, smem=0, cmem=44
GPGPU-Sim PTX: Kernel '_Z6reduceIdLi256EEvPKT_PS0_i' : regs=17, lmem=0, smem=0, cmem=52
GPGPU-Sim PTX: Kernel '_Z11bottom_scanIf6float4Li256EEvPKT_PS1_S3_i' : regs=12, lmem=0, smem=16, cmem=60
GPGPU-Sim PTX: Kernel '_Z17scan_single_blockIfLi256EEvPT_i' : regs=6, lmem=0, smem=0, cmem=44
GPGPU-Sim PTX: Kernel '_Z6reduceIfLi256EEvPKT_PS0_i' : regs=12, lmem=0, smem=0, cmem=52
GPGPU-Sim PTX: removing ptxinfo using "rm -f _ptx_tH4EjM _ptx2_6swApV _ptx_tH4EjMinfo"
GPGPU-Sim PTX: loading globals with explicit initializers... 
GPGPU-Sim PTX: finished loading globals (0 bytes total).
GPGPU-Sim PTX: loading constants with explicit initializers...  done.
GPGPU-Sim PTX: __cudaRegisterFunction _Z17scan_single_blockIdLi256EEvPT_i : hostFun 0x0x406550, fat_cubin_handle = 1
GPGPU-Sim PTX: __cudaRegisterFunction _Z6reduceIdLi256EEvPKT_PS0_i : hostFun 0x0x4064d0, fat_cubin_handle = 1
GPGPU-Sim PTX: __cudaRegisterFunction _Z11bottom_scanIf6float4Li256EEvPKT_PS1_S3_i : hostFun 0x0x406440, fat_cubin_handle = 1
GPGPU-Sim PTX: __cudaRegisterFunction _Z17scan_single_blockIfLi256EEvPT_i : hostFun 0x0x4063e0, fat_cubin_handle = 1
GPGPU-Sim PTX: __cudaRegisterFunction _Z6reduceIfLi256EEvPKT_PS0_i : hostFun 0x0x406360, fat_cubin_handle = 1
Chose device: name='GPGPU-Sim_vGPGPU-Sim Simulator Version 3.2.2 ' index=0
Running single precision test
Initializing host memory.
Copying data to device.
event update
event update
GPGPU-Sim API: cudaEventSynchronize ** waiting for event
GPGPU-Sim API: cudaEventSynchronize ** event detected
Running benchmark with size 262144
event update

GPGPU-Sim PTX: cudaLaunch for 0x0x406360 (mode=performance simulation) on stream 0
GPGPU-Sim PTX: pushing kernel '_Z6reduceIfLi256EEvPKT_PS0_i' to stream 0, gridDim= (64,1,1) blockDim = (256,1,1) 
kernel '_Z6reduceIfLi256EEvPKT_PS0_i' transfer to GPU hardware scheduler
GPGPU-Sim uArch: Shader 1 bind to kernel 1 '_Z6reduceIfLi256EEvPKT_PS0_i'
GPGPU-Sim uArch: CTA/core = 6, limited by: threads
GPGPU-Sim uArch: core:  1, cta: 0 initialized @(1,0)
GPGPU-Sim uArch: Shader 2 bind to kernel 1 '_Z6reduceIfLi256EEvPKT_PS0_i'
GPGPU-Sim uArch: core:  2, cta: 0 initialized @(1,0)
GPGPU-Sim uArch: Shader 3 bind to kernel 1 '_Z6reduceIfLi256EEvPKT_PS0_i'
GPGPU-Sim uArch: core:  3, cta: 0 initialized @(1,0)
GPGPU-Sim uArch: Shader 4 bind to kernel 1 '_Z6reduceIfLi256EEvPKT_PS0_i'
GPGPU-Sim uArch: core:  4, cta: 0 initialized @(1,0)
GPGPU-Sim uArch: Shader 5 bind to kernel 1 '_Z6reduceIfLi256EEvPKT_PS0_i'
GPGPU-Sim uArch: core:  5, cta: 0 initialized @(1,0)
GPGPU-Sim uArch: Shader 6 bind to kernel 1 '_Z6reduceIfLi256EEvPKT_PS0_i'
GPGPU-Sim uArch: core:  6, cta: 0 initialized @(1,0)
GPGPU-Sim uArch: Shader 7 bind to kernel 1 '_Z6reduceIfLi256EEvPKT_PS0_i'
GPGPU-Sim uArch: core:  7, cta: 0 initialized @(1,0)
GPGPU-Sim uArch: Shader 8 bind to kernel 1 '_Z6reduceIfLi256EEvPKT_PS0_i'
GPGPU-Sim uArch: core:  8, cta: 0 initialized @(1,0)
GPGPU-Sim uArch: Shader 9 bind to kernel 1 '_Z6reduceIfLi256EEvPKT_PS0_i'
GPGPU-Sim uArch: core:  9, cta: 0 initialized @(1,0)
GPGPU-Sim uArch: Shader 10 bind to kernel 1 '_Z6reduceIfLi256EEvPKT_PS0_i'
GPGPU-Sim uArch: core: 10, cta: 0 initialized @(1,0)
GPGPU-Sim uArch: Shader 11 bind to kernel 1 '_Z6reduceIfLi256EEvPKT_PS0_i'
GPGPU-Sim uArch: core: 11, cta: 0 initialized @(1,0)
GPGPU-Sim uArch: Shader 12 bind to kernel 1 '_Z6reduceIfLi256EEvPKT_PS0_i'
GPGPU-Sim uArch: core: 12, cta: 0 initialized @(1,0)
GPGPU-Sim uArch: Shader 13 bind to kernel 1 '_Z6reduceIfLi256EEvPKT_PS0_i'
GPGPU-Sim uArch: core: 13, cta: 0 initialized @(1,0)
GPGPU-Sim uArch: Shader 14 bind to kernel 1 '_Z6reduceIfLi256EEvPKT_PS0_i'
GPGPU-Sim uArch: core: 14, cta: 0 initialized @(1,0)
GPGPU-Sim uArch: Shader 0 bind to kernel 1 '_Z6reduceIfLi256EEvPKT_PS0_i'
GPGPU-Sim uArch: core:  0, cta: 0 initialized @(1,0)
GPGPU-Sim uArch: core:  1, cta: 1 initialized @(2,0)
GPGPU-Sim uArch: core:  2, cta: 1 initialized @(2,0)
GPGPU-Sim uArch: core:  3, cta: 1 initialized @(2,0)
GPGPU-Sim uArch: core:  4, cta: 1 initialized @(2,0)
GPGPU-Sim uArch: core:  5, cta: 1 initialized @(2,0)
GPGPU-Sim uArch: core:  6, cta: 1 initialized @(2,0)
GPGPU-Sim uArch: core:  7, cta: 1 initialized @(2,0)
GPGPU-Sim uArch: core:  8, cta: 1 initialized @(2,0)
GPGPU-Sim uArch: core:  9, cta: 1 initialized @(2,0)
GPGPU-Sim uArch: core: 10, cta: 1 initialized @(2,0)
GPGPU-Sim uArch: core: 11, cta: 1 initialized @(2,0)
GPGPU-Sim uArch: core: 12, cta: 1 initialized @(2,0)
GPGPU-Sim uArch: core: 13, cta: 1 initialized @(2,0)
GPGPU-Sim uArch: core: 14, cta: 1 initialized @(2,0)
GPGPU-Sim uArch: core:  0, cta: 1 initialized @(2,0)
GPGPU-Sim uArch: core:  1, cta: 2 initialized @(3,0)
GPGPU-Sim uArch: core:  2, cta: 2 initialized @(3,0)
GPGPU-Sim uArch: core:  3, cta: 2 initialized @(3,0)
GPGPU-Sim uArch: core:  4, cta: 2 initialized @(3,0)
GPGPU-Sim uArch: core:  5, cta: 2 initialized @(3,0)
GPGPU-Sim uArch: core:  6, cta: 2 initialized @(3,0)
GPGPU-Sim uArch: core:  7, cta: 2 initialized @(3,0)
GPGPU-Sim uArch: core:  8, cta: 2 initialized @(3,0)
GPGPU-Sim uArch: core:  9, cta: 2 initialized @(3,0)
GPGPU-Sim uArch: core: 10, cta: 2 initialized @(3,0)
GPGPU-Sim uArch: core: 11, cta: 2 initialized @(3,0)
GPGPU-Sim uArch: core: 12, cta: 2 initialized @(3,0)
GPGPU-Sim uArch: core: 13, cta: 2 initialized @(3,0)
GPGPU-Sim uArch: core: 14, cta: 2 initialized @(3,0)
GPGPU-Sim uArch: core:  0, cta: 2 initialized @(3,0)
GPGPU-Sim uArch: core:  1, cta: 3 initialized @(4,0)
GPGPU-Sim uArch: core:  2, cta: 3 initialized @(4,0)
GPGPU-Sim uArch: core:  3, cta: 3 initialized @(4,0)
GPGPU-Sim uArch: core:  4, cta: 3 initialized @(4,0)
GPGPU-Sim uArch: core:  5, cta: 3 initialized @(4,0)
GPGPU-Sim uArch: core:  6, cta: 3 initialized @(4,0)
GPGPU-Sim uArch: core:  7, cta: 3 initialized @(4,0)
GPGPU-Sim uArch: core:  8, cta: 3 initialized @(4,0)
GPGPU-Sim uArch: core:  9, cta: 3 initialized @(4,0)
GPGPU-Sim uArch: core: 10, cta: 3 initialized @(4,0)
GPGPU-Sim uArch: core: 11, cta: 3 initialized @(4,0)
GPGPU-Sim uArch: core: 12, cta: 3 initialized @(4,0)
GPGPU-Sim uArch: core: 13, cta: 3 initialized @(4,0)
GPGPU-Sim uArch: core: 14, cta: 3 initialized @(4,0)
GPGPU-Sim uArch: core:  0, cta: 3 initialized @(4,0)
GPGPU-Sim uArch: core:  1, cta: 4 initialized @(5,0)
GPGPU-Sim uArch: core:  2, cta: 4 initialized @(5,0)
GPGPU-Sim uArch: core:  3, cta: 4 initialized @(5,0)
GPGPU-Sim uArch: core:  4, cta: 4 initialized @(5,0)
GPGPU-Sim uArch: cycles simulated: 500  inst.: 0 (ipc= 0.0) sim_rate=0 (inst/sec) elapsed = 0:0:00:09 / Tue Mar 22 07:38:44 2016
GPGPU-Sim PTX: 100000 instructions simulated : ctaid=(52,0,0) tid=(255,0,0)
GPGPU-Sim PTX: 200000 instructions simulated : ctaid=(44,0,0) tid=(127,0,0)
GPGPU-Sim PTX: 300000 instructions simulated : ctaid=(5,0,0) tid=(63,0,0)
GPGPU-Sim PTX: 400000 instructions simulated : ctaid=(46,0,0) tid=(95,0,0)
GPGPU-Sim PTX: 500000 instructions simulated : ctaid=(3,0,0) tid=(127,0,0)
GPGPU-Sim uArch: cycles simulated: 2000  inst.: 540288 (ipc=270.1) sim_rate=54028 (inst/sec) elapsed = 0:0:00:10 / Tue Mar 22 07:38:45 2016
GPGPU-Sim PTX: 600000 instructions simulated : ctaid=(50,0,0) tid=(223,0,0)
GPGPU-Sim uArch: cycles simulated: 2500  inst.: 569568 (ipc=227.8) sim_rate=18373 (inst/sec) elapsed = 0:0:00:31 / Tue Mar 22 07:39:06 2016
GPGPU-Sim PTX: 700000 instructions simulated : ctaid=(28,0,0) tid=(127,0,0)
GPGPU-Sim PTX: 800000 instructions simulated : ctaid=(55,0,0) tid=(223,0,0)
GPGPU-Sim uArch: cycles simulated: 3500  inst.: 798944 (ipc=228.3) sim_rate=24967 (inst/sec) elapsed = 0:0:00:32 / Tue Mar 22 07:39:07 2016
GPGPU-Sim PTX: 900000 instructions simulated : ctaid=(24,0,0) tid=(127,0,0)
GPGPU-Sim PTX: 1000000 instructions simulated : ctaid=(20,0,0) tid=(191,0,0)
GPGPU-Sim uArch: cycles simulated: 4500  inst.: 1042272 (ipc=231.6) sim_rate=31584 (inst/sec) elapsed = 0:0:00:33 / Tue Mar 22 07:39:08 2016
GPGPU-Sim PTX: 1100000 instructions simulated : ctaid=(10,0,0) tid=(63,0,0)
GPGPU-Sim PTX: 1200000 instructions simulated : ctaid=(28,0,0) tid=(223,0,0)
GPGPU-Sim PTX: 1300000 instructions simulated : ctaid=(3,0,0) tid=(255,0,0)
GPGPU-Sim PTX: 1400000 instructions simulated : ctaid=(12,0,0) tid=(63,0,0)
GPGPU-Sim uArch: cycles simulated: 6000  inst.: 1421632 (ipc=236.9) sim_rate=41812 (inst/sec) elapsed = 0:0:00:34 / Tue Mar 22 07:39:09 2016
GPGPU-Sim PTX: 1500000 instructions simulated : ctaid=(10,0,0) tid=(31,0,0)
GPGPU-Sim PTX: 1600000 instructions simulated : ctaid=(24,0,0) tid=(95,0,0)
GPGPU-Sim PTX: 1700000 instructions simulated : ctaid=(47,0,0) tid=(191,0,0)
GPGPU-Sim PTX: 1800000 instructions simulated : ctaid=(22,0,0) tid=(63,0,0)
GPGPU-Sim uArch: cycles simulated: 7500  inst.: 1800160 (ipc=240.0) sim_rate=51433 (inst/sec) elapsed = 0:0:00:35 / Tue Mar 22 07:39:10 2016
GPGPU-Sim PTX: 1900000 instructions simulated : ctaid=(5,0,0) tid=(223,0,0)
GPGPU-Sim PTX: 2000000 instructions simulated : ctaid=(22,0,0) tid=(191,0,0)
GPGPU-Sim PTX: 2100000 instructions simulated : ctaid=(37,0,0) tid=(255,0,0)
GPGPU-Sim PTX: 2200000 instructions simulated : ctaid=(43,0,0) tid=(31,0,0)
GPGPU-Sim PTX: 2300000 instructions simulated : ctaid=(63,0,0) tid=(191,0,0)
GPGPU-Sim uArch: cycles simulated: 9000  inst.: 2327104 (ipc=258.6) sim_rate=64641 (inst/sec) elapsed = 0:0:00:36 / Tue Mar 22 07:39:11 2016
GPGPU-Sim PTX: 2400000 instructions simulated : ctaid=(50,0,0) tid=(127,0,0)
GPGPU-Sim PTX: 2500000 instructions simulated : ctaid=(31,0,0) tid=(77,0,0)
GPGPU-Sim uArch: Shader 14 finished CTA #1 (9725,0), 3 CTAs running
GPGPU-Sim uArch: Shader 0 finished CTA #0 (9741,0), 3 CTAs running
GPGPU-Sim uArch: Shader 5 finished CTA #1 (9743,0), 3 CTAs running
GPGPU-Sim uArch: Shader 6 finished CTA #1 (9745,0), 3 CTAs running
GPGPU-Sim uArch: Shader 14 finished CTA #2 (9747,0), 2 CTAs running
GPGPU-Sim uArch: Shader 7 finished CTA #1 (9749,0), 3 CTAs running
GPGPU-Sim uArch: Shader 8 finished CTA #1 (9751,0), 3 CTAs running
GPGPU-Sim uArch: Shader 9 finished CTA #0 (9753,0), 3 CTAs running
GPGPU-Sim uArch: Shader 12 finished CTA #2 (9761,0), 3 CTAs running
GPGPU-Sim uArch: Shader 0 finished CTA #1 (9763,0), 2 CTAs running
GPGPU-Sim uArch: Shader 5 finished CTA #2 (9765,0), 2 CTAs running
GPGPU-Sim uArch: Shader 0 finished CTA #2 (9767,0), 1 CTAs running
GPGPU-Sim uArch: Shader 6 finished CTA #2 (9769,0), 2 CTAs running
GPGPU-Sim uArch: Shader 7 finished CTA #2 (9771,0), 2 CTAs running
GPGPU-Sim uArch: Shader 14 finished CTA #3 (9773,0), 1 CTAs running
GPGPU-Sim uArch: Shader 8 finished CTA #2 (9775,0), 2 CTAs running
GPGPU-Sim uArch: Shader 9 finished CTA #1 (9777,0), 2 CTAs running
GPGPU-Sim uArch: Shader 10 finished CTA #3 (9779,0), 3 CTAs running
GPGPU-Sim uArch: Shader 0 finished CTA #3 (9781,0), 0 CTAs running
GPGPU-Sim uArch: Shader 0 empty (release kernel 1 '_Z6reduceIfLi256EEvPKT_PS0_i').
GPGPU-Sim uArch: Shader 12 finished CTA #3 (9783,0), 2 CTAs running
GPGPU-Sim uArch: Shader 5 finished CTA #3 (9785,0), 1 CTAs running
GPGPU-Sim uArch: Shader 5 finished CTA #0 (9787,0), 0 CTAs running
GPGPU-Sim uArch: Shader 5 empty (release kernel 1 '_Z6reduceIfLi256EEvPKT_PS0_i').
GPGPU-Sim uArch: Shader 6 finished CTA #3 (9789,0), 1 CTAs running
GPGPU-Sim uArch: Shader 7 finished CTA #3 (9791,0), 1 CTAs running
GPGPU-Sim uArch: Shader 6 finished CTA #0 (9793,0), 0 CTAs running
GPGPU-Sim uArch: Shader 6 empty (release kernel 1 '_Z6reduceIfLi256EEvPKT_PS0_i').
GPGPU-Sim uArch: Shader 8 finished CTA #3 (9795,0), 1 CTAs running
GPGPU-Sim uArch: Shader 9 finished CTA #2 (9797,0), 1 CTAs running
GPGPU-Sim uArch: Shader 14 finished CTA #0 (9799,0), 0 CTAs running
GPGPU-Sim uArch: Shader 14 empty (release kernel 1 '_Z6reduceIfLi256EEvPKT_PS0_i').
GPGPU-Sim uArch: Shader 10 finished CTA #0 (9801,0), 2 CTAs running
GPGPU-Sim uArch: Shader 11 finished CTA #0 (9803,0), 3 CTAs running
GPGPU-Sim uArch: Shader 12 finished CTA #0 (9805,0), 1 CTAs running
GPGPU-Sim uArch: Shader 13 finished CTA #2 (9807,0), 3 CTAs running
GPGPU-Sim uArch: Shader 7 finished CTA #0 (9809,0), 0 CTAs running
GPGPU-Sim uArch: Shader 7 empty (release kernel 1 '_Z6reduceIfLi256EEvPKT_PS0_i').
GPGPU-Sim uArch: Shader 8 finished CTA #0 (9811,0), 0 CTAs running
GPGPU-Sim uArch: Shader 8 empty (release kernel 1 '_Z6reduceIfLi256EEvPKT_PS0_i').
GPGPU-Sim uArch: Shader 9 finished CTA #3 (9813,0), 0 CTAs running
GPGPU-Sim uArch: Shader 9 empty (release kernel 1 '_Z6reduceIfLi256EEvPKT_PS0_i').
GPGPU-Sim uArch: Shader 10 finished CTA #1 (9815,0), 1 CTAs running
GPGPU-Sim uArch: Shader 11 finished CTA #1 (9817,0), 2 CTAs running
GPGPU-Sim uArch: Shader 12 finished CTA #1 (9819,0), 0 CTAs running
GPGPU-Sim uArch: Shader 12 empty (release kernel 1 '_Z6reduceIfLi256EEvPKT_PS0_i').
GPGPU-Sim uArch: Shader 13 finished CTA #3 (9821,0), 2 CTAs running
GPGPU-Sim uArch: Shader 10 finished CTA #2 (9823,0), 0 CTAs running
GPGPU-Sim uArch: Shader 10 empty (release kernel 1 '_Z6reduceIfLi256EEvPKT_PS0_i').
GPGPU-Sim uArch: Shader 11 finished CTA #2 (9825,0), 1 CTAs running
GPGPU-Sim uArch: Shader 13 finished CTA #0 (9827,0), 1 CTAs running
GPGPU-Sim uArch: Shader 11 finished CTA #3 (9829,0), 0 CTAs running
GPGPU-Sim uArch: Shader 11 empty (release kernel 1 '_Z6reduceIfLi256EEvPKT_PS0_i').
GPGPU-Sim uArch: Shader 13 finished CTA #1 (9831,0), 0 CTAs running
GPGPU-Sim uArch: Shader 13 empty (release kernel 1 '_Z6reduceIfLi256EEvPKT_PS0_i').
GPGPU-Sim uArch: Shader 2 finished CTA #1 (10045,0), 4 CTAs running
GPGPU-Sim uArch: Shader 2 finished CTA #3 (10048,0), 3 CTAs running
GPGPU-Sim uArch: Shader 2 finished CTA #2 (10052,0), 2 CTAs running
GPGPU-Sim uArch: Shader 4 finished CTA #0 (10065,0), 4 CTAs running
GPGPU-Sim uArch: Shader 4 finished CTA #1 (10068,0), 3 CTAs running
GPGPU-Sim uArch: Shader 2 finished CTA #0 (10077,0), 1 CTAs running
GPGPU-Sim uArch: Shader 4 finished CTA #4 (10110,0), 2 CTAs running
GPGPU-Sim uArch: Shader 1 finished CTA #0 (10119,0), 4 CTAs running
GPGPU-Sim uArch: Shader 1 finished CTA #3 (10122,0), 3 CTAs running
GPGPU-Sim uArch: Shader 1 finished CTA #1 (10138,0), 2 CTAs running
GPGPU-Sim uArch: Shader 1 finished CTA #2 (10141,0), 1 CTAs running
GPGPU-Sim uArch: Shader 1 finished CTA #4 (10155,0), 0 CTAs running
GPGPU-Sim uArch: Shader 1 empty (release kernel 1 '_Z6reduceIfLi256EEvPKT_PS0_i').
GPGPU-Sim uArch: Shader 4 finished CTA #2 (10158,0), 1 CTAs running
GPGPU-Sim uArch: Shader 2 finished CTA #4 (10197,0), 0 CTAs running
GPGPU-Sim uArch: Shader 2 empty (release kernel 1 '_Z6reduceIfLi256EEvPKT_PS0_i').
GPGPU-Sim uArch: Shader 4 finished CTA #3 (10214,0), 0 CTAs running
GPGPU-Sim uArch: Shader 4 empty (release kernel 1 '_Z6reduceIfLi256EEvPKT_PS0_i').
GPGPU-Sim uArch: Shader 3 finished CTA #4 (10414,0), 4 CTAs running
GPGPU-Sim uArch: Shader 3 finished CTA #0 (10417,0), 3 CTAs running
GPGPU-Sim uArch: Shader 3 finished CTA #1 (10420,0), 2 CTAs running
GPGPU-Sim uArch: Shader 3 finished CTA #2 (10423,0), 1 CTAs running
GPGPU-Sim uArch: Shader 3 finished CTA #3 (10426,0), 0 CTAs running
GPGPU-Sim uArch: Shader 3 empty (release kernel 1 '_Z6reduceIfLi256EEvPKT_PS0_i').
GPGPU-Sim uArch: GPU detected kernel '_Z6reduceIfLi256EEvPKT_PS0_i' finished on shader 3.

GPGPU-Sim PTX: cudaLaunch for 0x0x4063e0 (mode=performance simulation) on stream 0
GPGPU-Sim PTX: pushing kernel '_Z17scan_single_blockIfLi256EEvPT_i' to stream 0, gridDim= (1,1,1) blockDim = (256,1,1) 
kernel_name = _Z6reduceIfLi256EEvPKT_PS0_i 
kernel_launch_uid = 1 
gpu_sim_cycle = 10427
gpu_sim_insn = 2541888
gpu_ipc =     243.7794
gpu_tot_sim_cycle = 10427
gpu_tot_sim_insn = 2541888
gpu_tot_ipc =     243.7794
gpu_tot_issued_cta = 64
gpu_stall_dramfull = 6394
gpu_stall_icnt2sh    = 41056
gpu_total_sim_rate=70608

========= Core cache stats =========
L1I_cache:
	L1I_total_cache_accesses = 49920
	L1I_total_cache_misses = 3518
	L1I_total_cache_miss_rate = 0.0705
	L1I_total_cache_pending_hits = 0
	L1I_total_cache_reservation_fails = 3146
L1D_cache:
	L1D_cache_core[0]: Access = 516, Miss = 516, Miss_rate = 1.000, Pending_hits = 0, Reservation_fails = 0
	L1D_cache_core[1]: Access = 645, Miss = 645, Miss_rate = 1.000, Pending_hits = 0, Reservation_fails = 6034
	L1D_cache_core[2]: Access = 645, Miss = 645, Miss_rate = 1.000, Pending_hits = 0, Reservation_fails = 6067
	L1D_cache_core[3]: Access = 645, Miss = 645, Miss_rate = 1.000, Pending_hits = 0, Reservation_fails = 6126
	L1D_cache_core[4]: Access = 645, Miss = 645, Miss_rate = 1.000, Pending_hits = 0, Reservation_fails = 5913
	L1D_cache_core[5]: Access = 516, Miss = 516, Miss_rate = 1.000, Pending_hits = 0, Reservation_fails = 0
	L1D_cache_core[6]: Access = 516, Miss = 516, Miss_rate = 1.000, Pending_hits = 0, Reservation_fails = 0
	L1D_cache_core[7]: Access = 516, Miss = 516, Miss_rate = 1.000, Pending_hits = 0, Reservation_fails = 0
	L1D_cache_core[8]: Access = 516, Miss = 516, Miss_rate = 1.000, Pending_hits = 0, Reservation_fails = 0
	L1D_cache_core[9]: Access = 516, Miss = 516, Miss_rate = 1.000, Pending_hits = 0, Reservation_fails = 0
	L1D_cache_core[10]: Access = 516, Miss = 516, Miss_rate = 1.000, Pending_hits = 0, Reservation_fails = 0
	L1D_cache_core[11]: Access = 516, Miss = 516, Miss_rate = 1.000, Pending_hits = 0, Reservation_fails = 0
	L1D_cache_core[12]: Access = 516, Miss = 516, Miss_rate = 1.000, Pending_hits = 0, Reservation_fails = 0
	L1D_cache_core[13]: Access = 516, Miss = 516, Miss_rate = 1.000, Pending_hits = 0, Reservation_fails = 0
	L1D_cache_core[14]: Access = 516, Miss = 516, Miss_rate = 1.000, Pending_hits = 0, Reservation_fails = 0
	L1D_total_cache_accesses = 8256
	L1D_total_cache_misses = 8256
	L1D_total_cache_miss_rate = 1.0000
	L1D_total_cache_pending_hits = 0
	L1D_total_cache_reservation_fails = 24140
	L1D_cache_data_port_util = 0.000
	L1D_cache_fill_port_util = 0.055
L1C_cache:
	L1C_total_cache_accesses = 1088
	L1C_total_cache_misses = 480
	L1C_total_cache_miss_rate = 0.4412
	L1C_total_cache_pending_hits = 0
	L1C_total_cache_reservation_fails = 918
L1T_cache:
	L1T_total_cache_accesses = 0
	L1T_total_cache_misses = 0
	L1T_total_cache_pending_hits = 0
	L1T_total_cache_reservation_fails = 0

Total_core_cache_stats:
	Total_core_cache_stats_breakdown[GLOBAL_ACC_R][MISS] = 8192
	Total_core_cache_stats_breakdown[GLOBAL_ACC_R][RESERVATION_FAIL] = 24140
	Total_core_cache_stats_breakdown[CONST_ACC_R][HIT] = 608
	Total_core_cache_stats_breakdown[CONST_ACC_R][MISS] = 480
	Total_core_cache_stats_breakdown[CONST_ACC_R][RESERVATION_FAIL] = 918
	Total_core_cache_stats_breakdown[GLOBAL_ACC_W][MISS] = 64
	Total_core_cache_stats_breakdown[INST_ACC_R][HIT] = 46402
	Total_core_cache_stats_breakdown[INST_ACC_R][MISS] = 3518
	Total_core_cache_stats_breakdown[INST_ACC_R][RESERVATION_FAIL] = 3146
Shader 0 warp_id issue ditsribution:
warp_id:
0, 1, 2, 3, 4, 5, 6, 7, 8, 9, 10, 11, 12, 13, 14, 15, 16, 17, 18, 19, 20, 21, 22, 23, 24, 25, 26, 27, 28, 29, 30, 31, 
distro:
190, 160, 156, 156, 152, 152, 152, 152, 190, 160, 156, 156, 152, 152, 152, 152, 190, 160, 156, 156, 152, 152, 152, 152, 190, 160, 156, 156, 152, 152, 152, 152, 
gpgpu_n_tot_thrd_icount = 2600960
gpgpu_n_tot_w_icount = 81280
gpgpu_n_stall_shd_mem = 25058
gpgpu_n_mem_read_local = 0
gpgpu_n_mem_write_local = 0
gpgpu_n_mem_read_global = 8192
gpgpu_n_mem_write_global = 64
gpgpu_n_mem_texture = 0
gpgpu_n_mem_const = 15
gpgpu_n_load_insn  = 262144
gpgpu_n_store_insn = 64
gpgpu_n_shmem_insn = 90176
gpgpu_n_tex_insn = 0
gpgpu_n_const_mem_insn = 0
gpgpu_n_param_mem_insn = 32832
gpgpu_n_shmem_bkconflict = 0
gpgpu_n_cache_bkconflict = 0
gpgpu_n_intrawarp_mshr_merge = 0
gpgpu_n_cmem_portconflict = 918
gpgpu_stall_shd_mem[c_mem][bk_conf] = 918
gpgpu_stall_shd_mem[c_mem][mshr_rc] = 0
gpgpu_stall_shd_mem[c_mem][icnt_rc] = 0
gpgpu_stall_shd_mem[c_mem][data_port_stall] = 0
gpgpu_stall_shd_mem[t_mem][mshr_rc] = 0
gpgpu_stall_shd_mem[t_mem][icnt_rc] = 0
gpgpu_stall_shd_mem[t_mem][data_port_stall] = 0
gpgpu_stall_shd_mem[s_mem][bk_conf] = 0
gpgpu_stall_shd_mem[gl_mem][bk_conf] = 0
gpgpu_stall_shd_mem[gl_mem][coal_stall] = 24140
gpgpu_stall_shd_mem[gl_mem][data_port_stall] = 0
gpgpu_stall_shd_mem[g_mem_ld][mshr_rc] = 0
gpgpu_stall_shd_mem[g_mem_ld][icnt_rc] = 0
gpgpu_stall_shd_mem[g_mem_ld][wb_icnt_rc] = 0
gpgpu_stall_shd_mem[g_mem_ld][wb_rsrv_fail] = 0
gpgpu_stall_shd_mem[g_mem_st][mshr_rc] = 0
gpgpu_stall_shd_mem[g_mem_st][icnt_rc] = 0
gpgpu_stall_shd_mem[g_mem_st][wb_icnt_rc] = 0
gpgpu_stall_shd_mem[g_mem_st][wb_rsrv_fail] = 0
gpgpu_stall_shd_mem[l_mem_ld][mshr_rc] = 0
gpgpu_stall_shd_mem[l_mem_ld][icnt_rc] = 0
gpgpu_stall_shd_mem[l_mem_ld][wb_icnt_rc] = 0
gpgpu_stall_shd_mem[l_mem_ld][wb_rsrv_fail] = 0
gpgpu_stall_shd_mem[l_mem_st][mshr_rc] = 0
gpgpu_stall_shd_mem[l_mem_st][icnt_rc] = 0
gpgpu_stall_shd_mem[l_mem_ld][wb_icnt_rc] = 0
gpgpu_stall_shd_mem[l_mem_ld][wb_rsrv_fail] = 0
gpu_reg_bank_conflict_stalls = 0
Warp Occupancy Distribution:
Stall:25009	W0_Idle:46991	W0_Scoreboard:144524	W1:384	W2:0	W3:0	W4:0	W5:0	W6:0	W7:0	W8:0	W9:0	W10:0	W11:0	W12:0	W13:0	W14:0	W15:0	W16:0	W17:0	W18:0	W19:0	W20:0	W21:0	W22:0	W23:0	W24:0	W25:0	W26:0	W27:0	W28:0	W29:0	W30:0	W31:0	W32:80896
traffic_breakdown_coretomem[CONST_ACC_R] = 120 {8:15,}
traffic_breakdown_coretomem[GLOBAL_ACC_R] = 65536 {8:8192,}
traffic_breakdown_coretomem[GLOBAL_ACC_W] = 2560 {40:64,}
traffic_breakdown_coretomem[INST_ACC_R] = 960 {8:120,}
traffic_breakdown_memtocore[CONST_ACC_R] = 1080 {72:15,}
traffic_breakdown_memtocore[GLOBAL_ACC_R] = 1114112 {136:8192,}
traffic_breakdown_memtocore[GLOBAL_ACC_W] = 512 {8:64,}
traffic_breakdown_memtocore[INST_ACC_R] = 16320 {136:120,}
maxmrqlatency = 193 
maxdqlatency = 0 
maxmflatency = 711 
averagemflatency = 352 
max_icnt2mem_latency = 252 
max_icnt2sh_latency = 10426 
mrq_lat_table:4923 	216 	299 	586 	1091 	766 	315 	15 	0 	0 	0 	0 	0 	0 	0 	0 	0 	0 	0 	0 	0 	0 	0 	0 	0 	0 	0 	0 	0 	0 	0 	0 	
dq_lat_table:0 	0 	0 	0 	0 	0 	0 	0 	0 	0 	0 	0 	0 	0 	0 	0 	0 	0 	0 	0 	0 	0 	0 	0 	0 	0 	0 	0 	0 	0 	0 	0 	
mf_lat_table:0 	0 	0 	0 	0 	0 	0 	34 	7876 	361 	0 	0 	0 	0 	0 	0 	0 	0 	0 	0 	0 	0 	0 	0 	0 	0 	0 	0 	0 	0 	0 	0 	
icnt2mem_lat_table:0 	0 	0 	7426 	268 	376 	240 	81 	0 	0 	0 	0 	0 	0 	0 	0 	0 	0 	0 	0 	0 	0 	0 	0 	
icnt2sh_lat_table:0 	0 	0 	898 	4987 	2286 	36 	0 	0 	0 	0 	0 	0 	64 	0 	0 	0 	0 	0 	0 	0 	0 	0 	0 	
mf_lat_pw_table:0 	0 	0 	0 	0 	0 	0 	1 	16 	0 	0 	0 	0 	0 	0 	0 	0 	0 	0 	0 	0 	0 	0 	0 	0 	0 	0 	0 	0 	0 	0 	0 	
maximum concurrent accesses to same row:
dram[0]:         4         4         4         3         3         4         3         4         3         3         3         5         3         4         4         3 
dram[1]:         4         7         4         4         5         4         3         3         3         3         3         4         4         3         3         3 
dram[2]:         4         5         4         4         3         5         4         3         3         3         5         4         4         3         3         4 
dram[3]:         6         4         4         4         3         4         3         4         3         3         4         3         3         4         3         3 
dram[4]:         4         3         4         3         3         5         3         3         3         3         5         4         3         4         4         4 
dram[5]:         4         5         4         4         3         4         3         4         3         3         3         4         4         3         3         3 
maximum service time to same row:
dram[0]:      2341      2324      2290      2301      2278      2316      2306      2319      2301      2291      2297      2304      2300      2310      2285      2298 
dram[1]:      2344      2329      2291      2302      2279      2334      2313      2319      2284      2294      2272      2306      2301      2310      2288      2300 
dram[2]:      2346      2352      2294      2284      2285      2319      2308      2304      2285      2307      2274      2344      2304      2291      2290      2329 
dram[3]:      2115      2346      2296      2285      2282      2322      2318      2300      2288      2278      2276      2313      2313      2294      2291      2335 
dram[4]:      1559      2356      2296      2288      2307      2325      2314      2306      2301      2279      2332      2316      2304      2297      2335      2354 
dram[5]:      1999      2357      2298      2291      2310      2326      2312      2301      2290      2282      2302      2318      2306      2297      2296      2341 
average row accesses per activate:
dram[0]:  2.166667  1.571429  2.461539  1.777778  1.644444  1.574468  1.714286  1.573771  1.745455  1.600000  1.627119  1.523810  1.684211  2.086957  1.684211  1.500000 
dram[1]:  2.133333  2.241379  2.666667  1.777778  1.681818  1.850000  1.573771  1.627119  1.573771  1.548387  1.352113  1.454545  1.777778  1.600000  1.411765  1.297297 
dram[2]:  1.600000  2.133333  1.882353  2.666667  1.541667  1.652174  1.600000  1.846154  1.548387  1.777778  1.627119  1.627119  2.133333  1.627119  1.777778  1.745455 
dram[3]:  2.241379  1.882353  1.882353  2.461539  1.850000  1.688889  1.745455  1.627119  1.573771  1.627119  1.600000  1.411765  1.600000  1.745455  1.432836  1.476923 
dram[4]:  2.129032  1.777778  2.461539  1.882353  1.608696  1.617021  1.627119  1.777778  1.745455  1.600000  1.766667  1.548387  1.573771  2.086957  1.714286  1.627119 
dram[5]:  2.129032  2.285714  2.461539  1.882353  1.644444  1.727273  1.476923  1.714286  1.523810  1.600000  1.371429  1.500000  1.777778  1.523810  1.371429  1.352113 
average row locality = 8211/4877 = 1.683617
number of total memory accesses made:
dram[0]:         0         0         0         0         0         0         0         0         0         0         0         0         0         0         0         0 
dram[1]:         0         0         0         0         0         0         0         0         0         0         0         0         0         0         0         0 
dram[2]:         0         0         0         0         0         0         0         0         0         0         0         0         0         0         0         0 
dram[3]:         0         0         0         0         0         0         0         0         0         0         0         0         0         0         0         0 
dram[4]:         0         0         0         0         0         0         0         0         0         0         0         0         0         0         0         0 
dram[5]:         0         0         0         0         0         0         0         0         0         0         0         0         0         0         0         0 
total accesses: 0
min_bank_accesses = 0!
min_chip_accesses = 0!
number of total read accesses:
dram[0]:        65        66        64        64        74        74        96        96        96        96        96        96        96        96        96        96 
dram[1]:        64        65        64        64        74        74        96        96        96        96        96        96        96        96        96        96 
dram[2]:        64        64        64        64        74        76        96        96        96        96        96        96        96        96        96        96 
dram[3]:        65        64        64        64        74        76        96        96        96        96        96        96        96        96        96        96 
dram[4]:        66        64        64        64        74        76        96        96        96        96        98        96        96        96        96        96 
dram[5]:        66        64        64        64        74        76        96        96        96        96        96        96        96        96        96        96 
total reads: 8203
bank skew: 98/64 = 1.53
chip skew: 1370/1365 = 1.00
number of total write accesses:
dram[0]:         0         0         0         0         0         0         0         0         0         0         0         0         0         0         0         0 
dram[1]:         0         0         0         0         0         0         0         0         0         0         0         0         0         0         0         0 
dram[2]:         0         0         0         0         0         0         0         0         0         0         0         0         0         0         0         0 
dram[3]:         0         0         0         0         0         0         0         0         0         0         0         0         0         0         0         0 
dram[4]:         0         0         0         0         0         0         0         0         0         0         8         0         0         0         0         0 
dram[5]:         0         0         0         0         0         0         0         0         0         0         0         0         0         0         0         0 
total reads: 8
min_bank_accesses = 0!
min_chip_accesses = 0!
average mf latency per bank:
dram[0]:        389       293       338       307       339       312       349       315       349       314       346       319       358       314       346       314
dram[1]:        319       299       313       315       326       314       333       320       327       323       325       324       332       328       335       333
dram[2]:        362       386       363       360       361       377       388       402       361       382       375       394       370       405       373       400
dram[3]:        334       370       350       361       353       370       357       392       355       378       354       379       363       385       365       387
dram[4]:        320       352       330       351       337       358       336       366       338       360       457       358       346       367       351       373
dram[5]:        347       340       372       342       369       342       388       368       377       353       377       354       381       352       392       360
maximum mf latency per bank:
dram[0]:        615       510       526       530       543       548       615       573       645       538       631       537       651       546       569       568
dram[1]:        509       497       423       523       431       536       559       566       510       579       513       565       542       568       560       562
dram[2]:        615       565       548       573       562       630       625       680       491       551       636       612       532       617       542       629
dram[3]:        613       624       515       628       531       618       663       684       521       668       631       647       672       657       664       711
dram[4]:        553       647       483       595       476       648       515       633       453       600       544       595       601       626       559       700
dram[5]:        491       604       512       504       531       568       607       626       542       563       545       552       569       521       556       600

Number of Memory Banks Accessed per Memory Operation per Warp (from 0):
0	0	0	0	0	0	0	0	0	0	0	0	0	0	0	0	0	0	0	0	0	0	0	0	0	0	0	0	0	0	0	0	0	0	0	0	0	0	0	0	0	0	0	0	0	0	0	0	0	0	0	0	0	0	0	0	0	0	0	0	0	0	0	0	0	0	0	0	0	0	0	0	0	0	0	0	0	0	0	0	0	0	0	0	0	0	0	0	0	0	0	0	0	0	0	0	
Average # of Memory Banks Accessed per Memory Operation per Warp=-nan

position of mrq chosen
0	0	0	0	0	0	0	0	0	0	0	0	0	0	0	0	

average position of mrq chosen = -nan
Memory Partition 0: 
Cache L2_bank_000:
MSHR contents

Cache L2_bank_001:
MSHR contents

In Dram Latency Queue (total = 0): 
DRAM[0]: 16 bks, busW=4 BL=8 CL=12, tRRD=2 tCCD=6, tRCD=12 tRAS=28 tRP=12 tRC=40
n_cmd=13763 n_nop=9435 n_act=805 n_pre=789 n_req=1367 n_rd=2734 n_write=0 bw_util=0.3973
n_activity=9067 dram_eff=0.6031
bk0: 130a 12232i bk1: 132a 12005i bk2: 128a 12402i bk3: 128a 12053i bk4: 148a 11854i bk5: 148a 11723i bk6: 192a 11054i bk7: 192a 10876i bk8: 192a 11188i bk9: 192a 11057i bk10: 192a 10884i bk11: 192a 10737i bk12: 192a 10769i bk13: 192a 11177i bk14: 192a 10915i bk15: 192a 10742i 
dram_util_bins: 0 0 0 0 0 0 0 0 0 0
dram_eff_bins: 0 0 0 0 0 0 0 0 0 0
mrqq: max=16 avg=1.02732
Memory Partition 1: 
Cache L2_bank_002:
MSHR contents

Cache L2_bank_003:
MSHR contents

In Dram Latency Queue (total = 0): 
DRAM[1]: 16 bks, busW=4 BL=8 CL=12, tRRD=2 tCCD=6, tRCD=12 tRAS=28 tRP=12 tRC=40
n_cmd=13763 n_nop=9371 n_act=839 n_pre=823 n_req=1365 n_rd=2730 n_write=0 bw_util=0.3967
n_activity=8952 dram_eff=0.6099
bk0: 128a 12272i bk1: 130a 12354i bk2: 128a 12559i bk3: 128a 12120i bk4: 148a 11835i bk5: 148a 11837i bk6: 192a 10816i bk7: 192a 10897i bk8: 192a 11074i bk9: 192a 11169i bk10: 192a 10625i bk11: 192a 10723i bk12: 192a 10967i bk13: 192a 10598i bk14: 192a 10420i bk15: 192a 10040i 
dram_util_bins: 0 0 0 0 0 0 0 0 0 0
dram_eff_bins: 0 0 0 0 0 0 0 0 0 0
mrqq: max=16 avg=1.05791
Memory Partition 2: 
Cache L2_bank_004:
MSHR contents

Cache L2_bank_005:
MSHR contents

In Dram Latency Queue (total = 0): 
DRAM[2]: 16 bks, busW=4 BL=8 CL=12, tRRD=2 tCCD=6, tRCD=12 tRAS=28 tRP=12 tRC=40
n_cmd=13763 n_nop=9485 n_act=781 n_pre=765 n_req=1366 n_rd=2732 n_write=0 bw_util=0.397
n_activity=8805 dram_eff=0.6206
bk0: 128a 11884i bk1: 128a 12033i bk2: 128a 12087i bk3: 128a 12461i bk4: 148a 11485i bk5: 152a 11411i bk6: 192a 10482i bk7: 192a 10637i bk8: 192a 11076i bk9: 192a 11130i bk10: 192a 10838i bk11: 192a 10570i bk12: 192a 11191i bk13: 192a 10498i bk14: 192a 10605i bk15: 192a 10296i 
dram_util_bins: 0 0 0 0 0 0 0 0 0 0
dram_eff_bins: 0 0 0 0 0 0 0 0 0 0
mrqq: max=16 avg=1.87495
Memory Partition 3: 
Cache L2_bank_006:
MSHR contents

Cache L2_bank_007:
MSHR contents

In Dram Latency Queue (total = 0): 
DRAM[3]: 16 bks, busW=4 BL=8 CL=12, tRRD=2 tCCD=6, tRCD=12 tRAS=28 tRP=12 tRC=40
n_cmd=13763 n_nop=9411 n_act=817 n_pre=801 n_req=1367 n_rd=2734 n_write=0 bw_util=0.3973
n_activity=8833 dram_eff=0.619
bk0: 130a 12226i bk1: 128a 12089i bk2: 128a 12021i bk3: 128a 12286i bk4: 148a 11713i bk5: 152a 11476i bk6: 192a 10864i bk7: 192a 10408i bk8: 192a 11009i bk9: 192a 10915i bk10: 192a 10761i bk11: 192a 10547i bk12: 192a 10490i bk13: 192a 10570i bk14: 192a 10137i bk15: 192a 10127i 
dram_util_bins: 0 0 0 0 0 0 0 0 0 0
dram_eff_bins: 0 0 0 0 0 0 0 0 0 0
mrqq: max=16 avg=1.71801
Memory Partition 4: 
Cache L2_bank_008:
MSHR contents

Cache L2_bank_009:
MSHR contents

In Dram Latency Queue (total = 0): 
DRAM[4]: 16 bks, busW=4 BL=8 CL=12, tRRD=2 tCCD=6, tRCD=12 tRAS=28 tRP=12 tRC=40
n_cmd=13763 n_nop=9447 n_act=792 n_pre=776 n_req=1378 n_rd=2740 n_write=8 bw_util=0.3993
n_activity=9205 dram_eff=0.5971
bk0: 132a 12170i bk1: 128a 12053i bk2: 128a 12385i bk3: 128a 12143i bk4: 148a 11725i bk5: 152a 11444i bk6: 192a 10999i bk7: 192a 10741i bk8: 192a 11011i bk9: 192a 10943i bk10: 196a 10856i bk11: 192a 10778i bk12: 192a 10575i bk13: 192a 10890i bk14: 192a 10632i bk15: 192a 10513i 
dram_util_bins: 0 0 0 0 0 0 0 0 0 0
dram_eff_bins: 0 0 0 0 0 0 0 0 0 0
mrqq: max=15 avg=1.47003
Memory Partition 5: 
Cache L2_bank_010:
MSHR contents

Cache L2_bank_011:
MSHR contents

In Dram Latency Queue (total = 0): 
DRAM[5]: 16 bks, busW=4 BL=8 CL=12, tRRD=2 tCCD=6, tRCD=12 tRAS=28 tRP=12 tRC=40
n_cmd=13763 n_nop=9355 n_act=844 n_pre=828 n_req=1368 n_rd=2736 n_write=0 bw_util=0.3976
n_activity=8927 dram_eff=0.613
bk0: 132a 12010i bk1: 128a 12211i bk2: 128a 12119i bk3: 128a 12008i bk4: 148a 11461i bk5: 152a 11429i bk6: 192a 10062i bk7: 192a 10439i bk8: 192a 10580i bk9: 192a 10972i bk10: 192a 10393i bk11: 192a 10538i bk12: 192a 10666i bk13: 192a 10632i bk14: 192a 9923i bk15: 192a 10052i 
dram_util_bins: 0 0 0 0 0 0 0 0 0 0
dram_eff_bins: 0 0 0 0 0 0 0 0 0 0
mrqq: max=16 avg=1.81116

========= L2 cache stats =========
L2_cache_bank[0]: Access = 697, Miss = 683, Miss_rate = 0.980, Pending_hits = 3, Reservation_fails = 193
L2_cache_bank[1]: Access = 712, Miss = 684, Miss_rate = 0.961, Pending_hits = 4, Reservation_fails = 334
L2_cache_bank[2]: Access = 682, Miss = 682, Miss_rate = 1.000, Pending_hits = 0, Reservation_fails = 71
L2_cache_bank[3]: Access = 697, Miss = 683, Miss_rate = 0.980, Pending_hits = 3, Reservation_fails = 386
L2_cache_bank[4]: Access = 682, Miss = 682, Miss_rate = 1.000, Pending_hits = 0, Reservation_fails = 171
L2_cache_bank[5]: Access = 684, Miss = 684, Miss_rate = 1.000, Pending_hits = 0, Reservation_fails = 315
L2_cache_bank[6]: Access = 697, Miss = 683, Miss_rate = 0.980, Pending_hits = 3, Reservation_fails = 290
L2_cache_bank[7]: Access = 684, Miss = 684, Miss_rate = 1.000, Pending_hits = 0, Reservation_fails = 357
L2_cache_bank[8]: Access = 776, Miss = 686, Miss_rate = 0.884, Pending_hits = 12, Reservation_fails = 471
L2_cache_bank[9]: Access = 684, Miss = 684, Miss_rate = 1.000, Pending_hits = 0, Reservation_fails = 125
L2_cache_bank[10]: Access = 712, Miss = 684, Miss_rate = 0.961, Pending_hits = 4, Reservation_fails = 366
L2_cache_bank[11]: Access = 684, Miss = 684, Miss_rate = 1.000, Pending_hits = 0, Reservation_fails = 119
L2_total_cache_accesses = 8391
L2_total_cache_misses = 8203
L2_total_cache_miss_rate = 0.9776
L2_total_cache_pending_hits = 29
L2_total_cache_reservation_fails = 3198
L2_total_cache_breakdown:
	L2_cache_stats_breakdown[GLOBAL_ACC_R][MISS] = 8192
	L2_cache_stats_breakdown[GLOBAL_ACC_R][RESERVATION_FAIL] = 2364
	L2_cache_stats_breakdown[CONST_ACC_R][HIT] = 11
	L2_cache_stats_breakdown[CONST_ACC_R][HIT_RESERVED] = 3
	L2_cache_stats_breakdown[CONST_ACC_R][MISS] = 1
	L2_cache_stats_breakdown[CONST_ACC_R][RESERVATION_FAIL] = 100
	L2_cache_stats_breakdown[GLOBAL_ACC_W][HIT] = 56
	L2_cache_stats_breakdown[GLOBAL_ACC_W][HIT_RESERVED] = 6
	L2_cache_stats_breakdown[GLOBAL_ACC_W][MISS] = 2
	L2_cache_stats_breakdown[GLOBAL_ACC_W][RESERVATION_FAIL] = 127
	L2_cache_stats_breakdown[INST_ACC_R][HIT] = 92
	L2_cache_stats_breakdown[INST_ACC_R][HIT_RESERVED] = 20
	L2_cache_stats_breakdown[INST_ACC_R][MISS] = 8
	L2_cache_stats_breakdown[INST_ACC_R][RESERVATION_FAIL] = 607
L2_cache_data_port_util = 0.004
L2_cache_fill_port_util = 0.262

icnt_total_pkts_mem_to_simt=41669
icnt_total_pkts_simt_to_mem=8455
LD_mem_lat_dist  0 0 0 0 0 0 0 0 0 0 0 0 0 0 0 0 0 0 0 0 0 0 0 0 0 0 0
ST_mem_lat_dist  0 0 0 0 0 0 0 0 0 0 0 0 0 0 0 0 0 0 0 0 0 0 0 0 0 0 0
----------------------------Interconnect-DETAILS--------------------------------
Class 0:
Packet latency average = 16.3774
	minimum = 6
	maximum = 105
Network latency average = 13.2099
	minimum = 6
	maximum = 75
Slowest packet = 1412
Flit latency average = 12.8955
	minimum = 6
	maximum = 75
Slowest flit = 3370
Fragmentation average = 0
	minimum = 0
	maximum = 0
Injected packet rate average = 0.0596102
	minimum = 0.0503501 (at node 0)
	maximum = 0.0744222 (at node 23)
Accepted packet rate average = 0.0596102
	minimum = 0.0503501 (at node 0)
	maximum = 0.0744222 (at node 23)
Injected flit rate average = 0.178042
	minimum = 0.0507337 (at node 0)
	maximum = 0.347559 (at node 23)
Accepted flit rate average= 0.178042
	minimum = 0.0654071 (at node 17)
	maximum = 0.311499 (at node 1)
Injected packet length average = 2.98677
Accepted packet length average = 2.98677
Total in-flight flits = 0 (0 measured)
====== Overall Traffic Statistics ======
====== Traffic class 0 ======
Packet latency average = 16.3774 (1 samples)
	minimum = 6 (1 samples)
	maximum = 105 (1 samples)
Network latency average = 13.2099 (1 samples)
	minimum = 6 (1 samples)
	maximum = 75 (1 samples)
Flit latency average = 12.8955 (1 samples)
	minimum = 6 (1 samples)
	maximum = 75 (1 samples)
Fragmentation average = 0 (1 samples)
	minimum = 0 (1 samples)
	maximum = 0 (1 samples)
Injected packet rate average = 0.0596102 (1 samples)
	minimum = 0.0503501 (1 samples)
	maximum = 0.0744222 (1 samples)
Accepted packet rate average = 0.0596102 (1 samples)
	minimum = 0.0503501 (1 samples)
	maximum = 0.0744222 (1 samples)
Injected flit rate average = 0.178042 (1 samples)
	minimum = 0.0507337 (1 samples)
	maximum = 0.347559 (1 samples)
Accepted flit rate average = 0.178042 (1 samples)
	minimum = 0.0654071 (1 samples)
	maximum = 0.311499 (1 samples)
Injected packet size average = 2.98677 (1 samples)
Accepted packet size average = 2.98677 (1 samples)
Hops average = 1 (1 samples)
----------------------------END-of-Interconnect-DETAILS-------------------------


gpgpu_simulation_time = 0 days, 0 hrs, 0 min, 36 sec (36 sec)
gpgpu_simulation_rate = 70608 (inst/sec)
gpgpu_simulation_rate = 289 (cycle/sec)
kernel '_Z17scan_single_blockIfLi256EEvPT_i' transfer to GPU hardware scheduler
GPGPU-Sim uArch: Shader 5 bind to kernel 2 '_Z17scan_single_blockIfLi256EEvPT_i'
GPGPU-Sim uArch: CTA/core = 6, limited by: threads
GPGPU-Sim uArch: core:  5, cta: 0 initialized @(1,10427)
GPGPU-Sim uArch: cycles simulated: 11427  inst.: 2552320 (ipc=10.4) sim_rate=68981 (inst/sec) elapsed = 0:0:00:37 / Tue Mar 22 07:39:12 2016
GPGPU-Sim PTX: 2600000 instructions simulated : ctaid=(0,0,0) tid=(31,0,0)
GPGPU-Sim uArch: Shader 5 finished CTA #0 (1699,10427), 0 CTAs running
GPGPU-Sim uArch: Shader 5 empty (release kernel 2 '_Z17scan_single_blockIfLi256EEvPT_i').
GPGPU-Sim uArch: GPU detected kernel '_Z17scan_single_blockIfLi256EEvPT_i' finished on shader 5.

GPGPU-Sim PTX: cudaLaunch for 0x0x406440 (mode=performance simulation) on stream 0
GPGPU-Sim PTX: pushing kernel '_Z11bottom_scanIf6float4Li256EEvPKT_PS1_S3_i' to stream 0, gridDim= (64,1,1) blockDim = (256,1,1) 
kernel_name = _Z17scan_single_blockIfLi256EEvPT_i 
kernel_launch_uid = 2 
gpu_sim_cycle = 1700
gpu_sim_insn = 17152
gpu_ipc =      10.0894
gpu_tot_sim_cycle = 12127
gpu_tot_sim_insn = 2559040
gpu_tot_ipc =     211.0200
gpu_tot_issued_cta = 65
gpu_stall_dramfull = 6394
gpu_stall_icnt2sh    = 41056
gpu_total_sim_rate=67343

========= Core cache stats =========
L1I_cache:
	L1I_total_cache_accesses = 50208
	L1I_total_cache_misses = 3550
	L1I_total_cache_miss_rate = 0.0707
	L1I_total_cache_pending_hits = 0
	L1I_total_cache_reservation_fails = 3146
L1D_cache:
	L1D_cache_core[0]: Access = 516, Miss = 516, Miss_rate = 1.000, Pending_hits = 0, Reservation_fails = 0
	L1D_cache_core[1]: Access = 645, Miss = 645, Miss_rate = 1.000, Pending_hits = 0, Reservation_fails = 6034
	L1D_cache_core[2]: Access = 645, Miss = 645, Miss_rate = 1.000, Pending_hits = 0, Reservation_fails = 6067
	L1D_cache_core[3]: Access = 645, Miss = 645, Miss_rate = 1.000, Pending_hits = 0, Reservation_fails = 6126
	L1D_cache_core[4]: Access = 645, Miss = 645, Miss_rate = 1.000, Pending_hits = 0, Reservation_fails = 5913
	L1D_cache_core[5]: Access = 520, Miss = 518, Miss_rate = 0.996, Pending_hits = 0, Reservation_fails = 0
	L1D_cache_core[6]: Access = 516, Miss = 516, Miss_rate = 1.000, Pending_hits = 0, Reservation_fails = 0
	L1D_cache_core[7]: Access = 516, Miss = 516, Miss_rate = 1.000, Pending_hits = 0, Reservation_fails = 0
	L1D_cache_core[8]: Access = 516, Miss = 516, Miss_rate = 1.000, Pending_hits = 0, Reservation_fails = 0
	L1D_cache_core[9]: Access = 516, Miss = 516, Miss_rate = 1.000, Pending_hits = 0, Reservation_fails = 0
	L1D_cache_core[10]: Access = 516, Miss = 516, Miss_rate = 1.000, Pending_hits = 0, Reservation_fails = 0
	L1D_cache_core[11]: Access = 516, Miss = 516, Miss_rate = 1.000, Pending_hits = 0, Reservation_fails = 0
	L1D_cache_core[12]: Access = 516, Miss = 516, Miss_rate = 1.000, Pending_hits = 0, Reservation_fails = 0
	L1D_cache_core[13]: Access = 516, Miss = 516, Miss_rate = 1.000, Pending_hits = 0, Reservation_fails = 0
	L1D_cache_core[14]: Access = 516, Miss = 516, Miss_rate = 1.000, Pending_hits = 0, Reservation_fails = 0
	L1D_total_cache_accesses = 8260
	L1D_total_cache_misses = 8258
	L1D_total_cache_miss_rate = 0.9998
	L1D_total_cache_pending_hits = 0
	L1D_total_cache_reservation_fails = 24140
	L1D_cache_data_port_util = 0.000
	L1D_cache_fill_port_util = 0.054
L1C_cache:
	L1C_total_cache_accesses = 1100
	L1C_total_cache_misses = 480
	L1C_total_cache_miss_rate = 0.4364
	L1C_total_cache_pending_hits = 0
	L1C_total_cache_reservation_fails = 918
L1T_cache:
	L1T_total_cache_accesses = 0
	L1T_total_cache_misses = 0
	L1T_total_cache_pending_hits = 0
	L1T_total_cache_reservation_fails = 0

Total_core_cache_stats:
	Total_core_cache_stats_breakdown[GLOBAL_ACC_R][MISS] = 8194
	Total_core_cache_stats_breakdown[GLOBAL_ACC_R][RESERVATION_FAIL] = 24140
	Total_core_cache_stats_breakdown[CONST_ACC_R][HIT] = 620
	Total_core_cache_stats_breakdown[CONST_ACC_R][MISS] = 480
	Total_core_cache_stats_breakdown[CONST_ACC_R][RESERVATION_FAIL] = 918
	Total_core_cache_stats_breakdown[GLOBAL_ACC_W][HIT] = 2
	Total_core_cache_stats_breakdown[GLOBAL_ACC_W][MISS] = 64
	Total_core_cache_stats_breakdown[INST_ACC_R][HIT] = 46658
	Total_core_cache_stats_breakdown[INST_ACC_R][MISS] = 3550
	Total_core_cache_stats_breakdown[INST_ACC_R][RESERVATION_FAIL] = 3146
Shader 0 warp_id issue ditsribution:
warp_id:
0, 1, 2, 3, 4, 5, 6, 7, 8, 9, 10, 11, 12, 13, 14, 15, 16, 17, 18, 19, 20, 21, 22, 23, 24, 25, 26, 27, 28, 29, 30, 31, 
distro:
190, 160, 156, 156, 152, 152, 152, 152, 190, 160, 156, 156, 152, 152, 152, 152, 190, 160, 156, 156, 152, 152, 152, 152, 190, 160, 156, 156, 152, 152, 152, 152, 
gpgpu_n_tot_thrd_icount = 2618240
gpgpu_n_tot_w_icount = 81820
gpgpu_n_stall_shd_mem = 25058
gpgpu_n_mem_read_local = 0
gpgpu_n_mem_write_local = 0
gpgpu_n_mem_read_global = 8194
gpgpu_n_mem_write_global = 66
gpgpu_n_mem_texture = 0
gpgpu_n_mem_const = 15
gpgpu_n_load_insn  = 262208
gpgpu_n_store_insn = 128
gpgpu_n_shmem_insn = 97088
gpgpu_n_tex_insn = 0
gpgpu_n_const_mem_insn = 0
gpgpu_n_param_mem_insn = 33216
gpgpu_n_shmem_bkconflict = 0
gpgpu_n_cache_bkconflict = 0
gpgpu_n_intrawarp_mshr_merge = 0
gpgpu_n_cmem_portconflict = 918
gpgpu_stall_shd_mem[c_mem][bk_conf] = 918
gpgpu_stall_shd_mem[c_mem][mshr_rc] = 0
gpgpu_stall_shd_mem[c_mem][icnt_rc] = 0
gpgpu_stall_shd_mem[c_mem][data_port_stall] = 0
gpgpu_stall_shd_mem[t_mem][mshr_rc] = 0
gpgpu_stall_shd_mem[t_mem][icnt_rc] = 0
gpgpu_stall_shd_mem[t_mem][data_port_stall] = 0
gpgpu_stall_shd_mem[s_mem][bk_conf] = 0
gpgpu_stall_shd_mem[gl_mem][bk_conf] = 0
gpgpu_stall_shd_mem[gl_mem][coal_stall] = 24140
gpgpu_stall_shd_mem[gl_mem][data_port_stall] = 0
gpgpu_stall_shd_mem[g_mem_ld][mshr_rc] = 0
gpgpu_stall_shd_mem[g_mem_ld][icnt_rc] = 0
gpgpu_stall_shd_mem[g_mem_ld][wb_icnt_rc] = 0
gpgpu_stall_shd_mem[g_mem_ld][wb_rsrv_fail] = 0
gpgpu_stall_shd_mem[g_mem_st][mshr_rc] = 0
gpgpu_stall_shd_mem[g_mem_st][icnt_rc] = 0
gpgpu_stall_shd_mem[g_mem_st][wb_icnt_rc] = 0
gpgpu_stall_shd_mem[g_mem_st][wb_rsrv_fail] = 0
gpgpu_stall_shd_mem[l_mem_ld][mshr_rc] = 0
gpgpu_stall_shd_mem[l_mem_ld][icnt_rc] = 0
gpgpu_stall_shd_mem[l_mem_ld][wb_icnt_rc] = 0
gpgpu_stall_shd_mem[l_mem_ld][wb_rsrv_fail] = 0
gpgpu_stall_shd_mem[l_mem_st][mshr_rc] = 0
gpgpu_stall_shd_mem[l_mem_st][icnt_rc] = 0
gpgpu_stall_shd_mem[l_mem_ld][wb_icnt_rc] = 0
gpgpu_stall_shd_mem[l_mem_ld][wb_rsrv_fail] = 0
gpu_reg_bank_conflict_stalls = 0
Warp Occupancy Distribution:
Stall:25104	W0_Idle:49531	W0_Scoreboard:144777	W1:384	W2:0	W3:0	W4:0	W5:0	W6:0	W7:0	W8:0	W9:0	W10:0	W11:0	W12:0	W13:0	W14:0	W15:0	W16:0	W17:0	W18:0	W19:0	W20:0	W21:0	W22:0	W23:0	W24:0	W25:0	W26:0	W27:0	W28:0	W29:0	W30:0	W31:0	W32:81436
traffic_breakdown_coretomem[CONST_ACC_R] = 120 {8:15,}
traffic_breakdown_coretomem[GLOBAL_ACC_R] = 65552 {8:8194,}
traffic_breakdown_coretomem[GLOBAL_ACC_W] = 2832 {40:64,136:2,}
traffic_breakdown_coretomem[INST_ACC_R] = 992 {8:124,}
traffic_breakdown_memtocore[CONST_ACC_R] = 1080 {72:15,}
traffic_breakdown_memtocore[GLOBAL_ACC_R] = 1114384 {136:8194,}
traffic_breakdown_memtocore[GLOBAL_ACC_W] = 528 {8:66,}
traffic_breakdown_memtocore[INST_ACC_R] = 16864 {136:124,}
maxmrqlatency = 193 
maxdqlatency = 0 
maxmflatency = 711 
averagemflatency = 352 
max_icnt2mem_latency = 252 
max_icnt2sh_latency = 12126 
mrq_lat_table:4927 	216 	299 	586 	1091 	766 	315 	15 	0 	0 	0 	0 	0 	0 	0 	0 	0 	0 	0 	0 	0 	0 	0 	0 	0 	0 	0 	0 	0 	0 	0 	0 	
dq_lat_table:0 	0 	0 	0 	0 	0 	0 	0 	0 	0 	0 	0 	0 	0 	0 	0 	0 	0 	0 	0 	0 	0 	0 	0 	0 	0 	0 	0 	0 	0 	0 	0 	
mf_lat_table:0 	0 	0 	0 	0 	0 	0 	38 	7876 	361 	0 	0 	0 	0 	0 	0 	0 	0 	0 	0 	0 	0 	0 	0 	0 	0 	0 	0 	0 	0 	0 	0 	
icnt2mem_lat_table:0 	0 	0 	7434 	268 	376 	240 	81 	0 	0 	0 	0 	0 	0 	0 	0 	0 	0 	0 	0 	0 	0 	0 	0 	
icnt2sh_lat_table:0 	0 	0 	900 	4987 	2286 	36 	0 	0 	0 	0 	0 	0 	66 	0 	0 	0 	0 	0 	0 	0 	0 	0 	0 	
mf_lat_pw_table:0 	0 	0 	0 	0 	0 	0 	3 	16 	0 	0 	0 	0 	0 	0 	0 	0 	0 	0 	0 	0 	0 	0 	0 	0 	0 	0 	0 	0 	0 	0 	0 	
maximum concurrent accesses to same row:
dram[0]:         4         4         4         3         3         4         3         4         3         3         3         5         3         4         4         3 
dram[1]:         4         7         4         4         5         4         3         3         3         3         3         4         4         3         3         3 
dram[2]:         4         6         4         4         3         5         4         3         3         3         5         4         4         3         3         4 
dram[3]:         6         5         4         4         3         4         3         4         3         3         4         3         3         4         3         3 
dram[4]:         4         3         4         3         3         5         3         3         3         3         5         4         3         4         4         4 
dram[5]:         4         5         4         4         3         4         3         4         3         3         3         4         4         3         3         3 
maximum service time to same row:
dram[0]:      2341      2324      2290      2301      2278      2316      2306      2319      2301      2291      2297      2304      2300      2310      2285      2298 
dram[1]:      2344      2329      2291      2302      2279      2334      2313      2319      2284      2294      2272      2306      2301      2310      2288      2300 
dram[2]:      2346      2352      2294      2284      2285      2319      2308      2304      2285      2307      2274      2344      2304      2291      2290      2329 
dram[3]:      2115      2346      2296      2285      2282      2322      2318      2300      2288      2278      2276      2313      2313      2294      2291      2335 
dram[4]:      1559      2356      2296      2288      2307      2325      2314      2306      2301      2279      2332      2316      2304      2297      2335      2354 
dram[5]:      1999      2357      2298      2291      2310      2326      2312      2301      2290      2282      2302      2318      2306      2297      2296      2341 
average row accesses per activate:
dram[0]:  2.166667  1.571429  2.461539  1.777778  1.644444  1.574468  1.714286  1.573771  1.745455  1.600000  1.627119  1.523810  1.684211  2.086957  1.684211  1.500000 
dram[1]:  2.133333  2.275862  2.666667  1.777778  1.681818  1.850000  1.573771  1.627119  1.573771  1.548387  1.352113  1.454545  1.777778  1.600000  1.411765  1.297297 
dram[2]:  1.600000  2.129032  1.882353  2.666667  1.541667  1.652174  1.600000  1.846154  1.548387  1.777778  1.627119  1.627119  2.133333  1.627119  1.777778  1.745455 
dram[3]:  2.241379  1.857143  1.882353  2.461539  1.850000  1.688889  1.745455  1.627119  1.573771  1.627119  1.600000  1.411765  1.600000  1.745455  1.432836  1.476923 
dram[4]:  2.129032  1.777778  2.461539  1.882353  1.608696  1.617021  1.627119  1.777778  1.745455  1.600000  1.766667  1.548387  1.573771  2.086957  1.714286  1.627119 
dram[5]:  2.129032  2.285714  2.461539  1.882353  1.644444  1.727273  1.476923  1.714286  1.523810  1.600000  1.371429  1.500000  1.777778  1.523810  1.371429  1.352113 
average row locality = 8215/4879 = 1.683747
number of total memory accesses made:
dram[0]:         0         0         0         0         0         0         0         0         0         0         0         0         0         0         0         0 
dram[1]:         0         0         0         0         0         0         0         0         0         0         0         0         0         0         0         0 
dram[2]:         0         0         0         0         0         0         0         0         0         0         0         0         0         0         0         0 
dram[3]:         0         0         0         0         0         0         0         0         0         0         0         0         0         0         0         0 
dram[4]:         0         0         0         0         0         0         0         0         0         0         0         0         0         0         0         0 
dram[5]:         0         0         0         0         0         0         0         0         0         0         0         0         0         0         0         0 
total accesses: 0
min_bank_accesses = 0!
min_chip_accesses = 0!
number of total read accesses:
dram[0]:        65        66        64        64        74        74        96        96        96        96        96        96        96        96        96        96 
dram[1]:        64        66        64        64        74        74        96        96        96        96        96        96        96        96        96        96 
dram[2]:        64        66        64        64        74        76        96        96        96        96        96        96        96        96        96        96 
dram[3]:        65        65        64        64        74        76        96        96        96        96        96        96        96        96        96        96 
dram[4]:        66        64        64        64        74        76        96        96        96        96        98        96        96        96        96        96 
dram[5]:        66        64        64        64        74        76        96        96        96        96        96        96        96        96        96        96 
total reads: 8207
bank skew: 98/64 = 1.53
chip skew: 1370/1366 = 1.00
number of total write accesses:
dram[0]:         0         0         0         0         0         0         0         0         0         0         0         0         0         0         0         0 
dram[1]:         0         0         0         0         0         0         0         0         0         0         0         0         0         0         0         0 
dram[2]:         0         0         0         0         0         0         0         0         0         0         0         0         0         0         0         0 
dram[3]:         0         0         0         0         0         0         0         0         0         0         0         0         0         0         0         0 
dram[4]:         0         0         0         0         0         0         0         0         0         0         8         0         0         0         0         0 
dram[5]:         0         0         0         0         0         0         0         0         0         0         0         0         0         0         0         0 
total reads: 8
min_bank_accesses = 0!
min_chip_accesses = 0!
average mf latency per bank:
dram[0]:        389       293       338       307       339       312       349       315       349       314       346       319       358       314       346       314
dram[1]:        319       295       313       315       326       314       333       320       327       323       325       324       332       328       335       333
dram[2]:        362       375       363       360       361       377       388       402       361       382       375       394       370       405       373       400
dram[3]:        334       364       350       361       353       370       357       392       355       378       354       379       363       385       365       387
dram[4]:        320       352       330       351       337       358       336       366       338       360       462       358       346       367       351       373
dram[5]:        347       340       372       342       369       342       388       368       377       353       377       354       381       352       392       360
maximum mf latency per bank:
dram[0]:        615       510       526       530       543       548       615       573       645       538       631       537       651       546       569       568
dram[1]:        509       497       423       523       431       536       559       566       510       579       513       565       542       568       560       562
dram[2]:        615       565       548       573       562       630       625       680       491       551       636       612       532       617       542       629
dram[3]:        613       624       515       628       531       618       663       684       521       668       631       647       672       657       664       711
dram[4]:        553       647       483       595       476       648       515       633       453       600       544       595       601       626       559       700
dram[5]:        491       604       512       504       531       568       607       626       542       563       545       552       569       521       556       600

Number of Memory Banks Accessed per Memory Operation per Warp (from 0):
0	0	0	0	0	0	0	0	0	0	0	0	0	0	0	0	0	0	0	0	0	0	0	0	0	0	0	0	0	0	0	0	0	0	0	0	0	0	0	0	0	0	0	0	0	0	0	0	0	0	0	0	0	0	0	0	0	0	0	0	0	0	0	0	0	0	0	0	0	0	0	0	0	0	0	0	0	0	0	0	0	0	0	0	0	0	0	0	0	0	0	0	0	0	0	0	
Average # of Memory Banks Accessed per Memory Operation per Warp=-nan

position of mrq chosen
0	0	0	0	0	0	0	0	0	0	0	0	0	0	0	0	

average position of mrq chosen = -nan
Memory Partition 0: 
Cache L2_bank_000:
MSHR contents

Cache L2_bank_001:
MSHR contents

In Dram Latency Queue (total = 0): 
DRAM[0]: 16 bks, busW=4 BL=8 CL=12, tRRD=2 tCCD=6, tRCD=12 tRAS=28 tRP=12 tRC=40
n_cmd=16006 n_nop=11678 n_act=805 n_pre=789 n_req=1367 n_rd=2734 n_write=0 bw_util=0.3416
n_activity=9067 dram_eff=0.6031
bk0: 130a 14475i bk1: 132a 14248i bk2: 128a 14645i bk3: 128a 14296i bk4: 148a 14097i bk5: 148a 13966i bk6: 192a 13297i bk7: 192a 13119i bk8: 192a 13431i bk9: 192a 13300i bk10: 192a 13127i bk11: 192a 12980i bk12: 192a 13012i bk13: 192a 13420i bk14: 192a 13158i bk15: 192a 12985i 
dram_util_bins: 0 0 0 0 0 0 0 0 0 0
dram_eff_bins: 0 0 0 0 0 0 0 0 0 0
mrqq: max=16 avg=0.883356
Memory Partition 1: 
Cache L2_bank_002:
MSHR contents

Cache L2_bank_003:
MSHR contents

In Dram Latency Queue (total = 0): 
DRAM[1]: 16 bks, busW=4 BL=8 CL=12, tRRD=2 tCCD=6, tRCD=12 tRAS=28 tRP=12 tRC=40
n_cmd=16006 n_nop=11612 n_act=839 n_pre=823 n_req=1366 n_rd=2732 n_write=0 bw_util=0.3414
n_activity=8967 dram_eff=0.6093
bk0: 128a 14515i bk1: 132a 14593i bk2: 128a 14802i bk3: 128a 14363i bk4: 148a 14078i bk5: 148a 14080i bk6: 192a 13059i bk7: 192a 13140i bk8: 192a 13317i bk9: 192a 13412i bk10: 192a 12868i bk11: 192a 12966i bk12: 192a 13210i bk13: 192a 12841i bk14: 192a 12663i bk15: 192a 12283i 
dram_util_bins: 0 0 0 0 0 0 0 0 0 0
dram_eff_bins: 0 0 0 0 0 0 0 0 0 0
mrqq: max=16 avg=0.909659
Memory Partition 2: 
Cache L2_bank_004:
MSHR contents

Cache L2_bank_005:
MSHR contents

In Dram Latency Queue (total = 0): 
DRAM[2]: 16 bks, busW=4 BL=8 CL=12, tRRD=2 tCCD=6, tRCD=12 tRAS=28 tRP=12 tRC=40
n_cmd=16006 n_nop=11722 n_act=782 n_pre=766 n_req=1368 n_rd=2736 n_write=0 bw_util=0.3419
n_activity=8872 dram_eff=0.6168
bk0: 128a 14128i bk1: 132a 14244i bk2: 128a 14329i bk3: 128a 14703i bk4: 148a 13727i bk5: 152a 13653i bk6: 192a 12724i bk7: 192a 12880i bk8: 192a 13319i bk9: 192a 13373i bk10: 192a 13081i bk11: 192a 12813i bk12: 192a 13434i bk13: 192a 12742i bk14: 192a 12849i bk15: 192a 12540i 
dram_util_bins: 0 0 0 0 0 0 0 0 0 0
dram_eff_bins: 0 0 0 0 0 0 0 0 0 0
mrqq: max=16 avg=1.61221
Memory Partition 3: 
Cache L2_bank_006:
MSHR contents

Cache L2_bank_007:
MSHR contents

In Dram Latency Queue (total = 0): 
DRAM[3]: 16 bks, busW=4 BL=8 CL=12, tRRD=2 tCCD=6, tRCD=12 tRAS=28 tRP=12 tRC=40
n_cmd=16006 n_nop=11650 n_act=818 n_pre=802 n_req=1368 n_rd=2736 n_write=0 bw_util=0.3419
n_activity=8885 dram_eff=0.6159
bk0: 130a 14470i bk1: 130a 14304i bk2: 128a 14263i bk3: 128a 14528i bk4: 148a 13955i bk5: 152a 13718i bk6: 192a 13106i bk7: 192a 12651i bk8: 192a 13252i bk9: 192a 13158i bk10: 192a 13004i bk11: 192a 12790i bk12: 192a 12733i bk13: 192a 12814i bk14: 192a 12381i bk15: 192a 12371i 
dram_util_bins: 0 0 0 0 0 0 0 0 0 0
dram_eff_bins: 0 0 0 0 0 0 0 0 0 0
mrqq: max=16 avg=1.47726
Memory Partition 4: 
Cache L2_bank_008:
MSHR contents

Cache L2_bank_009:
MSHR contents

In Dram Latency Queue (total = 0): 
DRAM[4]: 16 bks, busW=4 BL=8 CL=12, tRRD=2 tCCD=6, tRCD=12 tRAS=28 tRP=12 tRC=40
n_cmd=16006 n_nop=11690 n_act=792 n_pre=776 n_req=1378 n_rd=2740 n_write=8 bw_util=0.3434
n_activity=9205 dram_eff=0.5971
bk0: 132a 14413i bk1: 128a 14296i bk2: 128a 14628i bk3: 128a 14386i bk4: 148a 13968i bk5: 152a 13687i bk6: 192a 13242i bk7: 192a 12984i bk8: 192a 13254i bk9: 192a 13186i bk10: 196a 13099i bk11: 192a 13021i bk12: 192a 12818i bk13: 192a 13133i bk14: 192a 12875i bk15: 192a 12756i 
dram_util_bins: 0 0 0 0 0 0 0 0 0 0
dram_eff_bins: 0 0 0 0 0 0 0 0 0 0
mrqq: max=15 avg=1.26403
Memory Partition 5: 
Cache L2_bank_010:
MSHR contents

Cache L2_bank_011:
MSHR contents

In Dram Latency Queue (total = 0): 
DRAM[5]: 16 bks, busW=4 BL=8 CL=12, tRRD=2 tCCD=6, tRCD=12 tRAS=28 tRP=12 tRC=40
n_cmd=16006 n_nop=11598 n_act=844 n_pre=828 n_req=1368 n_rd=2736 n_write=0 bw_util=0.3419
n_activity=8927 dram_eff=0.613
bk0: 132a 14253i bk1: 128a 14454i bk2: 128a 14362i bk3: 128a 14251i bk4: 148a 13704i bk5: 152a 13672i bk6: 192a 12305i bk7: 192a 12682i bk8: 192a 12823i bk9: 192a 13215i bk10: 192a 12636i bk11: 192a 12781i bk12: 192a 12909i bk13: 192a 12875i bk14: 192a 12166i bk15: 192a 12295i 
dram_util_bins: 0 0 0 0 0 0 0 0 0 0
dram_eff_bins: 0 0 0 0 0 0 0 0 0 0
mrqq: max=16 avg=1.55735

========= L2 cache stats =========
L2_cache_bank[0]: Access = 697, Miss = 683, Miss_rate = 0.980, Pending_hits = 3, Reservation_fails = 193
L2_cache_bank[1]: Access = 712, Miss = 684, Miss_rate = 0.961, Pending_hits = 4, Reservation_fails = 334
L2_cache_bank[2]: Access = 682, Miss = 682, Miss_rate = 1.000, Pending_hits = 0, Reservation_fails = 71
L2_cache_bank[3]: Access = 698, Miss = 684, Miss_rate = 0.980, Pending_hits = 3, Reservation_fails = 386
L2_cache_bank[4]: Access = 682, Miss = 682, Miss_rate = 1.000, Pending_hits = 0, Reservation_fails = 171
L2_cache_bank[5]: Access = 686, Miss = 686, Miss_rate = 1.000, Pending_hits = 0, Reservation_fails = 315
L2_cache_bank[6]: Access = 697, Miss = 683, Miss_rate = 0.980, Pending_hits = 3, Reservation_fails = 290
L2_cache_bank[7]: Access = 685, Miss = 685, Miss_rate = 1.000, Pending_hits = 0, Reservation_fails = 357
L2_cache_bank[8]: Access = 780, Miss = 686, Miss_rate = 0.879, Pending_hits = 12, Reservation_fails = 471
L2_cache_bank[9]: Access = 684, Miss = 684, Miss_rate = 1.000, Pending_hits = 0, Reservation_fails = 125
L2_cache_bank[10]: Access = 712, Miss = 684, Miss_rate = 0.961, Pending_hits = 4, Reservation_fails = 366
L2_cache_bank[11]: Access = 684, Miss = 684, Miss_rate = 1.000, Pending_hits = 0, Reservation_fails = 119
L2_total_cache_accesses = 8399
L2_total_cache_misses = 8207
L2_total_cache_miss_rate = 0.9771
L2_total_cache_pending_hits = 29
L2_total_cache_reservation_fails = 3198
L2_total_cache_breakdown:
	L2_cache_stats_breakdown[GLOBAL_ACC_R][HIT] = 2
	L2_cache_stats_breakdown[GLOBAL_ACC_R][MISS] = 8192
	L2_cache_stats_breakdown[GLOBAL_ACC_R][RESERVATION_FAIL] = 2364
	L2_cache_stats_breakdown[CONST_ACC_R][HIT] = 11
	L2_cache_stats_breakdown[CONST_ACC_R][HIT_RESERVED] = 3
	L2_cache_stats_breakdown[CONST_ACC_R][MISS] = 1
	L2_cache_stats_breakdown[CONST_ACC_R][RESERVATION_FAIL] = 100
	L2_cache_stats_breakdown[GLOBAL_ACC_W][HIT] = 58
	L2_cache_stats_breakdown[GLOBAL_ACC_W][HIT_RESERVED] = 6
	L2_cache_stats_breakdown[GLOBAL_ACC_W][MISS] = 2
	L2_cache_stats_breakdown[GLOBAL_ACC_W][RESERVATION_FAIL] = 127
	L2_cache_stats_breakdown[INST_ACC_R][HIT] = 92
	L2_cache_stats_breakdown[INST_ACC_R][HIT_RESERVED] = 20
	L2_cache_stats_breakdown[INST_ACC_R][MISS] = 12
	L2_cache_stats_breakdown[INST_ACC_R][RESERVATION_FAIL] = 607
L2_cache_data_port_util = 0.003
L2_cache_fill_port_util = 0.226

icnt_total_pkts_mem_to_simt=41701
icnt_total_pkts_simt_to_mem=8471
LD_mem_lat_dist  0 0 0 0 0 0 0 0 0 0 0 0 0 0 0 0 0 0 0 0 0 0 0 0 0 0 0
ST_mem_lat_dist  0 0 0 0 0 0 0 0 0 0 0 0 0 0 0 0 0 0 0 0 0 0 0 0 0 0 0
----------------------------Interconnect-DETAILS--------------------------------
Class 0:
Packet latency average = 8.3125
	minimum = 6
	maximum = 12
Network latency average = 8.1875
	minimum = 6
	maximum = 11
Slowest packet = 16786
Flit latency average = 6.22917
	minimum = 6
	maximum = 7
Slowest flit = 50126
Fragmentation average = 0
	minimum = 0
	maximum = 0
Injected packet rate average = 0.000348584
	minimum = 0 (at node 0)
	maximum = 0.00470588 (at node 5)
Accepted packet rate average = 0.000348584
	minimum = 0 (at node 0)
	maximum = 0.00470588 (at node 5)
Injected flit rate average = 0.00104575
	minimum = 0 (at node 0)
	maximum = 0.00941176 (at node 5)
Accepted flit rate average= 0.00104575
	minimum = 0 (at node 0)
	maximum = 0.0188235 (at node 5)
Injected packet length average = 3
Accepted packet length average = 3
Total in-flight flits = 0 (0 measured)
====== Overall Traffic Statistics ======
====== Traffic class 0 ======
Packet latency average = 12.3449 (2 samples)
	minimum = 6 (2 samples)
	maximum = 58.5 (2 samples)
Network latency average = 10.6987 (2 samples)
	minimum = 6 (2 samples)
	maximum = 43 (2 samples)
Flit latency average = 9.56233 (2 samples)
	minimum = 6 (2 samples)
	maximum = 41 (2 samples)
Fragmentation average = 0 (2 samples)
	minimum = 0 (2 samples)
	maximum = 0 (2 samples)
Injected packet rate average = 0.0299794 (2 samples)
	minimum = 0.025175 (2 samples)
	maximum = 0.039564 (2 samples)
Accepted packet rate average = 0.0299794 (2 samples)
	minimum = 0.025175 (2 samples)
	maximum = 0.039564 (2 samples)
Injected flit rate average = 0.0895439 (2 samples)
	minimum = 0.0253668 (2 samples)
	maximum = 0.178485 (2 samples)
Accepted flit rate average = 0.0895439 (2 samples)
	minimum = 0.0327036 (2 samples)
	maximum = 0.165161 (2 samples)
Injected packet size average = 2.98685 (2 samples)
Accepted packet size average = 2.98685 (2 samples)
Hops average = 1 (2 samples)
