

        *** GPGPU-Sim Simulator Version 3.2.2  [build 0] ***


GPGPU-Sim PTX: simulation mode 0 (can change with PTX_SIM_MODE_FUNC environment variable:
               1=functional simulation only, 0=detailed performance simulator)
GPGPU-Sim: Configuration options:

-network_mode                           1 # Interconnection network mode
-inter_config_file   config_fermi_islip.icnt # Interconnection network config file
-gpgpu_ptx_use_cuobjdump                    1 # Use cuobjdump to extract ptx and sass from binaries
-gpgpu_experimental_lib_support                    0 # Try to extract code from cuda libraries [Broken because of unknown cudaGetExportTable]
-gpgpu_ptx_convert_to_ptxplus                    0 # Convert SASS (native ISA) to ptxplus and run ptxplus
-gpgpu_ptx_force_max_capability                   20 # Force maximum compute capability
-gpgpu_ptx_inst_debug_to_file                    0 # Dump executed instructions' debug information to file
-gpgpu_ptx_inst_debug_file       inst_debug.txt # Executed instructions' debug output file
-gpgpu_ptx_inst_debug_thread_uid                    1 # Thread UID for executed instructions' debug output
-gpgpu_simd_model                       1 # 1 = post-dominator
-gpgpu_shader_core_pipeline              1536:32 # shader core pipeline config, i.e., {<nthread>:<warpsize>}
-gpgpu_tex_cache:l1  4:128:24,L:R:m:N:L,F:128:4,128:2 # per-shader L1 texture cache  (READ-ONLY) config  {<nsets>:<bsize>:<assoc>,<rep>:<wr>:<alloc>:<wr_alloc>,<mshr>:<N>:<merge>,<mq>:<rf>}
-gpgpu_const_cache:l1 64:64:2,L:R:f:N:L,A:2:32,4 # per-shader L1 constant memory cache  (READ-ONLY) config  {<nsets>:<bsize>:<assoc>,<rep>:<wr>:<alloc>:<wr_alloc>,<mshr>:<N>:<merge>,<mq>} 
-gpgpu_cache:il1     4:128:4,L:R:f:N:L,A:2:32,4 # shader L1 instruction cache config  {<nsets>:<bsize>:<assoc>,<rep>:<wr>:<alloc>:<wr_alloc>,<mshr>:<N>:<merge>,<mq>} 
-gpgpu_cache:dl1     32:128:4,L:L:m:N:H,A:32:8,8:2,0,1:0:1:1:0:1,1:4:8:16:32:64,/sciclone/data10/hwang07/GPU_RESEARCH/swl/swl_outputs/RESULTS/gto/ # per-shader L1 data cache config  {<nsets>:<bsize>:<assoc>,<rep>:<wr>:<alloc>:<wr_alloc>,<mshr>:<N>:<merge>,<mq> | none}
-gpgpu_cache:dl1PrefL1                 none # per-shader L1 data cache config  {<nsets>:<bsize>:<assoc>,<rep>:<wr>:<alloc>:<wr_alloc>,<mshr>:<N>:<merge>,<mq> | none}
-gpgpu_cache:dl1PreShared                 none # per-shader L1 data cache config  {<nsets>:<bsize>:<assoc>,<rep>:<wr>:<alloc>:<wr_alloc>,<mshr>:<N>:<merge>,<mq> | none}
-gmem_skip_L1D                          0 # global memory access skip L1D cache (implements -Xptxas -dlcm=cg, default=no skip)
-gpgpu_perfect_mem                      0 # enable perfect memory mode (no cache miss)
-n_regfile_gating_group                    4 # group of lanes that should be read/written together)
-gpgpu_clock_gated_reg_file                    0 # enable clock gated reg file for power calculations
-gpgpu_clock_gated_lanes                    0 # enable clock gated lanes for power calculations
-gpgpu_shader_registers                32768 # Number of registers per shader core. Limits number of concurrent CTAs. (default 8192)
-gpgpu_shader_cta                       8 # Maximum number of concurrent CTAs in shader (default 8)
-gpgpu_num_cta_barriers                   16 # Maximum number of named barriers per CTA (default 16)
-gpgpu_n_clusters                      15 # number of processing clusters
-gpgpu_n_cores_per_cluster                    1 # number of simd cores per cluster
-gpgpu_n_cluster_ejection_buffer_size                    8 # number of packets in ejection buffer
-gpgpu_n_ldst_response_buffer_size                    2 # number of response packets in ld/st unit ejection buffer
-gpgpu_shmem_size                   16384 # Size of shared memory per shader core (default 16kB)
-gpgpu_shmem_size                   49152 # Size of shared memory per shader core (default 16kB)
-gpgpu_shmem_size_PrefL1                16384 # Size of shared memory per shader core (default 16kB)
-gpgpu_shmem_size_PrefShared                16384 # Size of shared memory per shader core (default 16kB)
-gpgpu_shmem_num_banks                   32 # Number of banks in the shared memory in each shader core (default 16)
-gpgpu_shmem_limited_broadcast                    0 # Limit shared memory to do one broadcast per cycle (default on)
-gpgpu_shmem_warp_parts                    1 # Number of portions a warp is divided into for shared memory bank conflict check 
-gpgpu_warpdistro_shader                   -1 # Specify which shader core to collect the warp size distribution from
-gpgpu_warp_issue_shader                    0 # Specify which shader core to collect the warp issue distribution from
-gpgpu_local_mem_map                    1 # Mapping from local memory space address to simulated GPU physical address space (default = enabled)
-gpgpu_num_reg_banks                   16 # Number of register banks (default = 8)
-gpgpu_reg_bank_use_warp_id                    0 # Use warp ID in mapping registers to banks (default = off)
-gpgpu_operand_collector_num_units_sp                    6 # number of collector units (default = 4)
-gpgpu_operand_collector_num_units_sfu                    8 # number of collector units (default = 4)
-gpgpu_operand_collector_num_units_mem                    2 # number of collector units (default = 2)
-gpgpu_operand_collector_num_units_gen                    0 # number of collector units (default = 0)
-gpgpu_operand_collector_num_in_ports_sp                    2 # number of collector unit in ports (default = 1)
-gpgpu_operand_collector_num_in_ports_sfu                    1 # number of collector unit in ports (default = 1)
-gpgpu_operand_collector_num_in_ports_mem                    1 # number of collector unit in ports (default = 1)
-gpgpu_operand_collector_num_in_ports_gen                    0 # number of collector unit in ports (default = 0)
-gpgpu_operand_collector_num_out_ports_sp                    2 # number of collector unit in ports (default = 1)
-gpgpu_operand_collector_num_out_ports_sfu                    1 # number of collector unit in ports (default = 1)
-gpgpu_operand_collector_num_out_ports_mem                    1 # number of collector unit in ports (default = 1)
-gpgpu_operand_collector_num_out_ports_gen                    0 # number of collector unit in ports (default = 0)
-gpgpu_coalesce_arch                   13 # Coalescing arch (default = 13, anything else is off for now)
-gpgpu_num_sched_per_core                    2 # Number of warp schedulers per core
-gpgpu_max_insn_issue_per_warp                    1 # Max number of instructions that can be issued per warp in one cycle by scheduler
-gpgpu_simt_core_sim_order                    1 # Select the simulation order of cores in a cluster (0=Fix, 1=Round-Robin)
-gpgpu_pipeline_widths        2,1,1,2,1,1,2 # Pipeline widths ID_OC_SP,ID_OC_SFU,ID_OC_MEM,OC_EX_SP,OC_EX_SFU,OC_EX_MEM,EX_WB
-gpgpu_num_sp_units                     2 # Number of SP units (default=1)
-gpgpu_num_sfu_units                    1 # Number of SF units (default=1)
-gpgpu_num_mem_units                    1 # Number if ldst units (default=1) WARNING: not hooked up to anything
-gpgpu_scheduler                      gto # Scheduler configuration: < lrr | gto | two_level_active > If two_level_active:<num_active_warps>:<inner_prioritization>:<outer_prioritization>For complete list of prioritization values see shader.h enum scheduler_prioritization_typeDefault: gto
-gpgpu_dram_scheduler                    1 # 0 = fifo, 1 = FR-FCFS (defaul)
-gpgpu_dram_partition_queues              8:8:8:8 # i2$:$2d:d2$:$2i
-l2_ideal                               0 # Use a ideal L2 cache that always hit
-gpgpu_cache:dl2     64:128:8,L:B:m:W:L,A:32:4,4:0,32 # unified banked L2 data cache config  {<nsets>:<bsize>:<assoc>,<rep>:<wr>:<alloc>:<wr_alloc>,<mshr>:<N>:<merge>,<mq>}
-gpgpu_cache:dl2_texture_only                    0 # L2 cache used for texture only
-gpgpu_n_mem                            6 # number of memory modules (e.g. memory controllers) in gpu
-gpgpu_n_sub_partition_per_mchannel                    2 # number of memory subpartition in each memory module
-gpgpu_n_mem_per_ctrlr                    2 # number of memory chips per memory controller
-gpgpu_memlatency_stat                   14 # track and display latency statistics 0x2 enables MC, 0x4 enables queue logs
-gpgpu_frfcfs_dram_sched_queue_size                   16 # 0 = unlimited (default); # entries per chip
-gpgpu_dram_return_queue_size                  116 # 0 = unlimited (default); # entries per chip
-gpgpu_dram_buswidth                    4 # default = 4 bytes (8 bytes per cycle at DDR)
-gpgpu_dram_burst_length                    8 # Burst length of each DRAM request (default = 4 data bus cycle)
-dram_data_command_freq_ratio                    4 # Frequency ratio between DRAM data bus and command bus (default = 2 times, i.e. DDR)
-gpgpu_dram_timing_opt nbk=16:CCD=2:RRD=6:RCD=12:RAS=28:RP=12:RC=40: CL=12:WL=4:CDLR=5:WR=12:nbkgrp=4:CCDL=3:RTPL=2 # DRAM timing parameters = {nbk:tCCD:tRRD:tRCD:tRAS:tRP:tRC:CL:WL:tCDLR:tWR:nbkgrp:tCCDL:tRTPL}
-rop_latency                          120 # ROP queue latency (default 85)
-dram_latency                         100 # DRAM latency (default 30)
-gpgpu_mem_addr_mapping dramid@8;00000000.00000000.00000000.00000000.0000RRRR.RRRRRRRR.BBBCCCCB.CCSSSSSS # mapping memory address to dram model {dramid@<start bit>;<memory address map>}
-gpgpu_mem_addr_test                    0 # run sweep test to check address mapping for aliased address
-gpgpu_mem_address_mask                    1 # 0 = old addressing mask, 1 = new addressing mask, 2 = new add. mask + flipped bank sel and chip sel bits
-gpuwattch_xml_file  gpuwattch_gtx480.xml # GPUWattch XML file
-power_simulation_enabled                    0 # Turn on power simulator (1=On, 0=Off)
-power_per_cycle_dump                    0 # Dump detailed power output each cycle
-power_trace_enabled                    0 # produce a file for the power trace (1=On, 0=Off)
-power_trace_zlevel                     6 # Compression level of the power trace output log (0=no comp, 9=highest)
-steady_power_levels_enabled                    0 # produce a file for the steady power levels (1=On, 0=Off)
-steady_state_definition                  8:4 # allowed deviation:number of samples
-gpgpu_max_cycle                        0 # terminates gpu simulation early (0 = no limit)
-gpgpu_max_insn                         0 # terminates gpu simulation early (0 = no limit)
-gpgpu_max_cta                          0 # terminates gpu simulation early (0 = no limit)
-gpgpu_runtime_stat                   500 # display runtime statistics such as dram utilization {<freq>:<flag>}
-liveness_message_freq                    1 # Minimum number of seconds between simulation liveness messages (0 = always print)
-gpgpu_flush_l1_cache                    0 # Flush L1 cache at the end of each kernel call
-gpgpu_flush_l2_cache                    0 # Flush L2 cache at the end of each kernel call
-gpgpu_deadlock_detect                    1 # Stop the simulation at deadlock (1=on (default), 0=off)
-gpgpu_ptx_instruction_classification                    0 # if enabled will classify ptx instruction types per kernel (Max 255 kernels now)
-gpgpu_ptx_sim_mode                     0 # Select between Performance (default) or Functional simulation (1)
-gpgpu_clock_domains 700.0:700.0:700.0:924.0 # Clock Domain Frequencies in MhZ {<Core Clock>:<ICNT Clock>:<L2 Clock>:<DRAM Clock>}
-gpgpu_max_concurrent_kernel                    8 # maximum kernels that can run concurrently on GPU
-gpgpu_cflog_interval                    0 # Interval between each snapshot in control flow logger
-visualizer_enabled                     0 # Turn on visualizer output (1=On, 0=Off)
-visualizer_outputfile                 NULL # Specifies the output log file for visualizer
-visualizer_zlevel                      6 # Compression level of the visualizer output log (0=no comp, 9=highest)
-trace_enabled                          0 # Turn on traces
-trace_components                    none # comma seperated list of traces to enable. Complete list found in trace_streams.tup. Default none
-trace_sampling_core                    0 # The core which is printed using CORE_DPRINTF. Default 0
-trace_sampling_memory_partition                   -1 # The memory partition which is printed using MEMPART_DPRINTF. Default -1 (i.e. all)
-enable_ptx_file_line_stats                    1 # Turn on PTX source line statistic profiling. (1 = On)
-ptx_line_stats_filename gpgpu_inst_stats.txt # Output file for PTX source line statistics.
-save_embedded_ptx                      0 # saves ptx files embedded in binary as <n>.ptx
-keep                                   0 # keep intermediate files created by GPGPU-Sim when interfacing with external programs
-gpgpu_ptx_save_converted_ptxplus                    0 # Saved converted ptxplus to a file
-ptx_opcode_latency_int         4,13,4,5,145 # Opcode latencies for integers <ADD,MAX,MUL,MAD,DIV>Default 1,1,19,25,145
-ptx_opcode_latency_fp          4,13,4,5,39 # Opcode latencies for single precision floating points <ADD,MAX,MUL,MAD,DIV>Default 1,1,1,1,30
-ptx_opcode_latency_dp         8,19,8,8,330 # Opcode latencies for double precision floating points <ADD,MAX,MUL,MAD,DIV>Default 8,8,8,8,335
-ptx_opcode_initiation_int            1,2,2,1,8 # Opcode initiation intervals for integers <ADD,MAX,MUL,MAD,DIV>Default 1,1,4,4,32
-ptx_opcode_initiation_fp            1,2,1,1,4 # Opcode initiation intervals for single precision floating points <ADD,MAX,MUL,MAD,DIV>Default 1,1,1,1,5
-ptx_opcode_initiation_dp         8,16,8,8,130 # Opcode initiation intervals for double precision floating points <ADD,MAX,MUL,MAD,DIV>Default 8,8,8,8,130
DRAM Timing Options:
nbk                                    16 # number of banks
CCD                                     2 # column to column delay
RRD                                     6 # minimal delay between activation of rows in different banks
RCD                                    12 # row to column delay
RAS                                    28 # time needed to activate row
RP                                     12 # time needed to precharge (deactivate) row
RC                                     40 # row cycle time
CDLR                                    5 # switching from write to read (changes tWTR)
WR                                     12 # last data-in to row precharge
CL                                     12 # CAS latency
WL                                      4 # Write latency
nbkgrp                                  4 # number of bank groups
CCDL                                    3 # column to column delay between accesses to different bank groups
RTPL                                    2 # read to precharge delay between accesses to different bank groups
Total number of memory sub partition = 12
addr_dec_mask[CHIP]  = 0000000000000000 	high:64 low:0
addr_dec_mask[BK]    = 000000000000e100 	high:16 low:8
addr_dec_mask[ROW]   = 000000000fff0000 	high:28 low:16
addr_dec_mask[COL]   = 0000000000001eff 	high:13 low:0
addr_dec_mask[BURST] = 000000000000003f 	high:6 low:0
sub_partition_id_mask = 0000000000000100
GPGPU-Sim uArch: clock freqs: 700000000.000000:700000000.000000:700000000.000000:924000000.000000
GPGPU-Sim uArch: clock periods: 0.00000000142857142857:0.00000000142857142857:0.00000000142857142857:0.00000000108225108225
*** Initializing Memory Statistics ***
GPGPU-Sim uArch: interconnect node map (shaderID+MemID to icntID)
GPGPU-Sim uArch: Memory nodes ID start from index: 15
GPGPU-Sim uArch:    0   1   2   3   4
GPGPU-Sim uArch:    5   6   7   8   9
GPGPU-Sim uArch:   10  11  12  13  14
GPGPU-Sim uArch:   15  16  17  18  19
GPGPU-Sim uArch:   20  21  22  23  24
GPGPU-Sim uArch:   25  26
GPGPU-Sim uArch: interconnect node reverse map (icntID to shaderID+MemID)
GPGPU-Sim uArch: Memory nodes start from ID: 15
GPGPU-Sim uArch:    0   1   2   3   4
GPGPU-Sim uArch:    5   6   7   8   9
GPGPU-Sim uArch:   10  11  12  13  14
GPGPU-Sim uArch:   15  16  17  18  19
GPGPU-Sim uArch:   20  21  22  23  24
GPGPU-Sim uArch:   25  26
8ef9342edb8cdfc3e3546abba4d98120  /sciclone/data10/hwang07/adwait/applications/benchmarks/CUDA/NN/gpgpu_ptx_sim__NN
GPGPU-Sim uArch: performance model initialization complete.
GPGPU-Sim PTX: __cudaRegisterFatBinary, fat_cubin_handle = 1, filename=NN.cu
self exe links to: /sciclone/data10/hwang07/adwait/applications/benchmarks/CUDA/NN/gpgpu_ptx_sim__NN
Running md5sum using "md5sum /sciclone/data10/hwang07/adwait/applications/benchmarks/CUDA/NN/gpgpu_ptx_sim__NN "
Parsing file _cuobjdump_complete_output_L23lPK
######### cuobjdump parser ########
## Adding new section ELF
Adding arch: sm_20
Adding identifier: NN.cu
## Adding new section PTX
Adding ptx filename: _cuobjdump_1.ptx
Adding arch: sm_20
Adding identifier: NN.cu
Done parsing!!!
GPGPU-Sim PTX: __cudaRegisterFunction _Z18executeFourthLayerPfS_S_ : hostFun 0x0x4028e3, fat_cubin_handle = 1
GPGPU-Sim PTX: allocating constant region for "kernelTemplate" from 0x100 to 0x164 (global memory space) 1
GPGPU-Sim PTX: instruction assembly for function '_Z17executeFirstLayerPfS_S_'...   done.
GPGPU-Sim PTX: finding reconvergence points for '_Z17executeFirstLayerPfS_S_'...
GPGPU-Sim PTX: Finding dominators for '_Z17executeFirstLayerPfS_S_'...
GPGPU-Sim PTX: Finding immediate dominators for '_Z17executeFirstLayerPfS_S_'...
GPGPU-Sim PTX: Finding postdominators for '_Z17executeFirstLayerPfS_S_'...
GPGPU-Sim PTX: Finding immediate postdominators for '_Z17executeFirstLayerPfS_S_'...
GPGPU-Sim PTX: pre-decoding instructions for '_Z17executeFirstLayerPfS_S_'...
GPGPU-Sim PTX: reconvergence points for _Z17executeFirstLayerPfS_S_...
GPGPU-Sim PTX:  1 (potential) branch divergence @  PC=0x100 (_1.ptx:100) @%p1 bra $Lt_0_4098;
GPGPU-Sim PTX:    immediate post dominator      @  PC=0x108 (_1.ptx:102) cvt.f64.f32 %fd1, %f1;
GPGPU-Sim PTX:  2 (potential) branch divergence @  PC=0x148 (_1.ptx:110) @!%p2 bra $Lt_0_4866;
GPGPU-Sim PTX:    immediate post dominator      @  PC=0x2a8 (_1.ptx:162) cvt.f64.f32 %fd5, %f29;
GPGPU-Sim PTX:  3 (potential) branch divergence @  PC=0x230 (_1.ptx:142) bra.uni $Lt_0_4610;
GPGPU-Sim PTX:    immediate post dominator      @  PC=0x2a8 (_1.ptx:162) cvt.f64.f32 %fd5, %f29;
GPGPU-Sim PTX: ... end of reconvergence points for _Z17executeFirstLayerPfS_S_
GPGPU-Sim PTX: ... done pre-decoding instructions for '_Z17executeFirstLayerPfS_S_'.
GPGPU-Sim PTX: allocating constant region for "kernelTemplate2" from 0x180 to 0x1e4 (global memory space) 2
GPGPU-Sim PTX: instruction assembly for function '_Z18executeSecondLayerPfS_S_'...   done.
GPGPU-Sim PTX: finding reconvergence points for '_Z18executeSecondLayerPfS_S_'...
GPGPU-Sim PTX: Finding dominators for '_Z18executeSecondLayerPfS_S_'...
GPGPU-Sim PTX: Finding immediate dominators for '_Z18executeSecondLayerPfS_S_'...
GPGPU-Sim PTX: Finding postdominators for '_Z18executeSecondLayerPfS_S_'...
GPGPU-Sim PTX: Finding immediate postdominators for '_Z18executeSecondLayerPfS_S_'...
GPGPU-Sim PTX: pre-decoding instructions for '_Z18executeSecondLayerPfS_S_'...
GPGPU-Sim PTX: reconvergence points for _Z18executeSecondLayerPfS_S_...
GPGPU-Sim PTX:  1 (potential) branch divergence @  PC=0x4a0 (_1.ptx:251) @%p1 bra $Lt_1_5634;
GPGPU-Sim PTX:    immediate post dominator      @  PC=0x4a8 (_1.ptx:253) cvt.f64.f32 %fd1, %f1;
GPGPU-Sim PTX:  2 (potential) branch divergence @  PC=0x4e8 (_1.ptx:261) @!%p2 bra $Lt_1_6402;
GPGPU-Sim PTX:    immediate post dominator      @  PC=0x648 (_1.ptx:313) cvt.f64.f32 %fd5, %f44;
GPGPU-Sim PTX:  3 (potential) branch divergence @  PC=0x5d0 (_1.ptx:293) bra.uni $Lt_1_6146;
GPGPU-Sim PTX:    immediate post dominator      @  PC=0x648 (_1.ptx:313) cvt.f64.f32 %fd5, %f44;
GPGPU-Sim PTX: ... end of reconvergence points for _Z18executeSecondLayerPfS_S_
GPGPU-Sim PTX: ... done pre-decoding instructions for '_Z18executeSecondLayerPfS_S_'.
GPGPU-Sim PTX: instruction assembly for function '_Z17executeThirdLayerPfS_S_'...   done.
GPGPU-Sim PTX: finding reconvergence points for '_Z17executeThirdLayerPfS_S_'...
GPGPU-Sim PTX: Finding dominators for '_Z17executeThirdLayerPfS_S_'...
GPGPU-Sim PTX: Finding immediate dominators for '_Z17executeThirdLayerPfS_S_'...
GPGPU-Sim PTX: Finding postdominators for '_Z17executeThirdLayerPfS_S_'...
GPGPU-Sim PTX: Finding immediate postdominators for '_Z17executeThirdLayerPfS_S_'...
GPGPU-Sim PTX: pre-decoding instructions for '_Z17executeThirdLayerPfS_S_'...
GPGPU-Sim PTX: reconvergence points for _Z17executeThirdLayerPfS_S_...
GPGPU-Sim PTX:  1 (potential) branch divergence @  PC=0x788 (_1.ptx:373) @%p1 bra $Lt_2_4098;
GPGPU-Sim PTX:    immediate post dominator      @  PC=0x790 (_1.ptx:375) cvt.f64.f32 %fd1, %f1;
GPGPU-Sim PTX:  2 (potential) branch divergence @  PC=0x7d0 (_1.ptx:383) @!%p2 bra $Lt_2_4866;
GPGPU-Sim PTX:    immediate post dominator      @  PC=0x930 (_1.ptx:435) cvt.f64.f32 %fd5, %f29;
GPGPU-Sim PTX:  3 (potential) branch divergence @  PC=0x8b8 (_1.ptx:415) bra.uni $Lt_2_4610;
GPGPU-Sim PTX:    immediate post dominator      @  PC=0x930 (_1.ptx:435) cvt.f64.f32 %fd5, %f29;
GPGPU-Sim PTX: ... end of reconvergence points for _Z17executeThirdLayerPfS_S_
GPGPU-Sim PTX: ... done pre-decoding instructions for '_Z17executeThirdLayerPfS_S_'.
GPGPU-Sim PTX: instruction assembly for function '_Z18executeFourthLayerPfS_S_'...   done.
GPGPU-Sim PTX: finding reconvergence points for '_Z18executeFourthLayerPfS_S_'...
GPGPU-Sim PTX: Finding dominators for '_Z18executeFourthLayerPfS_S_'...
GPGPU-Sim PTX: Finding immediate dominators for '_Z18executeFourthLayerPfS_S_'...
GPGPU-Sim PTX: Finding postdominators for '_Z18executeFourthLayerPfS_S_'...
GPGPU-Sim PTX: Finding immediate postdominators for '_Z18executeFourthLayerPfS_S_'...
GPGPU-Sim PTX: pre-decoding instructions for '_Z18executeFourthLayerPfS_S_'...
GPGPU-Sim PTX: reconvergence points for _Z18executeFourthLayerPfS_S_...
GPGPU-Sim PTX:  1 (potential) branch divergence @  PC=0xa50 (_1.ptx:491) @%p1 bra $Lt_3_4098;
GPGPU-Sim PTX:    immediate post dominator      @  PC=0xa58 (_1.ptx:493) cvt.f64.f32 %fd1, %f1;
GPGPU-Sim PTX:  2 (potential) branch divergence @  PC=0xa98 (_1.ptx:501) @!%p2 bra $Lt_3_4866;
GPGPU-Sim PTX:    immediate post dominator      @  PC=0xbf8 (_1.ptx:553) cvt.f64.f32 %fd5, %f29;
GPGPU-Sim PTX:  3 (potential) branch divergence @  PC=0xb80 (_1.ptx:533) bra.uni $Lt_3_4610;
GPGPU-Sim PTX:    immediate post dominator      @  PC=0xbf8 (_1.ptx:553) cvt.f64.f32 %fd5, %f29;
GPGPU-Sim PTX: ... end of reconvergence points for _Z18executeFourthLayerPfS_S_
GPGPU-Sim PTX: ... done pre-decoding instructions for '_Z18executeFourthLayerPfS_S_'.
GPGPU-Sim PTX: finished parsing EMBEDDED .ptx file _1.ptx
Adding _cuobjdump_1.ptx with cubin handle 1
GPGPU-Sim PTX: extracting embedded .ptx to temporary file "_ptx_exwcI9"
Running: cat _ptx_exwcI9 | sed 's/.version 1.5/.version 1.4/' | sed 's/, texmode_independent//' | sed 's/\(\.extern \.const\[1\] .b8 \w\+\)\[\]/\1\[1\]/' | sed 's/const\[.\]/const\[0\]/g' > _ptx2_D8U0Gz
GPGPU-Sim PTX: generating ptxinfo using "$CUDA_INSTALL_PATH/bin/ptxas --gpu-name=sm_20 -v _ptx2_D8U0Gz --output-file  /dev/null 2> _ptx_exwcI9info"
GPGPU-Sim PTX: Kernel '_Z18executeFourthLayerPfS_S_' : regs=12, lmem=0, smem=0, cmem=288
GPGPU-Sim PTX: Kernel '_Z17executeThirdLayerPfS_S_' : regs=12, lmem=0, smem=0, cmem=288
GPGPU-Sim PTX: Kernel '_Z18executeSecondLayerPfS_S_' : regs=22, lmem=0, smem=0, cmem=288
GPGPU-Sim PTX: Kernel '_Z17executeFirstLayerPfS_S_' : regs=17, lmem=0, smem=0, cmem=288
GPGPU-Sim PTX: removing ptxinfo using "rm -f _ptx_exwcI9 _ptx2_D8U0Gz _ptx_exwcI9info"
GPGPU-Sim PTX: loading globals with explicit initializers... 
GPGPU-Sim PTX: finished loading globals (0 bytes total).
GPGPU-Sim PTX: loading constants with explicit initializers...  done.
GPGPU-Sim PTX: __cudaRegisterFunction _Z17executeThirdLayerPfS_S_ : hostFun 0x0x402821, fat_cubin_handle = 1
GPGPU-Sim PTX: __cudaRegisterFunction _Z18executeSecondLayerPfS_S_ : hostFun 0x0x40275f, fat_cubin_handle = 1
GPGPU-Sim PTX: __cudaRegisterFunction _Z17executeFirstLayerPfS_S_ : hostFun 0x0x40269d, fat_cubin_handle = 1
GPGPU-Sim PTX: __cudaRegisterVar: hostVar = 0x609e60; deviceAddress = kernelTemplate; deviceName = kernelTemplate
GPGPU-Sim PTX: __cudaRegisterVar: Registering const memory space of 100 bytes
GPGPU-Sim PTX registering constant kernelTemplate (100 bytes) to name mapping
GPGPU-Sim PTX: __cudaRegisterVar: hostVar = 0x609ee0; deviceAddress = kernelTemplate2; deviceName = kernelTemplate2
GPGPU-Sim PTX: __cudaRegisterVar: Registering const memory space of 100 bytes
GPGPU-Sim PTX registering constant kernelTemplate2 (100 bytes) to name mapping
magic number = 2051
number of items = 10000
number of rows = 28
number of rows = 28
NUM=28

GPGPU-Sim PTX: cudaLaunch for 0x0x40269d (mode=performance simulation) on stream 0
GPGPU-Sim PTX: pushing kernel '_Z17executeFirstLayerPfS_S_' to stream 0, gridDim= (6,28,1) blockDim = (13,13,1) 
kernel '_Z17executeFirstLayerPfS_S_' transfer to GPU hardware scheduler
GPGPU-Sim uArch: Shader 1 bind to kernel 1 '_Z17executeFirstLayerPfS_S_'
GPGPU-Sim uArch: CTA/core = 8, limited by: threads regs cta_limit
GPGPU-Sim uArch: core:  1, cta: 0 initialized @(1,0)
GPGPU-Sim uArch: Shader 2 bind to kernel 1 '_Z17executeFirstLayerPfS_S_'
GPGPU-Sim uArch: core:  2, cta: 0 initialized @(1,0)
GPGPU-Sim uArch: Shader 3 bind to kernel 1 '_Z17executeFirstLayerPfS_S_'
GPGPU-Sim uArch: core:  3, cta: 0 initialized @(1,0)
GPGPU-Sim uArch: Shader 4 bind to kernel 1 '_Z17executeFirstLayerPfS_S_'
GPGPU-Sim uArch: core:  4, cta: 0 initialized @(1,0)
GPGPU-Sim uArch: Shader 5 bind to kernel 1 '_Z17executeFirstLayerPfS_S_'
GPGPU-Sim uArch: core:  5, cta: 0 initialized @(1,0)
GPGPU-Sim uArch: Shader 6 bind to kernel 1 '_Z17executeFirstLayerPfS_S_'
GPGPU-Sim uArch: core:  6, cta: 0 initialized @(1,0)
GPGPU-Sim uArch: Shader 7 bind to kernel 1 '_Z17executeFirstLayerPfS_S_'
GPGPU-Sim uArch: core:  7, cta: 0 initialized @(1,0)
GPGPU-Sim uArch: Shader 8 bind to kernel 1 '_Z17executeFirstLayerPfS_S_'
GPGPU-Sim uArch: core:  8, cta: 0 initialized @(1,0)
GPGPU-Sim uArch: Shader 9 bind to kernel 1 '_Z17executeFirstLayerPfS_S_'
GPGPU-Sim uArch: core:  9, cta: 0 initialized @(1,0)
GPGPU-Sim uArch: Shader 10 bind to kernel 1 '_Z17executeFirstLayerPfS_S_'
GPGPU-Sim uArch: core: 10, cta: 0 initialized @(1,0)
GPGPU-Sim uArch: Shader 11 bind to kernel 1 '_Z17executeFirstLayerPfS_S_'
GPGPU-Sim uArch: core: 11, cta: 0 initialized @(1,0)
GPGPU-Sim uArch: Shader 12 bind to kernel 1 '_Z17executeFirstLayerPfS_S_'
GPGPU-Sim uArch: core: 12, cta: 0 initialized @(1,0)
GPGPU-Sim uArch: Shader 13 bind to kernel 1 '_Z17executeFirstLayerPfS_S_'
GPGPU-Sim uArch: core: 13, cta: 0 initialized @(1,0)
GPGPU-Sim uArch: Shader 14 bind to kernel 1 '_Z17executeFirstLayerPfS_S_'
GPGPU-Sim uArch: core: 14, cta: 0 initialized @(1,0)
GPGPU-Sim uArch: Shader 0 bind to kernel 1 '_Z17executeFirstLayerPfS_S_'
GPGPU-Sim uArch: core:  0, cta: 0 initialized @(1,0)
GPGPU-Sim uArch: core:  1, cta: 1 initialized @(2,0)
GPGPU-Sim uArch: core:  2, cta: 1 initialized @(2,0)
GPGPU-Sim uArch: core:  3, cta: 1 initialized @(2,0)
GPGPU-Sim uArch: core:  4, cta: 1 initialized @(2,0)
GPGPU-Sim uArch: core:  5, cta: 1 initialized @(2,0)
GPGPU-Sim uArch: core:  6, cta: 1 initialized @(2,0)
GPGPU-Sim uArch: core:  7, cta: 1 initialized @(2,0)
GPGPU-Sim uArch: core:  8, cta: 1 initialized @(2,0)
GPGPU-Sim uArch: core:  9, cta: 1 initialized @(2,0)
GPGPU-Sim uArch: core: 10, cta: 1 initialized @(2,0)
GPGPU-Sim uArch: core: 11, cta: 1 initialized @(2,0)
GPGPU-Sim uArch: core: 12, cta: 1 initialized @(2,0)
GPGPU-Sim uArch: core: 13, cta: 1 initialized @(2,0)
GPGPU-Sim uArch: core: 14, cta: 1 initialized @(2,0)
GPGPU-Sim uArch: core:  0, cta: 1 initialized @(2,0)
GPGPU-Sim uArch: core:  1, cta: 2 initialized @(3,0)
GPGPU-Sim uArch: core:  2, cta: 2 initialized @(3,0)
GPGPU-Sim uArch: core:  3, cta: 2 initialized @(3,0)
GPGPU-Sim uArch: core:  4, cta: 2 initialized @(3,0)
GPGPU-Sim uArch: core:  5, cta: 2 initialized @(3,0)
GPGPU-Sim uArch: core:  6, cta: 2 initialized @(3,0)
GPGPU-Sim uArch: core:  7, cta: 2 initialized @(3,0)
GPGPU-Sim uArch: core:  8, cta: 2 initialized @(3,0)
GPGPU-Sim uArch: core:  9, cta: 2 initialized @(3,0)
GPGPU-Sim uArch: core: 10, cta: 2 initialized @(3,0)
GPGPU-Sim uArch: core: 11, cta: 2 initialized @(3,0)
GPGPU-Sim uArch: core: 12, cta: 2 initialized @(3,0)
GPGPU-Sim uArch: core: 13, cta: 2 initialized @(3,0)
GPGPU-Sim uArch: core: 14, cta: 2 initialized @(3,0)
GPGPU-Sim uArch: core:  0, cta: 2 initialized @(3,0)
GPGPU-Sim uArch: core:  1, cta: 3 initialized @(4,0)
GPGPU-Sim uArch: core:  2, cta: 3 initialized @(4,0)
GPGPU-Sim uArch: core:  3, cta: 3 initialized @(4,0)
GPGPU-Sim uArch: core:  4, cta: 3 initialized @(4,0)
GPGPU-Sim uArch: core:  5, cta: 3 initialized @(4,0)
GPGPU-Sim uArch: core:  6, cta: 3 initialized @(4,0)
GPGPU-Sim uArch: core:  7, cta: 3 initialized @(4,0)
GPGPU-Sim uArch: core:  8, cta: 3 initialized @(4,0)
GPGPU-Sim uArch: core:  9, cta: 3 initialized @(4,0)
GPGPU-Sim uArch: core: 10, cta: 3 initialized @(4,0)
GPGPU-Sim uArch: core: 11, cta: 3 initialized @(4,0)
GPGPU-Sim uArch: core: 12, cta: 3 initialized @(4,0)
GPGPU-Sim uArch: core: 13, cta: 3 initialized @(4,0)
GPGPU-Sim uArch: core: 14, cta: 3 initialized @(4,0)
GPGPU-Sim uArch: core:  0, cta: 3 initialized @(4,0)
GPGPU-Sim uArch: core:  1, cta: 4 initialized @(5,0)
GPGPU-Sim uArch: core:  2, cta: 4 initialized @(5,0)
GPGPU-Sim uArch: core:  3, cta: 4 initialized @(5,0)
GPGPU-Sim uArch: core:  4, cta: 4 initialized @(5,0)
GPGPU-Sim uArch: core:  5, cta: 4 initialized @(5,0)
GPGPU-Sim uArch: core:  6, cta: 4 initialized @(5,0)
GPGPU-Sim uArch: core:  7, cta: 4 initialized @(5,0)
GPGPU-Sim uArch: core:  8, cta: 4 initialized @(5,0)
GPGPU-Sim uArch: core:  9, cta: 4 initialized @(5,0)
GPGPU-Sim uArch: core: 10, cta: 4 initialized @(5,0)
GPGPU-Sim uArch: core: 11, cta: 4 initialized @(5,0)
GPGPU-Sim uArch: core: 12, cta: 4 initialized @(5,0)
GPGPU-Sim uArch: core: 13, cta: 4 initialized @(5,0)
GPGPU-Sim uArch: core: 14, cta: 4 initialized @(5,0)
GPGPU-Sim uArch: core:  0, cta: 4 initialized @(5,0)
GPGPU-Sim uArch: core:  1, cta: 5 initialized @(6,0)
GPGPU-Sim uArch: core:  2, cta: 5 initialized @(6,0)
GPGPU-Sim uArch: core:  3, cta: 5 initialized @(6,0)
GPGPU-Sim uArch: core:  4, cta: 5 initialized @(6,0)
GPGPU-Sim uArch: core:  5, cta: 5 initialized @(6,0)
GPGPU-Sim uArch: core:  6, cta: 5 initialized @(6,0)
GPGPU-Sim uArch: core:  7, cta: 5 initialized @(6,0)
GPGPU-Sim uArch: core:  8, cta: 5 initialized @(6,0)
GPGPU-Sim uArch: core:  9, cta: 5 initialized @(6,0)
GPGPU-Sim uArch: core: 10, cta: 5 initialized @(6,0)
GPGPU-Sim uArch: core: 11, cta: 5 initialized @(6,0)
GPGPU-Sim uArch: core: 12, cta: 5 initialized @(6,0)
GPGPU-Sim uArch: core: 13, cta: 5 initialized @(6,0)
GPGPU-Sim uArch: core: 14, cta: 5 initialized @(6,0)
GPGPU-Sim uArch: core:  0, cta: 5 initialized @(6,0)
GPGPU-Sim uArch: core:  1, cta: 6 initialized @(7,0)
GPGPU-Sim uArch: core:  2, cta: 6 initialized @(7,0)
GPGPU-Sim uArch: core:  3, cta: 6 initialized @(7,0)
GPGPU-Sim uArch: core:  4, cta: 6 initialized @(7,0)
GPGPU-Sim uArch: core:  5, cta: 6 initialized @(7,0)
GPGPU-Sim uArch: core:  6, cta: 6 initialized @(7,0)
GPGPU-Sim uArch: core:  7, cta: 6 initialized @(7,0)
GPGPU-Sim uArch: core:  8, cta: 6 initialized @(7,0)
GPGPU-Sim uArch: core:  9, cta: 6 initialized @(7,0)
GPGPU-Sim uArch: core: 10, cta: 6 initialized @(7,0)
GPGPU-Sim uArch: core: 11, cta: 6 initialized @(7,0)
GPGPU-Sim uArch: core: 12, cta: 6 initialized @(7,0)
GPGPU-Sim uArch: core: 13, cta: 6 initialized @(7,0)
GPGPU-Sim uArch: core: 14, cta: 6 initialized @(7,0)
GPGPU-Sim uArch: core:  0, cta: 6 initialized @(7,0)
GPGPU-Sim uArch: core:  1, cta: 7 initialized @(8,0)
GPGPU-Sim uArch: core:  2, cta: 7 initialized @(8,0)
GPGPU-Sim uArch: core:  3, cta: 7 initialized @(8,0)
GPGPU-Sim uArch: core:  4, cta: 7 initialized @(8,0)
GPGPU-Sim uArch: core:  5, cta: 7 initialized @(8,0)
GPGPU-Sim uArch: core:  6, cta: 7 initialized @(8,0)
GPGPU-Sim uArch: core:  7, cta: 7 initialized @(8,0)
GPGPU-Sim uArch: core:  8, cta: 7 initialized @(8,0)
GPGPU-Sim uArch: core:  9, cta: 7 initialized @(8,0)
GPGPU-Sim uArch: core: 10, cta: 7 initialized @(8,0)
GPGPU-Sim uArch: core: 11, cta: 7 initialized @(8,0)
GPGPU-Sim uArch: core: 12, cta: 7 initialized @(8,0)
GPGPU-Sim uArch: core: 13, cta: 7 initialized @(8,0)
GPGPU-Sim uArch: core: 14, cta: 7 initialized @(8,0)
GPGPU-Sim uArch: core:  0, cta: 7 initialized @(8,0)
GPGPU-Sim uArch: cycles simulated: 500  inst.: 70620 (ipc=141.2) sim_rate=11770 (inst/sec) elapsed = 0:0:00:06 / Tue Mar 22 07:36:55 2016
GPGPU-Sim PTX: 100000 instructions simulated : ctaid=(1,5,0) tid=(8,12,0)
GPGPU-Sim PTX: 200000 instructions simulated : ctaid=(5,6,0) tid=(10,10,0)
GPGPU-Sim uArch: cycles simulated: 1000  inst.: 257202 (ipc=257.2) sim_rate=36743 (inst/sec) elapsed = 0:0:00:07 / Tue Mar 22 07:36:56 2016
GPGPU-Sim PTX: 300000 instructions simulated : ctaid=(1,9,0) tid=(9,2,0)
GPGPU-Sim PTX: 400000 instructions simulated : ctaid=(0,2,0) tid=(4,1,0)
GPGPU-Sim uArch: cycles simulated: 1500  inst.: 483836 (ipc=322.6) sim_rate=60479 (inst/sec) elapsed = 0:0:00:08 / Tue Mar 22 07:36:57 2016
GPGPU-Sim PTX: 500000 instructions simulated : ctaid=(1,2,0) tid=(8,5,0)
GPGPU-Sim uArch: cycles simulated: 2500  inst.: 552432 (ipc=221.0) sim_rate=61381 (inst/sec) elapsed = 0:0:00:09 / Tue Mar 22 07:36:58 2016
GPGPU-Sim PTX: 600000 instructions simulated : ctaid=(5,6,0) tid=(12,9,0)
GPGPU-Sim PTX: 700000 instructions simulated : ctaid=(5,2,0) tid=(4,0,0)
GPGPU-Sim PTX: 800000 instructions simulated : ctaid=(3,1,0) tid=(5,11,0)
GPGPU-Sim uArch: cycles simulated: 3500  inst.: 838763 (ipc=239.6) sim_rate=83876 (inst/sec) elapsed = 0:0:00:10 / Tue Mar 22 07:36:59 2016
GPGPU-Sim PTX: 900000 instructions simulated : ctaid=(1,2,0) tid=(1,10,0)
GPGPU-Sim PTX: 1000000 instructions simulated : ctaid=(2,5,0) tid=(0,4,0)
GPGPU-Sim uArch: cycles simulated: 4000  inst.: 1060987 (ipc=265.2) sim_rate=96453 (inst/sec) elapsed = 0:0:00:11 / Tue Mar 22 07:37:00 2016
GPGPU-Sim PTX: 1100000 instructions simulated : ctaid=(5,9,0) tid=(11,11,0)
GPGPU-Sim PTX: 1200000 instructions simulated : ctaid=(3,4,0) tid=(3,1,0)
GPGPU-Sim PTX: 1300000 instructions simulated : ctaid=(0,15,0) tid=(3,5,0)
GPGPU-Sim PTX: 1400000 instructions simulated : ctaid=(4,0,0) tid=(1,7,0)
GPGPU-Sim uArch: cycles simulated: 5000  inst.: 1469901 (ipc=294.0) sim_rate=122491 (inst/sec) elapsed = 0:0:00:12 / Tue Mar 22 07:37:01 2016
GPGPU-Sim PTX: 1500000 instructions simulated : ctaid=(3,2,0) tid=(7,9,0)
GPGPU-Sim PTX: 1600000 instructions simulated : ctaid=(5,9,0) tid=(2,7,0)
GPGPU-Sim PTX: 1700000 instructions simulated : ctaid=(4,9,0) tid=(7,2,0)
GPGPU-Sim PTX: 1800000 instructions simulated : ctaid=(4,1,0) tid=(1,5,0)
GPGPU-Sim uArch: cycles simulated: 6000  inst.: 1876091 (ipc=312.7) sim_rate=144314 (inst/sec) elapsed = 0:0:00:13 / Tue Mar 22 07:37:02 2016
GPGPU-Sim PTX: 1900000 instructions simulated : ctaid=(5,6,0) tid=(4,3,0)
GPGPU-Sim PTX: 2000000 instructions simulated : ctaid=(3,7,0) tid=(5,0,0)
GPGPU-Sim PTX: 2100000 instructions simulated : ctaid=(3,3,0) tid=(4,3,0)
GPGPU-Sim PTX: 2200000 instructions simulated : ctaid=(5,0,0) tid=(1,8,0)
GPGPU-Sim uArch: cycles simulated: 7000  inst.: 2236048 (ipc=319.4) sim_rate=159717 (inst/sec) elapsed = 0:0:00:14 / Tue Mar 22 07:37:03 2016
GPGPU-Sim PTX: 2300000 instructions simulated : ctaid=(1,4,0) tid=(3,5,0)
GPGPU-Sim PTX: 2400000 instructions simulated : ctaid=(5,2,0) tid=(11,10,0)
GPGPU-Sim PTX: 2500000 instructions simulated : ctaid=(5,1,0) tid=(11,6,0)
GPGPU-Sim PTX: 2600000 instructions simulated : ctaid=(1,8,0) tid=(1,8,0)
GPGPU-Sim uArch: cycles simulated: 8000  inst.: 2589525 (ipc=323.7) sim_rate=172635 (inst/sec) elapsed = 0:0:00:15 / Tue Mar 22 07:37:04 2016
GPGPU-Sim PTX: 2700000 instructions simulated : ctaid=(1,0,0) tid=(6,8,0)
GPGPU-Sim uArch: cycles simulated: 8500  inst.: 2781921 (ipc=327.3) sim_rate=173870 (inst/sec) elapsed = 0:0:00:16 / Tue Mar 22 07:37:05 2016
GPGPU-Sim PTX: 2800000 instructions simulated : ctaid=(1,9,0) tid=(4,10,0)
GPGPU-Sim PTX: 2900000 instructions simulated : ctaid=(3,2,0) tid=(3,0,0)
GPGPU-Sim PTX: 3000000 instructions simulated : ctaid=(2,5,0) tid=(9,7,0)
GPGPU-Sim PTX: 3100000 instructions simulated : ctaid=(4,7,0) tid=(8,4,0)
GPGPU-Sim uArch: cycles simulated: 9500  inst.: 3172159 (ipc=333.9) sim_rate=186597 (inst/sec) elapsed = 0:0:00:17 / Tue Mar 22 07:37:06 2016
GPGPU-Sim PTX: 3200000 instructions simulated : ctaid=(0,1,0) tid=(7,10,0)
GPGPU-Sim PTX: 3300000 instructions simulated : ctaid=(3,5,0) tid=(11,6,0)
GPGPU-Sim PTX: 3400000 instructions simulated : ctaid=(4,7,0) tid=(5,7,0)
GPGPU-Sim uArch: cycles simulated: 10000  inst.: 3395198 (ipc=339.5) sim_rate=188622 (inst/sec) elapsed = 0:0:00:18 / Tue Mar 22 07:37:07 2016
GPGPU-Sim PTX: 3500000 instructions simulated : ctaid=(3,14,0) tid=(5,5,0)
GPGPU-Sim PTX: 3600000 instructions simulated : ctaid=(3,7,0) tid=(9,3,0)
GPGPU-Sim uArch: cycles simulated: 10500  inst.: 3601679 (ipc=343.0) sim_rate=189562 (inst/sec) elapsed = 0:0:00:19 / Tue Mar 22 07:37:08 2016
GPGPU-Sim PTX: 3700000 instructions simulated : ctaid=(2,4,0) tid=(4,4,0)
GPGPU-Sim PTX: 3800000 instructions simulated : ctaid=(3,6,0) tid=(6,9,0)
GPGPU-Sim PTX: 3900000 instructions simulated : ctaid=(1,5,0) tid=(11,2,0)
GPGPU-Sim uArch: cycles simulated: 11500  inst.: 3939063 (ipc=342.5) sim_rate=196953 (inst/sec) elapsed = 0:0:00:20 / Tue Mar 22 07:37:09 2016
GPGPU-Sim PTX: 4000000 instructions simulated : ctaid=(1,10,0) tid=(9,6,0)
GPGPU-Sim PTX: 4100000 instructions simulated : ctaid=(3,5,0) tid=(5,5,0)
GPGPU-Sim uArch: cycles simulated: 12000  inst.: 4103920 (ipc=342.0) sim_rate=195424 (inst/sec) elapsed = 0:0:00:21 / Tue Mar 22 07:37:10 2016
GPGPU-Sim PTX: 4200000 instructions simulated : ctaid=(1,13,0) tid=(12,10,0)
GPGPU-Sim uArch: cycles simulated: 12500  inst.: 4259340 (ipc=340.7) sim_rate=193606 (inst/sec) elapsed = 0:0:00:22 / Tue Mar 22 07:37:11 2016
GPGPU-Sim PTX: 4300000 instructions simulated : ctaid=(1,18,0) tid=(12,6,0)
GPGPU-Sim PTX: 4400000 instructions simulated : ctaid=(2,17,0) tid=(9,1,0)
GPGPU-Sim PTX: 4500000 instructions simulated : ctaid=(2,4,0) tid=(2,10,0)
GPGPU-Sim uArch: Shader 6 finished CTA #0 (13491,0), 7 CTAs running
GPGPU-Sim uArch: core:  6, cta: 0 initialized @(13492,0)
GPGPU-Sim uArch: cycles simulated: 13500  inst.: 4572356 (ipc=338.7) sim_rate=198798 (inst/sec) elapsed = 0:0:00:23 / Tue Mar 22 07:37:12 2016
GPGPU-Sim PTX: 4600000 instructions simulated : ctaid=(1,9,0) tid=(1,0,0)
GPGPU-Sim uArch: Shader 5 finished CTA #0 (13607,0), 7 CTAs running
GPGPU-Sim uArch: core:  5, cta: 0 initialized @(13608,0)
GPGPU-Sim PTX: 4700000 instructions simulated : ctaid=(0,7,0) tid=(6,12,0)
GPGPU-Sim uArch: Shader 4 finished CTA #0 (13942,0), 7 CTAs running
GPGPU-Sim uArch: core:  4, cta: 0 initialized @(13943,0)
GPGPU-Sim uArch: cycles simulated: 14000  inst.: 4745559 (ipc=339.0) sim_rate=197731 (inst/sec) elapsed = 0:0:00:24 / Tue Mar 22 07:37:13 2016
GPGPU-Sim PTX: 4800000 instructions simulated : ctaid=(3,3,0) tid=(3,12,0)
GPGPU-Sim PTX: 4900000 instructions simulated : ctaid=(5,14,0) tid=(8,1,0)
GPGPU-Sim uArch: cycles simulated: 14500  inst.: 4931059 (ipc=340.1) sim_rate=197242 (inst/sec) elapsed = 0:0:00:25 / Tue Mar 22 07:37:14 2016
GPGPU-Sim PTX: 5000000 instructions simulated : ctaid=(2,6,0) tid=(10,11,0)
GPGPU-Sim uArch: Shader 1 finished CTA #1 (14696,0), 7 CTAs running
GPGPU-Sim uArch: core:  1, cta: 1 initialized @(14697,0)
GPGPU-Sim PTX: 5100000 instructions simulated : ctaid=(3,3,0) tid=(0,0,0)
GPGPU-Sim uArch: Shader 2 finished CTA #1 (14969,0), 7 CTAs running
GPGPU-Sim uArch: core:  2, cta: 1 initialized @(14970,0)
GPGPU-Sim PTX: 5200000 instructions simulated : ctaid=(1,18,0) tid=(8,4,0)
GPGPU-Sim uArch: Shader 13 finished CTA #0 (15157,0), 7 CTAs running
GPGPU-Sim uArch: core: 13, cta: 0 initialized @(15158,0)
GPGPU-Sim uArch: Shader 1 finished CTA #0 (15368,0), 7 CTAs running
GPGPU-Sim uArch: core:  1, cta: 0 initialized @(15369,0)
GPGPU-Sim PTX: 5300000 instructions simulated : ctaid=(1,0,0) tid=(1,5,0)
GPGPU-Sim uArch: Shader 3 finished CTA #1 (15460,0), 7 CTAs running
GPGPU-Sim uArch: core:  3, cta: 1 initialized @(15461,0)
GPGPU-Sim uArch: cycles simulated: 15500  inst.: 5314741 (ipc=342.9) sim_rate=204413 (inst/sec) elapsed = 0:0:00:26 / Tue Mar 22 07:37:15 2016
GPGPU-Sim PTX: 5400000 instructions simulated : ctaid=(3,6,0) tid=(1,0,0)
GPGPU-Sim PTX: 5500000 instructions simulated : ctaid=(2,13,0) tid=(1,7,0)
GPGPU-Sim uArch: cycles simulated: 16000  inst.: 5531463 (ipc=345.7) sim_rate=204869 (inst/sec) elapsed = 0:0:00:27 / Tue Mar 22 07:37:16 2016
GPGPU-Sim PTX: 5600000 instructions simulated : ctaid=(5,5,0) tid=(7,9,0)
GPGPU-Sim uArch: Shader 2 finished CTA #0 (16288,0), 7 CTAs running
GPGPU-Sim uArch: core:  2, cta: 0 initialized @(16289,0)
GPGPU-Sim PTX: 5700000 instructions simulated : ctaid=(3,7,0) tid=(2,12,0)
GPGPU-Sim uArch: cycles simulated: 16500  inst.: 5742908 (ipc=348.1) sim_rate=205103 (inst/sec) elapsed = 0:0:00:28 / Tue Mar 22 07:37:17 2016
GPGPU-Sim PTX: 5800000 instructions simulated : ctaid=(4,14,0) tid=(6,3,0)
GPGPU-Sim uArch: Shader 9 finished CTA #1 (16676,0), 7 CTAs running
GPGPU-Sim uArch: core:  9, cta: 1 initialized @(16677,0)
GPGPU-Sim uArch: Shader 3 finished CTA #0 (16719,0), 7 CTAs running
GPGPU-Sim uArch: core:  3, cta: 0 initialized @(16720,0)
GPGPU-Sim uArch: Shader 12 finished CTA #0 (16740,0), 7 CTAs running
GPGPU-Sim uArch: core: 12, cta: 0 initialized @(16741,0)
GPGPU-Sim PTX: 5900000 instructions simulated : ctaid=(1,18,0) tid=(4,9,0)
GPGPU-Sim uArch: Shader 5 finished CTA #2 (16791,0), 7 CTAs running
GPGPU-Sim uArch: core:  5, cta: 2 initialized @(16792,0)
GPGPU-Sim uArch: Shader 13 finished CTA #2 (16883,0), 7 CTAs running
GPGPU-Sim uArch: core: 13, cta: 2 initialized @(16884,0)
GPGPU-Sim uArch: Shader 0 finished CTA #0 (16906,0), 7 CTAs running
GPGPU-Sim uArch: core:  0, cta: 0 initialized @(16907,0)
GPGPU-Sim uArch: cycles simulated: 17000  inst.: 5975231 (ipc=351.5) sim_rate=206042 (inst/sec) elapsed = 0:0:00:29 / Tue Mar 22 07:37:18 2016
GPGPU-Sim PTX: 6000000 instructions simulated : ctaid=(4,11,0) tid=(9,0,0)
GPGPU-Sim uArch: Shader 0 finished CTA #1 (17100,0), 7 CTAs running
GPGPU-Sim uArch: core:  0, cta: 1 initialized @(17101,0)
GPGPU-Sim uArch: Shader 6 finished CTA #1 (17119,0), 7 CTAs running
GPGPU-Sim uArch: core:  6, cta: 1 initialized @(17120,0)
GPGPU-Sim uArch: Shader 13 finished CTA #1 (17129,0), 7 CTAs running
GPGPU-Sim uArch: core: 13, cta: 1 initialized @(17130,0)
GPGPU-Sim uArch: Shader 14 finished CTA #2 (17147,0), 7 CTAs running
GPGPU-Sim uArch: core: 14, cta: 2 initialized @(17148,0)
GPGPU-Sim uArch: Shader 6 finished CTA #2 (17172,0), 7 CTAs running
GPGPU-Sim uArch: core:  6, cta: 2 initialized @(17173,0)
GPGPU-Sim PTX: 6100000 instructions simulated : ctaid=(0,13,0) tid=(8,8,0)
GPGPU-Sim uArch: Shader 14 finished CTA #1 (17214,0), 7 CTAs running
GPGPU-Sim uArch: core: 14, cta: 1 initialized @(17215,0)
GPGPU-Sim uArch: Shader 14 finished CTA #0 (17271,0), 7 CTAs running
GPGPU-Sim uArch: core: 14, cta: 0 initialized @(17272,0)
GPGPU-Sim PTX: 6200000 instructions simulated : ctaid=(1,19,0) tid=(0,12,0)
GPGPU-Sim uArch: Shader 4 finished CTA #2 (17394,0), 7 CTAs running
GPGPU-Sim uArch: core:  4, cta: 2 initialized @(17395,0)
GPGPU-Sim uArch: cycles simulated: 17500  inst.: 6239073 (ipc=356.5) sim_rate=207969 (inst/sec) elapsed = 0:0:00:30 / Tue Mar 22 07:37:19 2016
GPGPU-Sim PTX: 6300000 instructions simulated : ctaid=(4,14,0) tid=(3,0,0)
GPGPU-Sim uArch: Shader 0 finished CTA #2 (17605,0), 7 CTAs running
GPGPU-Sim uArch: core:  0, cta: 2 initialized @(17606,0)
GPGPU-Sim uArch: Shader 12 finished CTA #2 (17694,0), 7 CTAs running
GPGPU-Sim uArch: core: 12, cta: 2 initialized @(17695,0)
GPGPU-Sim PTX: 6400000 instructions simulated : ctaid=(0,22,0) tid=(6,7,0)
GPGPU-Sim PTX: 6500000 instructions simulated : ctaid=(0,13,0) tid=(3,8,0)
GPGPU-Sim uArch: Shader 6 finished CTA #3 (17971,0), 7 CTAs running
GPGPU-Sim uArch: core:  6, cta: 3 initialized @(17972,0)
GPGPU-Sim uArch: cycles simulated: 18000  inst.: 6494561 (ipc=360.8) sim_rate=209501 (inst/sec) elapsed = 0:0:00:31 / Tue Mar 22 07:37:20 2016
GPGPU-Sim uArch: Shader 9 finished CTA #0 (18057,0), 7 CTAs running
GPGPU-Sim uArch: core:  9, cta: 0 initialized @(18058,0)
GPGPU-Sim uArch: Shader 4 finished CTA #1 (18066,0), 7 CTAs running
GPGPU-Sim uArch: core:  4, cta: 1 initialized @(18067,0)
GPGPU-Sim PTX: 6600000 instructions simulated : ctaid=(4,19,0) tid=(8,11,0)
GPGPU-Sim uArch: Shader 5 finished CTA #1 (18183,0), 7 CTAs running
GPGPU-Sim uArch: core:  5, cta: 1 initialized @(18184,0)
GPGPU-Sim uArch: Shader 10 finished CTA #0 (18322,0), 7 CTAs running
GPGPU-Sim uArch: core: 10, cta: 0 initialized @(18323,0)
GPGPU-Sim PTX: 6700000 instructions simulated : ctaid=(5,16,0) tid=(2,3,0)
GPGPU-Sim uArch: Shader 11 finished CTA #1 (18360,0), 7 CTAs running
GPGPU-Sim uArch: core: 11, cta: 1 initialized @(18361,0)
GPGPU-Sim uArch: Shader 11 finished CTA #0 (18419,0), 7 CTAs running
GPGPU-Sim uArch: core: 11, cta: 0 initialized @(18420,0)
GPGPU-Sim uArch: Shader 7 finished CTA #1 (18447,0), 7 CTAs running
GPGPU-Sim uArch: core:  7, cta: 1 initialized @(18448,0)
GPGPU-Sim uArch: Shader 5 finished CTA #3 (18478,0), 7 CTAs running
GPGPU-Sim uArch: core:  5, cta: 3 initialized @(18479,0)
GPGPU-Sim uArch: Shader 12 finished CTA #1 (18499,0), 7 CTAs running
GPGPU-Sim uArch: core: 12, cta: 1 initialized @(18500,0)
GPGPU-Sim uArch: cycles simulated: 18500  inst.: 6761227 (ipc=365.5) sim_rate=211288 (inst/sec) elapsed = 0:0:00:32 / Tue Mar 22 07:37:21 2016
GPGPU-Sim PTX: 6800000 instructions simulated : ctaid=(0,20,0) tid=(1,1,0)
GPGPU-Sim PTX: 6900000 instructions simulated : ctaid=(2,15,0) tid=(4,10,0)
GPGPU-Sim uArch: Shader 7 finished CTA #0 (18900,0), 7 CTAs running
GPGPU-Sim uArch: core:  7, cta: 0 initialized @(18901,0)
GPGPU-Sim PTX: 7000000 instructions simulated : ctaid=(2,16,0) tid=(7,5,0)
GPGPU-Sim uArch: Shader 8 finished CTA #1 (18927,0), 7 CTAs running
GPGPU-Sim uArch: core:  8, cta: 1 initialized @(18928,0)
GPGPU-Sim uArch: Shader 8 finished CTA #0 (18949,0), 7 CTAs running
GPGPU-Sim uArch: core:  8, cta: 0 initialized @(18950,0)
GPGPU-Sim uArch: cycles simulated: 19000  inst.: 7025253 (ipc=369.8) sim_rate=212886 (inst/sec) elapsed = 0:0:00:33 / Tue Mar 22 07:37:22 2016
GPGPU-Sim PTX: 7100000 instructions simulated : ctaid=(3,15,0) tid=(12,0,0)
GPGPU-Sim uArch: Shader 8 finished CTA #2 (19119,0), 7 CTAs running
GPGPU-Sim uArch: core:  8, cta: 2 initialized @(19120,0)
GPGPU-Sim uArch: Shader 2 finished CTA #2 (19164,0), 7 CTAs running
GPGPU-Sim uArch: core:  2, cta: 2 initialized @(19165,0)
GPGPU-Sim uArch: Shader 10 finished CTA #2 (19259,0), 7 CTAs running
GPGPU-Sim uArch: core: 10, cta: 2 initialized @(19260,0)
GPGPU-Sim PTX: 7200000 instructions simulated : ctaid=(4,20,0) tid=(5,2,0)
GPGPU-Sim uArch: Shader 10 finished CTA #3 (19291,0), 7 CTAs running
GPGPU-Sim uArch: core: 10, cta: 3 initialized @(19292,0)
GPGPU-Sim uArch: Shader 5 finished CTA #4 (19357,0), 7 CTAs running
GPGPU-Sim uArch: core:  5, cta: 4 initialized @(19358,0)
GPGPU-Sim PTX: 7300000 instructions simulated : ctaid=(3,17,0) tid=(0,9,0)
GPGPU-Sim uArch: Shader 11 finished CTA #2 (19485,0), 7 CTAs running
GPGPU-Sim uArch: core: 11, cta: 2 initialized @(19486,0)
GPGPU-Sim uArch: cycles simulated: 19500  inst.: 7307604 (ipc=374.7) sim_rate=214929 (inst/sec) elapsed = 0:0:00:34 / Tue Mar 22 07:37:23 2016
GPGPU-Sim PTX: 7400000 instructions simulated : ctaid=(4,26,0) tid=(3,2,0)
GPGPU-Sim uArch: Shader 7 finished CTA #2 (19653,0), 7 CTAs running
GPGPU-Sim uArch: core:  7, cta: 2 initialized @(19654,0)
GPGPU-Sim uArch: Shader 2 finished CTA #4 (19671,0), 7 CTAs running
GPGPU-Sim uArch: core:  2, cta: 4 initialized @(19672,0)
GPGPU-Sim uArch: Shader 3 finished CTA #2 (19730,0), 7 CTAs running
GPGPU-Sim uArch: core:  3, cta: 2 initialized @(19731,0)
GPGPU-Sim PTX: 7500000 instructions simulated : ctaid=(4,22,0) tid=(7,0,0)
GPGPU-Sim uArch: Shader 2 finished CTA #3 (19784,0), 7 CTAs running
GPGPU-Sim uArch: core:  2, cta: 3 initialized @(19785,0)
GPGPU-Sim uArch: Shader 3 finished CTA #3 (19789,0), 7 CTAs running
GPGPU-Sim uArch: Shader 11 finished CTA #3 (19811,0), 7 CTAs running
GPGPU-Sim uArch: Shader 14 finished CTA #3 (19861,0), 7 CTAs running
GPGPU-Sim PTX: 7600000 instructions simulated : ctaid=(1,19,0) tid=(1,7,0)
GPGPU-Sim uArch: Shader 10 finished CTA #1 (19939,0), 7 CTAs running
GPGPU-Sim uArch: Shader 9 finished CTA #2 (19966,0), 7 CTAs running
GPGPU-Sim uArch: cycles simulated: 20000  inst.: 7616688 (ipc=380.8) sim_rate=211574 (inst/sec) elapsed = 0:0:00:36 / Tue Mar 22 07:37:25 2016
GPGPU-Sim PTX: 7700000 instructions simulated : ctaid=(4,27,0) tid=(7,11,0)
GPGPU-Sim uArch: Shader 1 finished CTA #2 (20085,0), 7 CTAs running
GPGPU-Sim PTX: 7800000 instructions simulated : ctaid=(5,17,0) tid=(3,3,0)
GPGPU-Sim uArch: Shader 6 finished CTA #4 (20334,0), 7 CTAs running
GPGPU-Sim uArch: Shader 1 finished CTA #3 (20371,0), 6 CTAs running
GPGPU-Sim PTX: 7900000 instructions simulated : ctaid=(1,24,0) tid=(0,1,0)
GPGPU-Sim uArch: Shader 3 finished CTA #4 (20494,0), 6 CTAs running
GPGPU-Sim uArch: cycles simulated: 20500  inst.: 7936695 (ipc=387.2) sim_rate=214505 (inst/sec) elapsed = 0:0:00:37 / Tue Mar 22 07:37:26 2016
GPGPU-Sim uArch: Shader 0 finished CTA #3 (20526,0), 7 CTAs running
GPGPU-Sim uArch: Shader 13 finished CTA #3 (20541,0), 7 CTAs running
GPGPU-Sim PTX: 8000000 instructions simulated : ctaid=(4,20,0) tid=(8,12,0)
GPGPU-Sim PTX: 8100000 instructions simulated : ctaid=(4,23,0) tid=(8,11,0)
GPGPU-Sim uArch: Shader 4 finished CTA #3 (20733,0), 7 CTAs running
GPGPU-Sim uArch: Shader 12 finished CTA #3 (20787,0), 7 CTAs running
GPGPU-Sim PTX: 8200000 instructions simulated : ctaid=(1,11,0) tid=(12,7,0)
GPGPU-Sim uArch: Shader 4 finished CTA #4 (20911,0), 6 CTAs running
GPGPU-Sim uArch: cycles simulated: 21000  inst.: 8264602 (ipc=393.6) sim_rate=217489 (inst/sec) elapsed = 0:0:00:38 / Tue Mar 22 07:37:27 2016
GPGPU-Sim PTX: 8300000 instructions simulated : ctaid=(3,17,0) tid=(7,7,0)
GPGPU-Sim PTX: 8400000 instructions simulated : ctaid=(5,22,0) tid=(2,10,0)
GPGPU-Sim PTX: 8500000 instructions simulated : ctaid=(2,24,0) tid=(4,7,0)
GPGPU-Sim uArch: Shader 1 finished CTA #4 (21369,0), 5 CTAs running
GPGPU-Sim PTX: 8600000 instructions simulated : ctaid=(0,19,0) tid=(2,12,0)
GPGPU-Sim uArch: cycles simulated: 21500  inst.: 8615229 (ipc=400.7) sim_rate=220903 (inst/sec) elapsed = 0:0:00:39 / Tue Mar 22 07:37:28 2016
GPGPU-Sim PTX: 8700000 instructions simulated : ctaid=(0,25,0) tid=(6,7,0)
GPGPU-Sim uArch: Shader 12 finished CTA #4 (21648,0), 6 CTAs running
GPGPU-Sim uArch: Shader 13 finished CTA #4 (21721,0), 6 CTAs running
GPGPU-Sim PTX: 8800000 instructions simulated : ctaid=(3,14,0) tid=(3,9,0)
GPGPU-Sim uArch: Shader 9 finished CTA #3 (21866,0), 6 CTAs running
GPGPU-Sim PTX: 8900000 instructions simulated : ctaid=(2,20,0) tid=(2,9,0)
GPGPU-Sim uArch: cycles simulated: 22000  inst.: 8955020 (ipc=407.0) sim_rate=223875 (inst/sec) elapsed = 0:0:00:40 / Tue Mar 22 07:37:29 2016
GPGPU-Sim PTX: 9000000 instructions simulated : ctaid=(3,23,0) tid=(3,6,0)
GPGPU-Sim PTX: 9100000 instructions simulated : ctaid=(4,27,0) tid=(10,10,0)
GPGPU-Sim uArch: Shader 14 finished CTA #4 (22198,0), 6 CTAs running
GPGPU-Sim uArch: Shader 10 finished CTA #4 (22245,0), 6 CTAs running
GPGPU-Sim PTX: 9200000 instructions simulated : ctaid=(2,21,0) tid=(10,10,0)
GPGPU-Sim uArch: Shader 11 finished CTA #4 (22352,0), 6 CTAs running
GPGPU-Sim PTX: 9300000 instructions simulated : ctaid=(2,11,0) tid=(4,4,0)
GPGPU-Sim uArch: cycles simulated: 22500  inst.: 9297482 (ipc=413.2) sim_rate=226767 (inst/sec) elapsed = 0:0:00:41 / Tue Mar 22 07:37:30 2016
GPGPU-Sim PTX: 9400000 instructions simulated : ctaid=(0,26,0) tid=(6,1,0)
GPGPU-Sim uArch: Shader 5 finished CTA #5 (22615,0), 7 CTAs running
GPGPU-Sim uArch: Shader 9 finished CTA #4 (22639,0), 5 CTAs running
GPGPU-Sim uArch: Shader 1 finished CTA #5 (22718,0), 4 CTAs running
GPGPU-Sim uArch: Shader 6 finished CTA #5 (22718,0), 6 CTAs running
GPGPU-Sim PTX: 9500000 instructions simulated : ctaid=(1,22,0) tid=(6,2,0)
GPGPU-Sim uArch: Shader 0 finished CTA #4 (22773,0), 6 CTAs running
GPGPU-Sim PTX: 9600000 instructions simulated : ctaid=(3,27,0) tid=(4,7,0)
GPGPU-Sim uArch: Shader 6 finished CTA #6 (22929,0), 5 CTAs running
GPGPU-Sim uArch: Shader 1 finished CTA #6 (22980,0), 3 CTAs running
GPGPU-Sim uArch: Shader 8 finished CTA #3 (22997,0), 7 CTAs running
GPGPU-Sim uArch: cycles simulated: 23000  inst.: 9633605 (ipc=418.9) sim_rate=229371 (inst/sec) elapsed = 0:0:00:42 / Tue Mar 22 07:37:31 2016
GPGPU-Sim uArch: Shader 10 finished CTA #5 (23018,0), 5 CTAs running
GPGPU-Sim PTX: 9700000 instructions simulated : ctaid=(4,17,0) tid=(11,8,0)
GPGPU-Sim uArch: Shader 2 finished CTA #5 (23093,0), 7 CTAs running
GPGPU-Sim uArch: Shader 3 finished CTA #5 (23102,0), 5 CTAs running
GPGPU-Sim uArch: Shader 7 finished CTA #3 (23102,0), 7 CTAs running
GPGPU-Sim uArch: Shader 1 finished CTA #7 (23104,0), 2 CTAs running
GPGPU-Sim PTX: 9800000 instructions simulated : ctaid=(5,24,0) tid=(2,2,0)
GPGPU-Sim uArch: Shader 3 finished CTA #6 (23217,0), 4 CTAs running
GPGPU-Sim PTX: 9900000 instructions simulated : ctaid=(4,21,0) tid=(5,7,0)
GPGPU-Sim uArch: Shader 3 finished CTA #7 (23404,0), 3 CTAs running
GPGPU-Sim uArch: cycles simulated: 23500  inst.: 9965100 (ipc=424.0) sim_rate=231746 (inst/sec) elapsed = 0:0:00:43 / Tue Mar 22 07:37:32 2016
GPGPU-Sim PTX: 10000000 instructions simulated : ctaid=(5,22,0) tid=(3,6,0)
GPGPU-Sim uArch: Shader 5 finished CTA #6 (23504,0), 6 CTAs running
GPGPU-Sim uArch: Shader 4 finished CTA #5 (23556,0), 5 CTAs running
GPGPU-Sim uArch: Shader 4 finished CTA #6 (23579,0), 4 CTAs running
GPGPU-Sim uArch: Shader 0 finished CTA #5 (23593,0), 5 CTAs running
GPGPU-Sim PTX: 10100000 instructions simulated : ctaid=(1,19,0) tid=(1,11,0)
GPGPU-Sim uArch: Shader 12 finished CTA #5 (23655,0), 5 CTAs running
GPGPU-Sim uArch: Shader 13 finished CTA #5 (23671,0), 5 CTAs running
GPGPU-Sim uArch: Shader 14 finished CTA #5 (23683,0), 5 CTAs running
GPGPU-Sim PTX: 10200000 instructions simulated : ctaid=(0,25,0) tid=(3,2,0)
GPGPU-Sim uArch: Shader 12 finished CTA #6 (23860,0), 4 CTAs running
GPGPU-Sim uArch: Shader 1 finished CTA #1 (23962,0), 1 CTAs running
GPGPU-Sim PTX: 10300000 instructions simulated : ctaid=(4,23,0) tid=(10,11,0)
GPGPU-Sim uArch: cycles simulated: 24000  inst.: 10286397 (ipc=428.6) sim_rate=233781 (inst/sec) elapsed = 0:0:00:44 / Tue Mar 22 07:37:33 2016
GPGPU-Sim uArch: Shader 9 finished CTA #5 (24035,0), 4 CTAs running
GPGPU-Sim uArch: Shader 3 finished CTA #1 (24075,0), 2 CTAs running
GPGPU-Sim uArch: Shader 7 finished CTA #4 (24091,0), 6 CTAs running
GPGPU-Sim PTX: 10400000 instructions simulated : ctaid=(4,22,0) tid=(11,4,0)
GPGPU-Sim uArch: Shader 13 finished CTA #6 (24130,0), 4 CTAs running
GPGPU-Sim uArch: Shader 11 finished CTA #5 (24155,0), 5 CTAs running
GPGPU-Sim uArch: Shader 9 finished CTA #6 (24192,0), 3 CTAs running
GPGPU-Sim uArch: Shader 0 finished CTA #6 (24273,0), 4 CTAs running
GPGPU-Sim PTX: 10500000 instructions simulated : ctaid=(5,27,0) tid=(11,11,0)
GPGPU-Sim uArch: Shader 2 finished CTA #6 (24345,0), 6 CTAs running
GPGPU-Sim uArch: Shader 10 finished CTA #6 (24394,0), 4 CTAs running
GPGPU-Sim PTX: 10600000 instructions simulated : ctaid=(5,22,0) tid=(3,2,0)
GPGPU-Sim uArch: Shader 6 finished CTA #7 (24471,0), 4 CTAs running
GPGPU-Sim uArch: cycles simulated: 24500  inst.: 10593319 (ipc=432.4) sim_rate=235407 (inst/sec) elapsed = 0:0:00:45 / Tue Mar 22 07:37:34 2016
GPGPU-Sim uArch: Shader 14 finished CTA #6 (24536,0), 4 CTAs running
GPGPU-Sim PTX: 10700000 instructions simulated : ctaid=(3,24,0) tid=(4,0,0)
GPGPU-Sim uArch: Shader 2 finished CTA #7 (24627,0), 5 CTAs running
GPGPU-Sim uArch: Shader 5 finished CTA #7 (24666,0), 5 CTAs running
GPGPU-Sim uArch: Shader 11 finished CTA #6 (24750,0), 4 CTAs running
GPGPU-Sim PTX: 10800000 instructions simulated : ctaid=(3,21,0) tid=(1,3,0)
GPGPU-Sim uArch: Shader 12 finished CTA #7 (24807,0), 3 CTAs running
GPGPU-Sim uArch: Shader 10 finished CTA #7 (24810,0), 3 CTAs running
GPGPU-Sim uArch: Shader 8 finished CTA #4 (24862,0), 6 CTAs running
GPGPU-Sim uArch: Shader 13 finished CTA #7 (24899,0), 3 CTAs running
GPGPU-Sim uArch: Shader 4 finished CTA #7 (24974,0), 3 CTAs running
GPGPU-Sim PTX: 10900000 instructions simulated : ctaid=(1,23,0) tid=(4,9,0)
GPGPU-Sim uArch: cycles simulated: 25000  inst.: 10870995 (ipc=434.8) sim_rate=236325 (inst/sec) elapsed = 0:0:00:46 / Tue Mar 22 07:37:35 2016
GPGPU-Sim uArch: Shader 14 finished CTA #7 (25019,0), 3 CTAs running
GPGPU-Sim uArch: Shader 0 finished CTA #7 (25036,0), 3 CTAs running
GPGPU-Sim uArch: Shader 11 finished CTA #7 (25093,0), 3 CTAs running
GPGPU-Sim uArch: Shader 1 finished CTA #0 (25096,0), 0 CTAs running
GPGPU-Sim uArch: Shader 1 empty (release kernel 1 '_Z17executeFirstLayerPfS_S_').
GPGPU-Sim uArch: Shader 4 finished CTA #0 (25118,0), 2 CTAs running
GPGPU-Sim PTX: 11000000 instructions simulated : ctaid=(4,18,0) tid=(7,5,0)
GPGPU-Sim uArch: Shader 3 finished CTA #0 (25222,0), 1 CTAs running
GPGPU-Sim uArch: Shader 2 finished CTA #1 (25341,0), 4 CTAs running
GPGPU-Sim PTX: 11100000 instructions simulated : ctaid=(1,27,0) tid=(3,12,0)
GPGPU-Sim uArch: Shader 13 finished CTA #0 (25408,0), 2 CTAs running
GPGPU-Sim uArch: Shader 6 finished CTA #0 (25422,0), 3 CTAs running
GPGPU-Sim uArch: Shader 9 finished CTA #7 (25531,0), 2 CTAs running
GPGPU-Sim uArch: Shader 14 finished CTA #2 (25597,0), 2 CTAs running
GPGPU-Sim uArch: Shader 12 finished CTA #0 (25607,0), 2 CTAs running
GPGPU-Sim PTX: 11200000 instructions simulated : ctaid=(5,23,0) tid=(1,3,0)
GPGPU-Sim uArch: Shader 10 finished CTA #0 (25715,0), 2 CTAs running
GPGPU-Sim uArch: Shader 4 finished CTA #2 (25719,0), 1 CTAs running
GPGPU-Sim uArch: Shader 6 finished CTA #1 (25899,0), 2 CTAs running
GPGPU-Sim PTX: 11300000 instructions simulated : ctaid=(0,24,0) tid=(9,3,0)
GPGPU-Sim uArch: Shader 5 finished CTA #0 (25924,0), 4 CTAs running
GPGPU-Sim uArch: Shader 0 finished CTA #0 (25946,0), 2 CTAs running
GPGPU-Sim uArch: cycles simulated: 26000  inst.: 11291686 (ipc=434.3) sim_rate=240248 (inst/sec) elapsed = 0:0:00:47 / Tue Mar 22 07:37:36 2016
GPGPU-Sim uArch: Shader 2 finished CTA #0 (26053,0), 3 CTAs running
GPGPU-Sim uArch: Shader 8 finished CTA #5 (26060,0), 5 CTAs running
GPGPU-Sim PTX: 11400000 instructions simulated : ctaid=(4,24,0) tid=(2,8,0)
GPGPU-Sim uArch: Shader 12 finished CTA #2 (26232,0), 1 CTAs running
GPGPU-Sim uArch: Shader 11 finished CTA #1 (26249,0), 2 CTAs running
GPGPU-Sim uArch: Shader 8 finished CTA #6 (26298,0), 4 CTAs running
GPGPU-Sim uArch: Shader 7 finished CTA #5 (26304,0), 5 CTAs running
GPGPU-Sim uArch: Shader 3 finished CTA #2 (26319,0), 0 CTAs running
GPGPU-Sim uArch: Shader 3 empty (release kernel 1 '_Z17executeFirstLayerPfS_S_').
GPGPU-Sim uArch: Shader 7 finished CTA #6 (26384,0), 4 CTAs running
GPGPU-Sim uArch: Shader 14 finished CTA #1 (26450,0), 1 CTAs running
GPGPU-Sim uArch: cycles simulated: 26500  inst.: 11441115 (ipc=431.7) sim_rate=238356 (inst/sec) elapsed = 0:0:00:48 / Tue Mar 22 07:37:37 2016
GPGPU-Sim uArch: Shader 5 finished CTA #2 (26531,0), 3 CTAs running
GPGPU-Sim uArch: Shader 13 finished CTA #2 (26551,0), 1 CTAs running
GPGPU-Sim PTX: 11500000 instructions simulated : ctaid=(2,24,0) tid=(11,3,0)
GPGPU-Sim uArch: Shader 2 finished CTA #2 (26592,0), 2 CTAs running
GPGPU-Sim uArch: Shader 10 finished CTA #2 (26637,0), 1 CTAs running
GPGPU-Sim uArch: Shader 9 finished CTA #1 (26683,0), 1 CTAs running
GPGPU-Sim uArch: Shader 6 finished CTA #2 (26829,0), 1 CTAs running
GPGPU-Sim uArch: Shader 11 finished CTA #0 (26866,0), 1 CTAs running
GPGPU-Sim uArch: Shader 0 finished CTA #1 (26901,0), 1 CTAs running
GPGPU-Sim uArch: Shader 8 finished CTA #7 (26904,0), 3 CTAs running
GPGPU-Sim uArch: Shader 7 finished CTA #7 (26937,0), 3 CTAs running
GPGPU-Sim PTX: 11600000 instructions simulated : ctaid=(0,27,0) tid=(2,8,0)
GPGPU-Sim uArch: Shader 4 finished CTA #1 (27224,0), 0 CTAs running
GPGPU-Sim uArch: Shader 4 empty (release kernel 1 '_Z17executeFirstLayerPfS_S_').
GPGPU-Sim uArch: Shader 8 finished CTA #1 (27356,0), 2 CTAs running
GPGPU-Sim uArch: Shader 13 finished CTA #1 (27420,0), 0 CTAs running
GPGPU-Sim uArch: Shader 13 empty (release kernel 1 '_Z17executeFirstLayerPfS_S_').
GPGPU-Sim uArch: Shader 12 finished CTA #1 (27467,0), 0 CTAs running
GPGPU-Sim uArch: Shader 12 empty (release kernel 1 '_Z17executeFirstLayerPfS_S_').
GPGPU-Sim uArch: Shader 5 finished CTA #1 (27504,0), 2 CTAs running
GPGPU-Sim uArch: Shader 14 finished CTA #0 (27506,0), 0 CTAs running
GPGPU-Sim uArch: Shader 14 empty (release kernel 1 '_Z17executeFirstLayerPfS_S_').
GPGPU-Sim uArch: Shader 2 finished CTA #4 (27659,0), 1 CTAs running
GPGPU-Sim uArch: Shader 7 finished CTA #1 (27734,0), 2 CTAs running
GPGPU-Sim uArch: Shader 10 finished CTA #3 (27797,0), 0 CTAs running
GPGPU-Sim uArch: Shader 10 empty (release kernel 1 '_Z17executeFirstLayerPfS_S_').
GPGPU-Sim uArch: Shader 9 finished CTA #0 (27924,0), 0 CTAs running
GPGPU-Sim uArch: Shader 9 empty (release kernel 1 '_Z17executeFirstLayerPfS_S_').
GPGPU-Sim uArch: Shader 0 finished CTA #2 (28068,0), 0 CTAs running
GPGPU-Sim uArch: Shader 0 empty (release kernel 1 '_Z17executeFirstLayerPfS_S_').
GPGPU-Sim uArch: Shader 11 finished CTA #2 (28077,0), 0 CTAs running
GPGPU-Sim uArch: Shader 11 empty (release kernel 1 '_Z17executeFirstLayerPfS_S_').
GPGPU-Sim uArch: Shader 6 finished CTA #3 (28119,0), 0 CTAs running
GPGPU-Sim uArch: Shader 6 empty (release kernel 1 '_Z17executeFirstLayerPfS_S_').
GPGPU-Sim PTX: 11700000 instructions simulated : ctaid=(0,27,0) tid=(6,2,0)
GPGPU-Sim uArch: Shader 8 finished CTA #0 (28388,0), 1 CTAs running
GPGPU-Sim uArch: Shader 7 finished CTA #0 (28496,0), 1 CTAs running
GPGPU-Sim uArch: Shader 5 finished CTA #3 (28598,0), 1 CTAs running
GPGPU-Sim uArch: Shader 2 finished CTA #3 (28660,0), 0 CTAs running
GPGPU-Sim uArch: Shader 2 empty (release kernel 1 '_Z17executeFirstLayerPfS_S_').
GPGPU-Sim uArch: Shader 8 finished CTA #2 (29386,0), 0 CTAs running
GPGPU-Sim uArch: Shader 8 empty (release kernel 1 '_Z17executeFirstLayerPfS_S_').
GPGPU-Sim uArch: Shader 7 finished CTA #2 (29491,0), 0 CTAs running
GPGPU-Sim uArch: Shader 7 empty (release kernel 1 '_Z17executeFirstLayerPfS_S_').
GPGPU-Sim uArch: cycles simulated: 29500  inst.: 11694074 (ipc=396.4) sim_rate=238654 (inst/sec) elapsed = 0:0:00:49 / Tue Mar 22 07:37:38 2016
GPGPU-Sim uArch: Shader 5 finished CTA #4 (29566,0), 0 CTAs running
GPGPU-Sim uArch: Shader 5 empty (release kernel 1 '_Z17executeFirstLayerPfS_S_').
GPGPU-Sim uArch: GPU detected kernel '_Z17executeFirstLayerPfS_S_' finished on shader 5.

GPGPU-Sim PTX: cudaLaunch for 0x0x40275f (mode=performance simulation) on stream 0
GPGPU-Sim PTX: pushing kernel '_Z18executeSecondLayerPfS_S_' to stream 0, gridDim= (50,28,1) blockDim = (5,5,1) 
kernel_name = _Z17executeFirstLayerPfS_S_ 
kernel_launch_uid = 1 
gpu_sim_cycle = 29567
gpu_sim_insn = 11694074
gpu_ipc =     395.5110
gpu_tot_sim_cycle = 29567
gpu_tot_sim_insn = 11694074
gpu_tot_ipc =     395.5110
gpu_tot_issued_cta = 168
gpu_stall_dramfull = 47034
gpu_stall_icnt2sh    = 150099
gpu_total_sim_rate=238654

========= Core cache stats =========
L1I_cache:
	L1I_total_cache_accesses = 243880
	L1I_total_cache_misses = 1117
	L1I_total_cache_miss_rate = 0.0046
	L1I_total_cache_pending_hits = 0
	L1I_total_cache_reservation_fails = 4146
L1D_cache:
	L1D_cache_core[0]: Access = 9346, Miss = 1762, Miss_rate = 0.189, Pending_hits = 463, Reservation_fails = 11171
	L1D_cache_core[1]: Access = 8551, Miss = 1557, Miss_rate = 0.182, Pending_hits = 243, Reservation_fails = 9617
	L1D_cache_core[2]: Access = 11107, Miss = 1908, Miss_rate = 0.172, Pending_hits = 298, Reservation_fails = 9371
	L1D_cache_core[3]: Access = 9414, Miss = 1432, Miss_rate = 0.152, Pending_hits = 244, Reservation_fails = 9545
	L1D_cache_core[4]: Access = 9411, Miss = 1808, Miss_rate = 0.192, Pending_hits = 318, Reservation_fails = 10356
	L1D_cache_core[5]: Access = 11101, Miss = 2197, Miss_rate = 0.198, Pending_hits = 336, Reservation_fails = 10407
	L1D_cache_core[6]: Access = 10248, Miss = 2024, Miss_rate = 0.198, Pending_hits = 322, Reservation_fails = 10039
	L1D_cache_core[7]: Access = 9370, Miss = 1611, Miss_rate = 0.172, Pending_hits = 465, Reservation_fails = 12830
	L1D_cache_core[8]: Access = 9312, Miss = 1534, Miss_rate = 0.165, Pending_hits = 421, Reservation_fails = 12479
	L1D_cache_core[9]: Access = 8547, Miss = 1516, Miss_rate = 0.177, Pending_hits = 414, Reservation_fails = 12239
	L1D_cache_core[10]: Access = 9326, Miss = 1720, Miss_rate = 0.184, Pending_hits = 395, Reservation_fails = 10863
	L1D_cache_core[11]: Access = 9356, Miss = 1505, Miss_rate = 0.161, Pending_hits = 318, Reservation_fails = 11260
	L1D_cache_core[12]: Access = 9380, Miss = 1985, Miss_rate = 0.212, Pending_hits = 402, Reservation_fails = 10729
	L1D_cache_core[13]: Access = 9358, Miss = 1710, Miss_rate = 0.183, Pending_hits = 410, Reservation_fails = 10973
	L1D_cache_core[14]: Access = 9375, Miss = 1661, Miss_rate = 0.177, Pending_hits = 488, Reservation_fails = 10618
	L1D_total_cache_accesses = 143202
	L1D_total_cache_misses = 25930
	L1D_total_cache_miss_rate = 0.1811
	L1D_total_cache_pending_hits = 5537
	L1D_total_cache_reservation_fails = 162497
	L1D_cache_data_port_util = 0.267
	L1D_cache_fill_port_util = 0.058
L1C_cache:
	L1C_total_cache_accesses = 28224
	L1C_total_cache_misses = 984
	L1C_total_cache_miss_rate = 0.0349
	L1C_total_cache_pending_hits = 0
	L1C_total_cache_reservation_fails = 4992
L1T_cache:
	L1T_total_cache_accesses = 0
	L1T_total_cache_misses = 0
	L1T_total_cache_pending_hits = 0
	L1T_total_cache_reservation_fails = 0

Total_core_cache_stats:
	Total_core_cache_stats_breakdown[GLOBAL_ACC_R][HIT] = 111735
	Total_core_cache_stats_breakdown[GLOBAL_ACC_R][HIT_RESERVED] = 5537
	Total_core_cache_stats_breakdown[GLOBAL_ACC_R][MISS] = 24070
	Total_core_cache_stats_breakdown[GLOBAL_ACC_R][RESERVATION_FAIL] = 161018
	Total_core_cache_stats_breakdown[CONST_ACC_R][HIT] = 27240
	Total_core_cache_stats_breakdown[CONST_ACC_R][MISS] = 984
	Total_core_cache_stats_breakdown[CONST_ACC_R][RESERVATION_FAIL] = 4992
	Total_core_cache_stats_breakdown[GLOBAL_ACC_W][MISS] = 1860
	Total_core_cache_stats_breakdown[GLOBAL_ACC_W][RESERVATION_FAIL] = 1479
	Total_core_cache_stats_breakdown[INST_ACC_R][HIT] = 242763
	Total_core_cache_stats_breakdown[INST_ACC_R][MISS] = 1117
	Total_core_cache_stats_breakdown[INST_ACC_R][RESERVATION_FAIL] = 4146
Shader 0 warp_id issue ditsribution:
warp_id:
0, 1, 2, 3, 4, 5, 6, 7, 8, 9, 10, 11, 12, 13, 14, 15, 16, 17, 18, 19, 20, 21, 22, 23, 24, 25, 26, 27, 28, 29, 30, 31, 32, 33, 34, 35, 36, 37, 38, 39, 40, 41, 42, 43, 44, 45, 46, 47, 
distro:
874, 874, 874, 874, 874, 816, 874, 874, 874, 874, 874, 816, 874, 874, 874, 874, 874, 845, 408, 437, 437, 437, 437, 437, 437, 437, 437, 437, 437, 437, 437, 437, 437, 437, 437, 408, 437, 437, 437, 437, 437, 437, 437, 437, 437, 437, 437, 408, 
gpgpu_n_tot_thrd_icount = 13976224
gpgpu_n_tot_w_icount = 436757
gpgpu_n_stall_shd_mem = 258275
gpgpu_n_mem_read_local = 0
gpgpu_n_mem_write_local = 0
gpgpu_n_mem_read_global = 24070
gpgpu_n_mem_write_global = 1860
gpgpu_n_mem_texture = 0
gpgpu_n_mem_const = 45
gpgpu_n_load_insn  = 1447992
gpgpu_n_store_insn = 28392
gpgpu_n_shmem_insn = 0
gpgpu_n_tex_insn = 0
gpgpu_n_const_mem_insn = 709800
gpgpu_n_param_mem_insn = 85176
gpgpu_n_shmem_bkconflict = 0
gpgpu_n_cache_bkconflict = 0
gpgpu_n_intrawarp_mshr_merge = 0
gpgpu_n_cmem_portconflict = 4992
gpgpu_stall_shd_mem[c_mem][bk_conf] = 4992
gpgpu_stall_shd_mem[c_mem][mshr_rc] = 0
gpgpu_stall_shd_mem[c_mem][icnt_rc] = 0
gpgpu_stall_shd_mem[c_mem][data_port_stall] = 0
gpgpu_stall_shd_mem[t_mem][mshr_rc] = 0
gpgpu_stall_shd_mem[t_mem][icnt_rc] = 0
gpgpu_stall_shd_mem[t_mem][data_port_stall] = 0
gpgpu_stall_shd_mem[s_mem][bk_conf] = 0
gpgpu_stall_shd_mem[gl_mem][bk_conf] = 0
gpgpu_stall_shd_mem[gl_mem][coal_stall] = 253283
gpgpu_stall_shd_mem[gl_mem][data_port_stall] = 0
gpgpu_stall_shd_mem[g_mem_ld][mshr_rc] = 0
gpgpu_stall_shd_mem[g_mem_ld][icnt_rc] = 0
gpgpu_stall_shd_mem[g_mem_ld][wb_icnt_rc] = 0
gpgpu_stall_shd_mem[g_mem_ld][wb_rsrv_fail] = 0
gpgpu_stall_shd_mem[g_mem_st][mshr_rc] = 0
gpgpu_stall_shd_mem[g_mem_st][icnt_rc] = 0
gpgpu_stall_shd_mem[g_mem_st][wb_icnt_rc] = 0
gpgpu_stall_shd_mem[g_mem_st][wb_rsrv_fail] = 0
gpgpu_stall_shd_mem[l_mem_ld][mshr_rc] = 0
gpgpu_stall_shd_mem[l_mem_ld][icnt_rc] = 0
gpgpu_stall_shd_mem[l_mem_ld][wb_icnt_rc] = 0
gpgpu_stall_shd_mem[l_mem_ld][wb_rsrv_fail] = 0
gpgpu_stall_shd_mem[l_mem_st][mshr_rc] = 0
gpgpu_stall_shd_mem[l_mem_st][icnt_rc] = 0
gpgpu_stall_shd_mem[l_mem_ld][wb_icnt_rc] = 0
gpgpu_stall_shd_mem[l_mem_ld][wb_rsrv_fail] = 0
gpu_reg_bank_conflict_stalls = 0
Warp Occupancy Distribution:
Stall:324762	W0_Idle:37861	W0_Scoreboard:36890	W1:1617	W2:1706	W3:1602	W4:1573	W5:1910	W6:2148	W7:2029	W8:1839	W9:69677	W10:1230	W11:880	W12:982	W13:1064	W14:1298	W15:978	W16:903	W17:828	W18:938	W19:914	W20:652	W21:625	W22:705	W23:1064	W24:1036	W25:1062	W26:1332	W27:1100	W28:1093	W29:981	W30:664	W31:754	W32:331573
traffic_breakdown_coretomem[CONST_ACC_R] = 360 {8:45,}
traffic_breakdown_coretomem[GLOBAL_ACC_R] = 192560 {8:24070,}
traffic_breakdown_coretomem[GLOBAL_ACC_W] = 172800 {40:499,72:504,136:857,}
traffic_breakdown_coretomem[INST_ACC_R] = 840 {8:105,}
traffic_breakdown_memtocore[CONST_ACC_R] = 3240 {72:45,}
traffic_breakdown_memtocore[GLOBAL_ACC_R] = 3273520 {136:24070,}
traffic_breakdown_memtocore[GLOBAL_ACC_W] = 14880 {8:1860,}
traffic_breakdown_memtocore[INST_ACC_R] = 14280 {136:105,}
maxmrqlatency = 67 
maxdqlatency = 0 
maxmflatency = 833 
averagemflatency = 279 
max_icnt2mem_latency = 623 
max_icnt2sh_latency = 29566 
mrq_lat_table:1507 	425 	145 	232 	221 	29 	1 	0 	0 	0 	0 	0 	0 	0 	0 	0 	0 	0 	0 	0 	0 	0 	0 	0 	0 	0 	0 	0 	0 	0 	0 	0 	
dq_lat_table:0 	0 	0 	0 	0 	0 	0 	0 	0 	0 	0 	0 	0 	0 	0 	0 	0 	0 	0 	0 	0 	0 	0 	0 	0 	0 	0 	0 	0 	0 	0 	0 	
mf_lat_table:0 	0 	0 	0 	0 	0 	0 	13085 	11624 	1266 	0 	0 	0 	0 	0 	0 	0 	0 	0 	0 	0 	0 	0 	0 	0 	0 	0 	0 	0 	0 	0 	0 	
icnt2mem_lat_table:0 	0 	0 	16017 	2433 	2032 	2678 	2464 	447 	9 	0 	0 	0 	0 	0 	0 	0 	0 	0 	0 	0 	0 	0 	0 	
icnt2sh_lat_table:0 	0 	0 	2120 	13648 	7997 	349 	1 	0 	0 	0 	0 	0 	432 	1428 	0 	0 	0 	0 	0 	0 	0 	0 	0 	
mf_lat_pw_table:0 	0 	0 	0 	0 	0 	0 	26 	32 	0 	0 	0 	0 	0 	0 	0 	0 	0 	0 	0 	0 	0 	0 	0 	0 	0 	0 	0 	0 	0 	0 	0 	
maximum concurrent accesses to same row:
dram[0]:         1         0         0         0         0         0         0         0         0         0         0         0         0         0         0         0 
dram[1]:         1         0         0         0         0         0         0         0         0         0         0         0         0         0         0         0 
dram[2]:         0         0         0         0         0         0         0         0         0         0         0         0         0         0         0         0 
dram[3]:         0         0         0         0         0         0         0         0         0         0         0         0         0         0         0         0 
dram[4]:         0         0         0         0         0         0         0         0         0         0         0         0         0         0         0         0 
dram[5]:         0         0         0         0         0         0         0         0         0         0         0         0         0         0         0         0 
maximum service time to same row:
dram[0]:       348         0         0         0      1546      1537      2029      2046      2041       834     10213     10985     21450     20565         0         0 
dram[1]:      2140         0         0         0      1550      1562      2012      1907      2769      9957     10166     13121     20035     20584         0         0 
dram[2]:      8219         0         0         0      1546      1532      2000      1878      2671     10032     10796     11103     20819     20344         0         0 
dram[3]:      9625         0         0         0      1541      1529      1751      2082     10949     10029     11724     13449     20707     20629         0         0 
dram[4]:         0         0         0         0      1544      1532      1940      1956       835     10884     11544     12888     20644     18744         0         0 
dram[5]:         0         0         0         0      1541      1529      1934      1968       841     10935     11104     12582     20828     18729         0         0 
average row accesses per activate:
dram[0]:  1.000000      -nan      -nan      -nan 10.000000 10.000000 32.000000 32.000000 45.000000 47.000000 64.000000 65.000000 60.000000 61.000000      -nan      -nan 
dram[1]:  3.000000      -nan      -nan      -nan 10.000000 10.000000 32.000000 32.000000 45.000000 46.000000 64.000000 66.000000 61.000000 59.000000      -nan      -nan 
dram[2]:  2.000000      -nan      -nan      -nan 10.000000 12.000000 32.000000 32.000000 47.000000 50.000000 64.000000 64.000000 60.000000 57.000000      -nan      -nan 
dram[3]:  1.000000      -nan      -nan      -nan 10.000000 12.000000 32.000000 32.000000 45.000000 46.000000 67.000000 65.000000 60.000000 57.000000      -nan      -nan 
dram[4]:      -nan      -nan      -nan      -nan 10.000000 12.000000 32.000000 32.000000 44.000000 46.000000 66.000000 64.000000 61.000000 57.000000      -nan      -nan 
dram[5]:      -nan      -nan      -nan      -nan 10.000000 12.000000 32.000000 32.000000 44.000000 48.000000 64.000000 64.000000 60.000000 56.000000      -nan      -nan 
average row locality = 2560/66 = 38.787880
number of total memory accesses made:
dram[0]:         0         0         0         0         0         0         0         0         0         0         0         0         0         0         0         0 
dram[1]:         0         0         0         0         0         0         0         0         0         0         0         0         0         0         0         0 
dram[2]:         0         0         0         0         0         0         0         0         0         0         0         0         0         0         0         0 
dram[3]:         0         0         0         0         0         0         0         0         0         0         0         0         0         0         0         0 
dram[4]:         0         0         0         0         0         0         0         0         0         0         0         0         0         0         0         0 
dram[5]:         0         0         0         0         0         0         0         0         0         0         0         0         0         0         0         0 
total accesses: 0
min_bank_accesses = 0!
min_chip_accesses = 0!
number of total read accesses:
dram[0]:         3         0         0         0        10        10        32        32        32        31        32        32        30        30         0         0 
dram[1]:         3         0         0         0        10        10        32        32        32        32        32        32        30        28         0         0 
dram[2]:         2         0         0         0        10        12        32        32        32        32        32        32        30        28         0         0 
dram[3]:         1         0         0         0        10        12        32        32        32        32        32        32        30        28         0         0 
dram[4]:         0         0         0         0        10        12        32        32        32        32        32        32        30        28         0         0 
dram[5]:         0         0         0         0        10        12        32        32        32        32        32        32        30        28         0         0 
total reads: 1638
min_bank_accesses = 0!
chip skew: 274/272 = 1.01
number of total write accesses:
dram[0]:         0         0         0         0         0         0         0         0        13        16        32        33        30        31         0         0 
dram[1]:         0         0         0         0         0         0         0         0        13        14        32        34        31        31         0         0 
dram[2]:         0         0         0         0         0         0         0         0        15        18        32        32        30        29         0         0 
dram[3]:         0         0         0         0         0         0         0         0        13        14        35        33        30        29         0         0 
dram[4]:         0         0         0         0         0         0         0         0        12        14        34        32        31        29         0         0 
dram[5]:         0         0         0         0         0         0         0         0        12        16        32        32        30        28         0         0 
total reads: 922
min_bank_accesses = 0!
chip skew: 156/150 = 1.04
average mf latency per bank:
dram[0]:       1296    none      none      none       18496      9290     14794     11675      2033      1524       279       247       207       205    none      none  
dram[1]:       3424    none      none      none       19278      7234     16547      9607      1681      1076       288       234       212       203    none      none  
dram[2]:          0    none      none      none        9734      9158      9186      7474      1207       803       258       224       210       210    none      none  
dram[3]:          0    none      none      none        8810      9941     12576      7525      1882       974       336       225       215       202    none      none  
dram[4]:     none      none      none      none       12245      8257     13516     12894      3278      1140       295       262       213       205    none      none  
dram[5]:     none      none      none      none       11098      5873     17227     10478      3525      1191       384       260       215       204    none      none  
maximum mf latency per bank:
dram[0]:        282         0         0         0       772       661       714       749       602       624       592       504       296       305         0         0
dram[1]:        569         0         0         0       824       561       833       605       707       532       544       361       367       341         0         0
dram[2]:          0         0         0         0       663       501       637       476       632       396       501       352       290       349         0         0
dram[3]:          0         0         0         0       545       632       580       528       530       491       574       390       378       288         0         0
dram[4]:          0         0         0         0       726       538       692       512       594       494       488       483       451       333         0         0
dram[5]:          0         0         0         0       673       558       735       506       773       456       787       533       298       298         0         0

Number of Memory Banks Accessed per Memory Operation per Warp (from 0):
0	0	0	0	0	0	0	0	0	0	0	0	0	0	0	0	0	0	0	0	0	0	0	0	0	0	0	0	0	0	0	0	0	0	0	0	0	0	0	0	0	0	0	0	0	0	0	0	0	0	0	0	0	0	0	0	0	0	0	0	0	0	0	0	0	0	0	0	0	0	0	0	0	0	0	0	0	0	0	0	0	0	0	0	0	0	0	0	0	0	0	0	0	0	0	0	
Average # of Memory Banks Accessed per Memory Operation per Warp=-nan

position of mrq chosen
0	0	0	0	0	0	0	0	0	0	0	0	0	0	0	0	

average position of mrq chosen = -nan
[...]
gpgpu_stall_shd_mem[l_mem_ld][wb_icnt_rc] = 0
gpgpu_stall_shd_mem[l_mem_ld][wb_rsrv_fail] = 0
gpgpu_stall_shd_mem[l_mem_st][mshr_rc] = 0
gpgpu_stall_shd_mem[l_mem_st][icnt_rc] = 0
gpgpu_stall_shd_mem[l_mem_ld][wb_icnt_rc] = 0
gpgpu_stall_shd_mem[l_mem_ld][wb_rsrv_fail] = 0
gpu_reg_bank_conflict_stalls = 0
Warp Occupancy Distribution:
Stall:939533	W0_Idle:94980	W0_Scoreboard:1173233	W1:2597	W2:3581	W3:4068	W4:3798	W5:4566	W6:4331	W7:4364	W8:4137	W9:72206	W10:3671	W11:2610	W12:2826	W13:3133	W14:3223	W15:3869	W16:3792	W17:3561	W18:3978	W19:4192	W20:4403	W21:3990	W22:4431	W23:3704	W24:2421	W25:1078195	W26:1332	W27:1100	W28:1093	W29:981	W30:664	W31:754	W32:331573
traffic_breakdown_coretomem[CONST_ACC_R] = 600 {8:75,}
traffic_breakdown_coretomem[GLOBAL_ACC_R] = 387832 {8:48479,}
traffic_breakdown_coretomem[GLOBAL_ACC_W] = 394000 {40:1199,72:1204,136:1907,}
traffic_breakdown_coretomem[INST_ACC_R] = 1680 {8:210,}
traffic_breakdown_memtocore[CONST_ACC_R] = 5400 {72:75,}
traffic_breakdown_memtocore[GLOBAL_ACC_R] = 6593144 {136:48479,}
traffic_breakdown_memtocore[GLOBAL_ACC_W] = 34480 {8:4310,}
traffic_breakdown_memtocore[INST_ACC_R] = 28560 {136:210,}
maxmrqlatency = 100 
maxdqlatency = 0 
maxmflatency = 833 
averagemflatency = 217 
max_icnt2mem_latency = 623 
max_icnt2sh_latency = 129504 
mrq_lat_table:3204 	803 	240 	398 	437 	60 	9 	0 	0 	0 	0 	0 	0 	0 	0 	0 	0 	0 	0 	0 	0 	0 	0 	0 	0 	0 	0 	0 	0 	0 	0 	0 	
dq_lat_table:0 	0 	0 	0 	0 	0 	0 	0 	0 	0 	0 	0 	0 	0 	0 	0 	0 	0 	0 	0 	0 	0 	0 	0 	0 	0 	0 	0 	0 	0 	0 	0 	
mf_lat_table:0 	0 	0 	0 	0 	0 	0 	39033 	12565 	1266 	0 	0 	0 	0 	0 	0 	0 	0 	0 	0 	0 	0 	0 	0 	0 	0 	0 	0 	0 	0 	0 	0 	
icnt2mem_lat_table:0 	0 	0 	42374 	3008 	2081 	2691 	2464 	447 	9 	0 	0 	0 	0 	0 	0 	0 	0 	0 	0 	0 	0 	0 	0 	
icnt2sh_lat_table:0 	0 	0 	17742 	21628 	8825 	358 	1 	0 	0 	0 	0 	0 	432 	1428 	766 	1684 	0 	0 	0 	0 	0 	0 	0 	
mf_lat_pw_table:0 	0 	0 	0 	0 	0 	0 	225 	33 	0 	0 	0 	0 	0 	0 	0 	0 	0 	0 	0 	0 	0 	0 	0 	0 	0 	0 	0 	0 	0 	0 	0 	
maximum concurrent accesses to same row:
dram[0]:         1         2         0         0        10        10         0         0         0         0         0         0         0         0         0         0 
dram[1]:         2         0         0         0        10        10         0         0         0         0         0         0         0         0         0         0 
dram[2]:         2         0         0         0        10        12         0         0         0         0         0         0         0         0         0         0 
dram[3]:         2         0         0         0        10        12         0         0         0         0         0         0         0         0         0         0 
dram[4]:         2         0         0         0        10        12         0         0         0         0         0         0         0         0         0         0 
dram[5]:         2         0         0         0        10        12         0         0         0         0         0         0         0         0         0         0 
maximum service time to same row:
dram[0]:     19112     12482     53694     54125     85503     85819      2029      2046      2041       834     10213     10985     21450     20565       282       288 
dram[1]:     19393     22504     54182     54224     85496     85788      2012      1907      2769      9957     10166     13121     20035     20584       288       282 
dram[2]:     11915     22557     53874     54774     85617     85936      2000      1878      2671     10032     10796     11103     20819     20344       282       291 
dram[3]:     11091     22813     54566     54771     85393     86290      1751      2082     10949     10029     11724     13449     20707     20629       285       285 
dram[4]:     20045     24124     54775     54863     85663     86580      1940      1956       835     10884     11544     12888     20644     18744       285       285 
dram[5]:     12444     24621     54904     54915     86025     86577      1934      1968       841     10935     11104     12582     20828     18729       283       305 
average row accesses per activate:
dram[0]: 17.750000 35.000000 67.000000 67.000000 19.000000 17.500000 32.000000 32.000000 45.000000 47.000000 64.000000 65.000000 62.000000 63.000000 46.000000 46.000000 
dram[1]: 23.666666 66.000000 66.000000 69.000000 19.500000 17.500000 32.000000 32.000000 45.000000 46.000000 64.000000 66.000000 63.000000 63.000000 51.000000 47.000000 
dram[2]: 35.000000 69.000000 69.000000 67.000000 20.000000 18.000000 32.000000 32.000000 47.000000 50.000000 64.000000 64.000000 62.000000 61.000000 47.000000 49.000000 
dram[3]: 37.000000 74.000000 69.000000 67.000000 20.500000 19.000000 32.000000 32.000000 45.000000 46.000000 67.000000 65.000000 62.000000 61.000000 49.000000 51.000000 
dram[4]: 35.000000 66.000000 69.000000 75.000000 19.000000 18.500000 32.000000 32.000000 44.000000 46.000000 66.000000 64.000000 63.000000 61.000000 49.000000 51.000000 
dram[5]: 36.000000 68.000000 65.000000 67.000000 17.500000 19.000000 32.000000 32.000000 44.000000 48.000000 64.000000 64.000000 62.000000 60.000000 51.000000 49.000000 
average row locality = 5151/118 = 43.652542
number of total memory accesses made:
dram[0]:         0         0         0         0         0         0         0         0         0         0         0         0         0         0         0         0 
dram[1]:         0         0         0         0         0         0         0         0         0         0         0         0         0         0         0         0 
dram[2]:         0         0         0         0         0         0         0         0         0         0         0         0         0         0         0         0 
dram[3]:         0         0         0         0         0         0         0         0         0         0         0         0         0         0         0         0 
dram[4]:         0         0         0         0         0         0         0         0         0         0         0         0         0         0         0         0 
dram[5]:         0         0         0         0         0         0         0         0         0         0         0         0         0         0         0         0 
total accesses: 0
min_bank_accesses = 0!
min_chip_accesses = 0!
number of total read accesses:
dram[0]:        35        34        32        32        24        22        32        32        32        31        32        32        32        32        32        32 
dram[1]:        36        32        32        32        24        22        32        32        32        32        32        32        32        32        32        32 
dram[2]:        34        32        32        32        24        24        32        32        32        32        32        32        32        32        32        32 
dram[3]:        34        32        32        32        24        24        32        32        32        32        32        32        32        32        32        32 
dram[4]:        34        32        32        32        22        24        32        32        32        32        32        32        32        32        32        32 
dram[5]:        34        32        32        32        22        24        32        32        32        32        32        32        32        32        32        32 
total reads: 2984
bank skew: 36/22 = 1.64
chip skew: 498/496 = 1.00
number of total write accesses:
dram[0]:        36        36        35        35        14        13         0         0        13        16        32        33        30        31        14        14 
dram[1]:        35        34        34        37        15        13         0         0        13        14        32        34        31        31        19        15 
dram[2]:        36        37        37        35        16        12         0         0        15        18        32        32        30        29        15        17 
dram[3]:        40        42        37        35        17        14         0         0        13        14        35        33        30        29        17        19 
dram[4]:        36        34        37        43        16        13         0         0        12        14        34        32        31        29        17        19 
dram[5]:        38        36        33        35        13        14         0         0        12        16        32        32        30        28        19        17 
total reads: 2167
min_bank_accesses = 0!
chip skew: 375/352 = 1.07
average mf latency per bank:
dram[0]:        256       202       210       214      5030      2802     14794     11675      3112      2367      1539      1507      1696      1659      2244      2056
dram[1]:        421       213       215       212      5103      2220     16547      9607      2594      2320      1503      1518      1649      1732      1803      2205
dram[2]:        206       209       206       213      2592      3198      9186      7474      2128      1975      1549      1497      1692      1830      2022      2061
dram[3]:        196       206       210       207      2299      3287     12576      7525      2832      1892      1606      1429      1599      1873      2143      1611
dram[4]:        203       215       211       202      3367      2821     13516     12894      4428      2052      1556      1510      1688      1686      1968      1967
dram[5]:        200       216       220       207      3315      2001     17227     10478      4508      2106      1631      1507      1644      1698      2089      1731
maximum mf latency per bank:
dram[0]:        282       271       292       298       772       661       714       749       602       624       592       504       296       305       338       309
dram[1]:        569       274       281       283       824       561       833       605       707       532       544       361       367       341       331       357
dram[2]:        287       274       278       289       663       501       637       476       632       396       501       352       290       349       327       331
dram[3]:        282       287       275       271       545       632       580       528       530       491       574       390       378       288       365       350
dram[4]:        288       272       274       278       726       538       692       512       594       494       488       483       451       333       298       351
dram[5]:        282       276       284       278       673       558       735       506       773       456       787       533       298       298       365       381

Number of Memory Banks Accessed per Memory Operation per Warp (from 0):
0	0	0	0	0	0	0	0	0	0	0	0	0	0	0	0	0	0	0	0	0	0	0	0	0	0	0	0	0	0	0	0	0	0	0	0	0	0	0	0	0	0	0	0	0	0	0	0	0	0	0	0	0	0	0	0	0	0	0	0	0	0	0	0	0	0	0	0	0	0	0	0	0	0	0	0	0	0	0	0	0	0	0	0	0	0	0	0	0	0	0	0	0	0	0	0	
Average # of Memory Banks Accessed per Memory Operation per Warp=-nan

position of mrq chosen
0	0	0	0	0	0	0	0	0	0	0	0	0	0	0	0	

average position of mrq chosen = -nan
Memory Partition 0: 
Cache L2_bank_000:
MSHR contents

Cache L2_bank_001:
MSHR contents

In Dram Latency Queue (total = 0): 
DRAM[0]: 16 bks, busW=4 BL=8 CL=12, tRRD=2 tCCD=6, tRCD=12 tRAS=28 tRP=12 tRC=40
n_cmd=170945 n_nop=169405 n_act=22 n_pre=6 n_req=850 n_rd=996 n_write=516 bw_util=0.01769
n_activity=11359 dram_eff=0.2662
bk0: 70a 170294i bk1: 68a 170299i bk2: 64a 170320i bk3: 64a 170371i bk4: 48a 170602i bk5: 44a 170628i bk6: 64a 170770i bk7: 64a 170754i bk8: 64a 170596i bk9: 62a 170543i bk10: 64a 170298i bk11: 64a 170274i bk12: 64a 170333i bk13: 64a 170316i bk14: 64a 170578i bk15: 64a 170573i 
dram_util_bins: 0 0 0 0 0 0 0 0 0 0
dram_eff_bins: 0 0 0 0 0 0 0 0 0 0
mrqq: max=5 avg=0.0183451
Memory Partition 1: 
Cache L2_bank_002:
MSHR contents

Cache L2_bank_003:
MSHR contents

In Dram Latency Queue (total = 0): 
DRAM[1]: 16 bks, busW=4 BL=8 CL=12, tRRD=2 tCCD=6, tRCD=12 tRAS=28 tRP=12 tRC=40
n_cmd=170945 n_nop=169403 n_act=21 n_pre=5 n_req=855 n_rd=996 n_write=520 bw_util=0.01774
n_activity=11313 dram_eff=0.268
bk0: 72a 170250i bk1: 64a 170337i bk2: 64a 170312i bk3: 64a 170346i bk4: 48a 170613i bk5: 44a 170581i bk6: 64a 170759i bk7: 64a 170733i bk8: 64a 170591i bk9: 64a 170560i bk10: 64a 170335i bk11: 64a 170267i bk12: 64a 170267i bk13: 64a 170277i bk14: 64a 170528i bk15: 64a 170541i 
dram_util_bins: 0 0 0 0 0 0 0 0 0 0
dram_eff_bins: 0 0 0 0 0 0 0 0 0 0
mrqq: max=6 avg=0.0212641
Memory Partition 2: 
Cache L2_bank_004:
MSHR contents

Cache L2_bank_005:
MSHR contents

In Dram Latency Queue (total = 0): 
DRAM[2]: 16 bks, busW=4 BL=8 CL=12, tRRD=2 tCCD=6, tRCD=12 tRAS=28 tRP=12 tRC=40
n_cmd=170945 n_nop=169404 n_act=19 n_pre=3 n_req=859 n_rd=996 n_write=523 bw_util=0.01777
n_activity=11233 dram_eff=0.2705
bk0: 68a 170282i bk1: 64a 170344i bk2: 64a 170325i bk3: 64a 170285i bk4: 48a 170614i bk5: 48a 170587i bk6: 64a 170755i bk7: 64a 170693i bk8: 64a 170546i bk9: 64a 170555i bk10: 64a 170272i bk11: 64a 170253i bk12: 64a 170336i bk13: 64a 170341i bk14: 64a 170580i bk15: 64a 170512i 
dram_util_bins: 0 0 0 0 0 0 0 0 0 0
dram_eff_bins: 0 0 0 0 0 0 0 0 0 0
mrqq: max=6 avg=0.0226623
Memory Partition 3: 
Cache L2_bank_006:
MSHR contents

Cache L2_bank_007:
MSHR contents

In Dram Latency Queue (total = 0): 
DRAM[3]: 16 bks, busW=4 BL=8 CL=12, tRRD=2 tCCD=6, tRCD=12 tRAS=28 tRP=12 tRC=40
n_cmd=170945 n_nop=169372 n_act=19 n_pre=3 n_req=873 n_rd=996 n_write=555 bw_util=0.01815
n_activity=11398 dram_eff=0.2722
bk0: 68a 170290i bk1: 64a 170305i bk2: 64a 170324i bk3: 64a 170356i bk4: 48a 170584i bk5: 48a 170584i bk6: 64a 170758i bk7: 64a 170752i bk8: 64a 170557i bk9: 64a 170537i bk10: 64a 170176i bk11: 64a 170254i bk12: 64a 170328i bk13: 64a 170365i bk14: 64a 170517i bk15: 64a 170438i 
dram_util_bins: 0 0 0 0 0 0 0 0 0 0
dram_eff_bins: 0 0 0 0 0 0 0 0 0 0
mrqq: max=8 avg=0.025049
Memory Partition 4: 
Cache L2_bank_008:
MSHR contents

Cache L2_bank_009:
MSHR contents

In Dram Latency Queue (total = 0): 
DRAM[4]: 16 bks, busW=4 BL=8 CL=12, tRRD=2 tCCD=6, tRCD=12 tRAS=28 tRP=12 tRC=40
n_cmd=170945 n_nop=169396 n_act=19 n_pre=3 n_req=863 n_rd=992 n_write=535 bw_util=0.01787
n_activity=11262 dram_eff=0.2712
bk0: 68a 170315i bk1: 64a 170338i bk2: 64a 170357i bk3: 64a 170301i bk4: 44a 170622i bk5: 48a 170614i bk6: 64a 170788i bk7: 64a 170740i bk8: 64a 170560i bk9: 64a 170529i bk10: 64a 170229i bk11: 64a 170249i bk12: 64a 170335i bk13: 64a 170349i bk14: 64a 170543i bk15: 64a 170468i 
dram_util_bins: 0 0 0 0 0 0 0 0 0 0
dram_eff_bins: 0 0 0 0 0 0 0 0 0 0
mrqq: max=7 avg=0.0241072
Memory Partition 5: 
Cache L2_bank_010:
MSHR contents

Cache L2_bank_011:
MSHR contents

In Dram Latency Queue (total = 0): 
DRAM[5]: 16 bks, busW=4 BL=8 CL=12, tRRD=2 tCCD=6, tRCD=12 tRAS=28 tRP=12 tRC=40
n_cmd=170945 n_nop=169395 n_act=19 n_pre=3 n_req=851 n_rd=992 n_write=536 bw_util=0.01788
n_activity=11163 dram_eff=0.2738
bk0: 68a 170303i bk1: 64a 170336i bk2: 64a 170324i bk3: 64a 170330i bk4: 44a 170652i bk5: 48a 170613i bk6: 64a 170763i bk7: 64a 170730i bk8: 64a 170595i bk9: 64a 170504i bk10: 64a 170237i bk11: 64a 170252i bk12: 64a 170291i bk13: 64a 170278i bk14: 64a 170478i bk15: 64a 170478i 
dram_util_bins: 0 0 0 0 0 0 0 0 0 0
dram_eff_bins: 0 0 0 0 0 0 0 0 0 0
mrqq: max=13 avg=0.0297932

========= L2 cache stats =========
L2_cache_bank[0]: Access = 4659, Miss = 251, Miss_rate = 0.054, Pending_hits = 89, Reservation_fails = 750
L2_cache_bank[1]: Access = 4392, Miss = 247, Miss_rate = 0.056, Pending_hits = 83, Reservation_fails = 712
L2_cache_bank[2]: Access = 4553, Miss = 252, Miss_rate = 0.055, Pending_hits = 92, Reservation_fails = 1086
L2_cache_bank[3]: Access = 4350, Miss = 246, Miss_rate = 0.057, Pending_hits = 91, Reservation_fails = 595
L2_cache_bank[4]: Access = 4294, Miss = 250, Miss_rate = 0.058, Pending_hits = 93, Reservation_fails = 787
L2_cache_bank[5]: Access = 4297, Miss = 248, Miss_rate = 0.058, Pending_hits = 87, Reservation_fails = 678
L2_cache_bank[6]: Access = 4482, Miss = 250, Miss_rate = 0.056, Pending_hits = 95, Reservation_fails = 722
L2_cache_bank[7]: Access = 4005, Miss = 248, Miss_rate = 0.062, Pending_hits = 84, Reservation_fails = 649
L2_cache_bank[8]: Access = 4613, Miss = 248, Miss_rate = 0.054, Pending_hits = 107, Reservation_fails = 440
L2_cache_bank[9]: Access = 4505, Miss = 248, Miss_rate = 0.055, Pending_hits = 99, Reservation_fails = 579
L2_cache_bank[10]: Access = 4652, Miss = 248, Miss_rate = 0.053, Pending_hits = 91, Reservation_fails = 605
L2_cache_bank[11]: Access = 4272, Miss = 248, Miss_rate = 0.058, Pending_hits = 85, Reservation_fails = 535
L2_total_cache_accesses = 53074
L2_total_cache_misses = 2984
L2_total_cache_miss_rate = 0.0562
L2_total_cache_pending_hits = 1096
L2_total_cache_reservation_fails = 8138
L2_total_cache_breakdown:
	L2_cache_stats_breakdown[GLOBAL_ACC_R][HIT] = 46615
	L2_cache_stats_breakdown[GLOBAL_ACC_R][HIT_RESERVED] = 879
	L2_cache_stats_breakdown[GLOBAL_ACC_R][MISS] = 985
	L2_cache_stats_breakdown[GLOBAL_ACC_R][RESERVATION_FAIL] = 7323
	L2_cache_stats_breakdown[CONST_ACC_R][HIT] = 63
	L2_cache_stats_breakdown[CONST_ACC_R][HIT_RESERVED] = 9
	L2_cache_stats_breakdown[CONST_ACC_R][MISS] = 3
	L2_cache_stats_breakdown[CONST_ACC_R][RESERVATION_FAIL] = 307
	L2_cache_stats_breakdown[GLOBAL_ACC_W][HIT] = 2143
	L2_cache_stats_breakdown[GLOBAL_ACC_W][HIT_RESERVED] = 185
	L2_cache_stats_breakdown[GLOBAL_ACC_W][MISS] = 1982
	L2_cache_stats_breakdown[GLOBAL_ACC_W][RESERVATION_FAIL] = 5
	L2_cache_stats_breakdown[INST_ACC_R][HIT] = 173
	L2_cache_stats_breakdown[INST_ACC_R][HIT_RESERVED] = 23
	L2_cache_stats_breakdown[INST_ACC_R][MISS] = 14
	L2_cache_stats_breakdown[INST_ACC_R][RESERVATION_FAIL] = 503
L2_cache_data_port_util = 0.124
L2_cache_fill_port_util = 0.008

icnt_total_pkts_mem_to_simt=247980
icnt_total_pkts_simt_to_mem=64309
LD_mem_lat_dist  0 0 0 0 0 0 0 0 0 0 0 0 0 0 0 0 0 0 0 0 0 0 0 0 0 0 0
ST_mem_lat_dist  0 0 0 0 0 0 0 0 0 0 0 0 0 0 0 0 0 0 0 0 0 0 0 0 0 0 0
----------------------------Interconnect-DETAILS--------------------------------
Class 0:
Packet latency average = 10.5799
	minimum = 6
	maximum = 65
Network latency average = 10.136
	minimum = 6
	maximum = 62
Slowest packet = 52663
Flit latency average = 8.79197
	minimum = 6
	maximum = 58
Slowest flit = 154990
Fragmentation average = 0
	minimum = 0
	maximum = 0
Injected packet rate average = 0.020008
	minimum = 0.0166203 (at node 5)
	maximum = 0.0240849 (at node 18)
Accepted packet rate average = 0.020008
	minimum = 0.0166203 (at node 5)
	maximum = 0.0240849 (at node 18)
Injected flit rate average = 0.0587045
	minimum = 0.0207729 (at node 13)
	maximum = 0.1123 (at node 18)
Accepted flit rate average= 0.0587045
	minimum = 0.0265465 (at node 26)
	maximum = 0.0911865 (at node 6)
Injected packet length average = 2.93406
Accepted packet length average = 2.93406
Total in-flight flits = 0 (0 measured)
====== Overall Traffic Statistics ======
====== Traffic class 0 ======
Packet latency average = 17.9598 (2 samples)
	minimum = 6 (2 samples)
	maximum = 244.5 (2 samples)
Network latency average = 15.067 (2 samples)
	minimum = 6 (2 samples)
	maximum = 243 (2 samples)
Flit latency average = 12.2279 (2 samples)
	minimum = 6 (2 samples)
	maximum = 241 (2 samples)
Fragmentation average = 0.00974885 (2 samples)
	minimum = 0 (2 samples)
	maximum = 93.5 (2 samples)
Injected packet rate average = 0.042673 (2 samples)
	minimum = 0.0326954 (2 samples)
	maximum = 0.0529326 (2 samples)
Accepted packet rate average = 0.042673 (2 samples)
	minimum = 0.0326954 (2 samples)
	maximum = 0.0529326 (2 samples)
Injected flit rate average = 0.125734 (2 samples)
	minimum = 0.0402508 (2 samples)
	maximum = 0.248966 (2 samples)
Accepted flit rate average = 0.125734 (2 samples)
	minimum = 0.0512886 (2 samples)
	maximum = 0.2227 (2 samples)
Injected packet size average = 2.94645 (2 samples)
Accepted packet size average = 2.94645 (2 samples)
Hops average = 1 (2 samples)
