

        *** GPGPU-Sim Simulator Version 3.2.2  [build 0] ***


GPGPU-Sim PTX: simulation mode 0 (can change with PTX_SIM_MODE_FUNC environment variable:
               1=functional simulation only, 0=detailed performance simulator)
GPGPU-Sim: Configuration options:

-network_mode                           1 # Interconnection network mode
-inter_config_file   config_fermi_islip.icnt # Interconnection network config file
-gpgpu_ptx_use_cuobjdump                    1 # Use cuobjdump to extract ptx and sass from binaries
-gpgpu_experimental_lib_support                    0 # Try to extract code from cuda libraries [Broken because of unknown cudaGetExportTable]
-gpgpu_ptx_convert_to_ptxplus                    0 # Convert SASS (native ISA) to ptxplus and run ptxplus
-gpgpu_ptx_force_max_capability                   20 # Force maximum compute capability
-gpgpu_ptx_inst_debug_to_file                    0 # Dump executed instructions' debug information to file
-gpgpu_ptx_inst_debug_file       inst_debug.txt # Executed instructions' debug output file
-gpgpu_ptx_inst_debug_thread_uid                    1 # Thread UID for executed instructions' debug output
-gpgpu_simd_model                       1 # 1 = post-dominator
-gpgpu_shader_core_pipeline              1536:32 # shader core pipeline config, i.e., {<nthread>:<warpsize>}
-gpgpu_tex_cache:l1  4:128:24,L:R:m:N:L,F:128:4,128:2 # per-shader L1 texture cache  (READ-ONLY) config  {<nsets>:<bsize>:<assoc>,<rep>:<wr>:<alloc>:<wr_alloc>,<mshr>:<N>:<merge>,<mq>:<rf>}
-gpgpu_const_cache:l1 64:64:2,L:R:f:N:L,A:2:32,4 # per-shader L1 constant memory cache  (READ-ONLY) config  {<nsets>:<bsize>:<assoc>,<rep>:<wr>:<alloc>:<wr_alloc>,<mshr>:<N>:<merge>,<mq>} 
-gpgpu_cache:il1     4:128:4,L:R:f:N:L,A:2:32,4 # shader L1 instruction cache config  {<nsets>:<bsize>:<assoc>,<rep>:<wr>:<alloc>:<wr_alloc>,<mshr>:<N>:<merge>,<mq>} 
-gpgpu_cache:dl1     32:128:4,L:L:m:N:H,A:32:8,8:2,0,0:0:1:1:0:1,1:4:8:16:32:64,/sciclone/data10/hwang07/GPU_RESEARCH/swl/swl_outputs/RESULTS/ # per-shader L1 data cache config  {<nsets>:<bsize>:<assoc>,<rep>:<wr>:<alloc>:<wr_alloc>,<mshr>:<N>:<merge>,<mq> | none}
-gpgpu_cache:dl1PrefL1                 none # per-shader L1 data cache config  {<nsets>:<bsize>:<assoc>,<rep>:<wr>:<alloc>:<wr_alloc>,<mshr>:<N>:<merge>,<mq> | none}
-gpgpu_cache:dl1PreShared                 none # per-shader L1 data cache config  {<nsets>:<bsize>:<assoc>,<rep>:<wr>:<alloc>:<wr_alloc>,<mshr>:<N>:<merge>,<mq> | none}
-gmem_skip_L1D                          0 # global memory access skip L1D cache (implements -Xptxas -dlcm=cg, default=no skip)
-gpgpu_perfect_mem                      0 # enable perfect memory mode (no cache miss)
-n_regfile_gating_group                    4 # group of lanes that should be read/written together)
-gpgpu_clock_gated_reg_file                    0 # enable clock gated reg file for power calculations
-gpgpu_clock_gated_lanes                    0 # enable clock gated lanes for power calculations
-gpgpu_shader_registers                32768 # Number of registers per shader core. Limits number of concurrent CTAs. (default 8192)
-gpgpu_shader_cta                       8 # Maximum number of concurrent CTAs in shader (default 8)
-gpgpu_num_cta_barriers                   16 # Maximum number of named barriers per CTA (default 16)
-gpgpu_n_clusters                      15 # number of processing clusters
-gpgpu_n_cores_per_cluster                    1 # number of simd cores per cluster
-gpgpu_n_cluster_ejection_buffer_size                    8 # number of packets in ejection buffer
-gpgpu_n_ldst_response_buffer_size                    2 # number of response packets in ld/st unit ejection buffer
-gpgpu_shmem_size                   16384 # Size of shared memory per shader core (default 16kB)
-gpgpu_shmem_size                   49152 # Size of shared memory per shader core (default 16kB)
-gpgpu_shmem_size_PrefL1                16384 # Size of shared memory per shader core (default 16kB)
-gpgpu_shmem_size_PrefShared                16384 # Size of shared memory per shader core (default 16kB)
-gpgpu_shmem_num_banks                   32 # Number of banks in the shared memory in each shader core (default 16)
-gpgpu_shmem_limited_broadcast                    0 # Limit shared memory to do one broadcast per cycle (default on)
-gpgpu_shmem_warp_parts                    1 # Number of portions a warp is divided into for shared memory bank conflict check 
-gpgpu_warpdistro_shader                   -1 # Specify which shader core to collect the warp size distribution from
-gpgpu_warp_issue_shader                    0 # Specify which shader core to collect the warp issue distribution from
-gpgpu_local_mem_map                    1 # Mapping from local memory space address to simulated GPU physical address space (default = enabled)
-gpgpu_num_reg_banks                   16 # Number of register banks (default = 8)
-gpgpu_reg_bank_use_warp_id                    0 # Use warp ID in mapping registers to banks (default = off)
-gpgpu_operand_collector_num_units_sp                    6 # number of collector units (default = 4)
-gpgpu_operand_collector_num_units_sfu                    8 # number of collector units (default = 4)
-gpgpu_operand_collector_num_units_mem                    2 # number of collector units (default = 2)
-gpgpu_operand_collector_num_units_gen                    0 # number of collector units (default = 0)
-gpgpu_operand_collector_num_in_ports_sp                    2 # number of collector unit in ports (default = 1)
-gpgpu_operand_collector_num_in_ports_sfu                    1 # number of collector unit in ports (default = 1)
-gpgpu_operand_collector_num_in_ports_mem                    1 # number of collector unit in ports (default = 1)
-gpgpu_operand_collector_num_in_ports_gen                    0 # number of collector unit in ports (default = 0)
-gpgpu_operand_collector_num_out_ports_sp                    2 # number of collector unit in ports (default = 1)
-gpgpu_operand_collector_num_out_ports_sfu                    1 # number of collector unit in ports (default = 1)
-gpgpu_operand_collector_num_out_ports_mem                    1 # number of collector unit in ports (default = 1)
-gpgpu_operand_collector_num_out_ports_gen                    0 # number of collector unit in ports (default = 0)
-gpgpu_coalesce_arch                   13 # Coalescing arch (default = 13, anything else is off for now)
-gpgpu_num_sched_per_core                    2 # Number of warp schedulers per core
-gpgpu_max_insn_issue_per_warp                    1 # Max number of instructions that can be issued per warp in one cycle by scheduler
-gpgpu_simt_core_sim_order                    1 # Select the simulation order of cores in a cluster (0=Fix, 1=Round-Robin)
-gpgpu_pipeline_widths        2,1,1,2,1,1,2 # Pipeline widths ID_OC_SP,ID_OC_SFU,ID_OC_MEM,OC_EX_SP,OC_EX_SFU,OC_EX_MEM,EX_WB
-gpgpu_num_sp_units                     2 # Number of SP units (default=1)
-gpgpu_num_sfu_units                    1 # Number of SF units (default=1)
-gpgpu_num_mem_units                    1 # Number if ldst units (default=1) WARNING: not hooked up to anything
-gpgpu_scheduler      warp_limiting:2:1:0 # Scheduler configuration: < lrr | gto | two_level_active > If two_level_active:<num_active_warps>:<inner_prioritization>:<outer_prioritization>For complete list of prioritization values see shader.h enum scheduler_prioritization_typeDefault: gto
-gpgpu_dram_scheduler                    1 # 0 = fifo, 1 = FR-FCFS (defaul)
-gpgpu_dram_partition_queues              8:8:8:8 # i2$:$2d:d2$:$2i
-l2_ideal                               0 # Use a ideal L2 cache that always hit
-gpgpu_cache:dl2     64:128:8,L:B:m:W:L,A:32:4,4:0,32 # unified banked L2 data cache config  {<nsets>:<bsize>:<assoc>,<rep>:<wr>:<alloc>:<wr_alloc>,<mshr>:<N>:<merge>,<mq>}
-gpgpu_cache:dl2_texture_only                    0 # L2 cache used for texture only
-gpgpu_n_mem                            6 # number of memory modules (e.g. memory controllers) in gpu
-gpgpu_n_sub_partition_per_mchannel                    2 # number of memory subpartition in each memory module
-gpgpu_n_mem_per_ctrlr                    2 # number of memory chips per memory controller
-gpgpu_memlatency_stat                   14 # track and display latency statistics 0x2 enables MC, 0x4 enables queue logs
-gpgpu_frfcfs_dram_sched_queue_size                   16 # 0 = unlimited (default); # entries per chip
-gpgpu_dram_return_queue_size                  116 # 0 = unlimited (default); # entries per chip
-gpgpu_dram_buswidth                    4 # default = 4 bytes (8 bytes per cycle at DDR)
-gpgpu_dram_burst_length                    8 # Burst length of each DRAM request (default = 4 data bus cycle)
-dram_data_command_freq_ratio                    4 # Frequency ratio between DRAM data bus and command bus (default = 2 times, i.e. DDR)
-gpgpu_dram_timing_opt nbk=16:CCD=2:RRD=6:RCD=12:RAS=28:RP=12:RC=40: CL=12:WL=4:CDLR=5:WR=12:nbkgrp=4:CCDL=3:RTPL=2 # DRAM timing parameters = {nbk:tCCD:tRRD:tRCD:tRAS:tRP:tRC:CL:WL:tCDLR:tWR:nbkgrp:tCCDL:tRTPL}
-rop_latency                          120 # ROP queue latency (default 85)
-dram_latency                         100 # DRAM latency (default 30)
-gpgpu_mem_addr_mapping dramid@8;00000000.00000000.00000000.00000000.0000RRRR.RRRRRRRR.BBBCCCCB.CCSSSSSS # mapping memory address to dram model {dramid@<start bit>;<memory address map>}
-gpgpu_mem_addr_test                    0 # run sweep test to check address mapping for aliased address
-gpgpu_mem_address_mask                    1 # 0 = old addressing mask, 1 = new addressing mask, 2 = new add. mask + flipped bank sel and chip sel bits
-gpuwattch_xml_file  gpuwattch_gtx480.xml # GPUWattch XML file
-power_simulation_enabled                    0 # Turn on power simulator (1=On, 0=Off)
-power_per_cycle_dump                    0 # Dump detailed power output each cycle
-power_trace_enabled                    0 # produce a file for the power trace (1=On, 0=Off)
-power_trace_zlevel                     6 # Compression level of the power trace output log (0=no comp, 9=highest)
-steady_power_levels_enabled                    0 # produce a file for the steady power levels (1=On, 0=Off)
-steady_state_definition                  8:4 # allowed deviation:number of samples
-gpgpu_max_cycle                        0 # terminates gpu simulation early (0 = no limit)
-gpgpu_max_insn                         0 # terminates gpu simulation early (0 = no limit)
-gpgpu_max_cta                          0 # terminates gpu simulation early (0 = no limit)
-gpgpu_runtime_stat                   500 # display runtime statistics such as dram utilization {<freq>:<flag>}
-liveness_message_freq                    1 # Minimum number of seconds between simulation liveness messages (0 = always print)
-gpgpu_flush_l1_cache                    0 # Flush L1 cache at the end of each kernel call
-gpgpu_flush_l2_cache                    0 # Flush L2 cache at the end of each kernel call
-gpgpu_deadlock_detect                    1 # Stop the simulation at deadlock (1=on (default), 0=off)
-gpgpu_ptx_instruction_classification                    0 # if enabled will classify ptx instruction types per kernel (Max 255 kernels now)
-gpgpu_ptx_sim_mode                     0 # Select between Performance (default) or Functional simulation (1)
-gpgpu_clock_domains 700.0:700.0:700.0:924.0 # Clock Domain Frequencies in MhZ {<Core Clock>:<ICNT Clock>:<L2 Clock>:<DRAM Clock>}
-gpgpu_max_concurrent_kernel                    8 # maximum kernels that can run concurrently on GPU
-gpgpu_cflog_interval                    0 # Interval between each snapshot in control flow logger
-visualizer_enabled                     0 # Turn on visualizer output (1=On, 0=Off)
-visualizer_outputfile                 NULL # Specifies the output log file for visualizer
-visualizer_zlevel                      6 # Compression level of the visualizer output log (0=no comp, 9=highest)
-trace_enabled                          0 # Turn on traces
-trace_components                    none # comma seperated list of traces to enable. Complete list found in trace_streams.tup. Default none
-trace_sampling_core                    0 # The core which is printed using CORE_DPRINTF. Default 0
-trace_sampling_memory_partition                   -1 # The memory partition which is printed using MEMPART_DPRINTF. Default -1 (i.e. all)
-enable_ptx_file_line_stats                    1 # Turn on PTX source line statistic profiling. (1 = On)
-ptx_line_stats_filename gpgpu_inst_stats.txt # Output file for PTX source line statistics.
-save_embedded_ptx                      0 # saves ptx files embedded in binary as <n>.ptx
-keep                                   0 # keep intermediate files created by GPGPU-Sim when interfacing with external programs
-gpgpu_ptx_save_converted_ptxplus                    0 # Saved converted ptxplus to a file
-ptx_opcode_latency_int         4,13,4,5,145 # Opcode latencies for integers <ADD,MAX,MUL,MAD,DIV>Default 1,1,19,25,145
-ptx_opcode_latency_fp          4,13,4,5,39 # Opcode latencies for single precision floating points <ADD,MAX,MUL,MAD,DIV>Default 1,1,1,1,30
-ptx_opcode_latency_dp         8,19,8,8,330 # Opcode latencies for double precision floating points <ADD,MAX,MUL,MAD,DIV>Default 8,8,8,8,335
-ptx_opcode_initiation_int            1,2,2,1,8 # Opcode initiation intervals for integers <ADD,MAX,MUL,MAD,DIV>Default 1,1,4,4,32
-ptx_opcode_initiation_fp            1,2,1,1,4 # Opcode initiation intervals for single precision floating points <ADD,MAX,MUL,MAD,DIV>Default 1,1,1,1,5
-ptx_opcode_initiation_dp         8,16,8,8,130 # Opcode initiation intervals for double precision floating points <ADD,MAX,MUL,MAD,DIV>Default 8,8,8,8,130
DRAM Timing Options:
nbk                                    16 # number of banks
CCD                                     2 # column to column delay
RRD                                     6 # minimal delay between activation of rows in different banks
RCD                                    12 # row to column delay
RAS                                    28 # time needed to activate row
RP                                     12 # time needed to precharge (deactivate) row
RC                                     40 # row cycle time
CDLR                                    5 # switching from write to read (changes tWTR)
WR                                     12 # last data-in to row precharge
CL                                     12 # CAS latency
WL                                      4 # Write latency
nbkgrp                                  4 # number of bank groups
CCDL                                    3 # column to column delay between accesses to different bank groups
RTPL                                    2 # read to precharge delay between accesses to different bank groups
Total number of memory sub partition = 12
addr_dec_mask[CHIP]  = 0000000000000000 	high:64 low:0
addr_dec_mask[BK]    = 000000000000e100 	high:16 low:8
addr_dec_mask[ROW]   = 000000000fff0000 	high:28 low:16
addr_dec_mask[COL]   = 0000000000001eff 	high:13 low:0
addr_dec_mask[BURST] = 000000000000003f 	high:6 low:0
sub_partition_id_mask = 0000000000000100
GPGPU-Sim uArch: clock freqs: 700000000.000000:700000000.000000:700000000.000000:924000000.000000
GPGPU-Sim uArch: clock periods: 0.00000000142857142857:0.00000000142857142857:0.00000000142857142857:0.00000000108225108225
*** Initializing Memory Statistics ***
GPGPU-Sim uArch: interconnect node map (shaderID+MemID to icntID)
GPGPU-Sim uArch: Memory nodes ID start from index: 15
GPGPU-Sim uArch:    0   1   2   3   4
GPGPU-Sim uArch:    5   6   7   8   9
GPGPU-Sim uArch:   10  11  12  13  14
GPGPU-Sim uArch:   15  16  17  18  19
GPGPU-Sim uArch:   20  21  22  23  24
GPGPU-Sim uArch:   25  26
GPGPU-Sim uArch: interconnect node reverse map (icntID to shaderID+MemID)
GPGPU-Sim uArch: Memory nodes start from ID: 15
GPGPU-Sim uArch:    0   1   2   3   4
GPGPU-Sim uArch:    5   6   7   8   9
GPGPU-Sim uArch:   10  11  12  13  14
GPGPU-Sim uArch:   15  16  17  18  19
GPGPU-Sim uArch:   20  21  22  23  24
GPGPU-Sim uArch:   25  26
a694f6f961931330989587dbd586e872  /sciclone/data10/hwang07/adwait/applications/benchmarks/CUDA/KMN/gpgpu_ptx_sim__KMN
GPGPU-Sim uArch: performance model initialization complete.
GPGPU-Sim PTX: __cudaRegisterFatBinary, fat_cubin_handle = 1, filename=kmeans_cuda.cu
self exe links to: /sciclone/data10/hwang07/adwait/applications/benchmarks/CUDA/KMN/gpgpu_ptx_sim__KMN
Running md5sum using "md5sum /sciclone/data10/hwang07/adwait/applications/benchmarks/CUDA/KMN/gpgpu_ptx_sim__KMN "
Parsing file _cuobjdump_complete_output_shBfFG
######### cuobjdump parser ########
## Adding new section ELF
Adding arch: sm_20
Adding identifier: kmeans_cuda.cu
## Adding new section PTX
Adding ptx filename: _cuobjdump_1.ptx
Adding arch: sm_20
Adding identifier: kmeans_cuda.cu
Done parsing!!!
GPGPU-Sim PTX: __cudaRegisterFunction _Z11kmeansPointPfiiiPiS_S_S0_ : hostFun 0x0x402a5e, fat_cubin_handle = 1
GPGPU-Sim PTX: instruction assembly for function '_Z14invert_mappingPfS_ii'...   done.
GPGPU-Sim PTX: finding reconvergence points for '_Z14invert_mappingPfS_ii'...
GPGPU-Sim PTX: Finding dominators for '_Z14invert_mappingPfS_ii'...
GPGPU-Sim PTX: Finding immediate dominators for '_Z14invert_mappingPfS_ii'...
GPGPU-Sim PTX: Finding postdominators for '_Z14invert_mappingPfS_ii'...
GPGPU-Sim PTX: Finding immediate postdominators for '_Z14invert_mappingPfS_ii'...
GPGPU-Sim PTX: pre-decoding instructions for '_Z14invert_mappingPfS_ii'...
GPGPU-Sim PTX: reconvergence points for _Z14invert_mappingPfS_ii...
GPGPU-Sim PTX:  1 (potential) branch divergence @  PC=0x038 (_1.ptx:70) @%p1 bra $Lt_0_2050;
GPGPU-Sim PTX:    immediate post dominator      @  PC=0x110 (_1.ptx:103) exit;
GPGPU-Sim PTX:  2 (potential) branch divergence @  PC=0x058 (_1.ptx:74) @%p2 bra $Lt_0_2562;
GPGPU-Sim PTX:    immediate post dominator      @  PC=0x110 (_1.ptx:103) exit;
GPGPU-Sim PTX:  3 (potential) branch divergence @  PC=0x108 (_1.ptx:99) @%p3 bra $Lt_0_3074;
GPGPU-Sim PTX:    immediate post dominator      @  PC=0x110 (_1.ptx:103) exit;
GPGPU-Sim PTX: ... end of reconvergence points for _Z14invert_mappingPfS_ii
GPGPU-Sim PTX: ... done pre-decoding instructions for '_Z14invert_mappingPfS_ii'.
GPGPU-Sim PTX: instruction assembly for function '_Z11kmeansPointPfiiiPiS_S_S0_'...   done.
GPGPU-Sim PTX: finding reconvergence points for '_Z11kmeansPointPfiiiPiS_S_S0_'...
GPGPU-Sim PTX: Finding dominators for '_Z11kmeansPointPfiiiPiS_S_S0_'...
GPGPU-Sim PTX: Finding immediate dominators for '_Z11kmeansPointPfiiiPiS_S_S0_'...
GPGPU-Sim PTX: Finding postdominators for '_Z11kmeansPointPfiiiPiS_S_S0_'...
GPGPU-Sim PTX: Finding immediate postdominators for '_Z11kmeansPointPfiiiPiS_S_S0_'...
GPGPU-Sim PTX: pre-decoding instructions for '_Z11kmeansPointPfiiiPiS_S_S0_'...
GPGPU-Sim PTX: reconvergence points for _Z11kmeansPointPfiiiPiS_S_S0_...
GPGPU-Sim PTX:  1 (potential) branch divergence @  PC=0x180 (_1.ptx:136) @!%p1 bra $Lt_1_4866;
GPGPU-Sim PTX:    immediate post dominator      @  PC=0x320 (_1.ptx:202) @!%p1 bra $Lt_1_7682;
GPGPU-Sim PTX:  2 (potential) branch divergence @  PC=0x1a0 (_1.ptx:140) @%p2 bra $Lt_1_8194;
GPGPU-Sim PTX:    immediate post dominator      @  PC=0x320 (_1.ptx:202) @!%p1 bra $Lt_1_7682;
GPGPU-Sim PTX:  3 (potential) branch divergence @  PC=0x1e8 (_1.ptx:151) @!%p3 bra $Lt_1_8450;
GPGPU-Sim PTX:    immediate post dominator      @  PC=0x2c8 (_1.ptx:185) setp.lt.f32 %p5, %f2, %f1;
GPGPU-Sim PTX:  4 (potential) branch divergence @  PC=0x2b0 (_1.ptx:180) @%p4 bra $Lt_1_6402;
GPGPU-Sim PTX:    immediate post dominator      @  PC=0x2b8 (_1.ptx:181) bra.uni $Lt_1_5890;
GPGPU-Sim PTX:  5 (potential) branch divergence @  PC=0x2b8 (_1.ptx:181) bra.uni $Lt_1_5890;
GPGPU-Sim PTX:    immediate post dominator      @  PC=0x2c8 (_1.ptx:185) setp.lt.f32 %p5, %f2, %f1;
GPGPU-Sim PTX:  6 (potential) branch divergence @  PC=0x2d0 (_1.ptx:186) @!%p5 bra $Lt_1_6914;
GPGPU-Sim PTX:    immediate post dominator      @  PC=0x2e8 (_1.ptx:192) add.s32 %r18, %r18, 1;
GPGPU-Sim PTX:  7 (potential) branch divergence @  PC=0x2f8 (_1.ptx:194) @%p6 bra $Lt_1_5634;
GPGPU-Sim PTX:    immediate post dominator      @  PC=0x300 (_1.ptx:195) bra.uni $Lt_1_4610;
GPGPU-Sim PTX:  8 (potential) branch divergence @  PC=0x300 (_1.ptx:195) bra.uni $Lt_1_4610;
GPGPU-Sim PTX:    immediate post dominator      @  PC=0x320 (_1.ptx:202) @!%p1 bra $Lt_1_7682;
GPGPU-Sim PTX:  9 (potential) branch divergence @  PC=0x310 (_1.ptx:198) bra.uni $Lt_1_4610;
GPGPU-Sim PTX:    immediate post dominator      @  PC=0x320 (_1.ptx:202) @!%p1 bra $Lt_1_7682;
GPGPU-Sim PTX: 10 (potential) branch divergence @  PC=0x320 (_1.ptx:202) @!%p1 bra $Lt_1_7682;
GPGPU-Sim PTX:    immediate post dominator      @  PC=0x350 (_1.ptx:211) exit;
GPGPU-Sim PTX: ... end of reconvergence points for _Z11kmeansPointPfiiiPiS_S_S0_
GPGPU-Sim PTX: ... done pre-decoding instructions for '_Z11kmeansPointPfiiiPiS_S_S0_'.
GPGPU-Sim PTX: allocating global region for "t_features" from 0x100 to 0x104 (global memory space)
GPGPU-Sim PTX: allocating global region for "t_features_flipped" from 0x104 to 0x108 (global memory space)
GPGPU-Sim PTX: allocating global region for "t_clusters" from 0x108 to 0x10c (global memory space)
GPGPU-Sim PTX: finished parsing EMBEDDED .ptx file _1.ptx
Adding _cuobjdump_1.ptx with cubin handle 1
GPGPU-Sim PTX: extracting embedded .ptx to temporary file "_ptx_9VItHS"
Running: cat _ptx_9VItHS | sed 's/.version 1.5/.version 1.4/' | sed 's/, texmode_independent//' | sed 's/\(\.extern \.const\[1\] .b8 \w\+\)\[\]/\1\[1\]/' | sed 's/const\[.\]/const\[0\]/g' > _ptx2_gIGty5
GPGPU-Sim PTX: generating ptxinfo using "$CUDA_INSTALL_PATH/bin/ptxas --gpu-name=sm_20 -v _ptx2_gIGty5 --output-file  /dev/null 2> _ptx_9VItHSinfo"
GPGPU-Sim PTX: Kernel '_Z11kmeansPointPfiiiPiS_S_S0_' : regs=15, lmem=0, smem=0, cmem=88
GPGPU-Sim PTX: Kernel '_Z14invert_mappingPfS_ii' : regs=10, lmem=0, smem=0, cmem=56
GPGPU-Sim PTX: removing ptxinfo using "rm -f _ptx_9VItHS _ptx2_gIGty5 _ptx_9VItHSinfo"
GPGPU-Sim PTX: loading globals with explicit initializers... 
GPGPU-Sim PTX: finished loading globals (0 bytes total).
GPGPU-Sim PTX: loading constants with explicit initializers...  done.
GPGPU-Sim PTX: __cudaRegisterFunction _Z14invert_mappingPfS_ii : hostFun 0x0x4028ce, fat_cubin_handle = 1
GPGPU-Sim PTX: in __cudaRegisterTexture:
GPGPU-Sim PTX:   int dim = 1
GPGPU-Sim PTX:   int norm = 0
GPGPU-Sim PTX:   int ext = 0
GPGPU-Sim PTX:   Execution warning: Not finished implementing "void __cudaRegisterTexture(void**, const textureReference*, const void**, const char*, int, int, int)"
GPGPU-Sim PTX: in __cudaRegisterTexture:
GPGPU-Sim PTX:   int dim = 1
GPGPU-Sim PTX:   int norm = 0
GPGPU-Sim PTX:   int ext = 0
GPGPU-Sim PTX:   Execution warning: Not finished implementing "void __cudaRegisterTexture(void**, const textureReference*, const void**, const char*, int, int, int)"
GPGPU-Sim PTX: in __cudaRegisterTexture:
GPGPU-Sim PTX:   int dim = 1
GPGPU-Sim PTX:   int norm = 0
GPGPU-Sim PTX:   int ext = 0
GPGPU-Sim PTX:   Execution warning: Not finished implementing "void __cudaRegisterTexture(void**, const textureReference*, const void**, const char*, int, int, int)"

I/O completed

Number of objects: 28672
Number of features: 138

GPGPU-Sim PTX: cudaLaunch for 0x0x402a5e (mode=performance simulation) on stream 0
GPGPU-Sim PTX: pushing kernel '_Z11kmeansPointPfiiiPiS_S_S0_' to stream 0, gridDim= (11,11,1) blockDim = (256,1,1) 
kernel '_Z11kmeansPointPfiiiPiS_S_S0_' transfer to GPU hardware scheduler
GPGPU-Sim uArch: Shader 1 bind to kernel 1 '_Z11kmeansPointPfiiiPiS_S_S0_'
GPGPU-Sim uArch: CTA/core = 6, limited by: threads
GPGPU-Sim uArch: core:  1, cta: 0 initialized @(1,0)
GPGPU-Sim uArch: Shader 2 bind to kernel 1 '_Z11kmeansPointPfiiiPiS_S_S0_'
GPGPU-Sim uArch: core:  2, cta: 0 initialized @(1,0)
GPGPU-Sim uArch: Shader 3 bind to kernel 1 '_Z11kmeansPointPfiiiPiS_S_S0_'
GPGPU-Sim uArch: core:  3, cta: 0 initialized @(1,0)
GPGPU-Sim uArch: Shader 4 bind to kernel 1 '_Z11kmeansPointPfiiiPiS_S_S0_'
GPGPU-Sim uArch: core:  4, cta: 0 initialized @(1,0)
GPGPU-Sim uArch: Shader 5 bind to kernel 1 '_Z11kmeansPointPfiiiPiS_S_S0_'
GPGPU-Sim uArch: core:  5, cta: 0 initialized @(1,0)
GPGPU-Sim uArch: Shader 6 bind to kernel 1 '_Z11kmeansPointPfiiiPiS_S_S0_'
GPGPU-Sim uArch: core:  6, cta: 0 initialized @(1,0)
GPGPU-Sim uArch: Shader 7 bind to kernel 1 '_Z11kmeansPointPfiiiPiS_S_S0_'
GPGPU-Sim uArch: core:  7, cta: 0 initialized @(1,0)
GPGPU-Sim uArch: Shader 8 bind to kernel 1 '_Z11kmeansPointPfiiiPiS_S_S0_'
GPGPU-Sim uArch: core:  8, cta: 0 initialized @(1,0)
GPGPU-Sim uArch: Shader 9 bind to kernel 1 '_Z11kmeansPointPfiiiPiS_S_S0_'
GPGPU-Sim uArch: core:  9, cta: 0 initialized @(1,0)
GPGPU-Sim uArch: Shader 10 bind to kernel 1 '_Z11kmeansPointPfiiiPiS_S_S0_'
GPGPU-Sim uArch: core: 10, cta: 0 initialized @(1,0)
GPGPU-Sim uArch: Shader 11 bind to kernel 1 '_Z11kmeansPointPfiiiPiS_S_S0_'
GPGPU-Sim uArch: core: 11, cta: 0 initialized @(1,0)
GPGPU-Sim uArch: Shader 12 bind to kernel 1 '_Z11kmeansPointPfiiiPiS_S_S0_'
GPGPU-Sim uArch: core: 12, cta: 0 initialized @(1,0)
GPGPU-Sim uArch: Shader 13 bind to kernel 1 '_Z11kmeansPointPfiiiPiS_S_S0_'
GPGPU-Sim uArch: core: 13, cta: 0 initialized @(1,0)
GPGPU-Sim uArch: Shader 14 bind to kernel 1 '_Z11kmeansPointPfiiiPiS_S_S0_'
GPGPU-Sim uArch: core: 14, cta: 0 initialized @(1,0)
GPGPU-Sim uArch: Shader 0 bind to kernel 1 '_Z11kmeansPointPfiiiPiS_S_S0_'
GPGPU-Sim uArch: core:  0, cta: 0 initialized @(1,0)
GPGPU-Sim uArch: core:  1, cta: 1 initialized @(2,0)
GPGPU-Sim uArch: core:  2, cta: 1 initialized @(2,0)
GPGPU-Sim uArch: core:  3, cta: 1 initialized @(2,0)
GPGPU-Sim uArch: core:  4, cta: 1 initialized @(2,0)
GPGPU-Sim uArch: core:  5, cta: 1 initialized @(2,0)
GPGPU-Sim uArch: core:  6, cta: 1 initialized @(2,0)
GPGPU-Sim uArch: core:  7, cta: 1 initialized @(2,0)
GPGPU-Sim uArch: core:  8, cta: 1 initialized @(2,0)
GPGPU-Sim uArch: core:  9, cta: 1 initialized @(2,0)
GPGPU-Sim uArch: core: 10, cta: 1 initialized @(2,0)
GPGPU-Sim uArch: core: 11, cta: 1 initialized @(2,0)
GPGPU-Sim uArch: core: 12, cta: 1 initialized @(2,0)
GPGPU-Sim uArch: core: 13, cta: 1 initialized @(2,0)
GPGPU-Sim uArch: core: 14, cta: 1 initialized @(2,0)
GPGPU-Sim uArch: core:  0, cta: 1 initialized @(2,0)
GPGPU-Sim uArch: core:  1, cta: 2 initialized @(3,0)
GPGPU-Sim uArch: core:  2, cta: 2 initialized @(3,0)
GPGPU-Sim uArch: core:  3, cta: 2 initialized @(3,0)
GPGPU-Sim uArch: core:  4, cta: 2 initialized @(3,0)
GPGPU-Sim uArch: core:  5, cta: 2 initialized @(3,0)
GPGPU-Sim uArch: core:  6, cta: 2 initialized @(3,0)
GPGPU-Sim uArch: core:  7, cta: 2 initialized @(3,0)
GPGPU-Sim uArch: core:  8, cta: 2 initialized @(3,0)
GPGPU-Sim uArch: core:  9, cta: 2 initialized @(3,0)
GPGPU-Sim uArch: core: 10, cta: 2 initialized @(3,0)
GPGPU-Sim uArch: core: 11, cta: 2 initialized @(3,0)
GPGPU-Sim uArch: core: 12, cta: 2 initialized @(3,0)
GPGPU-Sim uArch: core: 13, cta: 2 initialized @(3,0)
GPGPU-Sim uArch: core: 14, cta: 2 initialized @(3,0)
GPGPU-Sim uArch: core:  0, cta: 2 initialized @(3,0)
GPGPU-Sim uArch: core:  1, cta: 3 initialized @(4,0)
GPGPU-Sim uArch: core:  2, cta: 3 initialized @(4,0)
GPGPU-Sim uArch: core:  3, cta: 3 initialized @(4,0)
GPGPU-Sim uArch: core:  4, cta: 3 initialized @(4,0)
GPGPU-Sim uArch: core:  5, cta: 3 initialized @(4,0)
GPGPU-Sim uArch: core:  6, cta: 3 initialized @(4,0)
GPGPU-Sim uArch: core:  7, cta: 3 initialized @(4,0)
GPGPU-Sim uArch: core:  8, cta: 3 initialized @(4,0)
GPGPU-Sim uArch: core:  9, cta: 3 initialized @(4,0)
GPGPU-Sim uArch: core: 10, cta: 3 initialized @(4,0)
GPGPU-Sim uArch: core: 11, cta: 3 initialized @(4,0)
GPGPU-Sim uArch: core: 12, cta: 3 initialized @(4,0)
GPGPU-Sim uArch: core: 13, cta: 3 initialized @(4,0)
GPGPU-Sim uArch: core: 14, cta: 3 initialized @(4,0)
GPGPU-Sim uArch: core:  0, cta: 3 initialized @(4,0)
GPGPU-Sim uArch: core:  1, cta: 4 initialized @(5,0)
GPGPU-Sim uArch: core:  2, cta: 4 initialized @(5,0)
GPGPU-Sim uArch: core:  3, cta: 4 initialized @(5,0)
GPGPU-Sim uArch: core:  4, cta: 4 initialized @(5,0)
GPGPU-Sim uArch: core:  5, cta: 4 initialized @(5,0)
GPGPU-Sim uArch: core:  6, cta: 4 initialized @(5,0)
GPGPU-Sim uArch: core:  7, cta: 4 initialized @(5,0)
GPGPU-Sim uArch: core:  8, cta: 4 initialized @(5,0)
GPGPU-Sim uArch: core:  9, cta: 4 initialized @(5,0)
GPGPU-Sim uArch: core: 10, cta: 4 initialized @(5,0)
GPGPU-Sim uArch: core: 11, cta: 4 initialized @(5,0)
GPGPU-Sim uArch: core: 12, cta: 4 initialized @(5,0)
GPGPU-Sim uArch: core: 13, cta: 4 initialized @(5,0)
GPGPU-Sim uArch: core: 14, cta: 4 initialized @(5,0)
GPGPU-Sim uArch: core:  0, cta: 4 initialized @(5,0)
GPGPU-Sim uArch: core:  1, cta: 5 initialized @(6,0)
GPGPU-Sim uArch: core:  2, cta: 5 initialized @(6,0)
GPGPU-Sim uArch: core:  3, cta: 5 initialized @(6,0)
GPGPU-Sim uArch: core:  4, cta: 5 initialized @(6,0)
GPGPU-Sim uArch: core:  5, cta: 5 initialized @(6,0)
GPGPU-Sim uArch: core:  6, cta: 5 initialized @(6,0)
GPGPU-Sim uArch: core:  7, cta: 5 initialized @(6,0)
GPGPU-Sim uArch: core:  8, cta: 5 initialized @(6,0)
GPGPU-Sim uArch: core:  9, cta: 5 initialized @(6,0)
GPGPU-Sim uArch: core: 10, cta: 5 initialized @(6,0)
GPGPU-Sim uArch: core: 11, cta: 5 initialized @(6,0)
GPGPU-Sim uArch: core: 12, cta: 5 initialized @(6,0)
GPGPU-Sim uArch: core: 13, cta: 5 initialized @(6,0)
GPGPU-Sim uArch: core: 14, cta: 5 initialized @(6,0)
GPGPU-Sim uArch: core:  0, cta: 5 initialized @(6,0)
GPGPU-Sim uArch: cycles simulated: 500  inst.: 10560 (ipc=21.1) sim_rate=5280 (inst/sec) elapsed = 0:0:00:02 / Tue Mar 22 06:59:43 2016
GPGPU-Sim uArch: cycles simulated: 1500  inst.: 38400 (ipc=25.6) sim_rate=12800 (inst/sec) elapsed = 0:0:00:03 / Tue Mar 22 06:59:44 2016
GPGPU-Sim PTX: 100000 instructions simulated : ctaid=(0,1,0) tid=(31,0,0)
GPGPU-Sim uArch: cycles simulated: 4500  inst.: 127584 (ipc=28.4) sim_rate=31896 (inst/sec) elapsed = 0:0:00:04 / Tue Mar 22 06:59:45 2016
GPGPU-Sim PTX: 200000 instructions simulated : ctaid=(3,1,0) tid=(63,0,0)
GPGPU-Sim PTX: 300000 instructions simulated : ctaid=(4,0,0) tid=(31,0,0)
GPGPU-Sim uArch: cycles simulated: 8000  inst.: 297824 (ipc=37.2) sim_rate=59564 (inst/sec) elapsed = 0:0:00:05 / Tue Mar 22 06:59:46 2016
GPGPU-Sim PTX: 400000 instructions simulated : ctaid=(2,1,0) tid=(63,0,0)
GPGPU-Sim uArch: cycles simulated: 11000  inst.: 438112 (ipc=39.8) sim_rate=73018 (inst/sec) elapsed = 0:0:00:06 / Tue Mar 22 06:59:47 2016
GPGPU-Sim PTX: 500000 instructions simulated : ctaid=(10,0,0) tid=(31,0,0)
GPGPU-Sim uArch: cycles simulated: 14000  inst.: 582720 (ipc=41.6) sim_rate=83245 (inst/sec) elapsed = 0:0:00:07 / Tue Mar 22 06:59:48 2016
GPGPU-Sim PTX: 600000 instructions simulated : ctaid=(1,1,0) tid=(31,0,0)
GPGPU-Sim PTX: 700000 instructions simulated : ctaid=(9,0,0) tid=(63,0,0)
GPGPU-Sim uArch: cycles simulated: 17500  inst.: 748416 (ipc=42.8) sim_rate=93552 (inst/sec) elapsed = 0:0:00:08 / Tue Mar 22 06:59:49 2016
GPGPU-Sim PTX: 800000 instructions simulated : ctaid=(8,0,0) tid=(31,0,0)
GPGPU-Sim uArch: cycles simulated: 20500  inst.: 890560 (ipc=43.4) sim_rate=98951 (inst/sec) elapsed = 0:0:00:09 / Tue Mar 22 06:59:50 2016
GPGPU-Sim PTX: 900000 instructions simulated : ctaid=(7,0,0) tid=(31,0,0)
GPGPU-Sim PTX: 1000000 instructions simulated : ctaid=(0,1,0) tid=(31,0,0)
GPGPU-Sim uArch: cycles simulated: 24000  inst.: 1050976 (ipc=43.8) sim_rate=105097 (inst/sec) elapsed = 0:0:00:10 / Tue Mar 22 06:59:51 2016
GPGPU-Sim PTX: 1100000 instructions simulated : ctaid=(4,0,0) tid=(31,0,0)
GPGPU-Sim uArch: cycles simulated: 27000  inst.: 1190976 (ipc=44.1) sim_rate=108270 (inst/sec) elapsed = 0:0:00:11 / Tue Mar 22 06:59:52 2016
GPGPU-Sim PTX: 1200000 instructions simulated : ctaid=(3,1,0) tid=(31,0,0)
GPGPU-Sim PTX: 1300000 instructions simulated : ctaid=(6,0,0) tid=(31,0,0)
GPGPU-Sim uArch: cycles simulated: 30000  inst.: 1355424 (ipc=45.2) sim_rate=112952 (inst/sec) elapsed = 0:0:00:12 / Tue Mar 22 06:59:53 2016
GPGPU-Sim PTX: 1400000 instructions simulated : ctaid=(4,0,0) tid=(31,0,0)
GPGPU-Sim PTX: 1500000 instructions simulated : ctaid=(5,0,0) tid=(63,0,0)
GPGPU-Sim uArch: cycles simulated: 33000  inst.: 1551488 (ipc=47.0) sim_rate=119345 (inst/sec) elapsed = 0:0:00:13 / Tue Mar 22 06:59:54 2016
GPGPU-Sim PTX: 1600000 instructions simulated : ctaid=(10,0,0) tid=(31,0,0)
GPGPU-Sim PTX: 1700000 instructions simulated : ctaid=(0,0,0) tid=(31,0,0)
GPGPU-Sim uArch: cycles simulated: 36000  inst.: 1753472 (ipc=48.7) sim_rate=125248 (inst/sec) elapsed = 0:0:00:14 / Tue Mar 22 06:59:55 2016
GPGPU-Sim PTX: 1800000 instructions simulated : ctaid=(7,0,0) tid=(63,0,0)
GPGPU-Sim PTX: 1900000 instructions simulated : ctaid=(7,0,0) tid=(31,0,0)
GPGPU-Sim uArch: cycles simulated: 39000  inst.: 1943264 (ipc=49.8) sim_rate=129550 (inst/sec) elapsed = 0:0:00:15 / Tue Mar 22 06:59:56 2016
GPGPU-Sim PTX: 2000000 instructions simulated : ctaid=(4,0,0) tid=(63,0,0)
GPGPU-Sim PTX: 2100000 instructions simulated : ctaid=(10,0,0) tid=(31,0,0)
GPGPU-Sim uArch: cycles simulated: 42000  inst.: 2140896 (ipc=51.0) sim_rate=133806 (inst/sec) elapsed = 0:0:00:16 / Tue Mar 22 06:59:57 2016
GPGPU-Sim PTX: 2200000 instructions simulated : ctaid=(1,1,0) tid=(31,0,0)
GPGPU-Sim PTX: 2300000 instructions simulated : ctaid=(7,0,0) tid=(31,0,0)
GPGPU-Sim uArch: cycles simulated: 45000  inst.: 2335232 (ipc=51.9) sim_rate=137366 (inst/sec) elapsed = 0:0:00:17 / Tue Mar 22 06:59:58 2016
GPGPU-Sim PTX: 2400000 instructions simulated : ctaid=(4,0,0) tid=(63,0,0)
GPGPU-Sim PTX: 2500000 instructions simulated : ctaid=(8,0,0) tid=(63,0,0)
GPGPU-Sim uArch: cycles simulated: 47500  inst.: 2500064 (ipc=52.6) sim_rate=138892 (inst/sec) elapsed = 0:0:00:18 / Tue Mar 22 06:59:59 2016
GPGPU-Sim PTX: 2600000 instructions simulated : ctaid=(0,1,0) tid=(63,0,0)
GPGPU-Sim PTX: 2700000 instructions simulated : ctaid=(2,0,0) tid=(63,0,0)
GPGPU-Sim uArch: cycles simulated: 50500  inst.: 2699584 (ipc=53.5) sim_rate=142083 (inst/sec) elapsed = 0:0:00:19 / Tue Mar 22 07:00:00 2016
GPGPU-Sim PTX: 2800000 instructions simulated : ctaid=(1,1,0) tid=(31,0,0)
GPGPU-Sim PTX: 2900000 instructions simulated : ctaid=(2,1,0) tid=(63,0,0)
GPGPU-Sim uArch: cycles simulated: 53500  inst.: 2900512 (ipc=54.2) sim_rate=145025 (inst/sec) elapsed = 0:0:00:20 / Tue Mar 22 07:00:01 2016
GPGPU-Sim PTX: 3000000 instructions simulated : ctaid=(3,0,0) tid=(63,0,0)
GPGPU-Sim uArch: cycles simulated: 56000  inst.: 3065312 (ipc=54.7) sim_rate=145967 (inst/sec) elapsed = 0:0:00:21 / Tue Mar 22 07:00:02 2016
GPGPU-Sim PTX: 3100000 instructions simulated : ctaid=(3,1,0) tid=(25,0,0)
GPGPU-Sim PTX: 3200000 instructions simulated : ctaid=(8,0,0) tid=(17,0,0)
GPGPU-Sim uArch: cycles simulated: 59000  inst.: 3264862 (ipc=55.3) sim_rate=148402 (inst/sec) elapsed = 0:0:00:22 / Tue Mar 22 07:00:03 2016
GPGPU-Sim PTX: 3300000 instructions simulated : ctaid=(10,0,0) tid=(23,0,0)
GPGPU-Sim PTX: 3400000 instructions simulated : ctaid=(5,0,0) tid=(41,0,0)
GPGPU-Sim uArch: cycles simulated: 62000  inst.: 3461938 (ipc=55.8) sim_rate=150519 (inst/sec) elapsed = 0:0:00:23 / Tue Mar 22 07:00:04 2016
GPGPU-Sim PTX: 3500000 instructions simulated : ctaid=(0,1,0) tid=(27,0,0)
GPGPU-Sim PTX: 3600000 instructions simulated : ctaid=(2,0,0) tid=(27,0,0)
GPGPU-Sim uArch: cycles simulated: 65000  inst.: 3660562 (ipc=56.3) sim_rate=152523 (inst/sec) elapsed = 0:0:00:24 / Tue Mar 22 07:00:05 2016
GPGPU-Sim PTX: 3700000 instructions simulated : ctaid=(9,0,0) tid=(27,0,0)
GPGPU-Sim PTX: 3800000 instructions simulated : ctaid=(3,1,0) tid=(27,0,0)
GPGPU-Sim uArch: cycles simulated: 68000  inst.: 3857458 (ipc=56.7) sim_rate=154298 (inst/sec) elapsed = 0:0:00:25 / Tue Mar 22 07:00:06 2016
GPGPU-Sim PTX: 3900000 instructions simulated : ctaid=(10,0,0) tid=(27,0,0)
GPGPU-Sim PTX: 4000000 instructions simulated : ctaid=(9,0,0) tid=(59,0,0)
GPGPU-Sim uArch: cycles simulated: 71000  inst.: 4047250 (ipc=57.0) sim_rate=155663 (inst/sec) elapsed = 0:0:00:26 / Tue Mar 22 07:00:07 2016
GPGPU-Sim PTX: 4100000 instructions simulated : ctaid=(2,1,0) tid=(27,0,0)
GPGPU-Sim PTX: 4200000 instructions simulated : ctaid=(2,1,0) tid=(27,0,0)
GPGPU-Sim uArch: cycles simulated: 73500  inst.: 4209234 (ipc=57.3) sim_rate=155897 (inst/sec) elapsed = 0:0:00:27 / Tue Mar 22 07:00:08 2016
GPGPU-Sim PTX: 4300000 instructions simulated : ctaid=(1,0,0) tid=(59,0,0)
GPGPU-Sim PTX: 4400000 instructions simulated : ctaid=(10,0,0) tid=(27,0,0)
GPGPU-Sim uArch: cycles simulated: 76500  inst.: 4402930 (ipc=57.6) sim_rate=157247 (inst/sec) elapsed = 0:0:00:28 / Tue Mar 22 07:00:09 2016
GPGPU-Sim PTX: 4500000 instructions simulated : ctaid=(3,0,0) tid=(59,0,0)
GPGPU-Sim PTX: 4600000 instructions simulated : ctaid=(4,0,0) tid=(27,0,0)
GPGPU-Sim uArch: cycles simulated: 79500  inst.: 4602354 (ipc=57.9) sim_rate=158701 (inst/sec) elapsed = 0:0:00:29 / Tue Mar 22 07:00:10 2016
GPGPU-Sim PTX: 4700000 instructions simulated : ctaid=(1,0,0) tid=(9,0,0)
GPGPU-Sim PTX: 4800000 instructions simulated : ctaid=(6,0,0) tid=(51,0,0)
GPGPU-Sim uArch: cycles simulated: 82500  inst.: 4800825 (ipc=58.2) sim_rate=160027 (inst/sec) elapsed = 0:0:00:30 / Tue Mar 22 07:00:11 2016
GPGPU-Sim PTX: 4900000 instructions simulated : ctaid=(6,0,0) tid=(37,0,0)
GPGPU-Sim PTX: 5000000 instructions simulated : ctaid=(7,0,0) tid=(45,0,0)
GPGPU-Sim uArch: cycles simulated: 85500  inst.: 5002585 (ipc=58.5) sim_rate=161373 (inst/sec) elapsed = 0:0:00:31 / Tue Mar 22 07:00:12 2016
GPGPU-Sim PTX: 5100000 instructions simulated : ctaid=(9,0,0) tid=(7,0,0)
GPGPU-Sim PTX: 5200000 instructions simulated : ctaid=(7,0,0) tid=(7,0,0)
GPGPU-Sim uArch: cycles simulated: 88500  inst.: 5195900 (ipc=58.7) sim_rate=162371 (inst/sec) elapsed = 0:0:00:32 / Tue Mar 22 07:00:13 2016
GPGPU-Sim PTX: 5300000 instructions simulated : ctaid=(8,0,0) tid=(7,0,0)
GPGPU-Sim PTX: 5400000 instructions simulated : ctaid=(10,0,0) tid=(39,0,0)
GPGPU-Sim uArch: cycles simulated: 91500  inst.: 5391740 (ipc=58.9) sim_rate=163386 (inst/sec) elapsed = 0:0:00:33 / Tue Mar 22 07:00:14 2016
GPGPU-Sim PTX: 5500000 instructions simulated : ctaid=(0,1,0) tid=(39,0,0)
GPGPU-Sim uArch: cycles simulated: 94000  inst.: 5560700 (ipc=59.2) sim_rate=163550 (inst/sec) elapsed = 0:0:00:34 / Tue Mar 22 07:00:15 2016
GPGPU-Sim PTX: 5600000 instructions simulated : ctaid=(7,0,0) tid=(39,0,0)
GPGPU-Sim PTX: 5700000 instructions simulated : ctaid=(2,0,0) tid=(7,0,0)
GPGPU-Sim uArch: cycles simulated: 97000  inst.: 5756124 (ipc=59.3) sim_rate=164460 (inst/sec) elapsed = 0:0:00:35 / Tue Mar 22 07:00:16 2016
GPGPU-Sim PTX: 5800000 instructions simulated : ctaid=(9,0,0) tid=(7,0,0)
GPGPU-Sim PTX: 5900000 instructions simulated : ctaid=(2,1,0) tid=(7,0,0)
GPGPU-Sim uArch: cycles simulated: 100000  inst.: 5955484 (ipc=59.6) sim_rate=165430 (inst/sec) elapsed = 0:0:00:36 / Tue Mar 22 07:00:17 2016
GPGPU-Sim PTX: 6000000 instructions simulated : ctaid=(3,1,0) tid=(7,0,0)
GPGPU-Sim PTX: 6100000 instructions simulated : ctaid=(2,1,0) tid=(7,0,0)
GPGPU-Sim uArch: cycles simulated: 103000  inst.: 6152444 (ipc=59.7) sim_rate=166282 (inst/sec) elapsed = 0:0:00:37 / Tue Mar 22 07:00:18 2016
GPGPU-Sim PTX: 6200000 instructions simulated : ctaid=(10,0,0) tid=(39,0,0)
GPGPU-Sim PTX: 6300000 instructions simulated : ctaid=(0,0,0) tid=(39,0,0)
GPGPU-Sim uArch: cycles simulated: 106000  inst.: 6352704 (ipc=59.9) sim_rate=167176 (inst/sec) elapsed = 0:0:00:38 / Tue Mar 22 07:00:19 2016
GPGPU-Sim PTX: 6400000 instructions simulated : ctaid=(9,0,0) tid=(5,0,0)
GPGPU-Sim PTX: 6500000 instructions simulated : ctaid=(0,1,0) tid=(11,0,0)
GPGPU-Sim uArch: cycles simulated: 109000  inst.: 6554371 (ipc=60.1) sim_rate=168060 (inst/sec) elapsed = 0:0:00:39 / Tue Mar 22 07:00:20 2016
GPGPU-Sim PTX: 6600000 instructions simulated : ctaid=(4,0,0) tid=(29,0,0)
GPGPU-Sim PTX: 6700000 instructions simulated : ctaid=(2,0,0) tid=(15,0,0)
GPGPU-Sim uArch: cycles simulated: 112000  inst.: 6755352 (ipc=60.3) sim_rate=168883 (inst/sec) elapsed = 0:0:00:40 / Tue Mar 22 07:00:21 2016
GPGPU-Sim PTX: 6800000 instructions simulated : ctaid=(4,0,0) tid=(15,0,0)
GPGPU-Sim PTX: 6900000 instructions simulated : ctaid=(7,0,0) tid=(47,0,0)
GPGPU-Sim uArch: cycles simulated: 114500  inst.: 6912888 (ipc=60.4) sim_rate=168607 (inst/sec) elapsed = 0:0:00:41 / Tue Mar 22 07:00:22 2016
GPGPU-Sim PTX: 7000000 instructions simulated : ctaid=(4,0,0) tid=(15,0,0)
GPGPU-Sim PTX: 7100000 instructions simulated : ctaid=(1,0,0) tid=(15,0,0)
GPGPU-Sim uArch: cycles simulated: 117500  inst.: 7102648 (ipc=60.4) sim_rate=169110 (inst/sec) elapsed = 0:0:00:42 / Tue Mar 22 07:00:23 2016
GPGPU-Sim PTX: 7200000 instructions simulated : ctaid=(7,0,0) tid=(47,0,0)
GPGPU-Sim PTX: 7300000 instructions simulated : ctaid=(1,1,0) tid=(15,0,0)
GPGPU-Sim uArch: cycles simulated: 120500  inst.: 7300792 (ipc=60.6) sim_rate=169785 (inst/sec) elapsed = 0:0:00:43 / Tue Mar 22 07:00:24 2016
GPGPU-Sim PTX: 7400000 instructions simulated : ctaid=(1,1,0) tid=(47,0,0)
GPGPU-Sim PTX: 7500000 instructions simulated : ctaid=(3,1,0) tid=(47,0,0)
GPGPU-Sim uArch: cycles simulated: 123500  inst.: 7494008 (ipc=60.7) sim_rate=170318 (inst/sec) elapsed = 0:0:00:44 / Tue Mar 22 07:00:25 2016
GPGPU-Sim PTX: 7600000 instructions simulated : ctaid=(10,0,0) tid=(47,0,0)
GPGPU-Sim uArch: cycles simulated: 126500  inst.: 7685368 (ipc=60.8) sim_rate=170785 (inst/sec) elapsed = 0:0:00:45 / Tue Mar 22 07:00:26 2016
GPGPU-Sim PTX: 7700000 instructions simulated : ctaid=(0,0,0) tid=(47,0,0)
GPGPU-Sim PTX: 7800000 instructions simulated : ctaid=(10,0,0) tid=(47,0,0)
GPGPU-Sim uArch: cycles simulated: 129500  inst.: 7885023 (ipc=60.9) sim_rate=171413 (inst/sec) elapsed = 0:0:00:46 / Tue Mar 22 07:00:27 2016
GPGPU-Sim PTX: 7900000 instructions simulated : ctaid=(2,0,0) tid=(33,0,0)
GPGPU-Sim PTX: 8000000 instructions simulated : ctaid=(6,0,0) tid=(59,0,0)
GPGPU-Sim uArch: cycles simulated: 132000  inst.: 8023889 (ipc=60.8) sim_rate=170721 (inst/sec) elapsed = 0:0:00:47 / Tue Mar 22 07:00:28 2016
GPGPU-Sim PTX: 8100000 instructions simulated : ctaid=(6,0,0) tid=(31,0,0)
GPGPU-Sim uArch: cycles simulated: 134500  inst.: 8156650 (ipc=60.6) sim_rate=169930 (inst/sec) elapsed = 0:0:00:48 / Tue Mar 22 07:00:29 2016
GPGPU-Sim PTX: 8200000 instructions simulated : ctaid=(6,0,0) tid=(99,0,0)
GPGPU-Sim uArch: cycles simulated: 136500  inst.: 8253497 (ipc=60.5) sim_rate=168438 (inst/sec) elapsed = 0:0:00:49 / Tue Mar 22 07:00:30 2016
GPGPU-Sim PTX: 8300000 instructions simulated : ctaid=(5,0,0) tid=(109,0,0)
GPGPU-Sim uArch: cycles simulated: 138500  inst.: 8348206 (ipc=60.3) sim_rate=166964 (inst/sec) elapsed = 0:0:00:50 / Tue Mar 22 07:00:31 2016
GPGPU-Sim PTX: 8400000 instructions simulated : ctaid=(1,0,0) tid=(99,0,0)
GPGPU-Sim uArch: cycles simulated: 140500  inst.: 8441774 (ipc=60.1) sim_rate=165524 (inst/sec) elapsed = 0:0:00:51 / Tue Mar 22 07:00:32 2016
GPGPU-Sim PTX: 8500000 instructions simulated : ctaid=(6,0,0) tid=(99,0,0)
GPGPU-Sim uArch: cycles simulated: 142500  inst.: 8536910 (ipc=59.9) sim_rate=164171 (inst/sec) elapsed = 0:0:00:52 / Tue Mar 22 07:00:33 2016
GPGPU-Sim PTX: 8600000 instructions simulated : ctaid=(1,0,0) tid=(67,0,0)
GPGPU-Sim uArch: cycles simulated: 145000  inst.: 8657966 (ipc=59.7) sim_rate=163357 (inst/sec) elapsed = 0:0:00:53 / Tue Mar 22 07:00:34 2016
GPGPU-Sim PTX: 8700000 instructions simulated : ctaid=(2,1,0) tid=(67,0,0)
GPGPU-Sim uArch: cycles simulated: 147000  inst.: 8749422 (ipc=59.5) sim_rate=162026 (inst/sec) elapsed = 0:0:00:54 / Tue Mar 22 07:00:35 2016
GPGPU-Sim PTX: 8800000 instructions simulated : ctaid=(7,0,0) tid=(99,0,0)
GPGPU-Sim uArch: cycles simulated: 149000  inst.: 8846254 (ipc=59.4) sim_rate=160840 (inst/sec) elapsed = 0:0:00:55 / Tue Mar 22 07:00:36 2016
GPGPU-Sim PTX: 8900000 instructions simulated : ctaid=(2,0,0) tid=(67,0,0)
GPGPU-Sim uArch: cycles simulated: 151000  inst.: 8942894 (ipc=59.2) sim_rate=159694 (inst/sec) elapsed = 0:0:00:56 / Tue Mar 22 07:00:37 2016
GPGPU-Sim PTX: 9000000 instructions simulated : ctaid=(1,1,0) tid=(67,0,0)
GPGPU-Sim uArch: cycles simulated: 153000  inst.: 9039150 (ipc=59.1) sim_rate=158581 (inst/sec) elapsed = 0:0:00:57 / Tue Mar 22 07:00:38 2016
GPGPU-Sim PTX: 9100000 instructions simulated : ctaid=(10,0,0) tid=(67,0,0)
GPGPU-Sim uArch: cycles simulated: 155000  inst.: 9134990 (ipc=58.9) sim_rate=157499 (inst/sec) elapsed = 0:0:00:58 / Tue Mar 22 07:00:39 2016
GPGPU-Sim PTX: 9200000 instructions simulated : ctaid=(5,0,0) tid=(67,0,0)
GPGPU-Sim uArch: cycles simulated: 157000  inst.: 9230894 (ipc=58.8) sim_rate=156455 (inst/sec) elapsed = 0:0:00:59 / Tue Mar 22 07:00:40 2016
GPGPU-Sim PTX: 9300000 instructions simulated : ctaid=(4,0,0) tid=(67,0,0)
GPGPU-Sim uArch: cycles simulated: 159500  inst.: 9366062 (ipc=58.7) sim_rate=156101 (inst/sec) elapsed = 0:0:01:00 / Tue Mar 22 07:00:41 2016
GPGPU-Sim PTX: 9400000 instructions simulated : ctaid=(5,0,0) tid=(99,0,0)
GPGPU-Sim PTX: 9500000 instructions simulated : ctaid=(10,0,0) tid=(67,0,0)
GPGPU-Sim uArch: cycles simulated: 161500  inst.: 9487214 (ipc=58.7) sim_rate=155528 (inst/sec) elapsed = 0:0:01:01 / Tue Mar 22 07:00:42 2016
GPGPU-Sim PTX: 9600000 instructions simulated : ctaid=(10,0,0) tid=(67,0,0)
GPGPU-Sim uArch: cycles simulated: 163000  inst.: 9581550 (ipc=58.8) sim_rate=154541 (inst/sec) elapsed = 0:0:01:02 / Tue Mar 22 07:00:43 2016
GPGPU-Sim PTX: 9700000 instructions simulated : ctaid=(2,0,0) tid=(99,0,0)
GPGPU-Sim uArch: cycles simulated: 165000  inst.: 9717390 (ipc=58.9) sim_rate=154244 (inst/sec) elapsed = 0:0:01:03 / Tue Mar 22 07:00:44 2016
GPGPU-Sim PTX: 9800000 instructions simulated : ctaid=(8,0,0) tid=(99,0,0)
GPGPU-Sim uArch: cycles simulated: 167000  inst.: 9848782 (ipc=59.0) sim_rate=153887 (inst/sec) elapsed = 0:0:01:04 / Tue Mar 22 07:00:45 2016
GPGPU-Sim PTX: 9900000 instructions simulated : ctaid=(3,0,0) tid=(99,0,0)
GPGPU-Sim uArch: cycles simulated: 169000  inst.: 9976686 (ipc=59.0) sim_rate=153487 (inst/sec) elapsed = 0:0:01:05 / Tue Mar 22 07:00:46 2016
GPGPU-Sim PTX: 10000000 instructions simulated : ctaid=(2,0,0) tid=(99,0,0)
GPGPU-Sim PTX: 10100000 instructions simulated : ctaid=(4,0,0) tid=(67,0,0)
GPGPU-Sim uArch: cycles simulated: 171000  inst.: 10108846 (ipc=59.1) sim_rate=153164 (inst/sec) elapsed = 0:0:01:06 / Tue Mar 22 07:00:47 2016
GPGPU-Sim PTX: 10200000 instructions simulated : ctaid=(1,1,0) tid=(99,0,0)
GPGPU-Sim uArch: cycles simulated: 173000  inst.: 10241774 (ipc=59.2) sim_rate=152862 (inst/sec) elapsed = 0:0:01:07 / Tue Mar 22 07:00:48 2016
GPGPU-Sim PTX: 10300000 instructions simulated : ctaid=(7,0,0) tid=(99,0,0)
GPGPU-Sim uArch: cycles simulated: 175000  inst.: 10367278 (ipc=59.2) sim_rate=152459 (inst/sec) elapsed = 0:0:01:08 / Tue Mar 22 07:00:49 2016
GPGPU-Sim PTX: 10400000 instructions simulated : ctaid=(8,0,0) tid=(99,0,0)
GPGPU-Sim PTX: 10500000 instructions simulated : ctaid=(8,0,0) tid=(67,0,0)
GPGPU-Sim uArch: cycles simulated: 177000  inst.: 10499502 (ipc=59.3) sim_rate=152166 (inst/sec) elapsed = 0:0:01:09 / Tue Mar 22 07:00:50 2016
GPGPU-Sim PTX: 10600000 instructions simulated : ctaid=(2,1,0) tid=(99,0,0)
GPGPU-Sim uArch: cycles simulated: 179000  inst.: 10631950 (ipc=59.4) sim_rate=151885 (inst/sec) elapsed = 0:0:01:10 / Tue Mar 22 07:00:51 2016
GPGPU-Sim PTX: 10700000 instructions simulated : ctaid=(8,0,0) tid=(67,0,0)
GPGPU-Sim uArch: cycles simulated: 181000  inst.: 10766030 (ipc=59.5) sim_rate=151634 (inst/sec) elapsed = 0:0:01:11 / Tue Mar 22 07:00:52 2016
GPGPU-Sim PTX: 10800000 instructions simulated : ctaid=(8,0,0) tid=(99,0,0)
GPGPU-Sim PTX: 10900000 instructions simulated : ctaid=(10,0,0) tid=(67,0,0)
GPGPU-Sim uArch: cycles simulated: 183000  inst.: 10899662 (ipc=59.6) sim_rate=151384 (inst/sec) elapsed = 0:0:01:12 / Tue Mar 22 07:00:53 2016
GPGPU-Sim PTX: 11000000 instructions simulated : ctaid=(0,0,0) tid=(99,0,0)
GPGPU-Sim uArch: cycles simulated: 185000  inst.: 11031950 (ipc=59.6) sim_rate=151122 (inst/sec) elapsed = 0:0:01:13 / Tue Mar 22 07:00:54 2016
GPGPU-Sim PTX: 11100000 instructions simulated : ctaid=(0,0,0) tid=(99,0,0)
GPGPU-Sim uArch: cycles simulated: 187000  inst.: 11161536 (ipc=59.7) sim_rate=150831 (inst/sec) elapsed = 0:0:01:14 / Tue Mar 22 07:00:55 2016
GPGPU-Sim PTX: 11200000 instructions simulated : ctaid=(1,0,0) tid=(127,0,0)
GPGPU-Sim uArch: cycles simulated: 188500  inst.: 11259602 (ipc=59.7) sim_rate=150128 (inst/sec) elapsed = 0:0:01:15 / Tue Mar 22 07:00:56 2016
GPGPU-Sim PTX: 11300000 instructions simulated : ctaid=(0,0,0) tid=(115,0,0)
GPGPU-Sim PTX: 11400000 instructions simulated : ctaid=(2,1,0) tid=(119,0,0)
GPGPU-Sim uArch: cycles simulated: 190500  inst.: 11391220 (ipc=59.8) sim_rate=149884 (inst/sec) elapsed = 0:0:01:16 / Tue Mar 22 07:00:57 2016
GPGPU-Sim PTX: 11500000 instructions simulated : ctaid=(5,0,0) tid=(73,0,0)
GPGPU-Sim uArch: cycles simulated: 192500  inst.: 11522763 (ipc=59.9) sim_rate=149646 (inst/sec) elapsed = 0:0:01:17 / Tue Mar 22 07:00:58 2016
GPGPU-Sim PTX: 11600000 instructions simulated : ctaid=(4,0,0) tid=(73,0,0)
GPGPU-Sim uArch: cycles simulated: 194500  inst.: 11654560 (ipc=59.9) sim_rate=149417 (inst/sec) elapsed = 0:0:01:18 / Tue Mar 22 07:00:59 2016
GPGPU-Sim PTX: 11700000 instructions simulated : ctaid=(10,0,0) tid=(69,0,0)
GPGPU-Sim PTX: 11800000 instructions simulated : ctaid=(0,0,0) tid=(113,0,0)
GPGPU-Sim uArch: cycles simulated: 196500  inst.: 11788087 (ipc=60.0) sim_rate=149216 (inst/sec) elapsed = 0:0:01:19 / Tue Mar 22 07:01:00 2016
GPGPU-Sim PTX: 11900000 instructions simulated : ctaid=(0,1,0) tid=(81,0,0)
GPGPU-Sim uArch: cycles simulated: 198500  inst.: 11912759 (ipc=60.0) sim_rate=148909 (inst/sec) elapsed = 0:0:01:20 / Tue Mar 22 07:01:01 2016
GPGPU-Sim PTX: 12000000 instructions simulated : ctaid=(5,0,0) tid=(113,0,0)
GPGPU-Sim uArch: cycles simulated: 200500  inst.: 12043799 (ipc=60.1) sim_rate=148688 (inst/sec) elapsed = 0:0:01:21 / Tue Mar 22 07:01:02 2016
GPGPU-Sim PTX: 12100000 instructions simulated : ctaid=(0,0,0) tid=(81,0,0)
GPGPU-Sim uArch: cycles simulated: 202500  inst.: 12173975 (ipc=60.1) sim_rate=148463 (inst/sec) elapsed = 0:0:01:22 / Tue Mar 22 07:01:03 2016
GPGPU-Sim PTX: 12200000 instructions simulated : ctaid=(7,0,0) tid=(81,0,0)
GPGPU-Sim PTX: 12300000 instructions simulated : ctaid=(4,0,0) tid=(113,0,0)
GPGPU-Sim uArch: cycles simulated: 204500  inst.: 12306199 (ipc=60.2) sim_rate=148267 (inst/sec) elapsed = 0:0:01:23 / Tue Mar 22 07:01:04 2016
GPGPU-Sim PTX: 12400000 instructions simulated : ctaid=(0,0,0) tid=(113,0,0)
GPGPU-Sim uArch: cycles simulated: 206500  inst.: 12436567 (ipc=60.2) sim_rate=148054 (inst/sec) elapsed = 0:0:01:24 / Tue Mar 22 07:01:05 2016
GPGPU-Sim PTX: 12500000 instructions simulated : ctaid=(5,0,0) tid=(81,0,0)
GPGPU-Sim uArch: cycles simulated: 208500  inst.: 12562231 (ipc=60.3) sim_rate=147790 (inst/sec) elapsed = 0:0:01:25 / Tue Mar 22 07:01:06 2016
GPGPU-Sim PTX: 12600000 instructions simulated : ctaid=(3,1,0) tid=(81,0,0)
GPGPU-Sim PTX: 12700000 instructions simulated : ctaid=(0,0,0) tid=(81,0,0)
GPGPU-Sim uArch: cycles simulated: 210500  inst.: 12688919 (ipc=60.3) sim_rate=147545 (inst/sec) elapsed = 0:0:01:26 / Tue Mar 22 07:01:07 2016
GPGPU-Sim PTX: 12800000 instructions simulated : ctaid=(3,1,0) tid=(67,0,0)
GPGPU-Sim uArch: cycles simulated: 212500  inst.: 12818516 (ipc=60.3) sim_rate=147339 (inst/sec) elapsed = 0:0:01:27 / Tue Mar 22 07:01:08 2016
GPGPU-Sim PTX: 12900000 instructions simulated : ctaid=(6,0,0) tid=(83,0,0)
GPGPU-Sim uArch: cycles simulated: 214000  inst.: 12920392 (ipc=60.4) sim_rate=146822 (inst/sec) elapsed = 0:0:01:28 / Tue Mar 22 07:01:09 2016
GPGPU-Sim PTX: 13000000 instructions simulated : ctaid=(8,0,0) tid=(109,0,0)
GPGPU-Sim uArch: cycles simulated: 216000  inst.: 13044787 (ipc=60.4) sim_rate=146570 (inst/sec) elapsed = 0:0:01:29 / Tue Mar 22 07:01:10 2016
GPGPU-Sim PTX: 13100000 instructions simulated : ctaid=(2,1,0) tid=(89,0,0)
GPGPU-Sim PTX: 13200000 instructions simulated : ctaid=(0,1,0) tid=(89,0,0)
GPGPU-Sim uArch: cycles simulated: 218000  inst.: 13180083 (ipc=60.5) sim_rate=146445 (inst/sec) elapsed = 0:0:01:30 / Tue Mar 22 07:01:11 2016
GPGPU-Sim PTX: 13300000 instructions simulated : ctaid=(2,0,0) tid=(111,0,0)
GPGPU-Sim uArch: cycles simulated: 220000  inst.: 13307994 (ipc=60.5) sim_rate=146241 (inst/sec) elapsed = 0:0:01:31 / Tue Mar 22 07:01:12 2016
GPGPU-Sim PTX: 13400000 instructions simulated : ctaid=(0,0,0) tid=(71,0,0)
GPGPU-Sim uArch: cycles simulated: 222000  inst.: 13433724 (ipc=60.5) sim_rate=146018 (inst/sec) elapsed = 0:0:01:32 / Tue Mar 22 07:01:13 2016
GPGPU-Sim PTX: 13500000 instructions simulated : ctaid=(7,0,0) tid=(71,0,0)
GPGPU-Sim uArch: cycles simulated: 224000  inst.: 13554588 (ipc=60.5) sim_rate=145748 (inst/sec) elapsed = 0:0:01:33 / Tue Mar 22 07:01:14 2016
GPGPU-Sim PTX: 13600000 instructions simulated : ctaid=(9,0,0) tid=(103,0,0)
GPGPU-Sim PTX: 13700000 instructions simulated : ctaid=(2,1,0) tid=(103,0,0)
GPGPU-Sim uArch: cycles simulated: 226000  inst.: 13684316 (ipc=60.6) sim_rate=145577 (inst/sec) elapsed = 0:0:01:34 / Tue Mar 22 07:01:15 2016
GPGPU-Sim PTX: 13800000 instructions simulated : ctaid=(6,0,0) tid=(103,0,0)
GPGPU-Sim uArch: cycles simulated: 228000  inst.: 13817116 (ipc=60.6) sim_rate=145443 (inst/sec) elapsed = 0:0:01:35 / Tue Mar 22 07:01:16 2016
GPGPU-Sim PTX: 13900000 instructions simulated : ctaid=(1,1,0) tid=(71,0,0)
GPGPU-Sim uArch: cycles simulated: 230000  inst.: 13947324 (ipc=60.6) sim_rate=145284 (inst/sec) elapsed = 0:0:01:36 / Tue Mar 22 07:01:17 2016
GPGPU-Sim PTX: 14000000 instructions simulated : ctaid=(4,0,0) tid=(103,0,0)
GPGPU-Sim PTX: 14100000 instructions simulated : ctaid=(2,0,0) tid=(71,0,0)
GPGPU-Sim uArch: cycles simulated: 232000  inst.: 14080412 (ipc=60.7) sim_rate=145158 (inst/sec) elapsed = 0:0:01:37 / Tue Mar 22 07:01:18 2016
GPGPU-Sim PTX: 14200000 instructions simulated : ctaid=(1,0,0) tid=(71,0,0)
GPGPU-Sim uArch: cycles simulated: 234000  inst.: 14212700 (ipc=60.7) sim_rate=145027 (inst/sec) elapsed = 0:0:01:38 / Tue Mar 22 07:01:19 2016
GPGPU-Sim PTX: 14300000 instructions simulated : ctaid=(9,0,0) tid=(77,0,0)
GPGPU-Sim uArch: cycles simulated: 236000  inst.: 14345577 (ipc=60.8) sim_rate=144904 (inst/sec) elapsed = 0:0:01:39 / Tue Mar 22 07:01:20 2016
GPGPU-Sim PTX: 14400000 instructions simulated : ctaid=(5,0,0) tid=(109,0,0)
GPGPU-Sim uArch: cycles simulated: 237500  inst.: 14445402 (ipc=60.8) sim_rate=144454 (inst/sec) elapsed = 0:0:01:40 / Tue Mar 22 07:01:21 2016
GPGPU-Sim PTX: 14500000 instructions simulated : ctaid=(1,0,0) tid=(83,0,0)
GPGPU-Sim PTX: 14600000 instructions simulated : ctaid=(7,0,0) tid=(127,0,0)
GPGPU-Sim uArch: cycles simulated: 239500  inst.: 14572528 (ipc=60.8) sim_rate=144282 (inst/sec) elapsed = 0:0:01:41 / Tue Mar 22 07:01:22 2016
GPGPU-Sim PTX: 14700000 instructions simulated : ctaid=(1,0,0) tid=(71,0,0)
GPGPU-Sim uArch: cycles simulated: 241500  inst.: 14700092 (ipc=60.9) sim_rate=144118 (inst/sec) elapsed = 0:0:01:42 / Tue Mar 22 07:01:23 2016
GPGPU-Sim PTX: 14800000 instructions simulated : ctaid=(6,0,0) tid=(73,0,0)
GPGPU-Sim uArch: cycles simulated: 243500  inst.: 14831544 (ipc=60.9) sim_rate=143995 (inst/sec) elapsed = 0:0:01:43 / Tue Mar 22 07:01:24 2016
GPGPU-Sim PTX: 14900000 instructions simulated : ctaid=(0,0,0) tid=(79,0,0)
GPGPU-Sim uArch: cycles simulated: 245500  inst.: 14966734 (ipc=61.0) sim_rate=143910 (inst/sec) elapsed = 0:0:01:44 / Tue Mar 22 07:01:25 2016
GPGPU-Sim PTX: 15000000 instructions simulated : ctaid=(3,0,0) tid=(67,0,0)
GPGPU-Sim PTX: 15100000 instructions simulated : ctaid=(7,0,0) tid=(127,0,0)
GPGPU-Sim uArch: cycles simulated: 247500  inst.: 15093440 (ipc=61.0) sim_rate=143747 (inst/sec) elapsed = 0:0:01:45 / Tue Mar 22 07:01:26 2016
GPGPU-Sim PTX: 15200000 instructions simulated : ctaid=(1,1,0) tid=(127,0,0)
GPGPU-Sim uArch: cycles simulated: 249500  inst.: 15221472 (ipc=61.0) sim_rate=143598 (inst/sec) elapsed = 0:0:01:46 / Tue Mar 22 07:01:27 2016
GPGPU-Sim PTX: 15300000 instructions simulated : ctaid=(8,0,0) tid=(95,0,0)
GPGPU-Sim uArch: cycles simulated: 251500  inst.: 15349280 (ipc=61.0) sim_rate=143451 (inst/sec) elapsed = 0:0:01:47 / Tue Mar 22 07:01:28 2016
GPGPU-Sim PTX: 15400000 instructions simulated : ctaid=(3,0,0) tid=(95,0,0)
GPGPU-Sim PTX: 15500000 instructions simulated : ctaid=(1,1,0) tid=(95,0,0)
GPGPU-Sim uArch: cycles simulated: 253500  inst.: 15474272 (ipc=61.0) sim_rate=143280 (inst/sec) elapsed = 0:0:01:48 / Tue Mar 22 07:01:29 2016
GPGPU-Sim PTX: 15600000 instructions simulated : ctaid=(1,0,0) tid=(127,0,0)
GPGPU-Sim uArch: cycles simulated: 255500  inst.: 15604512 (ipc=61.1) sim_rate=143160 (inst/sec) elapsed = 0:0:01:49 / Tue Mar 22 07:01:30 2016
GPGPU-Sim PTX: 15700000 instructions simulated : ctaid=(2,1,0) tid=(127,0,0)
GPGPU-Sim uArch: cycles simulated: 257500  inst.: 15730464 (ipc=61.1) sim_rate=143004 (inst/sec) elapsed = 0:0:01:50 / Tue Mar 22 07:01:31 2016
GPGPU-Sim PTX: 15800000 instructions simulated : ctaid=(8,0,0) tid=(87,0,0)
GPGPU-Sim uArch: cycles simulated: 259500  inst.: 15847135 (ipc=61.1) sim_rate=142766 (inst/sec) elapsed = 0:0:01:51 / Tue Mar 22 07:01:32 2016
GPGPU-Sim PTX: 15900000 instructions simulated : ctaid=(9,0,0) tid=(97,0,0)
GPGPU-Sim uArch: cycles simulated: 261500  inst.: 15967641 (ipc=61.1) sim_rate=142568 (inst/sec) elapsed = 0:0:01:52 / Tue Mar 22 07:01:33 2016
GPGPU-Sim PTX: 16000000 instructions simulated : ctaid=(0,0,0) tid=(141,0,0)
GPGPU-Sim PTX: 16100000 instructions simulated : ctaid=(8,0,0) tid=(123,0,0)
GPGPU-Sim uArch: cycles simulated: 263500  inst.: 16082162 (ipc=61.0) sim_rate=142320 (inst/sec) elapsed = 0:0:01:53 / Tue Mar 22 07:01:34 2016
GPGPU-Sim PTX: 16200000 instructions simulated : ctaid=(0,0,0) tid=(185,0,0)
GPGPU-Sim uArch: cycles simulated: 266000  inst.: 16214376 (ipc=61.0) sim_rate=142231 (inst/sec) elapsed = 0:0:01:54 / Tue Mar 22 07:01:35 2016
GPGPU-Sim PTX: 16300000 instructions simulated : ctaid=(10,0,0) tid=(151,0,0)
GPGPU-Sim uArch: cycles simulated: 268000  inst.: 16310104 (ipc=60.9) sim_rate=141826 (inst/sec) elapsed = 0:0:01:55 / Tue Mar 22 07:01:36 2016
GPGPU-Sim PTX: 16400000 instructions simulated : ctaid=(1,1,0) tid=(157,0,0)
GPGPU-Sim uArch: cycles simulated: 270500  inst.: 16433430 (ipc=60.8) sim_rate=141667 (inst/sec) elapsed = 0:0:01:56 / Tue Mar 22 07:01:37 2016
GPGPU-Sim PTX: 16500000 instructions simulated : ctaid=(7,0,0) tid=(179,0,0)
GPGPU-Sim uArch: cycles simulated: 273000  inst.: 16547609 (ipc=60.6) sim_rate=141432 (inst/sec) elapsed = 0:0:01:57 / Tue Mar 22 07:01:38 2016
GPGPU-Sim PTX: 16600000 instructions simulated : ctaid=(3,0,0) tid=(141,0,0)
GPGPU-Sim PTX: 16700000 instructions simulated : ctaid=(0,1,0) tid=(173,0,0)
GPGPU-Sim uArch: cycles simulated: 275500  inst.: 16667513 (ipc=60.5) sim_rate=141250 (inst/sec) elapsed = 0:0:01:58 / Tue Mar 22 07:01:39 2016
GPGPU-Sim PTX: 16800000 instructions simulated : ctaid=(6,0,0) tid=(141,0,0)
GPGPU-Sim uArch: cycles simulated: 278000  inst.: 16783673 (ipc=60.4) sim_rate=141039 (inst/sec) elapsed = 0:0:01:59 / Tue Mar 22 07:01:40 2016
GPGPU-Sim PTX: 16900000 instructions simulated : ctaid=(7,0,0) tid=(173,0,0)
GPGPU-Sim uArch: cycles simulated: 280500  inst.: 16903705 (ipc=60.3) sim_rate=140864 (inst/sec) elapsed = 0:0:02:00 / Tue Mar 22 07:01:41 2016
GPGPU-Sim PTX: 17000000 instructions simulated : ctaid=(6,0,0) tid=(141,0,0)
GPGPU-Sim uArch: cycles simulated: 283000  inst.: 17019225 (ipc=60.1) sim_rate=140654 (inst/sec) elapsed = 0:0:02:01 / Tue Mar 22 07:01:42 2016
GPGPU-Sim PTX: 17100000 instructions simulated : ctaid=(9,0,0) tid=(173,0,0)
GPGPU-Sim uArch: cycles simulated: 285500  inst.: 17142809 (ipc=60.0) sim_rate=140514 (inst/sec) elapsed = 0:0:02:02 / Tue Mar 22 07:01:43 2016
GPGPU-Sim PTX: 17200000 instructions simulated : ctaid=(0,0,0) tid=(141,0,0)
GPGPU-Sim uArch: cycles simulated: 288000  inst.: 17263513 (ipc=59.9) sim_rate=140353 (inst/sec) elapsed = 0:0:02:03 / Tue Mar 22 07:01:44 2016
GPGPU-Sim PTX: 17300000 instructions simulated : ctaid=(0,0,0) tid=(141,0,0)
GPGPU-Sim PTX: 17400000 instructions simulated : ctaid=(10,0,0) tid=(141,0,0)
GPGPU-Sim uArch: cycles simulated: 290500  inst.: 17395417 (ipc=59.9) sim_rate=140285 (inst/sec) elapsed = 0:0:02:04 / Tue Mar 22 07:01:45 2016
GPGPU-Sim PTX: 17500000 instructions simulated : ctaid=(0,0,0) tid=(173,0,0)
GPGPU-Sim uArch: cycles simulated: 292500  inst.: 17509593 (ipc=59.9) sim_rate=140076 (inst/sec) elapsed = 0:0:02:05 / Tue Mar 22 07:01:46 2016
GPGPU-Sim PTX: 17600000 instructions simulated : ctaid=(2,1,0) tid=(141,0,0)
GPGPU-Sim uArch: cycles simulated: 295000  inst.: 17662521 (ipc=59.9) sim_rate=140178 (inst/sec) elapsed = 0:0:02:06 / Tue Mar 22 07:01:47 2016
GPGPU-Sim PTX: 17700000 instructions simulated : ctaid=(4,0,0) tid=(173,0,0)
GPGPU-Sim PTX: 17800000 instructions simulated : ctaid=(9,0,0) tid=(141,0,0)
GPGPU-Sim uArch: cycles simulated: 297500  inst.: 17821817 (ipc=59.9) sim_rate=140329 (inst/sec) elapsed = 0:0:02:07 / Tue Mar 22 07:01:48 2016
GPGPU-Sim PTX: 17900000 instructions simulated : ctaid=(8,0,0) tid=(173,0,0)
GPGPU-Sim uArch: cycles simulated: 299500  inst.: 17947321 (ipc=59.9) sim_rate=140213 (inst/sec) elapsed = 0:0:02:08 / Tue Mar 22 07:01:49 2016
GPGPU-Sim PTX: 18000000 instructions simulated : ctaid=(5,0,0) tid=(173,0,0)
GPGPU-Sim PTX: 18100000 instructions simulated : ctaid=(0,1,0) tid=(141,0,0)
GPGPU-Sim uArch: cycles simulated: 302000  inst.: 18111961 (ipc=60.0) sim_rate=140402 (inst/sec) elapsed = 0:0:02:09 / Tue Mar 22 07:01:50 2016
GPGPU-Sim PTX: 18200000 instructions simulated : ctaid=(10,0,0) tid=(173,0,0)
GPGPU-Sim uArch: cycles simulated: 304000  inst.: 18247897 (ipc=60.0) sim_rate=140368 (inst/sec) elapsed = 0:0:02:10 / Tue Mar 22 07:01:51 2016
GPGPU-Sim PTX: 18300000 instructions simulated : ctaid=(1,0,0) tid=(173,0,0)
GPGPU-Sim PTX: 18400000 instructions simulated : ctaid=(3,1,0) tid=(141,0,0)
GPGPU-Sim uArch: cycles simulated: 306500  inst.: 18398169 (ipc=60.0) sim_rate=140444 (inst/sec) elapsed = 0:0:02:11 / Tue Mar 22 07:01:52 2016
GPGPU-Sim PTX: 18500000 instructions simulated : ctaid=(1,1,0) tid=(141,0,0)
GPGPU-Sim uArch: cycles simulated: 308500  inst.: 18528761 (ipc=60.1) sim_rate=140369 (inst/sec) elapsed = 0:0:02:12 / Tue Mar 22 07:01:53 2016
GPGPU-Sim PTX: 18600000 instructions simulated : ctaid=(2,0,0) tid=(141,0,0)
GPGPU-Sim PTX: 18700000 instructions simulated : ctaid=(3,1,0) tid=(141,0,0)
GPGPU-Sim uArch: cycles simulated: 311000  inst.: 18694617 (ipc=60.1) sim_rate=140561 (inst/sec) elapsed = 0:0:02:13 / Tue Mar 22 07:01:54 2016
GPGPU-Sim PTX: 18800000 instructions simulated : ctaid=(7,0,0) tid=(131,0,0)
GPGPU-Sim uArch: cycles simulated: 313000  inst.: 18822371 (ipc=60.1) sim_rate=140465 (inst/sec) elapsed = 0:0:02:14 / Tue Mar 22 07:01:55 2016
GPGPU-Sim PTX: 18900000 instructions simulated : ctaid=(2,1,0) tid=(153,0,0)
GPGPU-Sim PTX: 19000000 instructions simulated : ctaid=(3,0,0) tid=(185,0,0)
GPGPU-Sim uArch: cycles simulated: 315500  inst.: 18988291 (ipc=60.2) sim_rate=140654 (inst/sec) elapsed = 0:0:02:15 / Tue Mar 22 07:01:56 2016
GPGPU-Sim PTX: 19100000 instructions simulated : ctaid=(2,1,0) tid=(153,0,0)
GPGPU-Sim uArch: cycles simulated: 317500  inst.: 19125059 (ipc=60.2) sim_rate=140625 (inst/sec) elapsed = 0:0:02:16 / Tue Mar 22 07:01:57 2016
GPGPU-Sim PTX: 19200000 instructions simulated : ctaid=(3,1,0) tid=(163,0,0)
GPGPU-Sim uArch: cycles simulated: 319500  inst.: 19260892 (ipc=60.3) sim_rate=140590 (inst/sec) elapsed = 0:0:02:17 / Tue Mar 22 07:01:58 2016
GPGPU-Sim PTX: 19300000 instructions simulated : ctaid=(3,1,0) tid=(135,0,0)
GPGPU-Sim PTX: 19400000 instructions simulated : ctaid=(7,0,0) tid=(151,0,0)
GPGPU-Sim uArch: cycles simulated: 322000  inst.: 19429267 (ipc=60.3) sim_rate=140791 (inst/sec) elapsed = 0:0:02:18 / Tue Mar 22 07:01:59 2016
GPGPU-Sim PTX: 19500000 instructions simulated : ctaid=(0,0,0) tid=(189,0,0)
GPGPU-Sim PTX: 19600000 instructions simulated : ctaid=(9,0,0) tid=(165,0,0)
GPGPU-Sim uArch: cycles simulated: 324500  inst.: 19594741 (ipc=60.4) sim_rate=140969 (inst/sec) elapsed = 0:0:02:19 / Tue Mar 22 07:02:00 2016
GPGPU-Sim PTX: 19700000 instructions simulated : ctaid=(1,1,0) tid=(145,0,0)
GPGPU-Sim uArch: cycles simulated: 326500  inst.: 19729356 (ipc=60.4) sim_rate=140923 (inst/sec) elapsed = 0:0:02:20 / Tue Mar 22 07:02:01 2016
GPGPU-Sim PTX: 19800000 instructions simulated : ctaid=(5,0,0) tid=(167,0,0)
GPGPU-Sim PTX: 19900000 instructions simulated : ctaid=(10,0,0) tid=(135,0,0)
GPGPU-Sim uArch: cycles simulated: 329000  inst.: 19886412 (ipc=60.4) sim_rate=141038 (inst/sec) elapsed = 0:0:02:21 / Tue Mar 22 07:02:02 2016
GPGPU-Sim PTX: 20000000 instructions simulated : ctaid=(0,0,0) tid=(167,0,0)
GPGPU-Sim uArch: cycles simulated: 331000  inst.: 20013612 (ipc=60.5) sim_rate=140940 (inst/sec) elapsed = 0:0:02:22 / Tue Mar 22 07:02:03 2016
GPGPU-Sim PTX: 20100000 instructions simulated : ctaid=(3,1,0) tid=(167,0,0)
GPGPU-Sim PTX: 20200000 instructions simulated : ctaid=(9,0,0) tid=(167,0,0)
GPGPU-Sim uArch: cycles simulated: 333500  inst.: 20176140 (ipc=60.5) sim_rate=141091 (inst/sec) elapsed = 0:0:02:23 / Tue Mar 22 07:02:04 2016
GPGPU-Sim PTX: 20300000 instructions simulated : ctaid=(3,1,0) tid=(161,0,0)
GPGPU-Sim uArch: cycles simulated: 336000  inst.: 20343711 (ipc=60.5) sim_rate=141275 (inst/sec) elapsed = 0:0:02:24 / Tue Mar 22 07:02:05 2016
GPGPU-Sim PTX: 20400000 instructions simulated : ctaid=(0,0,0) tid=(161,0,0)
GPGPU-Sim PTX: 20500000 instructions simulated : ctaid=(7,0,0) tid=(131,0,0)
GPGPU-Sim uArch: cycles simulated: 338000  inst.: 20474526 (ipc=60.6) sim_rate=141203 (inst/sec) elapsed = 0:0:02:25 / Tue Mar 22 07:02:06 2016
GPGPU-Sim PTX: 20600000 instructions simulated : ctaid=(8,0,0) tid=(163,0,0)
GPGPU-Sim uArch: cycles simulated: 340500  inst.: 20643614 (ipc=60.6) sim_rate=141394 (inst/sec) elapsed = 0:0:02:26 / Tue Mar 22 07:02:07 2016
GPGPU-Sim PTX: 20700000 instructions simulated : ctaid=(5,0,0) tid=(131,0,0)
GPGPU-Sim PTX: 20800000 instructions simulated : ctaid=(10,0,0) tid=(153,0,0)
GPGPU-Sim uArch: cycles simulated: 342500  inst.: 20782613 (ipc=60.7) sim_rate=141378 (inst/sec) elapsed = 0:0:02:27 / Tue Mar 22 07:02:08 2016
GPGPU-Sim PTX: 20900000 instructions simulated : ctaid=(7,0,0) tid=(177,0,0)
GPGPU-Sim uArch: cycles simulated: 345000  inst.: 20947300 (ipc=60.7) sim_rate=141535 (inst/sec) elapsed = 0:0:02:28 / Tue Mar 22 07:02:09 2016
GPGPU-Sim PTX: 21000000 instructions simulated : ctaid=(4,0,0) tid=(183,0,0)
GPGPU-Sim PTX: 21100000 instructions simulated : ctaid=(0,1,0) tid=(135,0,0)
GPGPU-Sim uArch: cycles simulated: 347500  inst.: 21110828 (ipc=60.8) sim_rate=141683 (inst/sec) elapsed = 0:0:02:29 / Tue Mar 22 07:02:10 2016
GPGPU-Sim PTX: 21200000 instructions simulated : ctaid=(3,1,0) tid=(163,0,0)
GPGPU-Sim uArch: cycles simulated: 349500  inst.: 21244176 (ipc=60.8) sim_rate=141627 (inst/sec) elapsed = 0:0:02:30 / Tue Mar 22 07:02:11 2016
GPGPU-Sim PTX: 21300000 instructions simulated : ctaid=(2,1,0) tid=(191,0,0)
GPGPU-Sim PTX: 21400000 instructions simulated : ctaid=(10,0,0) tid=(189,0,0)
GPGPU-Sim uArch: cycles simulated: 352000  inst.: 21397489 (ipc=60.8) sim_rate=141705 (inst/sec) elapsed = 0:0:02:31 / Tue Mar 22 07:02:12 2016
GPGPU-Sim PTX: 21500000 instructions simulated : ctaid=(2,0,0) tid=(157,0,0)
GPGPU-Sim PTX: 21600000 instructions simulated : ctaid=(0,0,0) tid=(189,0,0)
GPGPU-Sim uArch: cycles simulated: 354500  inst.: 21557809 (ipc=60.8) sim_rate=141827 (inst/sec) elapsed = 0:0:02:32 / Tue Mar 22 07:02:13 2016
GPGPU-Sim PTX: 21700000 instructions simulated : ctaid=(3,0,0) tid=(157,0,0)
GPGPU-Sim uArch: cycles simulated: 357000  inst.: 21722385 (ipc=60.8) sim_rate=141976 (inst/sec) elapsed = 0:0:02:33 / Tue Mar 22 07:02:14 2016
GPGPU-Sim PTX: 21800000 instructions simulated : ctaid=(3,0,0) tid=(157,0,0)
GPGPU-Sim uArch: cycles simulated: 359000  inst.: 21845169 (ipc=60.9) sim_rate=141851 (inst/sec) elapsed = 0:0:02:34 / Tue Mar 22 07:02:15 2016
GPGPU-Sim PTX: 21900000 instructions simulated : ctaid=(2,1,0) tid=(189,0,0)
GPGPU-Sim PTX: 22000000 instructions simulated : ctaid=(0,0,0) tid=(163,0,0)
GPGPU-Sim uArch: cycles simulated: 361500  inst.: 22007328 (ipc=60.9) sim_rate=141982 (inst/sec) elapsed = 0:0:02:35 / Tue Mar 22 07:02:16 2016
GPGPU-Sim PTX: 22100000 instructions simulated : ctaid=(2,1,0) tid=(159,0,0)
GPGPU-Sim uArch: cycles simulated: 363500  inst.: 22139424 (ipc=60.9) sim_rate=141919 (inst/sec) elapsed = 0:0:02:36 / Tue Mar 22 07:02:17 2016
GPGPU-Sim PTX: 22200000 instructions simulated : ctaid=(1,0,0) tid=(191,0,0)
GPGPU-Sim PTX: 22300000 instructions simulated : ctaid=(2,0,0) tid=(131,0,0)
GPGPU-Sim uArch: cycles simulated: 366000  inst.: 22305646 (ipc=60.9) sim_rate=142074 (inst/sec) elapsed = 0:0:02:37 / Tue Mar 22 07:02:18 2016
GPGPU-Sim PTX: 22400000 instructions simulated : ctaid=(2,1,0) tid=(163,0,0)
GPGPU-Sim PTX: 22500000 instructions simulated : ctaid=(1,1,0) tid=(155,0,0)
GPGPU-Sim uArch: cycles simulated: 368500  inst.: 22473923 (ipc=61.0) sim_rate=142240 (inst/sec) elapsed = 0:0:02:38 / Tue Mar 22 07:02:19 2016
GPGPU-Sim PTX: 22600000 instructions simulated : ctaid=(8,0,0) tid=(171,0,0)
GPGPU-Sim uArch: cycles simulated: 370500  inst.: 22606797 (ipc=61.0) sim_rate=142181 (inst/sec) elapsed = 0:0:02:39 / Tue Mar 22 07:02:20 2016
GPGPU-Sim PTX: 22700000 instructions simulated : ctaid=(0,0,0) tid=(165,0,0)
GPGPU-Sim PTX: 22800000 instructions simulated : ctaid=(10,0,0) tid=(133,0,0)
GPGPU-Sim uArch: cycles simulated: 373000  inst.: 22770013 (ipc=61.0) sim_rate=142312 (inst/sec) elapsed = 0:0:02:40 / Tue Mar 22 07:02:21 2016
GPGPU-Sim PTX: 22900000 instructions simulated : ctaid=(6,0,0) tid=(171,0,0)
GPGPU-Sim uArch: cycles simulated: 375500  inst.: 22934040 (ipc=61.1) sim_rate=142447 (inst/sec) elapsed = 0:0:02:41 / Tue Mar 22 07:02:22 2016
GPGPU-Sim PTX: 23000000 instructions simulated : ctaid=(1,0,0) tid=(159,0,0)
GPGPU-Sim PTX: 23100000 instructions simulated : ctaid=(6,0,0) tid=(159,0,0)
GPGPU-Sim uArch: cycles simulated: 377500  inst.: 23056704 (ipc=61.1) sim_rate=142325 (inst/sec) elapsed = 0:0:02:42 / Tue Mar 22 07:02:23 2016
GPGPU-Sim PTX: 23200000 instructions simulated : ctaid=(3,1,0) tid=(191,0,0)
GPGPU-Sim uArch: cycles simulated: 380000  inst.: 23206400 (ipc=61.1) sim_rate=142370 (inst/sec) elapsed = 0:0:02:43 / Tue Mar 22 07:02:24 2016
GPGPU-Sim PTX: 23300000 instructions simulated : ctaid=(1,0,0) tid=(191,0,0)
GPGPU-Sim uArch: cycles simulated: 382000  inst.: 23334080 (ipc=61.1) sim_rate=142280 (inst/sec) elapsed = 0:0:02:44 / Tue Mar 22 07:02:25 2016
GPGPU-Sim PTX: 23400000 instructions simulated : ctaid=(1,0,0) tid=(191,0,0)
GPGPU-Sim PTX: 23500000 instructions simulated : ctaid=(2,0,0) tid=(173,0,0)
GPGPU-Sim uArch: cycles simulated: 384500  inst.: 23498315 (ipc=61.1) sim_rate=142414 (inst/sec) elapsed = 0:0:02:45 / Tue Mar 22 07:02:26 2016
GPGPU-Sim PTX: 23600000 instructions simulated : ctaid=(2,0,0) tid=(169,0,0)
GPGPU-Sim uArch: cycles simulated: 387000  inst.: 23646635 (ipc=61.1) sim_rate=142449 (inst/sec) elapsed = 0:0:02:46 / Tue Mar 22 07:02:27 2016
GPGPU-Sim PTX: 23700000 instructions simulated : ctaid=(9,0,0) tid=(169,0,0)
GPGPU-Sim PTX: 23800000 instructions simulated : ctaid=(1,0,0) tid=(137,0,0)
GPGPU-Sim uArch: cycles simulated: 389000  inst.: 23764491 (ipc=61.1) sim_rate=142302 (inst/sec) elapsed = 0:0:02:47 / Tue Mar 22 07:02:28 2016
GPGPU-Sim PTX: 23900000 instructions simulated : ctaid=(9,0,0) tid=(167,0,0)
GPGPU-Sim uArch: cycles simulated: 391500  inst.: 23923861 (ipc=61.1) sim_rate=142403 (inst/sec) elapsed = 0:0:02:48 / Tue Mar 22 07:02:29 2016
GPGPU-Sim PTX: 24000000 instructions simulated : ctaid=(0,1,0) tid=(159,0,0)
GPGPU-Sim PTX: 24100000 instructions simulated : ctaid=(9,0,0) tid=(235,0,0)
GPGPU-Sim uArch: cycles simulated: 394000  inst.: 24062202 (ipc=61.1) sim_rate=142379 (inst/sec) elapsed = 0:0:02:49 / Tue Mar 22 07:02:30 2016
GPGPU-Sim PTX: 24200000 instructions simulated : ctaid=(7,0,0) tid=(161,0,0)
GPGPU-Sim uArch: cycles simulated: 396500  inst.: 24182591 (ipc=61.0) sim_rate=142250 (inst/sec) elapsed = 0:0:02:50 / Tue Mar 22 07:02:31 2016
GPGPU-Sim PTX: 24300000 instructions simulated : ctaid=(2,0,0) tid=(161,0,0)
GPGPU-Sim uArch: cycles simulated: 399000  inst.: 24316138 (ipc=60.9) sim_rate=142199 (inst/sec) elapsed = 0:0:02:51 / Tue Mar 22 07:02:32 2016
GPGPU-Sim PTX: 24400000 instructions simulated : ctaid=(7,0,0) tid=(235,0,0)
GPGPU-Sim uArch: cycles simulated: 401500  inst.: 24442551 (ipc=60.9) sim_rate=142107 (inst/sec) elapsed = 0:0:02:52 / Tue Mar 22 07:02:33 2016
GPGPU-Sim PTX: 24500000 instructions simulated : ctaid=(0,0,0) tid=(209,0,0)
GPGPU-Sim PTX: 24600000 instructions simulated : ctaid=(5,0,0) tid=(175,0,0)
GPGPU-Sim uArch: cycles simulated: 404000  inst.: 24560152 (ipc=60.8) sim_rate=141966 (inst/sec) elapsed = 0:0:02:53 / Tue Mar 22 07:02:34 2016
GPGPU-Sim PTX: 24700000 instructions simulated : ctaid=(0,1,0) tid=(209,0,0)
GPGPU-Sim uArch: cycles simulated: 406500  inst.: 24675495 (ipc=60.7) sim_rate=141813 (inst/sec) elapsed = 0:0:02:54 / Tue Mar 22 07:02:35 2016
GPGPU-Sim PTX: 24800000 instructions simulated : ctaid=(3,1,0) tid=(221,0,0)
GPGPU-Sim uArch: cycles simulated: 409000  inst.: 24789649 (ipc=60.6) sim_rate=141655 (inst/sec) elapsed = 0:0:02:55 / Tue Mar 22 07:02:36 2016
GPGPU-Sim PTX: 24900000 instructions simulated : ctaid=(9,0,0) tid=(253,0,0)
GPGPU-Sim uArch: cycles simulated: 411500  inst.: 24909361 (ipc=60.5) sim_rate=141530 (inst/sec) elapsed = 0:0:02:56 / Tue Mar 22 07:02:37 2016
GPGPU-Sim PTX: 25000000 instructions simulated : ctaid=(2,0,0) tid=(221,0,0)
GPGPU-Sim uArch: cycles simulated: 414000  inst.: 25034097 (ipc=60.5) sim_rate=141435 (inst/sec) elapsed = 0:0:02:57 / Tue Mar 22 07:02:38 2016
GPGPU-Sim PTX: 25100000 instructions simulated : ctaid=(1,0,0) tid=(221,0,0)
GPGPU-Sim PTX: 25200000 instructions simulated : ctaid=(3,0,0) tid=(253,0,0)
GPGPU-Sim uArch: cycles simulated: 416500  inst.: 25159441 (ipc=60.4) sim_rate=141345 (inst/sec) elapsed = 0:0:02:58 / Tue Mar 22 07:02:39 2016
GPGPU-Sim PTX: 25300000 instructions simulated : ctaid=(6,0,0) tid=(221,0,0)
GPGPU-Sim uArch: cycles simulated: 419000  inst.: 25288561 (ipc=60.4) sim_rate=141276 (inst/sec) elapsed = 0:0:02:59 / Tue Mar 22 07:02:40 2016
GPGPU-Sim PTX: 25400000 instructions simulated : ctaid=(3,1,0) tid=(221,0,0)
GPGPU-Sim uArch: cycles simulated: 421500  inst.: 25418097 (ipc=60.3) sim_rate=141211 (inst/sec) elapsed = 0:0:03:00 / Tue Mar 22 07:02:41 2016
GPGPU-Sim PTX: 25500000 instructions simulated : ctaid=(9,0,0) tid=(221,0,0)
GPGPU-Sim PTX: 25600000 instructions simulated : ctaid=(6,0,0) tid=(207,0,0)
GPGPU-Sim uArch: cycles simulated: 424000  inst.: 25558552 (ipc=60.3) sim_rate=141207 (inst/sec) elapsed = 0:0:03:01 / Tue Mar 22 07:02:42 2016
GPGPU-Sim PTX: 25700000 instructions simulated : ctaid=(1,1,0) tid=(207,0,0)
GPGPU-Sim uArch: cycles simulated: 426500  inst.: 25704504 (ipc=60.3) sim_rate=141233 (inst/sec) elapsed = 0:0:03:02 / Tue Mar 22 07:02:43 2016
GPGPU-Sim PTX: 25800000 instructions simulated : ctaid=(4,0,0) tid=(239,0,0)
GPGPU-Sim PTX: 25900000 instructions simulated : ctaid=(6,0,0) tid=(207,0,0)
GPGPU-Sim uArch: cycles simulated: 429000  inst.: 25862488 (ipc=60.3) sim_rate=141325 (inst/sec) elapsed = 0:0:03:03 / Tue Mar 22 07:02:44 2016
GPGPU-Sim PTX: 26000000 instructions simulated : ctaid=(7,0,0) tid=(207,0,0)
GPGPU-Sim uArch: cycles simulated: 431500  inst.: 26018968 (ipc=60.3) sim_rate=141407 (inst/sec) elapsed = 0:0:03:04 / Tue Mar 22 07:02:45 2016
GPGPU-Sim PTX: 26100000 instructions simulated : ctaid=(4,0,0) tid=(207,0,0)
GPGPU-Sim PTX: 26200000 instructions simulated : ctaid=(3,0,0) tid=(239,0,0)
GPGPU-Sim uArch: cycles simulated: 434000  inst.: 26173464 (ipc=60.3) sim_rate=141478 (inst/sec) elapsed = 0:0:03:05 / Tue Mar 22 07:02:46 2016
GPGPU-Sim PTX: 26300000 instructions simulated : ctaid=(3,1,0) tid=(207,0,0)
GPGPU-Sim uArch: cycles simulated: 436500  inst.: 26331096 (ipc=60.3) sim_rate=141565 (inst/sec) elapsed = 0:0:03:06 / Tue Mar 22 07:02:47 2016
GPGPU-Sim PTX: 26400000 instructions simulated : ctaid=(2,0,0) tid=(239,0,0)
GPGPU-Sim PTX: 26500000 instructions simulated : ctaid=(0,0,0) tid=(239,0,0)
GPGPU-Sim uArch: cycles simulated: 438500  inst.: 26457624 (ipc=60.3) sim_rate=141484 (inst/sec) elapsed = 0:0:03:07 / Tue Mar 22 07:02:48 2016
GPGPU-Sim PTX: 26600000 instructions simulated : ctaid=(6,0,0) tid=(207,0,0)
GPGPU-Sim uArch: cycles simulated: 441000  inst.: 26609656 (ipc=60.3) sim_rate=141540 (inst/sec) elapsed = 0:0:03:08 / Tue Mar 22 07:02:49 2016
GPGPU-Sim PTX: 26700000 instructions simulated : ctaid=(0,1,0) tid=(239,0,0)
GPGPU-Sim PTX: 26800000 instructions simulated : ctaid=(0,0,0) tid=(249,0,0)
GPGPU-Sim uArch: cycles simulated: 443500  inst.: 26768812 (ipc=60.4) sim_rate=141633 (inst/sec) elapsed = 0:0:03:09 / Tue Mar 22 07:02:50 2016
GPGPU-Sim PTX: 26900000 instructions simulated : ctaid=(8,0,0) tid=(235,0,0)
GPGPU-Sim uArch: cycles simulated: 446000  inst.: 26928010 (ipc=60.4) sim_rate=141726 (inst/sec) elapsed = 0:0:03:10 / Tue Mar 22 07:02:51 2016
GPGPU-Sim PTX: 27000000 instructions simulated : ctaid=(3,0,0) tid=(203,0,0)
GPGPU-Sim PTX: 27100000 instructions simulated : ctaid=(3,0,0) tid=(235,0,0)
GPGPU-Sim uArch: cycles simulated: 448500  inst.: 27086318 (ipc=60.4) sim_rate=141813 (inst/sec) elapsed = 0:0:03:11 / Tue Mar 22 07:02:52 2016
GPGPU-Sim PTX: 27200000 instructions simulated : ctaid=(3,0,0) tid=(195,0,0)
GPGPU-Sim uArch: cycles simulated: 450500  inst.: 27211726 (ipc=60.4) sim_rate=141727 (inst/sec) elapsed = 0:0:03:12 / Tue Mar 22 07:02:53 2016
GPGPU-Sim PTX: 27300000 instructions simulated : ctaid=(5,0,0) tid=(215,0,0)
GPGPU-Sim PTX: 27400000 instructions simulated : ctaid=(6,0,0) tid=(207,0,0)
GPGPU-Sim uArch: cycles simulated: 453000  inst.: 27370755 (ipc=60.4) sim_rate=141817 (inst/sec) elapsed = 0:0:03:13 / Tue Mar 22 07:02:54 2016
GPGPU-Sim PTX: 27500000 instructions simulated : ctaid=(3,0,0) tid=(245,0,0)
GPGPU-Sim uArch: cycles simulated: 455500  inst.: 27532408 (ipc=60.4) sim_rate=141919 (inst/sec) elapsed = 0:0:03:14 / Tue Mar 22 07:02:55 2016
GPGPU-Sim PTX: 27600000 instructions simulated : ctaid=(6,0,0) tid=(203,0,0)
GPGPU-Sim PTX: 27700000 instructions simulated : ctaid=(0,0,0) tid=(203,0,0)
GPGPU-Sim uArch: cycles simulated: 458000  inst.: 27692810 (ipc=60.5) sim_rate=142014 (inst/sec) elapsed = 0:0:03:15 / Tue Mar 22 07:02:56 2016
GPGPU-Sim PTX: 27800000 instructions simulated : ctaid=(6,0,0) tid=(235,0,0)
GPGPU-Sim PTX: 27900000 instructions simulated : ctaid=(10,0,0) tid=(235,0,0)
GPGPU-Sim uArch: cycles simulated: 460500  inst.: 27849386 (ipc=60.5) sim_rate=142088 (inst/sec) elapsed = 0:0:03:16 / Tue Mar 22 07:02:57 2016
GPGPU-Sim PTX: 28000000 instructions simulated : ctaid=(1,1,0) tid=(201,0,0)
GPGPU-Sim uArch: cycles simulated: 463000  inst.: 28010322 (ipc=60.5) sim_rate=142184 (inst/sec) elapsed = 0:0:03:17 / Tue Mar 22 07:02:58 2016
GPGPU-Sim PTX: 28100000 instructions simulated : ctaid=(9,0,0) tid=(219,0,0)
GPGPU-Sim uArch: cycles simulated: 465000  inst.: 28141586 (ipc=60.5) sim_rate=142129 (inst/sec) elapsed = 0:0:03:18 / Tue Mar 22 07:02:59 2016
GPGPU-Sim PTX: 28200000 instructions simulated : ctaid=(0,0,0) tid=(251,0,0)
GPGPU-Sim PTX: 28300000 instructions simulated : ctaid=(4,0,0) tid=(197,0,0)
GPGPU-Sim uArch: cycles simulated: 467500  inst.: 28305853 (ipc=60.5) sim_rate=142240 (inst/sec) elapsed = 0:0:03:19 / Tue Mar 22 07:03:00 2016
GPGPU-Sim PTX: 28400000 instructions simulated : ctaid=(0,0,0) tid=(229,0,0)
GPGPU-Sim PTX: 28500000 instructions simulated : ctaid=(6,0,0) tid=(225,0,0)
GPGPU-Sim uArch: cycles simulated: 470000  inst.: 28466143 (ipc=60.6) sim_rate=142330 (inst/sec) elapsed = 0:0:03:20 / Tue Mar 22 07:03:01 2016
GPGPU-Sim PTX: 28600000 instructions simulated : ctaid=(1,1,0) tid=(193,0,0)
[...]
dram[4]:  2.003133  2.004391  2.064300  2.081967  2.051803  2.061761  2.108201  2.099391  2.046616  2.001873  2.027778  2.038385  2.100676  2.053571  2.037132  2.075435 
dram[5]:  2.071242  2.059663  2.094715  2.141007  2.089082  2.072000  2.127601  2.154286  2.076623  2.065670  2.054813  2.051351  2.075168  2.070375  2.116857  2.122783 
average row locality = 300005/144362 = 2.078144
number of total memory accesses made:
dram[0]:         0         0         0         0         0         0         0         0         0         0         0         0         0         0         0         0 
dram[1]:         0         0         0         0         0         0         0         0         0         0         0         0         0         0         0         0 
dram[2]:         0         0         0         0         0         0         0         0         0         0         0         0         0         0         0         0 
dram[3]:         0         0         0         0         0         0         0         0         0         0         0         0         0         0         0         0 
dram[4]:         0         0         0         0         0         0         0         0         0         0         0         0         0         0         0         0 
dram[5]:         0         0         0         0         0         0         0         0         0         0         0         0         0         0         0         0 
total accesses: 0
min_bank_accesses = 0!
min_chip_accesses = 0!
number of total read accesses:
dram[0]:      3119      3095      3025      3076      3105      3106      3040      3072      3171      3192      3045      3069      3055      3040      3082      3090 
dram[1]:      3148      3117      3069      3078      3139      3123      3061      3082      3193      3188      3083      3097      3086      3076      3083      3102 
dram[2]:      3141      3146      3103      3061      3138      3143      3102      3099      3211      3220      3121      3076      3066      3094      3157      3137 
dram[3]:      3137      3152      3077      3036      3130      3160      3096      3089      3208      3216      3087      3111      3083      3088      3125      3156 
dram[4]:      3133      3131      3082      3048      3129      3138      3059      3105      3205      3207      3066      3080      3089      3081      3118      3155 
dram[5]:      3105      3112      3052      2976      3119      3108      3068      3016      3198      3177      3074      3036      3072      3065      3088      3048 
total reads: 298213
bank skew: 3220/2976 = 1.08
chip skew: 50015/49314 = 1.01
number of total write accesses:
dram[0]:        64        64         0         0         0         0         0         0         0         0         0         0        20        20        64        64 
dram[1]:        64        64         0         0         0         0         0         0         0         0         0         0        20        20        64        64 
dram[2]:        64        64         0         0         0         0         0         0         0         0         0         0        20        24        64        64 
dram[3]:        64        64         0         0         0         0         0         0         0         0         0         0        20        24        64        64 
dram[4]:        64        64         0         0         0         0         0         0         0         0         0         0        20        24        64        64 
dram[5]:        64        64         0         0         0         0         0         0         0         0         0         0        20        24        64        64 
total reads: 1792
min_bank_accesses = 0!
chip skew: 300/296 = 1.01
average mf latency per bank:
dram[0]:       1312      1177      1568      1618      1255      1355      1302      1138      1148      1183      1326      1185      1160      1209      1188      1245
dram[1]:       1182      1168      1657      1736      1209      1323      1329      1272      1075      1182      1354      1319      1094      1172      1229      1422
dram[2]:       1203      1377      1557      1622      1385      1366      1111      1268      1239      1212      1133      1255      1256      1234      1187      1119
dram[3]:       1093      1172      1706      1672      1339      1228      1221      1326      1131      1057      1246      1264      1136      1119      1404      1185
dram[4]:       1322      1155      1509      1522      1364      1308      1181      1118      1136      1212      1247      1120      1173      1254      1124      1149
dram[5]:       1180      1115      1638      1200      1208      1324      1250      1237      1094      1107      1301      1240      1138      1138      1159      1348
maximum mf latency per bank:
dram[0]:        717       594       795       689       992       719       817       735       958       639       729       666       763       673       986       720
dram[1]:        765       492       595       546       685       574       783       645       655       533       765       552       595       564       637       581
dram[2]:        514       703       583       779       637       733       641       801       533       695       568       679       573       729       561       705
dram[3]:        596       727       530       731       632       810       740       743       584       763       650       816       571       608       596       804
dram[4]:        695       578       693       663       711       716       715       697       625       576       659       632       713       641       653       673
dram[5]:        719       535       717       518       833       678       717       776       803       576       791       642       614       503       833       558

Number of Memory Banks Accessed per Memory Operation per Warp (from 0):
0	0	0	0	0	0	0	0	0	0	0	0	0	0	0	0	0	0	0	0	0	0	0	0	0	0	0	0	0	0	0	0	0	0	0	0	0	0	0	0	0	0	0	0	0	0	0	0	0	0	0	0	0	0	0	0	0	0	0	0	0	0	0	0	0	0	0	0	0	0	0	0	0	0	0	0	0	0	0	0	0	0	0	0	0	0	0	0	0	0	0	0	0	0	0	0	
Average # of Memory Banks Accessed per Memory Operation per Warp=-nan

position of mrq chosen
0	0	0	0	0	0	0	0	0	0	0	0	0	0	0	0	

average position of mrq chosen = -nan
Memory Partition 0: 
Cache L2_bank_000:
MSHR contents

Cache L2_bank_001:
MSHR contents

In Dram Latency Queue (total = 0): 
DRAM[0]: 16 bks, busW=4 BL=8 CL=12, tRRD=2 tCCD=6, tRCD=12 tRAS=28 tRP=12 tRC=40
n_cmd=12175967 n_nop=12029115 n_act=23756 n_pre=23740 n_req=49678 n_rd=98764 n_write=592 bw_util=0.01632
n_activity=1339289 dram_eff=0.1484
bk0: 6238a 12122650i bk1: 6190a 12123342i bk2: 6050a 12126899i bk3: 6152a 12124279i bk4: 6210a 12124483i bk5: 6212a 12123877i bk6: 6080a 12126621i bk7: 6144a 12125137i bk8: 6342a 12124045i bk9: 6384a 12122849i bk10: 6090a 12124479i bk11: 6138a 12123495i bk12: 6110a 12125324i bk13: 6080a 12126048i bk14: 6164a 12124241i bk15: 6180a 12122529i 
dram_util_bins: 0 0 0 0 0 0 0 0 0 0
dram_eff_bins: 0 0 0 0 0 0 0 0 0 0
mrqq: max=16 avg=0.00202448
Memory Partition 1: 
Cache L2_bank_002:
MSHR contents

Cache L2_bank_003:
MSHR contents
MSHR: tag=0x81e4af80, atomic=0 1 entries : 0x7ef10d2260d0 :  mf: uid=53896876, sid06:w15, part=1, addr=0x81e4af80, load , size=128, unknown  status = IN_PARTITION_DRAM (9224216), 

In Dram Latency Queue (total = 0): 
DRAM[1]: 16 bks, busW=4 BL=8 CL=12, tRRD=2 tCCD=6, tRCD=12 tRAS=28 tRP=12 tRC=40
n_cmd=12175967 n_nop=12027641 n_act=24150 n_pre=24134 n_req=50021 n_rd=99450 n_write=592 bw_util=0.01643
n_activity=1366613 dram_eff=0.1464
bk0: 6296a 12122455i bk1: 6234a 12123846i bk2: 6138a 12124305i bk3: 6156a 12125104i bk4: 6278a 12122920i bk5: 6246a 12123651i bk6: 6122a 12126127i bk7: 6164a 12125227i bk8: 6386a 12123130i bk9: 6376a 12123834i bk10: 6166a 12123998i bk11: 6194a 12124411i bk12: 6172a 12125182i bk13: 6152a 12125761i bk14: 6166a 12124239i bk15: 6204a 12123825i 
dram_util_bins: 0 0 0 0 0 0 0 0 0 0
dram_eff_bins: 0 0 0 0 0 0 0 0 0 0
mrqq: max=16 avg=0.0014844
Memory Partition 2: 
Cache L2_bank_004:
MSHR contents

Cache L2_bank_005:
MSHR contents

In Dram Latency Queue (total = 0): 
DRAM[2]: 16 bks, busW=4 BL=8 CL=12, tRRD=2 tCCD=6, tRCD=12 tRAS=28 tRP=12 tRC=40
n_cmd=12175967 n_nop=12027083 n_act=24135 n_pre=24119 n_req=50315 n_rd=100030 n_write=600 bw_util=0.01653
n_activity=1362572 dram_eff=0.1477
bk0: 6282a 12122336i bk1: 6292a 12123247i bk2: 6206a 12124161i bk3: 6122a 12125701i bk4: 6276a 12123367i bk5: 6286a 12124384i bk6: 6204a 12125550i bk7: 6198a 12126151i bk8: 6422a 12123387i bk9: 6440a 12123094i bk10: 6242a 12123428i bk11: 6152a 12125136i bk12: 6132a 12126456i bk13: 6188a 12125291i bk14: 6314a 12123587i bk15: 6274a 12123836i 
dram_util_bins: 0 0 0 0 0 0 0 0 0 0
dram_eff_bins: 0 0 0 0 0 0 0 0 0 0
mrqq: max=16 avg=0.001739
Memory Partition 3: 
Cache L2_bank_006:
MSHR contents

Cache L2_bank_007:
MSHR contents

In Dram Latency Queue (total = 0): 
DRAM[3]: 16 bks, busW=4 BL=8 CL=12, tRRD=2 tCCD=6, tRCD=12 tRAS=28 tRP=12 tRC=40
n_cmd=12175967 n_nop=12027167 n_act=24157 n_pre=24141 n_req=50251 n_rd=99902 n_write=600 bw_util=0.01651
n_activity=1356931 dram_eff=0.1481
bk0: 6274a 12122746i bk1: 6304a 12120918i bk2: 6154a 12125752i bk3: 6072a 12125413i bk4: 6260a 12123499i bk5: 6320a 12122197i bk6: 6192a 12125293i bk7: 6178a 12124963i bk8: 6416a 12123915i bk9: 6432a 12121778i bk10: 6174a 12125016i bk11: 6222a 12123575i bk12: 6166a 12124760i bk13: 6176a 12123882i bk14: 6250a 12123480i bk15: 6312a 12120408i 
dram_util_bins: 0 0 0 0 0 0 0 0 0 0
dram_eff_bins: 0 0 0 0 0 0 0 0 0 0
mrqq: max=16 avg=0.00190777
Memory Partition 4: 
Cache L2_bank_008:
MSHR contents

Cache L2_bank_009:
MSHR contents

In Dram Latency Queue (total = 0): 
DRAM[4]: 16 bks, busW=4 BL=8 CL=12, tRRD=2 tCCD=6, tRCD=12 tRAS=28 tRP=12 tRC=40
n_cmd=12175967 n_nop=12026891 n_act=24420 n_pre=24404 n_req=50126 n_rd=99652 n_write=600 bw_util=0.01647
n_activity=1372187 dram_eff=0.1461
bk0: 6266a 12121530i bk1: 6262a 12121318i bk2: 6164a 12124591i bk3: 6096a 12125553i bk4: 6258a 12123835i bk5: 6276a 12123829i bk6: 6118a 12125924i bk7: 6210a 12125099i bk8: 6410a 12122931i bk9: 6414a 12121881i bk10: 6132a 12124437i bk11: 6160a 12124317i bk12: 6178a 12125026i bk13: 6162a 12124320i bk14: 6236a 12122427i bk15: 6310a 12122450i 
dram_util_bins: 0 0 0 0 0 0 0 0 0 0
dram_eff_bins: 0 0 0 0 0 0 0 0 0 0
mrqq: max=16 avg=0.00170631
Memory Partition 5: 
Cache L2_bank_010:
MSHR contents

Cache L2_bank_011:
MSHR contents

In Dram Latency Queue (total = 0): 
DRAM[5]: 16 bks, busW=4 BL=8 CL=12, tRRD=2 tCCD=6, tRCD=12 tRAS=28 tRP=12 tRC=40
n_cmd=12175967 n_nop=12029265 n_act=23745 n_pre=23729 n_req=49614 n_rd=98628 n_write=600 bw_util=0.0163
n_activity=1340694 dram_eff=0.148
bk0: 6210a 12123564i bk1: 6224a 12123241i bk2: 6104a 12125868i bk3: 5952a 12128238i bk4: 6238a 12124796i bk5: 6216a 12124753i bk6: 6136a 12125969i bk7: 6032a 12127565i bk8: 6396a 12123842i bk9: 6354a 12123874i bk10: 6148a 12124937i bk11: 6072a 12125894i bk12: 6144a 12125014i bk13: 6130a 12125311i bk14: 6176a 12124425i bk15: 6096a 12125328i 
dram_util_bins: 0 0 0 0 0 0 0 0 0 0
dram_eff_bins: 0 0 0 0 0 0 0 0 0 0
mrqq: max=16 avg=0.00167683

========= L2 cache stats =========
L2_cache_bank[0]: Access = 192566, Miss = 24642, Miss_rate = 0.128, Pending_hits = 8, Reservation_fails = 419
L2_cache_bank[1]: Access = 190762, Miss = 24740, Miss_rate = 0.130, Pending_hits = 1, Reservation_fails = 143
L2_cache_bank[2]: Access = 193148, Miss = 24862, Miss_rate = 0.129, Pending_hits = 10, Reservation_fails = 319
L2_cache_bank[3]: Access = 203764, Miss = 24863, Miss_rate = 0.122, Pending_hits = 1, Reservation_fails = 105
L2_cache_bank[4]: Access = 193225, Miss = 25039, Miss_rate = 0.130, Pending_hits = 11, Reservation_fails = 340
L2_cache_bank[5]: Access = 201011, Miss = 24976, Miss_rate = 0.124, Pending_hits = 3, Reservation_fails = 230
L2_cache_bank[6]: Access = 195569, Miss = 24943, Miss_rate = 0.128, Pending_hits = 2, Reservation_fails = 116
L2_cache_bank[7]: Access = 190417, Miss = 25008, Miss_rate = 0.131, Pending_hits = 2, Reservation_fails = 166
L2_cache_bank[8]: Access = 192317, Miss = 24881, Miss_rate = 0.129, Pending_hits = 3, Reservation_fails = 153
L2_cache_bank[9]: Access = 187950, Miss = 24945, Miss_rate = 0.133, Pending_hits = 1, Reservation_fails = 127
L2_cache_bank[10]: Access = 188629, Miss = 24776, Miss_rate = 0.131, Pending_hits = 1, Reservation_fails = 123
L2_cache_bank[11]: Access = 182159, Miss = 24538, Miss_rate = 0.135, Pending_hits = 0, Reservation_fails = 107
L2_total_cache_accesses = 2311517
L2_total_cache_misses = 298213
L2_total_cache_miss_rate = 0.1290
L2_total_cache_pending_hits = 43
L2_total_cache_reservation_fails = 2348
L2_total_cache_breakdown:
	L2_cache_stats_breakdown[GLOBAL_ACC_R][HIT] = 2013192
	L2_cache_stats_breakdown[GLOBAL_ACC_R][HIT_RESERVED] = 28
	L2_cache_stats_breakdown[GLOBAL_ACC_R][MISS] = 296415
	L2_cache_stats_breakdown[GLOBAL_ACC_R][RESERVATION_FAIL] = 1833
	L2_cache_stats_breakdown[CONST_ACC_R][HIT] = 11
	L2_cache_stats_breakdown[CONST_ACC_R][HIT_RESERVED] = 3
	L2_cache_stats_breakdown[CONST_ACC_R][MISS] = 1
	L2_cache_stats_breakdown[CONST_ACC_R][RESERVATION_FAIL] = 94
	L2_cache_stats_breakdown[GLOBAL_ACC_W][MISS] = 1792
	L2_cache_stats_breakdown[INST_ACC_R][HIT] = 58
	L2_cache_stats_breakdown[INST_ACC_R][HIT_RESERVED] = 12
	L2_cache_stats_breakdown[INST_ACC_R][MISS] = 5
	L2_cache_stats_breakdown[INST_ACC_R][RESERVATION_FAIL] = 421
L2_cache_data_port_util = 0.073
L2_cache_fill_port_util = 0.011

icnt_total_pkts_mem_to_simt=11550387
icnt_total_pkts_simt_to_mem=2318685
LD_mem_lat_dist  0 0 0 0 0 0 0 0 0 0 0 0 0 0 0 0 0 0 0 0 0 0 0 0 0 0 0
ST_mem_lat_dist  0 0 0 0 0 0 0 0 0 0 0 0 0 0 0 0 0 0 0 0 0 0 0 0 0 0 0
----------------------------Interconnect-DETAILS--------------------------------
Class 0:
Packet latency average = 10.1243
	minimum = 6
	maximum = 192
Network latency average = 9.68186
	minimum = 6
	maximum = 147
Slowest packet = 2309130
Flit latency average = 8.30907
	minimum = 6
	maximum = 143
Slowest flit = 6927276
Fragmentation average = 0
	minimum = 0
	maximum = 0
Injected packet rate average = 0.0189964
	minimum = 0.0145427 (at node 5)
	maximum = 0.0226396 (at node 18)
Accepted packet rate average = 0.0189964
	minimum = 0.0145427 (at node 5)
	maximum = 0.0226396 (at node 18)
Injected flit rate average = 0.0569892
	minimum = 0.0145912 (at node 5)
	maximum = 0.113134 (at node 18)
Accepted flit rate average= 0.0569892
	minimum = 0.0203103 (at node 26)
	maximum = 0.0983179 (at node 4)
Injected packet length average = 3
Accepted packet length average = 3
Total in-flight flits = 0 (0 measured)
====== Overall Traffic Statistics ======
====== Traffic class 0 ======
Packet latency average = 10.1034 (2 samples)
	minimum = 6 (2 samples)
	maximum = 189.5 (2 samples)
Network latency average = 9.66229 (2 samples)
	minimum = 6 (2 samples)
	maximum = 147 (2 samples)
Flit latency average = 8.27644 (2 samples)
	minimum = 6 (2 samples)
	maximum = 143 (2 samples)
Fragmentation average = 0 (2 samples)
	minimum = 0 (2 samples)
	maximum = 0 (2 samples)
Injected packet rate average = 0.0185621 (2 samples)
	minimum = 0.0144388 (2 samples)
	maximum = 0.0220897 (2 samples)
Accepted packet rate average = 0.0185621 (2 samples)
	minimum = 0.0144388 (2 samples)
	maximum = 0.0220897 (2 samples)
Injected flit rate average = 0.055686 (2 samples)
	minimum = 0.0144908 (2 samples)
	maximum = 0.110384 (2 samples)
Accepted flit rate average = 0.055686 (2 samples)
	minimum = 0.0198134 (2 samples)
	maximum = 0.0966922 (2 samples)
Injected packet size average = 2.99999 (2 samples)
Accepted packet size average = 2.99999 (2 samples)
Hops average = 1 (2 samples)
----------------------------END-of-Interconnect-DETAILS-------------------------


gpgpu_simulation_time = 0 days, 0 hrs, 52 min, 54 sec (3174 sec)
gpgpu_simulation_rate = 151823 (inst/sec)
gpgpu_simulation_rate = 2906 (cycle/sec)
GPGPU-Sim: synchronize waiting for inactive GPU simulation
GPGPU-Sim API: Stream Manager State
GPGPU-Sim: detected inactive GPU simulation thread
iterated 2 times

================= Centroid Coordinates =================
0: 1.23 613.61 527.61 0.00 0.00 0.01 0.00 0.00 0.00 0.00 0.03 0.01 0.00 0.00 0.00 8.15 11.06 0.00 0.00 0.00 0.00 0.99 0.01 0.22 139.44 193.37 0.83 0.02 0.06 0.01 0.00 0.00 0.00 0.00 1.00 1.23 613.61 527.61 0.00 0.00 0.01 0.00 0.00 0.00 0.00 0.03 0.01 0.00 0.00 0.00 8.15 11.06 0.00 0.00 0.00 0.00 0.99 0.01 0.22 139.44 193.37 0.83 0.02 0.06 0.01 0.00 0.00 0.00 0.00 1.23 613.61 527.61 0.00 0.00 0.01 0.00 0.00 0.00 0.00 0.03 0.01 0.00 0.00 0.00 8.15 11.06 0.00 0.00 0.00 0.00 0.99 0.01 0.22 139.44 193.37 0.83 0.02 0.06 0.01 0.00 0.00 0.00 0.00 1.00 1.23 613.61 527.61 0.00 0.00 0.01 0.00 0.00 0.00 0.00 0.03 0.01 0.00 0.00 0.00 8.15 11.06 0.00 0.00 0.00 0.00 0.99 0.01 0.22 139.44 193.37 0.83 0.02 0.06 0.01 0.00 0.00 0.00 0.00

1: 1.45 15177.44 214.67 0.00 0.00 0.01 0.00 0.00 0.00 0.00 0.00 0.02 0.01 0.02 0.00 4.59 5.07 0.00 0.01 0.00 0.00 0.98 0.03 0.25 129.85 98.10 0.52 0.05 0.20 0.01 0.00 0.00 0.00 0.00 1.00 1.45 15177.44 214.67 0.00 0.00 0.01 0.00 0.00 0.00 0.00 0.00 0.02 0.01 0.02 0.00 4.59 5.07 0.00 0.01 0.00 0.00 0.98 0.03 0.25 129.85 98.10 0.52 0.05 0.20 0.01 0.00 0.00 0.00 0.00 1.45 15177.44 214.67 0.00 0.00 0.01 0.00 0.00 0.00 0.00 0.00 0.02 0.01 0.02 0.00 4.59 5.07 0.00 0.01 0.00 0.00 0.98 0.03 0.25 129.85 98.10 0.52 0.05 0.20 0.01 0.00 0.00 0.00 0.00 1.00 1.45 15177.44 214.67 0.00 0.00 0.01 0.00 0.00 0.00 0.00 0.00 0.02 0.01 0.02 0.00 4.59 5.07 0.00 0.01 0.00 0.00 0.98 0.03 0.25 129.85 98.10 0.52 0.05 0.20 0.01 0.00 0.00 0.00 0.00

2: 3.74 600.16 40.36 0.01 0.00 0.00 0.00 0.00 0.00 0.00 0.00 0.00 0.00 0.00 0.00 338.62 287.90 0.24 0.24 0.03 0.03 0.75 0.04 0.03 240.64 180.98 0.72 0.05 0.58 0.00 0.24 0.24 0.03 0.03 1.00 3.74 600.16 40.36 0.01 0.00 0.00 0.00 0.00 0.00 0.00 0.00 0.00 0.00 0.00 0.00 338.62 287.90 0.24 0.24 0.03 0.03 0.75 0.04 0.03 240.64 180.98 0.72 0.05 0.58 0.00 0.24 0.24 0.03 0.03 3.74 600.16 40.36 0.01 0.00 0.00 0.00 0.00 0.00 0.00 0.00 0.00 0.00 0.00 0.00 338.62 287.90 0.24 0.24 0.03 0.03 0.75 0.04 0.03 240.64 180.98 0.72 0.05 0.58 0.00 0.24 0.24 0.03 0.03 1.00 3.74 600.16 40.36 0.01 0.00 0.00 0.00 0.00 0.00 0.00 0.00 0.00 0.00 0.00 0.00 338.62 287.90 0.24 0.24 0.03 0.03 0.75 0.04 0.03 240.64 180.98 0.72 0.05 0.58 0.00 0.24 0.24 0.03 0.03

3: 21.48 303.12 20528.08 0.00 0.00 0.03 0.00 0.16 0.00 0.00 0.17 0.01 0.00 0.00 0.00 7.59 11.10 0.00 0.01 0.00 0.00 1.00 0.00 0.13 130.51 246.12 0.99 0.00 0.06 0.02 0.00 0.00 0.00 0.00 1.00 21.48 303.12 20528.08 0.00 0.00 0.03 0.00 0.16 0.00 0.00 0.17 0.01 0.00 0.00 0.00 7.59 11.10 0.00 0.01 0.00 0.00 1.00 0.00 0.13 130.51 246.12 0.99 0.00 0.06 0.02 0.00 0.00 0.00 0.00 21.48 303.12 20528.08 0.00 0.00 0.03 0.00 0.16 0.00 0.00 0.17 0.01 0.00 0.00 0.00 7.59 11.10 0.00 0.01 0.00 0.00 1.00 0.00 0.13 130.51 246.12 0.99 0.00 0.06 0.02 0.00 0.00 0.00 0.00 1.00 21.48 303.12 20528.08 0.00 0.00 0.03 0.00 0.16 0.00 0.00 0.17 0.01 0.00 0.00 0.00 7.59 11.10 0.00 0.01 0.00 0.00 1.00 0.00 0.13 130.51 246.12 0.99 0.00 0.06 0.02 0.00 0.00 0.00 0.00

4: 0.31 264.14 2561.85 0.00 0.00 0.06 0.00 0.00 0.00 0.00 0.00 0.00 0.00 0.01 0.00 9.81 13.92 0.00 0.00 0.00 0.00 1.00 0.00 0.10 132.64 245.89 0.99 0.00 0.05 0.02 0.00 0.00 0.00 0.00 1.00 0.31 264.14 2561.85 0.00 0.00 0.06 0.00 0.00 0.00 0.00 0.00 0.00 0.00 0.01 0.00 9.81 13.92 0.00 0.00 0.00 0.00 1.00 0.00 0.10 132.64 245.89 0.99 0.00 0.05 0.02 0.00 0.00 0.00 0.00 0.31 264.14 2561.85 0.00 0.00 0.06 0.00 0.00 0.00 0.00 0.00 0.00 0.00 0.01 0.00 9.81 13.92 0.00 0.00 0.00 0.00 1.00 0.00 0.10 132.64 245.89 0.99 0.00 0.05 0.02 0.00 0.00 0.00 0.00 1.00 0.31 264.14 2561.85 0.00 0.00 0.06 0.00 0.00 0.00 0.00 0.00 0.00 0.00 0.01 0.00 9.81 13.92 0.00 0.00 0.00 0.00 1.00 0.00 0.10 132.64 245.89 0.99 0.00 0.05 0.02 0.00 0.00 0.00 0.00

Number of Iteration: 1
Time for I/O: 0.00000sec
Time for Entire Clustering: 0.00000sec
Root Mean Squared Error: 55443.000
