

        *** GPGPU-Sim Simulator Version 3.2.2  [build 0] ***


GPGPU-Sim PTX: simulation mode 0 (can change with PTX_SIM_MODE_FUNC environment variable:
               1=functional simulation only, 0=detailed performance simulator)
GPGPU-Sim: Configuration options:

-network_mode                           1 # Interconnection network mode
-inter_config_file   config_fermi_islip.icnt # Interconnection network config file
-gpgpu_ptx_use_cuobjdump                    1 # Use cuobjdump to extract ptx and sass from binaries
-gpgpu_experimental_lib_support                    0 # Try to extract code from cuda libraries [Broken because of unknown cudaGetExportTable]
-gpgpu_ptx_convert_to_ptxplus                    0 # Convert SASS (native ISA) to ptxplus and run ptxplus
-gpgpu_ptx_force_max_capability                   20 # Force maximum compute capability
-gpgpu_ptx_inst_debug_to_file                    0 # Dump executed instructions' debug information to file
-gpgpu_ptx_inst_debug_file       inst_debug.txt # Executed instructions' debug output file
-gpgpu_ptx_inst_debug_thread_uid                    1 # Thread UID for executed instructions' debug output
-gpgpu_simd_model                       1 # 1 = post-dominator
-gpgpu_shader_core_pipeline              1536:32 # shader core pipeline config, i.e., {<nthread>:<warpsize>}
-gpgpu_tex_cache:l1  4:128:24,L:R:m:N:L,F:128:4,128:2 # per-shader L1 texture cache  (READ-ONLY) config  {<nsets>:<bsize>:<assoc>,<rep>:<wr>:<alloc>:<wr_alloc>,<mshr>:<N>:<merge>,<mq>:<rf>}
-gpgpu_const_cache:l1 64:64:2,L:R:f:N:L,A:2:32,4 # per-shader L1 constant memory cache  (READ-ONLY) config  {<nsets>:<bsize>:<assoc>,<rep>:<wr>:<alloc>:<wr_alloc>,<mshr>:<N>:<merge>,<mq>} 
-gpgpu_cache:il1     4:128:4,L:R:f:N:L,A:2:32,4 # shader L1 instruction cache config  {<nsets>:<bsize>:<assoc>,<rep>:<wr>:<alloc>:<wr_alloc>,<mshr>:<N>:<merge>,<mq>} 
-gpgpu_cache:dl1     32:128:4,L:L:m:N:H,A:32:8,8:2,0,1:0:1:1:0:1,1:4:8:16:32:64,/sciclone/data10/hwang07/GPU_RESEARCH/swl/swl_outputs/RESULTS/lrr/ # per-shader L1 data cache config  {<nsets>:<bsize>:<assoc>,<rep>:<wr>:<alloc>:<wr_alloc>,<mshr>:<N>:<merge>,<mq> | none}
-gpgpu_cache:dl1PrefL1                 none # per-shader L1 data cache config  {<nsets>:<bsize>:<assoc>,<rep>:<wr>:<alloc>:<wr_alloc>,<mshr>:<N>:<merge>,<mq> | none}
-gpgpu_cache:dl1PreShared                 none # per-shader L1 data cache config  {<nsets>:<bsize>:<assoc>,<rep>:<wr>:<alloc>:<wr_alloc>,<mshr>:<N>:<merge>,<mq> | none}
-gmem_skip_L1D                          0 # global memory access skip L1D cache (implements -Xptxas -dlcm=cg, default=no skip)
-gpgpu_perfect_mem                      0 # enable perfect memory mode (no cache miss)
-n_regfile_gating_group                    4 # group of lanes that should be read/written together)
-gpgpu_clock_gated_reg_file                    0 # enable clock gated reg file for power calculations
-gpgpu_clock_gated_lanes                    0 # enable clock gated lanes for power calculations
-gpgpu_shader_registers                32768 # Number of registers per shader core. Limits number of concurrent CTAs. (default 8192)
-gpgpu_shader_cta                       8 # Maximum number of concurrent CTAs in shader (default 8)
-gpgpu_num_cta_barriers                   16 # Maximum number of named barriers per CTA (default 16)
-gpgpu_n_clusters                      15 # number of processing clusters
-gpgpu_n_cores_per_cluster                    1 # number of simd cores per cluster
-gpgpu_n_cluster_ejection_buffer_size                    8 # number of packets in ejection buffer
-gpgpu_n_ldst_response_buffer_size                    2 # number of response packets in ld/st unit ejection buffer
-gpgpu_shmem_size                   16384 # Size of shared memory per shader core (default 16kB)
-gpgpu_shmem_size                   49152 # Size of shared memory per shader core (default 16kB)
-gpgpu_shmem_size_PrefL1                16384 # Size of shared memory per shader core (default 16kB)
-gpgpu_shmem_size_PrefShared                16384 # Size of shared memory per shader core (default 16kB)
-gpgpu_shmem_num_banks                   32 # Number of banks in the shared memory in each shader core (default 16)
-gpgpu_shmem_limited_broadcast                    0 # Limit shared memory to do one broadcast per cycle (default on)
-gpgpu_shmem_warp_parts                    1 # Number of portions a warp is divided into for shared memory bank conflict check 
-gpgpu_warpdistro_shader                   -1 # Specify which shader core to collect the warp size distribution from
-gpgpu_warp_issue_shader                    0 # Specify which shader core to collect the warp issue distribution from
-gpgpu_local_mem_map                    1 # Mapping from local memory space address to simulated GPU physical address space (default = enabled)
-gpgpu_num_reg_banks                   16 # Number of register banks (default = 8)
-gpgpu_reg_bank_use_warp_id                    0 # Use warp ID in mapping registers to banks (default = off)
-gpgpu_operand_collector_num_units_sp                    6 # number of collector units (default = 4)
-gpgpu_operand_collector_num_units_sfu                    8 # number of collector units (default = 4)
-gpgpu_operand_collector_num_units_mem                    2 # number of collector units (default = 2)
-gpgpu_operand_collector_num_units_gen                    0 # number of collector units (default = 0)
-gpgpu_operand_collector_num_in_ports_sp                    2 # number of collector unit in ports (default = 1)
-gpgpu_operand_collector_num_in_ports_sfu                    1 # number of collector unit in ports (default = 1)
-gpgpu_operand_collector_num_in_ports_mem                    1 # number of collector unit in ports (default = 1)
-gpgpu_operand_collector_num_in_ports_gen                    0 # number of collector unit in ports (default = 0)
-gpgpu_operand_collector_num_out_ports_sp                    2 # number of collector unit in ports (default = 1)
-gpgpu_operand_collector_num_out_ports_sfu                    1 # number of collector unit in ports (default = 1)
-gpgpu_operand_collector_num_out_ports_mem                    1 # number of collector unit in ports (default = 1)
-gpgpu_operand_collector_num_out_ports_gen                    0 # number of collector unit in ports (default = 0)
-gpgpu_coalesce_arch                   13 # Coalescing arch (default = 13, anything else is off for now)
-gpgpu_num_sched_per_core                    2 # Number of warp schedulers per core
-gpgpu_max_insn_issue_per_warp                    1 # Max number of instructions that can be issued per warp in one cycle by scheduler
-gpgpu_simt_core_sim_order                    1 # Select the simulation order of cores in a cluster (0=Fix, 1=Round-Robin)
-gpgpu_pipeline_widths        2,1,1,2,1,1,2 # Pipeline widths ID_OC_SP,ID_OC_SFU,ID_OC_MEM,OC_EX_SP,OC_EX_SFU,OC_EX_MEM,EX_WB
-gpgpu_num_sp_units                     2 # Number of SP units (default=1)
-gpgpu_num_sfu_units                    1 # Number of SF units (default=1)
-gpgpu_num_mem_units                    1 # Number if ldst units (default=1) WARNING: not hooked up to anything
-gpgpu_scheduler                      lrr # Scheduler configuration: < lrr | gto | two_level_active > If two_level_active:<num_active_warps>:<inner_prioritization>:<outer_prioritization>For complete list of prioritization values see shader.h enum scheduler_prioritization_typeDefault: gto
-gpgpu_dram_scheduler                    1 # 0 = fifo, 1 = FR-FCFS (defaul)
-gpgpu_dram_partition_queues              8:8:8:8 # i2$:$2d:d2$:$2i
-l2_ideal                               0 # Use a ideal L2 cache that always hit
-gpgpu_cache:dl2     64:128:8,L:B:m:W:L,A:32:4,4:0,32 # unified banked L2 data cache config  {<nsets>:<bsize>:<assoc>,<rep>:<wr>:<alloc>:<wr_alloc>,<mshr>:<N>:<merge>,<mq>}
-gpgpu_cache:dl2_texture_only                    0 # L2 cache used for texture only
-gpgpu_n_mem                            6 # number of memory modules (e.g. memory controllers) in gpu
-gpgpu_n_sub_partition_per_mchannel                    2 # number of memory subpartition in each memory module
-gpgpu_n_mem_per_ctrlr                    2 # number of memory chips per memory controller
-gpgpu_memlatency_stat                   14 # track and display latency statistics 0x2 enables MC, 0x4 enables queue logs
-gpgpu_frfcfs_dram_sched_queue_size                   16 # 0 = unlimited (default); # entries per chip
-gpgpu_dram_return_queue_size                  116 # 0 = unlimited (default); # entries per chip
-gpgpu_dram_buswidth                    4 # default = 4 bytes (8 bytes per cycle at DDR)
-gpgpu_dram_burst_length                    8 # Burst length of each DRAM request (default = 4 data bus cycle)
-dram_data_command_freq_ratio                    4 # Frequency ratio between DRAM data bus and command bus (default = 2 times, i.e. DDR)
-gpgpu_dram_timing_opt nbk=16:CCD=2:RRD=6:RCD=12:RAS=28:RP=12:RC=40: CL=12:WL=4:CDLR=5:WR=12:nbkgrp=4:CCDL=3:RTPL=2 # DRAM timing parameters = {nbk:tCCD:tRRD:tRCD:tRAS:tRP:tRC:CL:WL:tCDLR:tWR:nbkgrp:tCCDL:tRTPL}
-rop_latency                          120 # ROP queue latency (default 85)
-dram_latency                         100 # DRAM latency (default 30)
-gpgpu_mem_addr_mapping dramid@8;00000000.00000000.00000000.00000000.0000RRRR.RRRRRRRR.BBBCCCCB.CCSSSSSS # mapping memory address to dram model {dramid@<start bit>;<memory address map>}
-gpgpu_mem_addr_test                    0 # run sweep test to check address mapping for aliased address
-gpgpu_mem_address_mask                    1 # 0 = old addressing mask, 1 = new addressing mask, 2 = new add. mask + flipped bank sel and chip sel bits
-gpuwattch_xml_file  gpuwattch_gtx480.xml # GPUWattch XML file
-power_simulation_enabled                    0 # Turn on power simulator (1=On, 0=Off)
-power_per_cycle_dump                    0 # Dump detailed power output each cycle
-power_trace_enabled                    0 # produce a file for the power trace (1=On, 0=Off)
-power_trace_zlevel                     6 # Compression level of the power trace output log (0=no comp, 9=highest)
-steady_power_levels_enabled                    0 # produce a file for the steady power levels (1=On, 0=Off)
-steady_state_definition                  8:4 # allowed deviation:number of samples
-gpgpu_max_cycle                        0 # terminates gpu simulation early (0 = no limit)
-gpgpu_max_insn                         0 # terminates gpu simulation early (0 = no limit)
-gpgpu_max_cta                          0 # terminates gpu simulation early (0 = no limit)
-gpgpu_runtime_stat                   500 # display runtime statistics such as dram utilization {<freq>:<flag>}
-liveness_message_freq                    1 # Minimum number of seconds between simulation liveness messages (0 = always print)
-gpgpu_flush_l1_cache                    0 # Flush L1 cache at the end of each kernel call
-gpgpu_flush_l2_cache                    0 # Flush L2 cache at the end of each kernel call
-gpgpu_deadlock_detect                    1 # Stop the simulation at deadlock (1=on (default), 0=off)
-gpgpu_ptx_instruction_classification                    0 # if enabled will classify ptx instruction types per kernel (Max 255 kernels now)
-gpgpu_ptx_sim_mode                     0 # Select between Performance (default) or Functional simulation (1)
-gpgpu_clock_domains 700.0:700.0:700.0:924.0 # Clock Domain Frequencies in MhZ {<Core Clock>:<ICNT Clock>:<L2 Clock>:<DRAM Clock>}
-gpgpu_max_concurrent_kernel                    8 # maximum kernels that can run concurrently on GPU
-gpgpu_cflog_interval                    0 # Interval between each snapshot in control flow logger
-visualizer_enabled                     0 # Turn on visualizer output (1=On, 0=Off)
-visualizer_outputfile                 NULL # Specifies the output log file for visualizer
-visualizer_zlevel                      6 # Compression level of the visualizer output log (0=no comp, 9=highest)
-trace_enabled                          0 # Turn on traces
-trace_components                    none # comma seperated list of traces to enable. Complete list found in trace_streams.tup. Default none
-trace_sampling_core                    0 # The core which is printed using CORE_DPRINTF. Default 0
-trace_sampling_memory_partition                   -1 # The memory partition which is printed using MEMPART_DPRINTF. Default -1 (i.e. all)
-enable_ptx_file_line_stats                    1 # Turn on PTX source line statistic profiling. (1 = On)
-ptx_line_stats_filename gpgpu_inst_stats.txt # Output file for PTX source line statistics.
-save_embedded_ptx                      0 # saves ptx files embedded in binary as <n>.ptx
-keep                                   0 # keep intermediate files created by GPGPU-Sim when interfacing with external programs
-gpgpu_ptx_save_converted_ptxplus                    0 # Saved converted ptxplus to a file
-ptx_opcode_latency_int         4,13,4,5,145 # Opcode latencies for integers <ADD,MAX,MUL,MAD,DIV>Default 1,1,19,25,145
-ptx_opcode_latency_fp          4,13,4,5,39 # Opcode latencies for single precision floating points <ADD,MAX,MUL,MAD,DIV>Default 1,1,1,1,30
-ptx_opcode_latency_dp         8,19,8,8,330 # Opcode latencies for double precision floating points <ADD,MAX,MUL,MAD,DIV>Default 8,8,8,8,335
-ptx_opcode_initiation_int            1,2,2,1,8 # Opcode initiation intervals for integers <ADD,MAX,MUL,MAD,DIV>Default 1,1,4,4,32
-ptx_opcode_initiation_fp            1,2,1,1,4 # Opcode initiation intervals for single precision floating points <ADD,MAX,MUL,MAD,DIV>Default 1,1,1,1,5
-ptx_opcode_initiation_dp         8,16,8,8,130 # Opcode initiation intervals for double precision floating points <ADD,MAX,MUL,MAD,DIV>Default 8,8,8,8,130
DRAM Timing Options:
nbk                                    16 # number of banks
CCD                                     2 # column to column delay
RRD                                     6 # minimal delay between activation of rows in different banks
RCD                                    12 # row to column delay
RAS                                    28 # time needed to activate row
RP                                     12 # time needed to precharge (deactivate) row
RC                                     40 # row cycle time
CDLR                                    5 # switching from write to read (changes tWTR)
WR                                     12 # last data-in to row precharge
CL                                     12 # CAS latency
WL                                      4 # Write latency
nbkgrp                                  4 # number of bank groups
CCDL                                    3 # column to column delay between accesses to different bank groups
RTPL                                    2 # read to precharge delay between accesses to different bank groups
Total number of memory sub partition = 12
addr_dec_mask[CHIP]  = 0000000000000000 	high:64 low:0
addr_dec_mask[BK]    = 000000000000e100 	high:16 low:8
addr_dec_mask[ROW]   = 000000000fff0000 	high:28 low:16
addr_dec_mask[COL]   = 0000000000001eff 	high:13 low:0
addr_dec_mask[BURST] = 000000000000003f 	high:6 low:0
sub_partition_id_mask = 0000000000000100
GPGPU-Sim uArch: clock freqs: 700000000.000000:700000000.000000:700000000.000000:924000000.000000
GPGPU-Sim uArch: clock periods: 0.00000000142857142857:0.00000000142857142857:0.00000000142857142857:0.00000000108225108225
*** Initializing Memory Statistics ***
GPGPU-Sim uArch: interconnect node map (shaderID+MemID to icntID)
GPGPU-Sim uArch: Memory nodes ID start from index: 15
GPGPU-Sim uArch:    0   1   2   3   4
GPGPU-Sim uArch:    5   6   7   8   9
GPGPU-Sim uArch:   10  11  12  13  14
GPGPU-Sim uArch:   15  16  17  18  19
GPGPU-Sim uArch:   20  21  22  23  24
GPGPU-Sim uArch:   25  26
GPGPU-Sim uArch: interconnect node reverse map (icntID to shaderID+MemID)
GPGPU-Sim uArch: Memory nodes start from ID: 15
GPGPU-Sim uArch:    0   1   2   3   4
GPGPU-Sim uArch:    5   6   7   8   9
GPGPU-Sim uArch:   10  11  12  13  14
GPGPU-Sim uArch:   15  16  17  18  19
GPGPU-Sim uArch:   20  21  22  23  24
GPGPU-Sim uArch:   25  26
a5bfea9a69faaeaeb73abbaec6868abd  /sciclone/data10/hwang07/adwait/applications/benchmarks/rodinia/cuda/streamcluster/gpgpu_ptx_sim__streamcluster
GPGPU-Sim uArch: performance model initialization complete.
GPGPU-Sim PTX: __cudaRegisterFatBinary, fat_cubin_handle = 1, filename=streamcluster_cuda.cu
self exe links to: /sciclone/data10/hwang07/adwait/applications/benchmarks/rodinia/cuda/streamcluster/gpgpu_ptx_sim__streamcluster
Running md5sum using "md5sum /sciclone/data10/hwang07/adwait/applications/benchmarks/rodinia/cuda/streamcluster/gpgpu_ptx_sim__streamcluster "
Parsing file _cuobjdump_complete_output_fGdyo0
######### cuobjdump parser ########
## Adding new section ELF
Adding arch: sm_20
Adding identifier: streamcluster_cuda.cu
## Adding new section PTX
Adding ptx filename: _cuobjdump_1.ptx
Adding arch: sm_20
Adding identifier: streamcluster_cuda.cu
Done parsing!!!
GPGPU-Sim PTX: __cudaRegisterFunction _Z12pgain_kerneliilP5PointiPfS1_PiPb : hostFun 0x0x404fe3, fat_cubin_handle = 1
GPGPU-Sim PTX: allocating shared region for "coord_s" from 0x0 to 0x0 (shared memory space)
GPGPU-Sim PTX: instruction assembly for function '_Z12pgain_kerneliilP5PointiPfS1_PiPb'...   done.
GPGPU-Sim PTX: finding reconvergence points for '_Z12pgain_kerneliilP5PointiPfS1_PiPb'...
GPGPU-Sim PTX: Finding dominators for '_Z12pgain_kerneliilP5PointiPfS1_PiPb'...
GPGPU-Sim PTX: Finding immediate dominators for '_Z12pgain_kerneliilP5PointiPfS1_PiPb'...
GPGPU-Sim PTX: Finding postdominators for '_Z12pgain_kerneliilP5PointiPfS1_PiPb'...
GPGPU-Sim PTX: Finding immediate postdominators for '_Z12pgain_kerneliilP5PointiPfS1_PiPb'...
GPGPU-Sim PTX: pre-decoding instructions for '_Z12pgain_kerneliilP5PointiPfS1_PiPb'...
GPGPU-Sim PTX: reconvergence points for _Z12pgain_kerneliilP5PointiPfS1_PiPb...
GPGPU-Sim PTX:  1 (potential) branch divergence @  PC=0x030 (_1.ptx:76) @%p2 bra $Lt_0_3842;
GPGPU-Sim PTX:    immediate post dominator      @  PC=0x0e0 (_1.ptx:103) mov.u64 %rd1, coord_s;
GPGPU-Sim PTX:  2 (potential) branch divergence @  PC=0x038 (_1.ptx:77) @!%p1 bra $Lt_0_4354;
GPGPU-Sim PTX:    immediate post dominator      @  PC=0x0d8 (_1.ptx:101) mov.u64 %rd1, coord_s;
GPGPU-Sim PTX:  3 (potential) branch divergence @  PC=0x0d0 (_1.ptx:99) @%p3 bra $Lt_0_4866;
GPGPU-Sim PTX:    immediate post dominator      @  PC=0x0d8 (_1.ptx:101) mov.u64 %rd1, coord_s;
GPGPU-Sim PTX:  4 (potential) branch divergence @  PC=0x110 (_1.ptx:110) @!%p1 bra $Lt_0_7170;
GPGPU-Sim PTX:    immediate post dominator      @  PC=0x218 (_1.ptx:149) ld.param.u64 %rd15, [__cudaparm__Z12pgain_kerneliilP5PointiPfS1_PiPb_p];
GPGPU-Sim PTX:  5 (potential) branch divergence @  PC=0x1d8 (_1.ptx:138) @%p4 bra $Lt_0_5890;
GPGPU-Sim PTX:    immediate post dominator      @  PC=0x1e0 (_1.ptx:139) bra.uni $Lt_0_5378;
GPGPU-Sim PTX:  6 (potential) branch divergence @  PC=0x1e0 (_1.ptx:139) bra.uni $Lt_0_5378;
GPGPU-Sim PTX:    immediate post dominator      @  PC=0x218 (_1.ptx:149) ld.param.u64 %rd15, [__cudaparm__Z12pgain_kerneliilP5PointiPfS1_PiPb_p];
GPGPU-Sim PTX:  7 (potential) branch divergence @  PC=0x288 (_1.ptx:164) @!%p5 bra $Lt_0_6658;
GPGPU-Sim PTX:    immediate post dominator      @  PC=0x358 (_1.ptx:197) exit;
GPGPU-Sim PTX:  8 (potential) branch divergence @  PC=0x2e8 (_1.ptx:178) bra.uni $Lt_0_6402;
GPGPU-Sim PTX:    immediate post dominator      @  PC=0x358 (_1.ptx:197) exit;
GPGPU-Sim PTX: ... end of reconvergence points for _Z12pgain_kerneliilP5PointiPfS1_PiPb
GPGPU-Sim PTX: ... done pre-decoding instructions for '_Z12pgain_kerneliilP5PointiPfS1_PiPb'.
GPGPU-Sim PTX: finished parsing EMBEDDED .ptx file _1.ptx
Adding _cuobjdump_1.ptx with cubin handle 1
GPGPU-Sim PTX: extracting embedded .ptx to temporary file "_ptx_4g8UeR"
Running: cat _ptx_4g8UeR | sed 's/.version 1.5/.version 1.4/' | sed 's/, texmode_independent//' | sed 's/\(\.extern \.const\[1\] .b8 \w\+\)\[\]/\1\[1\]/' | sed 's/const\[.\]/const\[0\]/g' > _ptx2_yesdFU
GPGPU-Sim PTX: generating ptxinfo using "$CUDA_INSTALL_PATH/bin/ptxas --gpu-name=sm_20 -v _ptx2_yesdFU --output-file  /dev/null 2> _ptx_4g8UeRinfo"
GPGPU-Sim PTX: Kernel '_Z12pgain_kerneliilP5PointiPfS1_PiPb' : regs=12, lmem=0, smem=0, cmem=96
GPGPU-Sim PTX: removing ptxinfo using "rm -f _ptx_4g8UeR _ptx2_yesdFU _ptx_4g8UeRinfo"
GPGPU-Sim PTX: loading globals with explicit initializers... 
GPGPU-Sim PTX: finished loading globals (0 bytes total).
GPGPU-Sim PTX: loading constants with explicit initializers...  done.
PARSEC Benchmark Suite

GPGPU-Sim PTX: cudaLaunch for 0x0x404fe3 (mode=performance simulation) on stream 0
GPGPU-Sim PTX: pushing kernel '_Z12pgain_kerneliilP5PointiPfS1_PiPb' to stream 0, gridDim= (128,1,1) blockDim = (512,1,1) 
kernel '_Z12pgain_kerneliilP5PointiPfS1_PiPb' transfer to GPU hardware scheduler
GPGPU-Sim uArch: Shader 1 bind to kernel 1 '_Z12pgain_kerneliilP5PointiPfS1_PiPb'
GPGPU-Sim uArch: CTA/core = 3, limited by: threads
GPGPU-Sim uArch: core:  1, cta: 0 initialized @(1,0)
GPGPU-Sim uArch: Shader 2 bind to kernel 1 '_Z12pgain_kerneliilP5PointiPfS1_PiPb'
GPGPU-Sim uArch: core:  2, cta: 0 initialized @(1,0)
GPGPU-Sim uArch: Shader 3 bind to kernel 1 '_Z12pgain_kerneliilP5PointiPfS1_PiPb'
GPGPU-Sim uArch: core:  3, cta: 0 initialized @(1,0)
GPGPU-Sim uArch: Shader 4 bind to kernel 1 '_Z12pgain_kerneliilP5PointiPfS1_PiPb'
GPGPU-Sim uArch: core:  4, cta: 0 initialized @(1,0)
GPGPU-Sim uArch: Shader 5 bind to kernel 1 '_Z12pgain_kerneliilP5PointiPfS1_PiPb'
GPGPU-Sim uArch: core:  5, cta: 0 initialized @(1,0)
GPGPU-Sim uArch: Shader 6 bind to kernel 1 '_Z12pgain_kerneliilP5PointiPfS1_PiPb'
GPGPU-Sim uArch: core:  6, cta: 0 initialized @(1,0)
GPGPU-Sim uArch: Shader 7 bind to kernel 1 '_Z12pgain_kerneliilP5PointiPfS1_PiPb'
GPGPU-Sim uArch: core:  7, cta: 0 initialized @(1,0)
GPGPU-Sim uArch: Shader 8 bind to kernel 1 '_Z12pgain_kerneliilP5PointiPfS1_PiPb'
GPGPU-Sim uArch: core:  8, cta: 0 initialized @(1,0)
GPGPU-Sim uArch: Shader 9 bind to kernel 1 '_Z12pgain_kerneliilP5PointiPfS1_PiPb'
GPGPU-Sim uArch: core:  9, cta: 0 initialized @(1,0)
GPGPU-Sim uArch: Shader 10 bind to kernel 1 '_Z12pgain_kerneliilP5PointiPfS1_PiPb'
GPGPU-Sim uArch: core: 10, cta: 0 initialized @(1,0)
GPGPU-Sim uArch: Shader 11 bind to kernel 1 '_Z12pgain_kerneliilP5PointiPfS1_PiPb'
GPGPU-Sim uArch: core: 11, cta: 0 initialized @(1,0)
GPGPU-Sim uArch: Shader 12 bind to kernel 1 '_Z12pgain_kerneliilP5PointiPfS1_PiPb'
GPGPU-Sim uArch: core: 12, cta: 0 initialized @(1,0)
GPGPU-Sim uArch: Shader 13 bind to kernel 1 '_Z12pgain_kerneliilP5PointiPfS1_PiPb'
GPGPU-Sim uArch: core: 13, cta: 0 initialized @(1,0)
GPGPU-Sim uArch: Shader 14 bind to kernel 1 '_Z12pgain_kerneliilP5PointiPfS1_PiPb'
GPGPU-Sim uArch: core: 14, cta: 0 initialized @(1,0)
GPGPU-Sim uArch: Shader 0 bind to kernel 1 '_Z12pgain_kerneliilP5PointiPfS1_PiPb'
GPGPU-Sim uArch: core:  0, cta: 0 initialized @(1,0)
GPGPU-Sim uArch: core:  1, cta: 1 initialized @(2,0)
GPGPU-Sim uArch: core:  2, cta: 1 initialized @(2,0)
GPGPU-Sim uArch: core:  3, cta: 1 initialized @(2,0)
GPGPU-Sim uArch: core:  4, cta: 1 initialized @(2,0)
GPGPU-Sim uArch: core:  5, cta: 1 initialized @(2,0)
GPGPU-Sim uArch: core:  6, cta: 1 initialized @(2,0)
GPGPU-Sim uArch: core:  7, cta: 1 initialized @(2,0)
GPGPU-Sim uArch: core:  8, cta: 1 initialized @(2,0)
GPGPU-Sim uArch: core:  9, cta: 1 initialized @(2,0)
GPGPU-Sim uArch: core: 10, cta: 1 initialized @(2,0)
GPGPU-Sim uArch: core: 11, cta: 1 initialized @(2,0)
GPGPU-Sim uArch: core: 12, cta: 1 initialized @(2,0)
GPGPU-Sim uArch: core: 13, cta: 1 initialized @(2,0)
GPGPU-Sim uArch: core: 14, cta: 1 initialized @(2,0)
GPGPU-Sim uArch: core:  0, cta: 1 initialized @(2,0)
GPGPU-Sim uArch: core:  1, cta: 2 initialized @(3,0)
GPGPU-Sim uArch: core:  2, cta: 2 initialized @(3,0)
GPGPU-Sim uArch: core:  3, cta: 2 initialized @(3,0)
GPGPU-Sim uArch: core:  4, cta: 2 initialized @(3,0)
GPGPU-Sim uArch: core:  5, cta: 2 initialized @(3,0)
GPGPU-Sim uArch: core:  6, cta: 2 initialized @(3,0)
GPGPU-Sim uArch: core:  7, cta: 2 initialized @(3,0)
GPGPU-Sim uArch: core:  8, cta: 2 initialized @(3,0)
GPGPU-Sim uArch: core:  9, cta: 2 initialized @(3,0)
GPGPU-Sim uArch: core: 10, cta: 2 initialized @(3,0)
GPGPU-Sim uArch: core: 11, cta: 2 initialized @(3,0)
GPGPU-Sim uArch: core: 12, cta: 2 initialized @(3,0)
GPGPU-Sim uArch: core: 13, cta: 2 initialized @(3,0)
GPGPU-Sim uArch: core: 14, cta: 2 initialized @(3,0)
GPGPU-Sim uArch: core:  0, cta: 2 initialized @(3,0)
GPGPU-Sim uArch: cycles simulated: 500  inst.: 17760 (ipc=35.5) sim_rate=1366 (inst/sec) elapsed = 0:0:00:13 / Tue Mar 22 07:38:49 2016
GPGPU-Sim PTX: 100000 instructions simulated : ctaid=(25,0,0) tid=(447,0,0)
GPGPU-Sim PTX: 200000 instructions simulated : ctaid=(28,0,0) tid=(404,0,0)
GPGPU-Sim uArch: cycles simulated: 1500  inst.: 205290 (ipc=136.9) sim_rate=11405 (inst/sec) elapsed = 0:0:00:18 / Tue Mar 22 07:38:54 2016
GPGPU-Sim uArch: cycles simulated: 4000  inst.: 207810 (ipc=52.0) sim_rate=10937 (inst/sec) elapsed = 0:0:00:19 / Tue Mar 22 07:38:55 2016
GPGPU-Sim uArch: cycles simulated: 8000  inst.: 211905 (ipc=26.5) sim_rate=10595 (inst/sec) elapsed = 0:0:00:20 / Tue Mar 22 07:38:56 2016
GPGPU-Sim uArch: cycles simulated: 12000  inst.: 216000 (ipc=18.0) sim_rate=10285 (inst/sec) elapsed = 0:0:00:21 / Tue Mar 22 07:38:57 2016
GPGPU-Sim uArch: cycles simulated: 16000  inst.: 220095 (ipc=13.8) sim_rate=10004 (inst/sec) elapsed = 0:0:00:22 / Tue Mar 22 07:38:58 2016
GPGPU-Sim uArch: cycles simulated: 20000  inst.: 224190 (ipc=11.2) sim_rate=9747 (inst/sec) elapsed = 0:0:00:23 / Tue Mar 22 07:38:59 2016
GPGPU-Sim uArch: cycles simulated: 25500  inst.: 229860 (ipc= 9.0) sim_rate=9577 (inst/sec) elapsed = 0:0:00:24 / Tue Mar 22 07:39:00 2016
GPGPU-Sim uArch: cycles simulated: 30500  inst.: 234900 (ipc= 7.7) sim_rate=9396 (inst/sec) elapsed = 0:0:00:25 / Tue Mar 22 07:39:01 2016
GPGPU-Sim uArch: cycles simulated: 36000  inst.: 240570 (ipc= 6.7) sim_rate=9252 (inst/sec) elapsed = 0:0:00:26 / Tue Mar 22 07:39:02 2016
GPGPU-Sim uArch: cycles simulated: 41500  inst.: 246240 (ipc= 5.9) sim_rate=9120 (inst/sec) elapsed = 0:0:00:27 / Tue Mar 22 07:39:03 2016
GPGPU-Sim uArch: cycles simulated: 46500  inst.: 251280 (ipc= 5.4) sim_rate=8974 (inst/sec) elapsed = 0:0:00:28 / Tue Mar 22 07:39:04 2016
GPGPU-Sim uArch: cycles simulated: 52000  inst.: 256950 (ipc= 4.9) sim_rate=8860 (inst/sec) elapsed = 0:0:00:29 / Tue Mar 22 07:39:05 2016
GPGPU-Sim uArch: cycles simulated: 57500  inst.: 262620 (ipc= 4.6) sim_rate=8754 (inst/sec) elapsed = 0:0:00:30 / Tue Mar 22 07:39:06 2016
GPGPU-Sim uArch: cycles simulated: 62500  inst.: 267660 (ipc= 4.3) sim_rate=8634 (inst/sec) elapsed = 0:0:00:31 / Tue Mar 22 07:39:07 2016
GPGPU-Sim uArch: cycles simulated: 68000  inst.: 273330 (ipc= 4.0) sim_rate=8541 (inst/sec) elapsed = 0:0:00:32 / Tue Mar 22 07:39:08 2016
GPGPU-Sim uArch: cycles simulated: 73500  inst.: 279000 (ipc= 3.8) sim_rate=8454 (inst/sec) elapsed = 0:0:00:33 / Tue Mar 22 07:39:09 2016
GPGPU-Sim uArch: cycles simulated: 78500  inst.: 284040 (ipc= 3.6) sim_rate=8354 (inst/sec) elapsed = 0:0:00:34 / Tue Mar 22 07:39:10 2016
GPGPU-Sim PTX: 300000 instructions simulated : ctaid=(31,0,0) tid=(493,0,0)
GPGPU-Sim PTX: 400000 instructions simulated : ctaid=(11,0,0) tid=(41,0,0)
GPGPU-Sim PTX: 500000 instructions simulated : ctaid=(7,0,0) tid=(425,0,0)
GPGPU-Sim PTX: 600000 instructions simulated : ctaid=(12,0,0) tid=(393,0,0)
GPGPU-Sim PTX: 700000 instructions simulated : ctaid=(26,0,0) tid=(489,0,0)
GPGPU-Sim PTX: 800000 instructions simulated : ctaid=(42,0,0) tid=(201,0,0)
GPGPU-Sim uArch: cycles simulated: 81000  inst.: 769583 (ipc= 9.5) sim_rate=21988 (inst/sec) elapsed = 0:0:00:35 / Tue Mar 22 07:39:11 2016
GPGPU-Sim PTX: 900000 instructions simulated : ctaid=(13,0,0) tid=(169,0,0)
GPGPU-Sim PTX: 1000000 instructions simulated : ctaid=(0,0,0) tid=(137,0,0)
GPGPU-Sim PTX: 1100000 instructions simulated : ctaid=(5,0,0) tid=(297,0,0)
GPGPU-Sim uArch: cycles simulated: 82000  inst.: 1069807 (ipc=13.0) sim_rate=29716 (inst/sec) elapsed = 0:0:00:36 / Tue Mar 22 07:39:12 2016
GPGPU-Sim PTX: 1200000 instructions simulated : ctaid=(14,0,0) tid=(297,0,0)
GPGPU-Sim PTX: 1300000 instructions simulated : ctaid=(22,0,0) tid=(233,0,0)
GPGPU-Sim PTX: 1400000 instructions simulated : ctaid=(13,0,0) tid=(425,0,0)
GPGPU-Sim uArch: cycles simulated: 83000  inst.: 1433967 (ipc=17.3) sim_rate=38755 (inst/sec) elapsed = 0:0:00:37 / Tue Mar 22 07:39:13 2016
GPGPU-Sim PTX: 1500000 instructions simulated : ctaid=(43,0,0) tid=(201,0,0)
GPGPU-Sim PTX: 1600000 instructions simulated : ctaid=(36,0,0) tid=(361,0,0)
GPGPU-Sim PTX: 1700000 instructions simulated : ctaid=(0,0,0) tid=(201,0,0)
GPGPU-Sim PTX: 1800000 instructions simulated : ctaid=(13,0,0) tid=(201,0,0)
GPGPU-Sim uArch: cycles simulated: 84000  inst.: 1812463 (ipc=21.6) sim_rate=47696 (inst/sec) elapsed = 0:0:00:38 / Tue Mar 22 07:39:14 2016
GPGPU-Sim PTX: 1900000 instructions simulated : ctaid=(28,0,0) tid=(137,0,0)
GPGPU-Sim PTX: 2000000 instructions simulated : ctaid=(5,0,0) tid=(9,0,0)
GPGPU-Sim PTX: 2100000 instructions simulated : ctaid=(16,0,0) tid=(329,0,0)
GPGPU-Sim PTX: 2200000 instructions simulated : ctaid=(36,0,0) tid=(169,0,0)
GPGPU-Sim uArch: cycles simulated: 85000  inst.: 2195471 (ipc=25.8) sim_rate=56294 (inst/sec) elapsed = 0:0:00:39 / Tue Mar 22 07:39:15 2016
GPGPU-Sim PTX: 2300000 instructions simulated : ctaid=(10,0,0) tid=(201,0,0)
GPGPU-Sim PTX: 2400000 instructions simulated : ctaid=(34,0,0) tid=(41,0,0)
GPGPU-Sim PTX: 2500000 instructions simulated : ctaid=(4,0,0) tid=(489,0,0)
GPGPU-Sim PTX: 2600000 instructions simulated : ctaid=(42,0,0) tid=(489,0,0)
GPGPU-Sim uArch: cycles simulated: 86000  inst.: 2574991 (ipc=29.9) sim_rate=64374 (inst/sec) elapsed = 0:0:00:40 / Tue Mar 22 07:39:16 2016
GPGPU-Sim PTX: 2700000 instructions simulated : ctaid=(16,0,0) tid=(329,0,0)
GPGPU-Sim PTX: 2800000 instructions simulated : ctaid=(18,0,0) tid=(297,0,0)
GPGPU-Sim PTX: 2900000 instructions simulated : ctaid=(6,0,0) tid=(329,0,0)
GPGPU-Sim uArch: cycles simulated: 87000  inst.: 2944271 (ipc=33.8) sim_rate=71811 (inst/sec) elapsed = 0:0:00:41 / Tue Mar 22 07:39:17 2016
GPGPU-Sim PTX: 3000000 instructions simulated : ctaid=(37,0,0) tid=(233,0,0)
GPGPU-Sim PTX: 3100000 instructions simulated : ctaid=(5,0,0) tid=(41,0,0)
GPGPU-Sim PTX: 3200000 instructions simulated : ctaid=(27,0,0) tid=(137,0,0)
GPGPU-Sim PTX: 3300000 instructions simulated : ctaid=(39,0,0) tid=(73,0,0)
GPGPU-Sim uArch: cycles simulated: 88000  inst.: 3314927 (ipc=37.7) sim_rate=78926 (inst/sec) elapsed = 0:0:00:42 / Tue Mar 22 07:39:18 2016
GPGPU-Sim PTX: 3400000 instructions simulated : ctaid=(42,0,0) tid=(9,0,0)
GPGPU-Sim PTX: 3500000 instructions simulated : ctaid=(44,0,0) tid=(329,0,0)
GPGPU-Sim PTX: 3600000 instructions simulated : ctaid=(11,0,0) tid=(169,0,0)
GPGPU-Sim PTX: 3700000 instructions simulated : ctaid=(2,0,0) tid=(393,0,0)
GPGPU-Sim uArch: cycles simulated: 89000  inst.: 3689743 (ipc=41.5) sim_rate=85807 (inst/sec) elapsed = 0:0:00:43 / Tue Mar 22 07:39:19 2016
GPGPU-Sim PTX: 3800000 instructions simulated : ctaid=(38,0,0) tid=(169,0,0)
GPGPU-Sim PTX: 3900000 instructions simulated : ctaid=(37,0,0) tid=(9,0,0)
GPGPU-Sim PTX: 4000000 instructions simulated : ctaid=(2,0,0) tid=(233,0,0)
GPGPU-Sim PTX: 4100000 instructions simulated : ctaid=(23,0,0) tid=(9,0,0)
GPGPU-Sim uArch: cycles simulated: 90000  inst.: 4066479 (ipc=45.2) sim_rate=92419 (inst/sec) elapsed = 0:0:00:44 / Tue Mar 22 07:39:20 2016
GPGPU-Sim PTX: 4200000 instructions simulated : ctaid=(19,0,0) tid=(73,0,0)
GPGPU-Sim PTX: 4300000 instructions simulated : ctaid=(34,0,0) tid=(329,0,0)
GPGPU-Sim uArch: cycles simulated: 90500  inst.: 4256303 (ipc=47.0) sim_rate=94584 (inst/sec) elapsed = 0:0:00:45 / Tue Mar 22 07:39:21 2016
GPGPU-Sim PTX: 4400000 instructions simulated : ctaid=(7,0,0) tid=(73,0,0)
GPGPU-Sim PTX: 4500000 instructions simulated : ctaid=(1,0,0) tid=(329,0,0)
GPGPU-Sim PTX: 4600000 instructions simulated : ctaid=(28,0,0) tid=(425,0,0)
GPGPU-Sim uArch: cycles simulated: 91500  inst.: 4621071 (ipc=50.5) sim_rate=100458 (inst/sec) elapsed = 0:0:00:46 / Tue Mar 22 07:39:22 2016
GPGPU-Sim PTX: 4700000 instructions simulated : ctaid=(21,0,0) tid=(329,0,0)
GPGPU-Sim PTX: 4800000 instructions simulated : ctaid=(41,0,0) tid=(233,0,0)
GPGPU-Sim PTX: 4900000 instructions simulated : ctaid=(36,0,0) tid=(41,0,0)
GPGPU-Sim PTX: 5000000 instructions simulated : ctaid=(25,0,0) tid=(297,0,0)
GPGPU-Sim uArch: cycles simulated: 92500  inst.: 4990927 (ipc=54.0) sim_rate=106189 (inst/sec) elapsed = 0:0:00:47 / Tue Mar 22 07:39:23 2016
GPGPU-Sim PTX: 5100000 instructions simulated : ctaid=(1,0,0) tid=(457,0,0)
GPGPU-Sim PTX: 5200000 instructions simulated : ctaid=(22,0,0) tid=(41,0,0)
GPGPU-Sim PTX: 5300000 instructions simulated : ctaid=(22,0,0) tid=(329,0,0)
GPGPU-Sim PTX: 5400000 instructions simulated : ctaid=(14,0,0) tid=(169,0,0)
GPGPU-Sim uArch: cycles simulated: 93500  inst.: 5366959 (ipc=57.4) sim_rate=111811 (inst/sec) elapsed = 0:0:00:48 / Tue Mar 22 07:39:24 2016
GPGPU-Sim PTX: 5500000 instructions simulated : ctaid=(17,0,0) tid=(457,0,0)
GPGPU-Sim PTX: 5600000 instructions simulated : ctaid=(39,0,0) tid=(73,0,0)
GPGPU-Sim PTX: 5700000 instructions simulated : ctaid=(33,0,0) tid=(489,0,0)
GPGPU-Sim uArch: cycles simulated: 94500  inst.: 5730607 (ipc=60.6) sim_rate=116951 (inst/sec) elapsed = 0:0:00:49 / Tue Mar 22 07:39:25 2016
GPGPU-Sim PTX: 5800000 instructions simulated : ctaid=(4,0,0) tid=(9,0,0)
GPGPU-Sim PTX: 5900000 instructions simulated : ctaid=(20,0,0) tid=(297,0,0)
GPGPU-Sim PTX: 6000000 instructions simulated : ctaid=(17,0,0) tid=(233,0,0)
GPGPU-Sim PTX: 6100000 instructions simulated : ctaid=(3,0,0) tid=(457,0,0)
GPGPU-Sim uArch: cycles simulated: 95500  inst.: 6105679 (ipc=63.9) sim_rate=122113 (inst/sec) elapsed = 0:0:00:50 / Tue Mar 22 07:39:26 2016
GPGPU-Sim PTX: 6200000 instructions simulated : ctaid=(26,0,0) tid=(329,0,0)
GPGPU-Sim PTX: 6300000 instructions simulated : ctaid=(27,0,0) tid=(41,0,0)
GPGPU-Sim PTX: 6400000 instructions simulated : ctaid=(31,0,0) tid=(393,0,0)
GPGPU-Sim PTX: 6500000 instructions simulated : ctaid=(22,0,0) tid=(329,0,0)
GPGPU-Sim uArch: cycles simulated: 96500  inst.: 6475343 (ipc=67.1) sim_rate=126967 (inst/sec) elapsed = 0:0:00:51 / Tue Mar 22 07:39:27 2016
GPGPU-Sim PTX: 6600000 instructions simulated : ctaid=(7,0,0) tid=(393,0,0)
GPGPU-Sim PTX: 6700000 instructions simulated : ctaid=(4,0,0) tid=(9,0,0)
GPGPU-Sim PTX: 6800000 instructions simulated : ctaid=(29,0,0) tid=(105,0,0)
GPGPU-Sim uArch: cycles simulated: 97500  inst.: 6840047 (ipc=70.2) sim_rate=131539 (inst/sec) elapsed = 0:0:00:52 / Tue Mar 22 07:39:28 2016
GPGPU-Sim PTX: 6900000 instructions simulated : ctaid=(5,0,0) tid=(105,0,0)
GPGPU-Sim PTX: 7000000 instructions simulated : ctaid=(17,0,0) tid=(169,0,0)
GPGPU-Sim PTX: 7100000 instructions simulated : ctaid=(41,0,0) tid=(425,0,0)
GPGPU-Sim PTX: 7200000 instructions simulated : ctaid=(24,0,0) tid=(425,0,0)
GPGPU-Sim uArch: cycles simulated: 98500  inst.: 7214383 (ipc=73.2) sim_rate=136120 (inst/sec) elapsed = 0:0:00:53 / Tue Mar 22 07:39:29 2016
GPGPU-Sim PTX: 7300000 instructions simulated : ctaid=(10,0,0) tid=(329,0,0)
GPGPU-Sim PTX: 7400000 instructions simulated : ctaid=(6,0,0) tid=(9,0,0)
GPGPU-Sim PTX: 7500000 instructions simulated : ctaid=(39,0,0) tid=(41,0,0)
GPGPU-Sim PTX: 7600000 instructions simulated : ctaid=(31,0,0) tid=(41,0,0)
GPGPU-Sim uArch: cycles simulated: 99500  inst.: 7591471 (ipc=76.3) sim_rate=140582 (inst/sec) elapsed = 0:0:00:54 / Tue Mar 22 07:39:30 2016
GPGPU-Sim PTX: 7700000 instructions simulated : ctaid=(26,0,0) tid=(9,0,0)
GPGPU-Sim PTX: 7800000 instructions simulated : ctaid=(27,0,0) tid=(457,0,0)
GPGPU-Sim PTX: 7900000 instructions simulated : ctaid=(27,0,0) tid=(265,0,0)
GPGPU-Sim PTX: 8000000 instructions simulated : ctaid=(28,0,0) tid=(73,0,0)
GPGPU-Sim uArch: cycles simulated: 100500  inst.: 7956047 (ipc=79.2) sim_rate=144655 (inst/sec) elapsed = 0:0:00:55 / Tue Mar 22 07:39:31 2016
GPGPU-Sim PTX: 8100000 instructions simulated : ctaid=(5,0,0) tid=(361,0,0)
GPGPU-Sim PTX: 8200000 instructions simulated : ctaid=(16,0,0) tid=(201,0,0)
GPGPU-Sim PTX: 8300000 instructions simulated : ctaid=(14,0,0) tid=(9,0,0)
GPGPU-Sim uArch: cycles simulated: 101500  inst.: 8331695 (ipc=82.1) sim_rate=148780 (inst/sec) elapsed = 0:0:00:56 / Tue Mar 22 07:39:32 2016
GPGPU-Sim PTX: 8400000 instructions simulated : ctaid=(15,0,0) tid=(41,0,0)
GPGPU-Sim PTX: 8500000 instructions simulated : ctaid=(38,0,0) tid=(105,0,0)
GPGPU-Sim PTX: 8600000 instructions simulated : ctaid=(1,0,0) tid=(489,0,0)
GPGPU-Sim PTX: 8700000 instructions simulated : ctaid=(30,0,0) tid=(425,0,0)
GPGPU-Sim uArch: cycles simulated: 102500  inst.: 8704143 (ipc=84.9) sim_rate=152704 (inst/sec) elapsed = 0:0:00:57 / Tue Mar 22 07:39:33 2016
GPGPU-Sim PTX: 8800000 instructions simulated : ctaid=(44,0,0) tid=(169,0,0)
GPGPU-Sim PTX: 8900000 instructions simulated : ctaid=(33,0,0) tid=(41,0,0)
GPGPU-Sim PTX: 9000000 instructions simulated : ctaid=(43,0,0) tid=(41,0,0)
GPGPU-Sim PTX: 9100000 instructions simulated : ctaid=(9,0,0) tid=(457,0,0)
GPGPU-Sim uArch: cycles simulated: 103500  inst.: 9069871 (ipc=87.6) sim_rate=156377 (inst/sec) elapsed = 0:0:00:58 / Tue Mar 22 07:39:34 2016
GPGPU-Sim PTX: 9200000 instructions simulated : ctaid=(18,0,0) tid=(425,0,0)
GPGPU-Sim PTX: 9300000 instructions simulated : ctaid=(18,0,0) tid=(233,0,0)
GPGPU-Sim PTX: 9400000 instructions simulated : ctaid=(20,0,0) tid=(393,0,0)
GPGPU-Sim uArch: cycles simulated: 104500  inst.: 9443023 (ipc=90.4) sim_rate=160051 (inst/sec) elapsed = 0:0:00:59 / Tue Mar 22 07:39:35 2016
GPGPU-Sim PTX: 9500000 instructions simulated : ctaid=(14,0,0) tid=(9,0,0)
GPGPU-Sim PTX: 9600000 instructions simulated : ctaid=(27,0,0) tid=(41,0,0)
GPGPU-Sim PTX: 9700000 instructions simulated : ctaid=(40,0,0) tid=(201,0,0)
GPGPU-Sim PTX: 9800000 instructions simulated : ctaid=(41,0,0) tid=(201,0,0)
GPGPU-Sim uArch: cycles simulated: 105500  inst.: 9815087 (ipc=93.0) sim_rate=163584 (inst/sec) elapsed = 0:0:01:00 / Tue Mar 22 07:39:36 2016
GPGPU-Sim PTX: 9900000 instructions simulated : ctaid=(16,0,0) tid=(201,0,0)
GPGPU-Sim PTX: 10000000 instructions simulated : ctaid=(18,0,0) tid=(425,0,0)
GPGPU-Sim PTX: 10100000 instructions simulated : ctaid=(41,0,0) tid=(265,0,0)
GPGPU-Sim PTX: 10200000 instructions simulated : ctaid=(0,0,0) tid=(457,0,0)
GPGPU-Sim uArch: cycles simulated: 106500  inst.: 10191087 (ipc=95.7) sim_rate=167067 (inst/sec) elapsed = 0:0:01:01 / Tue Mar 22 07:39:37 2016
GPGPU-Sim PTX: 10300000 instructions simulated : ctaid=(16,0,0) tid=(425,0,0)
GPGPU-Sim PTX: 10400000 instructions simulated : ctaid=(41,0,0) tid=(41,0,0)
GPGPU-Sim uArch: cycles simulated: 107000  inst.: 10387119 (ipc=97.1) sim_rate=167534 (inst/sec) elapsed = 0:0:01:02 / Tue Mar 22 07:39:38 2016
GPGPU-Sim PTX: 10500000 instructions simulated : ctaid=(32,0,0) tid=(73,0,0)
GPGPU-Sim PTX: 10600000 instructions simulated : ctaid=(16,0,0) tid=(9,0,0)
GPGPU-Sim PTX: 10700000 instructions simulated : ctaid=(17,0,0) tid=(361,0,0)
GPGPU-Sim PTX: 10800000 instructions simulated : ctaid=(19,0,0) tid=(201,0,0)
GPGPU-Sim uArch: cycles simulated: 108000  inst.: 10760847 (ipc=99.6) sim_rate=170807 (inst/sec) elapsed = 0:0:01:03 / Tue Mar 22 07:39:39 2016
GPGPU-Sim PTX: 10900000 instructions simulated : ctaid=(20,0,0) tid=(329,0,0)
GPGPU-Sim PTX: 11000000 instructions simulated : ctaid=(14,0,0) tid=(9,0,0)
GPGPU-Sim PTX: 11100000 instructions simulated : ctaid=(18,0,0) tid=(393,0,0)
GPGPU-Sim uArch: cycles simulated: 109000  inst.: 11136207 (ipc=102.2) sim_rate=174003 (inst/sec) elapsed = 0:0:01:04 / Tue Mar 22 07:39:40 2016
GPGPU-Sim PTX: 11200000 instructions simulated : ctaid=(4,0,0) tid=(9,0,0)
GPGPU-Sim PTX: 11300000 instructions simulated : ctaid=(16,0,0) tid=(393,0,0)
GPGPU-Sim PTX: 11400000 instructions simulated : ctaid=(23,0,0) tid=(457,0,0)
GPGPU-Sim PTX: 11500000 instructions simulated : ctaid=(43,0,0) tid=(297,0,0)
GPGPU-Sim uArch: cycles simulated: 110000  inst.: 11512431 (ipc=104.7) sim_rate=177114 (inst/sec) elapsed = 0:0:01:05 / Tue Mar 22 07:39:41 2016
GPGPU-Sim PTX: 11600000 instructions simulated : ctaid=(40,0,0) tid=(457,0,0)
GPGPU-Sim PTX: 11700000 instructions simulated : ctaid=(22,0,0) tid=(233,0,0)
GPGPU-Sim PTX: 11800000 instructions simulated : ctaid=(25,0,0) tid=(9,0,0)
GPGPU-Sim PTX: 11900000 instructions simulated : ctaid=(44,0,0) tid=(329,0,0)
GPGPU-Sim uArch: cycles simulated: 111000  inst.: 11889743 (ipc=107.1) sim_rate=180147 (inst/sec) elapsed = 0:0:01:06 / Tue Mar 22 07:39:42 2016
GPGPU-Sim PTX: 12000000 instructions simulated : ctaid=(31,0,0) tid=(169,0,0)
GPGPU-Sim PTX: 12100000 instructions simulated : ctaid=(30,0,0) tid=(297,0,0)
GPGPU-Sim uArch: cycles simulated: 111500  inst.: 12071791 (ipc=108.3) sim_rate=180175 (inst/sec) elapsed = 0:0:01:07 / Tue Mar 22 07:39:43 2016
GPGPU-Sim PTX: 12200000 instructions simulated : ctaid=(10,0,0) tid=(201,0,0)
GPGPU-Sim PTX: 12300000 instructions simulated : ctaid=(5,0,0) tid=(169,0,0)
GPGPU-Sim PTX: 12400000 instructions simulated : ctaid=(21,0,0) tid=(105,0,0)
GPGPU-Sim uArch: cycles simulated: 112500  inst.: 12442959 (ipc=110.6) sim_rate=182984 (inst/sec) elapsed = 0:0:01:08 / Tue Mar 22 07:39:44 2016
GPGPU-Sim PTX: 12500000 instructions simulated : ctaid=(15,0,0) tid=(73,0,0)
GPGPU-Sim PTX: 12600000 instructions simulated : ctaid=(6,0,0) tid=(105,0,0)
GPGPU-Sim uArch: cycles simulated: 113000  inst.: 12624815 (ipc=111.7) sim_rate=182968 (inst/sec) elapsed = 0:0:01:09 / Tue Mar 22 07:39:45 2016
GPGPU-Sim PTX: 12700000 instructions simulated : ctaid=(15,0,0) tid=(393,0,0)
GPGPU-Sim PTX: 12800000 instructions simulated : ctaid=(40,0,0) tid=(329,0,0)
GPGPU-Sim uArch: cycles simulated: 113500  inst.: 12810959 (ipc=112.9) sim_rate=183013 (inst/sec) elapsed = 0:0:01:10 / Tue Mar 22 07:39:46 2016
GPGPU-Sim PTX: 12900000 instructions simulated : ctaid=(20,0,0) tid=(329,0,0)
GPGPU-Sim PTX: 13000000 instructions simulated : ctaid=(25,0,0) tid=(297,0,0)
GPGPU-Sim PTX: 13100000 instructions simulated : ctaid=(31,0,0) tid=(265,0,0)
GPGPU-Sim PTX: 13200000 instructions simulated : ctaid=(40,0,0) tid=(457,0,0)
GPGPU-Sim uArch: cycles simulated: 114500  inst.: 13183631 (ipc=115.1) sim_rate=185684 (inst/sec) elapsed = 0:0:01:11 / Tue Mar 22 07:39:47 2016
GPGPU-Sim PTX: 13300000 instructions simulated : ctaid=(8,0,0) tid=(393,0,0)
GPGPU-Sim PTX: 13400000 instructions simulated : ctaid=(33,0,0) tid=(201,0,0)
GPGPU-Sim uArch: cycles simulated: 115000  inst.: 13365647 (ipc=116.2) sim_rate=185633 (inst/sec) elapsed = 0:0:01:12 / Tue Mar 22 07:39:48 2016
GPGPU-Sim PTX: 13500000 instructions simulated : ctaid=(25,0,0) tid=(201,0,0)
GPGPU-Sim uArch: cycles simulated: 115500  inst.: 13550991 (ipc=117.3) sim_rate=185630 (inst/sec) elapsed = 0:0:01:13 / Tue Mar 22 07:39:49 2016
GPGPU-Sim PTX: 13600000 instructions simulated : ctaid=(1,0,0) tid=(457,0,0)
GPGPU-Sim PTX: 13700000 instructions simulated : ctaid=(34,0,0) tid=(73,0,0)
GPGPU-Sim uArch: cycles simulated: 116000  inst.: 13735567 (ipc=118.4) sim_rate=185615 (inst/sec) elapsed = 0:0:01:14 / Tue Mar 22 07:39:50 2016
GPGPU-Sim PTX: 13800000 instructions simulated : ctaid=(20,0,0) tid=(137,0,0)
GPGPU-Sim PTX: 13900000 instructions simulated : ctaid=(33,0,0) tid=(329,0,0)
GPGPU-Sim PTX: 14000000 instructions simulated : ctaid=(16,0,0) tid=(9,0,0)
GPGPU-Sim PTX: 14100000 instructions simulated : ctaid=(29,0,0) tid=(201,0,0)
GPGPU-Sim uArch: cycles simulated: 117000  inst.: 14098095 (ipc=120.5) sim_rate=187974 (inst/sec) elapsed = 0:0:01:15 / Tue Mar 22 07:39:51 2016
GPGPU-Sim PTX: 14200000 instructions simulated : ctaid=(25,0,0) tid=(361,0,0)
GPGPU-Sim PTX: 14300000 instructions simulated : ctaid=(23,0,0) tid=(233,0,0)
GPGPU-Sim uArch: cycles simulated: 117500  inst.: 14280911 (ipc=121.5) sim_rate=187906 (inst/sec) elapsed = 0:0:01:16 / Tue Mar 22 07:39:52 2016
GPGPU-Sim PTX: 14400000 instructions simulated : ctaid=(24,0,0) tid=(329,0,0)
GPGPU-Sim PTX: 14500000 instructions simulated : ctaid=(5,0,0) tid=(233,0,0)
GPGPU-Sim uArch: cycles simulated: 118000  inst.: 14469967 (ipc=122.6) sim_rate=187921 (inst/sec) elapsed = 0:0:01:17 / Tue Mar 22 07:39:53 2016
GPGPU-Sim PTX: 14600000 instructions simulated : ctaid=(29,0,0) tid=(201,0,0)
GPGPU-Sim PTX: 14700000 instructions simulated : ctaid=(39,0,0) tid=(137,0,0)
GPGPU-Sim PTX: 14800000 instructions simulated : ctaid=(1,0,0) tid=(73,0,0)
GPGPU-Sim uArch: cycles simulated: 119000  inst.: 14851695 (ipc=124.8) sim_rate=190406 (inst/sec) elapsed = 0:0:01:18 / Tue Mar 22 07:39:54 2016
GPGPU-Sim PTX: 14900000 instructions simulated : ctaid=(27,0,0) tid=(169,0,0)
GPGPU-Sim PTX: 15000000 instructions simulated : ctaid=(11,0,0) tid=(73,0,0)
GPGPU-Sim uArch: cycles simulated: 119500  inst.: 15039695 (ipc=125.9) sim_rate=190375 (inst/sec) elapsed = 0:0:01:19 / Tue Mar 22 07:39:55 2016
GPGPU-Sim PTX: 15100000 instructions simulated : ctaid=(24,0,0) tid=(137,0,0)
GPGPU-Sim PTX: 15200000 instructions simulated : ctaid=(13,0,0) tid=(137,0,0)
GPGPU-Sim uArch: cycles simulated: 120000  inst.: 15229519 (ipc=126.9) sim_rate=190368 (inst/sec) elapsed = 0:0:01:20 / Tue Mar 22 07:39:56 2016
GPGPU-Sim PTX: 15300000 instructions simulated : ctaid=(20,0,0) tid=(265,0,0)
GPGPU-Sim PTX: 15400000 instructions simulated : ctaid=(1,0,0) tid=(73,0,0)
GPGPU-Sim PTX: 15500000 instructions simulated : ctaid=(8,0,0) tid=(41,0,0)
GPGPU-Sim PTX: 15600000 instructions simulated : ctaid=(20,0,0) tid=(41,0,0)
GPGPU-Sim uArch: cycles simulated: 121000  inst.: 15607023 (ipc=129.0) sim_rate=192679 (inst/sec) elapsed = 0:0:01:21 / Tue Mar 22 07:39:57 2016
GPGPU-Sim PTX: 15700000 instructions simulated : ctaid=(19,0,0) tid=(457,0,0)
GPGPU-Sim PTX: 15800000 instructions simulated : ctaid=(6,0,0) tid=(201,0,0)
GPGPU-Sim uArch: cycles simulated: 121500  inst.: 15800239 (ipc=130.0) sim_rate=192685 (inst/sec) elapsed = 0:0:01:22 / Tue Mar 22 07:39:58 2016
GPGPU-Sim PTX: 15900000 instructions simulated : ctaid=(23,0,0) tid=(201,0,0)
GPGPU-Sim PTX: 16000000 instructions simulated : ctaid=(42,0,0) tid=(41,0,0)
GPGPU-Sim uArch: cycles simulated: 122000  inst.: 15990767 (ipc=131.1) sim_rate=192659 (inst/sec) elapsed = 0:0:01:23 / Tue Mar 22 07:39:59 2016
GPGPU-Sim PTX: 16100000 instructions simulated : ctaid=(41,0,0) tid=(329,0,0)
GPGPU-Sim PTX: 16200000 instructions simulated : ctaid=(30,0,0) tid=(137,0,0)
GPGPU-Sim PTX: 16300000 instructions simulated : ctaid=(2,0,0) tid=(73,0,0)
GPGPU-Sim PTX: 16400000 instructions simulated : ctaid=(38,0,0) tid=(9,0,0)
GPGPU-Sim uArch: cycles simulated: 123000  inst.: 16358575 (ipc=133.0) sim_rate=194744 (inst/sec) elapsed = 0:0:01:24 / Tue Mar 22 07:40:00 2016
GPGPU-Sim PTX: 16500000 instructions simulated : ctaid=(5,0,0) tid=(393,0,0)
GPGPU-Sim uArch: cycles simulated: 123500  inst.: 16544399 (ipc=134.0) sim_rate=194639 (inst/sec) elapsed = 0:0:01:25 / Tue Mar 22 07:40:01 2016
GPGPU-Sim PTX: 16600000 instructions simulated : ctaid=(23,0,0) tid=(233,0,0)
GPGPU-Sim PTX: 16700000 instructions simulated : ctaid=(28,0,0) tid=(457,0,0)
GPGPU-Sim PTX: 16800000 instructions simulated : ctaid=(14,0,0) tid=(361,0,0)
GPGPU-Sim PTX: 16900000 instructions simulated : ctaid=(20,0,0) tid=(329,0,0)
GPGPU-Sim uArch: cycles simulated: 124500  inst.: 16926639 (ipc=136.0) sim_rate=196821 (inst/sec) elapsed = 0:0:01:26 / Tue Mar 22 07:40:02 2016
GPGPU-Sim PTX: 17000000 instructions simulated : ctaid=(39,0,0) tid=(457,0,0)
GPGPU-Sim PTX: 17100000 instructions simulated : ctaid=(30,0,0) tid=(457,0,0)
GPGPU-Sim uArch: cycles simulated: 125000  inst.: 17122095 (ipc=137.0) sim_rate=196805 (inst/sec) elapsed = 0:0:01:27 / Tue Mar 22 07:40:03 2016
GPGPU-Sim PTX: 17200000 instructions simulated : ctaid=(38,0,0) tid=(9,0,0)
GPGPU-Sim PTX: 17300000 instructions simulated : ctaid=(22,0,0) tid=(201,0,0)
GPGPU-Sim uArch: cycles simulated: 125500  inst.: 17314159 (ipc=138.0) sim_rate=196751 (inst/sec) elapsed = 0:0:01:28 / Tue Mar 22 07:40:04 2016
GPGPU-Sim PTX: 17400000 instructions simulated : ctaid=(13,0,0) tid=(361,0,0)
GPGPU-Sim PTX: 17500000 instructions simulated : ctaid=(34,0,0) tid=(73,0,0)
GPGPU-Sim uArch: cycles simulated: 126000  inst.: 17504655 (ipc=138.9) sim_rate=196681 (inst/sec) elapsed = 0:0:01:29 / Tue Mar 22 07:40:05 2016
GPGPU-Sim PTX: 17600000 instructions simulated : ctaid=(33,0,0) tid=(361,0,0)
GPGPU-Sim PTX: 17700000 instructions simulated : ctaid=(35,0,0) tid=(489,0,0)
GPGPU-Sim PTX: 17800000 instructions simulated : ctaid=(14,0,0) tid=(137,0,0)
GPGPU-Sim PTX: 17900000 instructions simulated : ctaid=(15,0,0) tid=(41,0,0)
GPGPU-Sim uArch: cycles simulated: 127000  inst.: 17881583 (ipc=140.8) sim_rate=198684 (inst/sec) elapsed = 0:0:01:30 / Tue Mar 22 07:40:06 2016
GPGPU-Sim PTX: 18000000 instructions simulated : ctaid=(1,0,0) tid=(329,0,0)
GPGPU-Sim uArch: cycles simulated: 127500  inst.: 18052655 (ipc=141.6) sim_rate=198380 (inst/sec) elapsed = 0:0:01:31 / Tue Mar 22 07:40:07 2016
GPGPU-Sim PTX: 18100000 instructions simulated : ctaid=(18,0,0) tid=(41,0,0)
GPGPU-Sim PTX: 18200000 instructions simulated : ctaid=(19,0,0) tid=(9,0,0)
GPGPU-Sim uArch: cycles simulated: 128000  inst.: 18240431 (ipc=142.5) sim_rate=198265 (inst/sec) elapsed = 0:0:01:32 / Tue Mar 22 07:40:08 2016
GPGPU-Sim PTX: 18300000 instructions simulated : ctaid=(30,0,0) tid=(73,0,0)
GPGPU-Sim PTX: 18400000 instructions simulated : ctaid=(23,0,0) tid=(457,0,0)
GPGPU-Sim PTX: 18500000 instructions simulated : ctaid=(19,0,0) tid=(297,0,0)
GPGPU-Sim PTX: 18600000 instructions simulated : ctaid=(30,0,0) tid=(393,0,0)
GPGPU-Sim uArch: cycles simulated: 129000  inst.: 18619471 (ipc=144.3) sim_rate=200209 (inst/sec) elapsed = 0:0:01:33 / Tue Mar 22 07:40:09 2016
GPGPU-Sim PTX: 18700000 instructions simulated : ctaid=(39,0,0) tid=(41,0,0)
GPGPU-Sim PTX: 18800000 instructions simulated : ctaid=(20,0,0) tid=(425,0,0)
GPGPU-Sim uArch: cycles simulated: 129500  inst.: 18808623 (ipc=145.2) sim_rate=200091 (inst/sec) elapsed = 0:0:01:34 / Tue Mar 22 07:40:10 2016
GPGPU-Sim PTX: 18900000 instructions simulated : ctaid=(3,0,0) tid=(201,0,0)
GPGPU-Sim PTX: 19000000 instructions simulated : ctaid=(3,0,0) tid=(9,0,0)
GPGPU-Sim uArch: cycles simulated: 130000  inst.: 18988655 (ipc=146.1) sim_rate=199880 (inst/sec) elapsed = 0:0:01:35 / Tue Mar 22 07:40:11 2016
GPGPU-Sim PTX: 19100000 instructions simulated : ctaid=(17,0,0) tid=(329,0,0)
GPGPU-Sim PTX: 19200000 instructions simulated : ctaid=(17,0,0) tid=(265,0,0)
GPGPU-Sim PTX: 19300000 instructions simulated : ctaid=(10,0,0) tid=(489,0,0)
GPGPU-Sim PTX: 19400000 instructions simulated : ctaid=(9,0,0) tid=(393,0,0)
GPGPU-Sim uArch: cycles simulated: 131000  inst.: 19361679 (ipc=147.8) sim_rate=201684 (inst/sec) elapsed = 0:0:01:36 / Tue Mar 22 07:40:12 2016
GPGPU-Sim PTX: 19500000 instructions simulated : ctaid=(9,0,0) tid=(233,0,0)
GPGPU-Sim uArch: cycles simulated: 131500  inst.: 19541903 (ipc=148.6) sim_rate=201462 (inst/sec) elapsed = 0:0:01:37 / Tue Mar 22 07:40:13 2016
GPGPU-Sim PTX: 19600000 instructions simulated : ctaid=(35,0,0) tid=(489,0,0)
GPGPU-Sim PTX: 19700000 instructions simulated : ctaid=(30,0,0) tid=(169,0,0)
GPGPU-Sim uArch: cycles simulated: 132000  inst.: 19726767 (ipc=149.4) sim_rate=201293 (inst/sec) elapsed = 0:0:01:38 / Tue Mar 22 07:40:14 2016
GPGPU-Sim PTX: 19800000 instructions simulated : ctaid=(16,0,0) tid=(169,0,0)
GPGPU-Sim PTX: 19900000 instructions simulated : ctaid=(19,0,0) tid=(233,0,0)
GPGPU-Sim PTX: 20000000 instructions simulated : ctaid=(9,0,0) tid=(297,0,0)
GPGPU-Sim PTX: 20100000 instructions simulated : ctaid=(24,0,0) tid=(41,0,0)
GPGPU-Sim uArch: cycles simulated: 133000  inst.: 20110159 (ipc=151.2) sim_rate=203132 (inst/sec) elapsed = 0:0:01:39 / Tue Mar 22 07:40:15 2016
GPGPU-Sim PTX: 20200000 instructions simulated : ctaid=(41,0,0) tid=(329,0,0)
GPGPU-Sim PTX: 20300000 instructions simulated : ctaid=(32,0,0) tid=(9,0,0)
GPGPU-Sim uArch: cycles simulated: 133500  inst.: 20296335 (ipc=152.0) sim_rate=202963 (inst/sec) elapsed = 0:0:01:40 / Tue Mar 22 07:40:16 2016
GPGPU-Sim PTX: 20400000 instructions simulated : ctaid=(5,0,0) tid=(265,0,0)
GPGPU-Sim PTX: 20500000 instructions simulated : ctaid=(44,0,0) tid=(489,0,0)
GPGPU-Sim uArch: cycles simulated: 134000  inst.: 20478671 (ipc=152.8) sim_rate=202759 (inst/sec) elapsed = 0:0:01:41 / Tue Mar 22 07:40:17 2016
GPGPU-Sim PTX: 20600000 instructions simulated : ctaid=(32,0,0) tid=(73,0,0)
GPGPU-Sim PTX: 20700000 instructions simulated : ctaid=(38,0,0) tid=(329,0,0)
GPGPU-Sim uArch: cycles simulated: 134500  inst.: 20663535 (ipc=153.6) sim_rate=202583 (inst/sec) elapsed = 0:0:01:42 / Tue Mar 22 07:40:18 2016
GPGPU-Sim PTX: 20800000 instructions simulated : ctaid=(31,0,0) tid=(361,0,0)
GPGPU-Sim PTX: 20900000 instructions simulated : ctaid=(5,0,0) tid=(137,0,0)
GPGPU-Sim PTX: 21000000 instructions simulated : ctaid=(33,0,0) tid=(457,0,0)
GPGPU-Sim uArch: cycles simulated: 135500  inst.: 21046095 (ipc=155.3) sim_rate=204331 (inst/sec) elapsed = 0:0:01:43 / Tue Mar 22 07:40:19 2016
GPGPU-Sim PTX: 21100000 instructions simulated : ctaid=(16,0,0) tid=(201,0,0)
GPGPU-Sim PTX: 21200000 instructions simulated : ctaid=(34,0,0) tid=(9,0,0)
GPGPU-Sim uArch: cycles simulated: 136000  inst.: 21228111 (ipc=156.1) sim_rate=204116 (inst/sec) elapsed = 0:0:01:44 / Tue Mar 22 07:40:20 2016
GPGPU-Sim PTX: 21300000 instructions simulated : ctaid=(34,0,0) tid=(361,0,0)
GPGPU-Sim PTX: 21400000 instructions simulated : ctaid=(39,0,0) tid=(457,0,0)
GPGPU-Sim uArch: cycles simulated: 136500  inst.: 21413647 (ipc=156.9) sim_rate=203939 (inst/sec) elapsed = 0:0:01:45 / Tue Mar 22 07:40:21 2016
GPGPU-Sim PTX: 21500000 instructions simulated : ctaid=(29,0,0) tid=(105,0,0)
GPGPU-Sim PTX: 21600000 instructions simulated : ctaid=(41,0,0) tid=(41,0,0)
GPGPU-Sim PTX: 21700000 instructions simulated : ctaid=(6,0,0) tid=(457,0,0)
GPGPU-Sim PTX: 21800000 instructions simulated : ctaid=(5,0,0) tid=(201,0,0)
GPGPU-Sim uArch: cycles simulated: 137500  inst.: 21782735 (ipc=158.4) sim_rate=205497 (inst/sec) elapsed = 0:0:01:46 / Tue Mar 22 07:40:22 2016
GPGPU-Sim PTX: 21900000 instructions simulated : ctaid=(0,0,0) tid=(393,0,0)
GPGPU-Sim PTX: 22000000 instructions simulated : ctaid=(1,0,0) tid=(105,0,0)
GPGPU-Sim uArch: cycles simulated: 138000  inst.: 21960367 (ipc=159.1) sim_rate=205237 (inst/sec) elapsed = 0:0:01:47 / Tue Mar 22 07:40:23 2016
GPGPU-Sim PTX: 22100000 instructions simulated : ctaid=(9,0,0) tid=(105,0,0)
GPGPU-Sim uArch: cycles simulated: 138500  inst.: 22140399 (ipc=159.9) sim_rate=205003 (inst/sec) elapsed = 0:0:01:48 / Tue Mar 22 07:40:24 2016
GPGPU-Sim PTX: 22200000 instructions simulated : ctaid=(9,0,0) tid=(329,0,0)
GPGPU-Sim PTX: 22300000 instructions simulated : ctaid=(24,0,0) tid=(457,0,0)
GPGPU-Sim PTX: 22400000 instructions simulated : ctaid=(0,0,0) tid=(201,0,0)
GPGPU-Sim PTX: 22500000 instructions simulated : ctaid=(32,0,0) tid=(265,0,0)
GPGPU-Sim uArch: cycles simulated: 139500  inst.: 22519119 (ipc=161.4) sim_rate=206597 (inst/sec) elapsed = 0:0:01:49 / Tue Mar 22 07:40:25 2016
GPGPU-Sim PTX: 22600000 instructions simulated : ctaid=(38,0,0) tid=(297,0,0)
GPGPU-Sim PTX: 22700000 instructions simulated : ctaid=(9,0,0) tid=(361,0,0)
GPGPU-Sim uArch: cycles simulated: 140000  inst.: 22706319 (ipc=162.2) sim_rate=206421 (inst/sec) elapsed = 0:0:01:50 / Tue Mar 22 07:40:26 2016
GPGPU-Sim PTX: 22800000 instructions simulated : ctaid=(22,0,0) tid=(489,0,0)
GPGPU-Sim PTX: 22900000 instructions simulated : ctaid=(3,0,0) tid=(329,0,0)
GPGPU-Sim uArch: cycles simulated: 140500  inst.: 22893615 (ipc=162.9) sim_rate=206248 (inst/sec) elapsed = 0:0:01:51 / Tue Mar 22 07:40:27 2016
GPGPU-Sim PTX: 23000000 instructions simulated : ctaid=(24,0,0) tid=(73,0,0)
GPGPU-Sim PTX: 23100000 instructions simulated : ctaid=(11,0,0) tid=(73,0,0)
GPGPU-Sim uArch: cycles simulated: 141000  inst.: 23083567 (ipc=163.7) sim_rate=206103 (inst/sec) elapsed = 0:0:01:52 / Tue Mar 22 07:40:28 2016
GPGPU-Sim PTX: 23200000 instructions simulated : ctaid=(41,0,0) tid=(329,0,0)
GPGPU-Sim PTX: 23300000 instructions simulated : ctaid=(37,0,0) tid=(393,0,0)
GPGPU-Sim PTX: 23400000 instructions simulated : ctaid=(35,0,0) tid=(457,0,0)
GPGPU-Sim PTX: 23500000 instructions simulated : ctaid=(11,0,0) tid=(137,0,0)
GPGPU-Sim uArch: cycles simulated: 142000  inst.: 23460815 (ipc=165.2) sim_rate=207617 (inst/sec) elapsed = 0:0:01:53 / Tue Mar 22 07:40:29 2016
GPGPU-Sim PTX: 23600000 instructions simulated : ctaid=(18,0,0) tid=(169,0,0)
GPGPU-Sim uArch: cycles simulated: 142500  inst.: 23649967 (ipc=166.0) sim_rate=207455 (inst/sec) elapsed = 0:0:01:54 / Tue Mar 22 07:40:30 2016
GPGPU-Sim PTX: 23700000 instructions simulated : ctaid=(29,0,0) tid=(169,0,0)
GPGPU-Sim PTX: 23800000 instructions simulated : ctaid=(26,0,0) tid=(361,0,0)
GPGPU-Sim uArch: cycles simulated: 143000  inst.: 23826671 (ipc=166.6) sim_rate=207188 (inst/sec) elapsed = 0:0:01:55 / Tue Mar 22 07:40:31 2016
GPGPU-Sim PTX: 23900000 instructions simulated : ctaid=(43,0,0) tid=(137,0,0)
GPGPU-Sim PTX: 24000000 instructions simulated : ctaid=(34,0,0) tid=(201,0,0)
GPGPU-Sim PTX: 24100000 instructions simulated : ctaid=(30,0,0) tid=(9,0,0)
GPGPU-Sim PTX: 24200000 instructions simulated : ctaid=(1,0,0) tid=(233,0,0)
GPGPU-Sim uArch: cycles simulated: 144000  inst.: 24195983 (ipc=168.0) sim_rate=208586 (inst/sec) elapsed = 0:0:01:56 / Tue Mar 22 07:40:32 2016
GPGPU-Sim PTX: 24300000 instructions simulated : ctaid=(22,0,0) tid=(201,0,0)
GPGPU-Sim PTX: 24400000 instructions simulated : ctaid=(23,0,0) tid=(457,0,0)
GPGPU-Sim uArch: cycles simulated: 144500  inst.: 24388687 (ipc=168.8) sim_rate=208450 (inst/sec) elapsed = 0:0:01:57 / Tue Mar 22 07:40:33 2016
GPGPU-Sim PTX: 24500000 instructions simulated : ctaid=(23,0,0) tid=(425,0,0)
GPGPU-Sim PTX: 24600000 instructions simulated : ctaid=(17,0,0) tid=(297,0,0)
GPGPU-Sim uArch: cycles simulated: 145000  inst.: 24569711 (ipc=169.4) sim_rate=208217 (inst/sec) elapsed = 0:0:01:58 / Tue Mar 22 07:40:34 2016
GPGPU-Sim PTX: 24700000 instructions simulated : ctaid=(15,0,0) tid=(73,0,0)
GPGPU-Sim PTX: 24800000 instructions simulated : ctaid=(16,0,0) tid=(393,0,0)
GPGPU-Sim PTX: 24900000 instructions simulated : ctaid=(27,0,0) tid=(105,0,0)
GPGPU-Sim PTX: 25000000 instructions simulated : ctaid=(17,0,0) tid=(73,0,0)
GPGPU-Sim PTX: 25100000 instructions simulated : ctaid=(36,0,0) tid=(265,0,0)
GPGPU-Sim uArch: cycles simulated: 146500  inst.: 25128879 (ipc=171.5) sim_rate=211167 (inst/sec) elapsed = 0:0:01:59 / Tue Mar 22 07:40:35 2016
GPGPU-Sim PTX: 25200000 instructions simulated : ctaid=(13,0,0) tid=(137,0,0)
GPGPU-Sim PTX: 25300000 instructions simulated : ctaid=(29,0,0) tid=(9,0,0)
GPGPU-Sim PTX: 25400000 instructions simulated : ctaid=(28,0,0) tid=(297,0,0)
GPGPU-Sim PTX: 25500000 instructions simulated : ctaid=(24,0,0) tid=(9,0,0)
GPGPU-Sim uArch: cycles simulated: 147500  inst.: 25511631 (ipc=173.0) sim_rate=212596 (inst/sec) elapsed = 0:0:02:00 / Tue Mar 22 07:40:36 2016
GPGPU-Sim PTX: 25600000 instructions simulated : ctaid=(31,0,0) tid=(233,0,0)
GPGPU-Sim PTX: 25700000 instructions simulated : ctaid=(42,0,0) tid=(169,0,0)
GPGPU-Sim PTX: 25800000 instructions simulated : ctaid=(37,0,0) tid=(265,0,0)
GPGPU-Sim PTX: 25900000 instructions simulated : ctaid=(14,0,0) tid=(297,0,0)
GPGPU-Sim uArch: cycles simulated: 148500  inst.: 25871215 (ipc=174.2) sim_rate=213811 (inst/sec) elapsed = 0:0:02:01 / Tue Mar 22 07:40:37 2016
GPGPU-Sim PTX: 26000000 instructions simulated : ctaid=(21,0,0) tid=(105,0,0)
GPGPU-Sim PTX: 26100000 instructions simulated : ctaid=(14,0,0) tid=(457,0,0)
GPGPU-Sim PTX: 26200000 instructions simulated : ctaid=(5,0,0) tid=(137,0,0)
GPGPU-Sim uArch: cycles simulated: 149500  inst.: 26247375 (ipc=175.6) sim_rate=215142 (inst/sec) elapsed = 0:0:02:02 / Tue Mar 22 07:40:38 2016
GPGPU-Sim PTX: 26300000 instructions simulated : ctaid=(28,0,0) tid=(105,0,0)
GPGPU-Sim PTX: 26400000 instructions simulated : ctaid=(8,0,0) tid=(393,0,0)
GPGPU-Sim PTX: 26500000 instructions simulated : ctaid=(36,0,0) tid=(73,0,0)
GPGPU-Sim PTX: 26600000 instructions simulated : ctaid=(16,0,0) tid=(201,0,0)
GPGPU-Sim uArch: cycles simulated: 150500  inst.: 26620655 (ipc=176.9) sim_rate=216428 (inst/sec) elapsed = 0:0:02:03 / Tue Mar 22 07:40:39 2016
GPGPU-Sim PTX: 26700000 instructions simulated : ctaid=(30,0,0) tid=(201,0,0)
GPGPU-Sim PTX: 26800000 instructions simulated : ctaid=(21,0,0) tid=(393,0,0)
GPGPU-Sim PTX: 26900000 instructions simulated : ctaid=(42,0,0) tid=(137,0,0)
GPGPU-Sim PTX: 27000000 instructions simulated : ctaid=(2,0,0) tid=(137,0,0)
GPGPU-Sim uArch: cycles simulated: 151500  inst.: 27007055 (ipc=178.3) sim_rate=217798 (inst/sec) elapsed = 0:0:02:04 / Tue Mar 22 07:40:40 2016
GPGPU-Sim PTX: 27100000 instructions simulated : ctaid=(22,0,0) tid=(489,0,0)
GPGPU-Sim PTX: 27200000 instructions simulated : ctaid=(22,0,0) tid=(457,0,0)
GPGPU-Sim PTX: 27300000 instructions simulated : ctaid=(13,0,0) tid=(73,0,0)
GPGPU-Sim PTX: 27400000 instructions simulated : ctaid=(20,0,0) tid=(297,0,0)
GPGPU-Sim uArch: cycles simulated: 152500  inst.: 27389679 (ipc=179.6) sim_rate=219117 (inst/sec) elapsed = 0:0:02:05 / Tue Mar 22 07:40:41 2016
GPGPU-Sim PTX: 27500000 instructions simulated : ctaid=(29,0,0) tid=(361,0,0)
GPGPU-Sim PTX: 27600000 instructions simulated : ctaid=(34,0,0) tid=(9,0,0)
GPGPU-Sim PTX: 27700000 instructions simulated : ctaid=(16,0,0) tid=(393,0,0)
GPGPU-Sim PTX: 27800000 instructions simulated : ctaid=(6,0,0) tid=(265,0,0)
GPGPU-Sim uArch: cycles simulated: 153500  inst.: 27765615 (ipc=180.9) sim_rate=220362 (inst/sec) elapsed = 0:0:02:06 / Tue Mar 22 07:40:42 2016
GPGPU-Sim PTX: 27900000 instructions simulated : ctaid=(13,0,0) tid=(393,0,0)
GPGPU-Sim PTX: 28000000 instructions simulated : ctaid=(32,0,0) tid=(73,0,0)
GPGPU-Sim PTX: 28100000 instructions simulated : ctaid=(24,0,0) tid=(137,0,0)
GPGPU-Sim uArch: cycles simulated: 154500  inst.: 28144303 (ipc=182.2) sim_rate=221608 (inst/sec) elapsed = 0:0:02:07 / Tue Mar 22 07:40:43 2016
GPGPU-Sim PTX: 28200000 instructions simulated : ctaid=(14,0,0) tid=(73,0,0)
GPGPU-Sim PTX: 28300000 instructions simulated : ctaid=(4,0,0) tid=(41,0,0)
GPGPU-Sim PTX: 28400000 instructions simulated : ctaid=(26,0,0) tid=(425,0,0)
GPGPU-Sim PTX: 28500000 instructions simulated : ctaid=(38,0,0) tid=(425,0,0)
GPGPU-Sim uArch: cycles simulated: 155500  inst.: 28517711 (ipc=183.4) sim_rate=222794 (inst/sec) elapsed = 0:0:02:08 / Tue Mar 22 07:40:44 2016
GPGPU-Sim PTX: 28600000 instructions simulated : ctaid=(12,0,0) tid=(265,0,0)
GPGPU-Sim PTX: 28700000 instructions simulated : ctaid=(27,0,0) tid=(425,0,0)
GPGPU-Sim PTX: 28800000 instructions simulated : ctaid=(37,0,0) tid=(457,0,0)
GPGPU-Sim PTX: 28900000 instructions simulated : ctaid=(28,0,0) tid=(105,0,0)
GPGPU-Sim uArch: cycles simulated: 156500  inst.: 28887823 (ipc=184.6) sim_rate=223936 (inst/sec) elapsed = 0:0:02:09 / Tue Mar 22 07:40:45 2016
GPGPU-Sim PTX: 29000000 instructions simulated : ctaid=(5,0,0) tid=(297,0,0)
GPGPU-Sim PTX: 29100000 instructions simulated : ctaid=(7,0,0) tid=(393,0,0)
GPGPU-Sim PTX: 29200000 instructions simulated : ctaid=(1,0,0) tid=(233,0,0)
GPGPU-Sim PTX: 29300000 instructions simulated : ctaid=(14,0,0) tid=(361,0,0)
GPGPU-Sim uArch: cycles simulated: 157500  inst.: 29260815 (ipc=185.8) sim_rate=225083 (inst/sec) elapsed = 0:0:02:10 / Tue Mar 22 07:40:46 2016
GPGPU-Sim PTX: 29400000 instructions simulated : ctaid=(29,0,0) tid=(329,0,0)
GPGPU-Sim PTX: 29500000 instructions simulated : ctaid=(10,0,0) tid=(297,0,0)
GPGPU-Sim PTX: 29600000 instructions simulated : ctaid=(35,0,0) tid=(265,0,0)
GPGPU-Sim uArch: cycles simulated: 158500  inst.: 29633775 (ipc=187.0) sim_rate=226212 (inst/sec) elapsed = 0:0:02:11 / Tue Mar 22 07:40:47 2016
GPGPU-Sim PTX: 29700000 instructions simulated : ctaid=(41,0,0) tid=(393,0,0)
GPGPU-Sim PTX: 29800000 instructions simulated : ctaid=(41,0,0) tid=(457,0,0)
GPGPU-Sim uArch: cycles simulated: 159000  inst.: 29826831 (ipc=187.6) sim_rate=225960 (inst/sec) elapsed = 0:0:02:12 / Tue Mar 22 07:40:48 2016
GPGPU-Sim PTX: 29900000 instructions simulated : ctaid=(18,0,0) tid=(297,0,0)
GPGPU-Sim PTX: 30000000 instructions simulated : ctaid=(15,0,0) tid=(425,0,0)
GPGPU-Sim uArch: cycles simulated: 159500  inst.: 30009743 (ipc=188.1) sim_rate=225637 (inst/sec) elapsed = 0:0:02:13 / Tue Mar 22 07:40:49 2016
GPGPU-Sim PTX: 30100000 instructions simulated : ctaid=(20,0,0) tid=(489,0,0)
GPGPU-Sim PTX: 30200000 instructions simulated : ctaid=(10,0,0) tid=(457,0,0)
GPGPU-Sim PTX: 30300000 instructions simulated : ctaid=(33,0,0) tid=(105,0,0)
GPGPU-Sim PTX: 30400000 instructions simulated : ctaid=(14,0,0) tid=(425,0,0)
GPGPU-Sim uArch: cycles simulated: 160500  inst.: 30378607 (ipc=189.3) sim_rate=226706 (inst/sec) elapsed = 0:0:02:14 / Tue Mar 22 07:40:50 2016
GPGPU-Sim PTX: 30500000 instructions simulated : ctaid=(10,0,0) tid=(201,0,0)
GPGPU-Sim PTX: 30600000 instructions simulated : ctaid=(29,0,0) tid=(329,0,0)
GPGPU-Sim uArch: cycles simulated: 161000  inst.: 30566703 (ipc=189.9) sim_rate=226420 (inst/sec) elapsed = 0:0:02:15 / Tue Mar 22 07:40:51 2016
GPGPU-Sim PTX: 30700000 instructions simulated : ctaid=(35,0,0) tid=(457,0,0)
GPGPU-Sim PTX: 30800000 instructions simulated : ctaid=(13,0,0) tid=(105,0,0)
GPGPU-Sim uArch: cycles simulated: 161500  inst.: 30758447 (ipc=190.5) sim_rate=226165 (inst/sec) elapsed = 0:0:02:16 / Tue Mar 22 07:40:52 2016
GPGPU-Sim PTX: 30900000 instructions simulated : ctaid=(24,0,0) tid=(297,0,0)
GPGPU-Sim PTX: 31000000 instructions simulated : ctaid=(20,0,0) tid=(9,0,0)
GPGPU-Sim PTX: 31100000 instructions simulated : ctaid=(15,0,0) tid=(137,0,0)
GPGPU-Sim uArch: cycles simulated: 162500  inst.: 31140911 (ipc=191.6) sim_rate=227305 (inst/sec) elapsed = 0:0:02:17 / Tue Mar 22 07:40:53 2016
GPGPU-Sim PTX: 31200000 instructions simulated : ctaid=(23,0,0) tid=(73,0,0)
GPGPU-Sim PTX: 31300000 instructions simulated : ctaid=(6,0,0) tid=(73,0,0)
GPGPU-Sim uArch: cycles simulated: 163000  inst.: 31334351 (ipc=192.2) sim_rate=227060 (inst/sec) elapsed = 0:0:02:18 / Tue Mar 22 07:40:54 2016
GPGPU-Sim PTX: 31400000 instructions simulated : ctaid=(24,0,0) tid=(457,0,0)
GPGPU-Sim PTX: 31500000 instructions simulated : ctaid=(20,0,0) tid=(297,0,0)
GPGPU-Sim uArch: cycles simulated: 163500  inst.: 31519471 (ipc=192.8) sim_rate=226758 (inst/sec) elapsed = 0:0:02:19 / Tue Mar 22 07:40:55 2016
GPGPU-Sim PTX: 31600000 instructions simulated : ctaid=(16,0,0) tid=(169,0,0)
GPGPU-Sim PTX: 31700000 instructions simulated : ctaid=(2,0,0) tid=(41,0,0)
GPGPU-Sim uArch: cycles simulated: 164000  inst.: 31703503 (ipc=193.3) sim_rate=226453 (inst/sec) elapsed = 0:0:02:20 / Tue Mar 22 07:40:56 2016
GPGPU-Sim PTX: 31800000 instructions simulated : ctaid=(29,0,0) tid=(457,0,0)
GPGPU-Sim PTX: 31900000 instructions simulated : ctaid=(1,0,0) tid=(361,0,0)
GPGPU-Sim PTX: 32000000 instructions simulated : ctaid=(4,0,0) tid=(9,0,0)
GPGPU-Sim PTX: 32100000 instructions simulated : ctaid=(10,0,0) tid=(9,0,0)
GPGPU-Sim uArch: cycles simulated: 165000  inst.: 32078319 (ipc=194.4) sim_rate=227505 (inst/sec) elapsed = 0:0:02:21 / Tue Mar 22 07:40:57 2016
GPGPU-Sim PTX: 32200000 instructions simulated : ctaid=(39,0,0) tid=(457,0,0)
GPGPU-Sim PTX: 32300000 instructions simulated : ctaid=(5,0,0) tid=(233,0,0)
GPGPU-Sim uArch: cycles simulated: 165500  inst.: 32271535 (ipc=195.0) sim_rate=227264 (inst/sec) elapsed = 0:0:02:22 / Tue Mar 22 07:40:58 2016
GPGPU-Sim PTX: 32400000 instructions simulated : ctaid=(7,0,0) tid=(329,0,0)
GPGPU-Sim PTX: 32500000 instructions simulated : ctaid=(30,0,0) tid=(489,0,0)
GPGPU-Sim uArch: cycles simulated: 166000  inst.: 32457263 (ipc=195.5) sim_rate=226973 (inst/sec) elapsed = 0:0:02:23 / Tue Mar 22 07:40:59 2016
GPGPU-Sim PTX: 32600000 instructions simulated : ctaid=(24,0,0) tid=(201,0,0)
GPGPU-Sim uArch: cycles simulated: 166500  inst.: 32645295 (ipc=196.1) sim_rate=226703 (inst/sec) elapsed = 0:0:02:24 / Tue Mar 22 07:41:00 2016
GPGPU-Sim PTX: 32700000 instructions simulated : ctaid=(29,0,0) tid=(41,0,0)
GPGPU-Sim PTX: 32800000 instructions simulated : ctaid=(32,0,0) tid=(457,0,0)
GPGPU-Sim PTX: 32900000 instructions simulated : ctaid=(33,0,0) tid=(9,0,0)
GPGPU-Sim PTX: 33000000 instructions simulated : ctaid=(40,0,0) tid=(169,0,0)
GPGPU-Sim uArch: cycles simulated: 167500  inst.: 33025679 (ipc=197.2) sim_rate=227763 (inst/sec) elapsed = 0:0:02:25 / Tue Mar 22 07:41:01 2016
GPGPU-Sim PTX: 33100000 instructions simulated : ctaid=(8,0,0) tid=(297,0,0)
GPGPU-Sim PTX: 33200000 instructions simulated : ctaid=(31,0,0) tid=(73,0,0)
GPGPU-Sim uArch: cycles simulated: 168000  inst.: 33217519 (ipc=197.7) sim_rate=227517 (inst/sec) elapsed = 0:0:02:26 / Tue Mar 22 07:41:02 2016
GPGPU-Sim PTX: 33300000 instructions simulated : ctaid=(5,0,0) tid=(425,0,0)
GPGPU-Sim PTX: 33400000 instructions simulated : ctaid=(13,0,0) tid=(425,0,0)
GPGPU-Sim uArch: cycles simulated: 168500  inst.: 33413519 (ipc=198.3) sim_rate=227302 (inst/sec) elapsed = 0:0:02:27 / Tue Mar 22 07:41:03 2016
GPGPU-Sim PTX: 33500000 instructions simulated : ctaid=(9,0,0) tid=(73,0,0)
GPGPU-Sim PTX: 33600000 instructions simulated : ctaid=(8,0,0) tid=(41,0,0)
GPGPU-Sim uArch: cycles simulated: 169000  inst.: 33604655 (ipc=198.8) sim_rate=227058 (inst/sec) elapsed = 0:0:02:28 / Tue Mar 22 07:41:04 2016
GPGPU-Sim PTX: 33700000 instructions simulated : ctaid=(4,0,0) tid=(201,0,0)
GPGPU-Sim PTX: 33800000 instructions simulated : ctaid=(30,0,0) tid=(201,0,0)
GPGPU-Sim PTX: 33900000 instructions simulated : ctaid=(10,0,0) tid=(73,0,0)
GPGPU-Sim PTX: 34000000 instructions simulated : ctaid=(0,0,0) tid=(393,0,0)
GPGPU-Sim uArch: cycles simulated: 170000  inst.: 33985967 (ipc=199.9) sim_rate=228093 (inst/sec) elapsed = 0:0:02:29 / Tue Mar 22 07:41:05 2016
GPGPU-Sim PTX: 34100000 instructions simulated : ctaid=(36,0,0) tid=(9,0,0)
GPGPU-Sim PTX: 34200000 instructions simulated : ctaid=(16,0,0) tid=(169,0,0)
GPGPU-Sim uArch: cycles simulated: 170500  inst.: 34169999 (ipc=200.4) sim_rate=227799 (inst/sec) elapsed = 0:0:02:30 / Tue Mar 22 07:41:06 2016
GPGPU-Sim PTX: 34300000 instructions simulated : ctaid=(24,0,0) tid=(137,0,0)
GPGPU-Sim uArch: cycles simulated: 171000  inst.: 34352623 (ipc=200.9) sim_rate=227500 (inst/sec) elapsed = 0:0:02:31 / Tue Mar 22 07:41:07 2016
GPGPU-Sim PTX: 34400000 instructions simulated : ctaid=(29,0,0) tid=(361,0,0)
GPGPU-Sim PTX: 34500000 instructions simulated : ctaid=(8,0,0) tid=(169,0,0)
GPGPU-Sim PTX: 34600000 instructions simulated : ctaid=(21,0,0) tid=(425,0,0)
GPGPU-Sim PTX: 34700000 instructions simulated : ctaid=(31,0,0) tid=(9,0,0)
GPGPU-Sim uArch: cycles simulated: 172000  inst.: 34719023 (ipc=201.9) sim_rate=228414 (inst/sec) elapsed = 0:0:02:32 / Tue Mar 22 07:41:08 2016
GPGPU-Sim PTX: 34800000 instructions simulated : ctaid=(18,0,0) tid=(297,0,0)
GPGPU-Sim PTX: 34900000 instructions simulated : ctaid=(35,0,0) tid=(297,0,0)
GPGPU-Sim PTX: 35000000 instructions simulated : ctaid=(43,0,0) tid=(329,0,0)
GPGPU-Sim PTX: 35100000 instructions simulated : ctaid=(22,0,0) tid=(425,0,0)
GPGPU-Sim uArch: cycles simulated: 173000  inst.: 35090799 (ipc=202.8) sim_rate=229351 (inst/sec) elapsed = 0:0:02:33 / Tue Mar 22 07:41:09 2016
GPGPU-Sim PTX: 35200000 instructions simulated : ctaid=(27,0,0) tid=(457,0,0)
GPGPU-Sim PTX: 35300000 instructions simulated : ctaid=(11,0,0) tid=(41,0,0)
GPGPU-Sim PTX: 35400000 instructions simulated : ctaid=(43,0,0) tid=(105,0,0)
GPGPU-Sim PTX: 35500000 instructions simulated : ctaid=(1,0,0) tid=(137,0,0)
GPGPU-Sim uArch: cycles simulated: 174000  inst.: 35465071 (ipc=203.8) sim_rate=230292 (inst/sec) elapsed = 0:0:02:34 / Tue Mar 22 07:41:10 2016
GPGPU-Sim PTX: 35600000 instructions simulated : ctaid=(1,0,0) tid=(169,0,0)
GPGPU-Sim PTX: 35700000 instructions simulated : ctaid=(0,0,0) tid=(233,0,0)
GPGPU-Sim PTX: 35800000 instructions simulated : ctaid=(20,0,0) tid=(73,0,0)
GPGPU-Sim uArch: cycles simulated: 175000  inst.: 35833679 (ipc=204.8) sim_rate=231185 (inst/sec) elapsed = 0:0:02:35 / Tue Mar 22 07:41:11 2016
GPGPU-Sim PTX: 35900000 instructions simulated : ctaid=(26,0,0) tid=(265,0,0)
GPGPU-Sim PTX: 36000000 instructions simulated : ctaid=(38,0,0) tid=(9,0,0)
GPGPU-Sim PTX: 36100000 instructions simulated : ctaid=(33,0,0) tid=(169,0,0)
GPGPU-Sim PTX: 36200000 instructions simulated : ctaid=(23,0,0) tid=(489,0,0)
GPGPU-Sim uArch: cycles simulated: 176000  inst.: 36208431 (ipc=205.7) sim_rate=232105 (inst/sec) elapsed = 0:0:02:36 / Tue Mar 22 07:41:12 2016
GPGPU-Sim PTX: 36300000 instructions simulated : ctaid=(35,0,0) tid=(73,0,0)
GPGPU-Sim PTX: 36400000 instructions simulated : ctaid=(36,0,0) tid=(425,0,0)
GPGPU-Sim PTX: 36500000 instructions simulated : ctaid=(14,0,0) tid=(457,0,0)
GPGPU-Sim PTX: 36600000 instructions simulated : ctaid=(16,0,0) tid=(393,0,0)
GPGPU-Sim uArch: cycles simulated: 177000  inst.: 36592719 (ipc=206.7) sim_rate=233074 (inst/sec) elapsed = 0:0:02:37 / Tue Mar 22 07:41:13 2016
GPGPU-Sim PTX: 36700000 instructions simulated : ctaid=(44,0,0) tid=(201,0,0)
GPGPU-Sim PTX: 36800000 instructions simulated : ctaid=(10,0,0) tid=(457,0,0)
GPGPU-Sim PTX: 36900000 instructions simulated : ctaid=(8,0,0) tid=(9,0,0)
GPGPU-Sim PTX: 37000000 instructions simulated : ctaid=(12,0,0) tid=(329,0,0)
GPGPU-Sim uArch: cycles simulated: 178000  inst.: 36979823 (ipc=207.8) sim_rate=234049 (inst/sec) elapsed = 0:0:02:38 / Tue Mar 22 07:41:14 2016
GPGPU-Sim PTX: 37100000 instructions simulated : ctaid=(19,0,0) tid=(329,0,0)
GPGPU-Sim PTX: 37200000 instructions simulated : ctaid=(5,0,0) tid=(41,0,0)
GPGPU-Sim PTX: 37300000 instructions simulated : ctaid=(27,0,0) tid=(425,0,0)
GPGPU-Sim PTX: 37400000 instructions simulated : ctaid=(22,0,0) tid=(457,0,0)
GPGPU-Sim uArch: cycles simulated: 179000  inst.: 37362639 (ipc=208.7) sim_rate=234985 (inst/sec) elapsed = 0:0:02:39 / Tue Mar 22 07:41:15 2016
GPGPU-Sim PTX: 37500000 instructions simulated : ctaid=(30,0,0) tid=(73,0,0)
GPGPU-Sim uArch: cycles simulated: 179500  inst.: 37552207 (ipc=209.2) sim_rate=234701 (inst/sec) elapsed = 0:0:02:40 / Tue Mar 22 07:41:16 2016
GPGPU-Sim PTX: 37600000 instructions simulated : ctaid=(18,0,0) tid=(9,0,0)
GPGPU-Sim PTX: 37700000 instructions simulated : ctaid=(41,0,0) tid=(9,0,0)
GPGPU-Sim PTX: 37800000 instructions simulated : ctaid=(29,0,0) tid=(425,0,0)
GPGPU-Sim PTX: 37900000 instructions simulated : ctaid=(42,0,0) tid=(297,0,0)
GPGPU-Sim uArch: cycles simulated: 180500  inst.: 37927151 (ipc=210.1) sim_rate=235572 (inst/sec) elapsed = 0:0:02:41 / Tue Mar 22 07:41:17 2016
GPGPU-Sim PTX: 38000000 instructions simulated : ctaid=(5,0,0) tid=(105,0,0)
GPGPU-Sim PTX: 38100000 instructions simulated : ctaid=(6,0,0) tid=(41,0,0)
GPGPU-Sim PTX: 38200000 instructions simulated : ctaid=(22,0,0) tid=(105,0,0)
GPGPU-Sim PTX: 38300000 instructions simulated : ctaid=(11,0,0) tid=(201,0,0)
GPGPU-Sim uArch: cycles simulated: 181500  inst.: 38302319 (ipc=211.0) sim_rate=236434 (inst/sec) elapsed = 0:0:02:42 / Tue Mar 22 07:41:18 2016
GPGPU-Sim PTX: 38400000 instructions simulated : ctaid=(10,0,0) tid=(41,0,0)
GPGPU-Sim PTX: 38500000 instructions simulated : ctaid=(34,0,0) tid=(329,0,0)
GPGPU-Sim PTX: 38600000 instructions simulated : ctaid=(9,0,0) tid=(137,0,0)
GPGPU-Sim PTX: 38700000 instructions simulated : ctaid=(22,0,0) tid=(233,0,0)
GPGPU-Sim uArch: cycles simulated: 182500  inst.: 38679855 (ipc=211.9) sim_rate=237299 (inst/sec) elapsed = 0:0:02:43 / Tue Mar 22 07:41:19 2016
GPGPU-Sim PTX: 38800000 instructions simulated : ctaid=(32,0,0) tid=(265,0,0)
GPGPU-Sim PTX: 38900000 instructions simulated : ctaid=(29,0,0) tid=(169,0,0)
GPGPU-Sim PTX: 39000000 instructions simulated : ctaid=(30,0,0) tid=(73,0,0)
GPGPU-Sim PTX: 39100000 instructions simulated : ctaid=(17,0,0) tid=(41,0,0)
GPGPU-Sim uArch: cycles simulated: 183500  inst.: 39062895 (ipc=212.9) sim_rate=238188 (inst/sec) elapsed = 0:0:02:44 / Tue Mar 22 07:41:20 2016
GPGPU-Sim PTX: 39200000 instructions simulated : ctaid=(3,0,0) tid=(73,0,0)
GPGPU-Sim PTX: 39300000 instructions simulated : ctaid=(30,0,0) tid=(265,0,0)
GPGPU-Sim PTX: 39400000 instructions simulated : ctaid=(30,0,0) tid=(393,0,0)
GPGPU-Sim uArch: cycles simulated: 184500  inst.: 39435247 (ipc=213.7) sim_rate=239001 (inst/sec) elapsed = 0:0:02:45 / Tue Mar 22 07:41:21 2016
GPGPU-Sim PTX: 39500000 instructions simulated : ctaid=(44,0,0) tid=(425,0,0)
GPGPU-Sim PTX: 39600000 instructions simulated : ctaid=(4,0,0) tid=(9,0,0)
GPGPU-Sim PTX: 39700000 instructions simulated : ctaid=(31,0,0) tid=(489,0,0)
GPGPU-Sim PTX: 39800000 instructions simulated : ctaid=(44,0,0) tid=(105,0,0)
GPGPU-Sim uArch: cycles simulated: 185500  inst.: 39809295 (ipc=214.6) sim_rate=239815 (inst/sec) elapsed = 0:0:02:46 / Tue Mar 22 07:41:22 2016
GPGPU-Sim PTX: 39900000 instructions simulated : ctaid=(13,0,0) tid=(73,0,0)
GPGPU-Sim PTX: 40000000 instructions simulated : ctaid=(12,0,0) tid=(201,0,0)
GPGPU-Sim PTX: 40100000 instructions simulated : ctaid=(9,0,0) tid=(9,0,0)
GPGPU-Sim PTX: 40200000 instructions simulated : ctaid=(7,0,0) tid=(169,0,0)
GPGPU-Sim uArch: cycles simulated: 186500  inst.: 40194255 (ipc=215.5) sim_rate=240684 (inst/sec) elapsed = 0:0:02:47 / Tue Mar 22 07:41:23 2016
GPGPU-Sim PTX: 40300000 instructions simulated : ctaid=(6,0,0) tid=(361,0,0)
GPGPU-Sim PTX: 40400000 instructions simulated : ctaid=(31,0,0) tid=(9,0,0)
GPGPU-Sim uArch: cycles simulated: 187000  inst.: 40384559 (ipc=216.0) sim_rate=240384 (inst/sec) elapsed = 0:0:02:48 / Tue Mar 22 07:41:24 2016
GPGPU-Sim PTX: 40500000 instructions simulated : ctaid=(31,0,0) tid=(361,0,0)
GPGPU-Sim PTX: 40600000 instructions simulated : ctaid=(1,0,0) tid=(73,0,0)
GPGPU-Sim uArch: cycles simulated: 187500  inst.: 40570959 (ipc=216.4) sim_rate=240064 (inst/sec) elapsed = 0:0:02:49 / Tue Mar 22 07:41:25 2016
GPGPU-Sim PTX: 40700000 instructions simulated : ctaid=(39,0,0) tid=(9,0,0)
GPGPU-Sim PTX: 40800000 instructions simulated : ctaid=(6,0,0) tid=(265,0,0)
GPGPU-Sim PTX: 40900000 instructions simulated : ctaid=(32,0,0) tid=(265,0,0)
GPGPU-Sim uArch: cycles simulated: 188500  inst.: 40934319 (ipc=217.2) sim_rate=240790 (inst/sec) elapsed = 0:0:02:50 / Tue Mar 22 07:41:26 2016
GPGPU-Sim PTX: 41000000 instructions simulated : ctaid=(26,0,0) tid=(73,0,0)
GPGPU-Sim PTX: 41100000 instructions simulated : ctaid=(40,0,0) tid=(297,0,0)
GPGPU-Sim uArch: cycles simulated: 189000  inst.: 41115663 (ipc=217.5) sim_rate=240442 (inst/sec) elapsed = 0:0:02:51 / Tue Mar 22 07:41:27 2016
GPGPU-Sim PTX: 41200000 instructions simulated : ctaid=(33,0,0) tid=(73,0,0)
GPGPU-Sim PTX: 41300000 instructions simulated : ctaid=(16,0,0) tid=(329,0,0)
GPGPU-Sim PTX: 41400000 instructions simulated : ctaid=(26,0,0) tid=(9,0,0)
GPGPU-Sim PTX: 41500000 instructions simulated : ctaid=(25,0,0) tid=(201,0,0)
GPGPU-Sim uArch: cycles simulated: 190000  inst.: 41507503 (ipc=218.5) sim_rate=241322 (inst/sec) elapsed = 0:0:02:52 / Tue Mar 22 07:41:28 2016
GPGPU-Sim PTX: 41600000 instructions simulated : ctaid=(14,0,0) tid=(297,0,0)
GPGPU-Sim PTX: 41700000 instructions simulated : ctaid=(0,0,0) tid=(9,0,0)
GPGPU-Sim PTX: 41800000 instructions simulated : ctaid=(33,0,0) tid=(329,0,0)
GPGPU-Sim PTX: 41900000 instructions simulated : ctaid=(2,0,0) tid=(169,0,0)
GPGPU-Sim uArch: cycles simulated: 191000  inst.: 41884751 (ipc=219.3) sim_rate=242108 (inst/sec) elapsed = 0:0:02:53 / Tue Mar 22 07:41:29 2016
GPGPU-Sim PTX: 42000000 instructions simulated : ctaid=(18,0,0) tid=(201,0,0)
GPGPU-Sim PTX: 42100000 instructions simulated : ctaid=(5,0,0) tid=(137,0,0)
GPGPU-Sim PTX: 42200000 instructions simulated : ctaid=(13,0,0) tid=(73,0,0)
GPGPU-Sim PTX: 42300000 instructions simulated : ctaid=(23,0,0) tid=(425,0,0)
GPGPU-Sim uArch: cycles simulated: 192000  inst.: 42268751 (ipc=220.1) sim_rate=242923 (inst/sec) elapsed = 0:0:02:54 / Tue Mar 22 07:41:30 2016
[...]
traffic_breakdown_coretomem[INST_ACC_R] = 840 {8:105,}
traffic_breakdown_memtocore[CONST_ACC_R] = 1080 {72:15,}
traffic_breakdown_memtocore[GLOBAL_ACC_R] = 157910824 {136:1161109,}
traffic_breakdown_memtocore[GLOBAL_ACC_W] = 330864 {8:41358,}
traffic_breakdown_memtocore[INST_ACC_R] = 14280 {136:105,}
maxmrqlatency = 770 
maxdqlatency = 0 
maxmflatency = 1424 
averagemflatency = 358 
max_icnt2mem_latency = 842 
max_icnt2sh_latency = 1440684 
mrq_lat_table:602412 	30923 	39911 	79168 	161437 	136537 	76948 	16468 	1251 	14 	0 	0 	0 	0 	0 	0 	0 	0 	0 	0 	0 	0 	0 	0 	0 	0 	0 	0 	0 	0 	0 	0 	
dq_lat_table:0 	0 	0 	0 	0 	0 	0 	0 	0 	0 	0 	0 	0 	0 	0 	0 	0 	0 	0 	0 	0 	0 	0 	0 	0 	0 	0 	0 	0 	0 	0 	0 	
mf_lat_table:0 	0 	0 	0 	0 	0 	0 	24966 	1084436 	93032 	48 	0 	0 	0 	0 	0 	0 	0 	0 	0 	0 	0 	0 	0 	0 	0 	0 	0 	0 	0 	0 	0 	
icnt2mem_lat_table:0 	0 	0 	1015092 	27045 	35315 	58256 	48583 	17631 	665 	0 	0 	0 	0 	0 	0 	0 	0 	0 	0 	0 	0 	0 	0 	
icnt2sh_lat_table:0 	0 	0 	169577 	712116 	274069 	5359 	3 	0 	0 	0 	0 	0 	0 	0 	0 	0 	10882 	11016 	12820 	6640 	0 	0 	0 	
mf_lat_pw_table:0 	0 	0 	0 	0 	0 	0 	46 	2819 	12 	0 	0 	0 	0 	0 	0 	0 	0 	0 	0 	0 	0 	0 	0 	0 	0 	0 	0 	0 	0 	0 	0 	
maximum concurrent accesses to same row:
dram[0]:        18        21        20        22        32        32        19        24        32        32        28        28        16        22        32        31 
dram[1]:        18        18        20        22        32        32        24        24        32        32        28        28        15        22        31        31 
dram[2]:        18        18        20        22        32        32        24        24        32        32        28        28        16        14        30        32 
dram[3]:        18        22        20        22        32        32        24        24        32        32        28        28        17        20        31        32 
dram[4]:        22        20        22        22        32        31        17        24        32        32        28        28        15        20        32        32 
dram[5]:        18        23        22        22        32        32        24        21        32        32        28        28        22        14        32        32 
maximum service time to same row:
dram[0]:     81278     82154     77898     81491     81616     81563     81775     81479    175771    178644     81013     81063     81802     81944     81848     81994 
dram[1]:     80076     82068     81616     81504     81622     81741     81621     81485    177007    178174     81051     81066     81900     82010     82121     82018 
dram[2]:     81907     81840     81513     81394     81632     81407     81746     79488    177028    176640     81026     81060     81831     81880     81860     82075 
dram[3]:     82217     82238     81593     81414     81601     81700     81597     81701    175090    176470     81029     81021     82091     81926     81868     82057 
dram[4]:     82228     81963     81451     81438     81407     81407     81826     81751    175139    176404     81059     81062     76957     81978     81993     82040 
dram[5]:     82154     81969     81554     81500     81562     81422     81813     81722    176821    175255     81060     81031     82028     82101     82082     82135 
average row accesses per activate:
dram[0]:  1.484985  1.472864  1.446199  1.454945  1.517533  1.490009  1.478066  1.458313  1.535019  1.508879  1.375638  1.446152  1.468452  1.465842  1.492000  1.525380 
dram[1]:  1.444537  1.469255  1.426710  1.435290  1.517431  1.425716  1.459762  1.449365  1.503413  1.496224  1.420271  1.418452  1.402344  1.397357  1.506936  1.524202 
dram[2]:  1.438794  1.493923  1.472788  1.456190  1.453809  1.476107  1.451007  1.444405  1.500126  1.574960  1.400000  1.430554  1.403509  1.428227  1.562871  1.490877 
dram[3]:  1.488315  1.456155  1.393975  1.473060  1.485567  1.468583  1.421793  1.457556  1.474324  1.526228  1.377251  1.464476  1.404841  1.443971  1.457118  1.513486 
dram[4]:  1.487897  1.456863  1.497491  1.405759  1.447333  1.493387  1.480458  1.447420  1.518698  1.492537  1.443984  1.402627  1.446728  1.449064  1.568817  1.499493 
dram[5]:  1.476416  1.417103  1.436642  1.448444  1.472571  1.443090  1.433241  1.480379  1.529866  1.489362  1.388921  1.420933  1.434298  1.427225  1.530507  1.481481 
average row locality = 1145069/782756 = 1.462868
number of total memory accesses made:
dram[0]:         0         0         0         0         0         0         0         0         0         0         0         0         0         0         0         0 
dram[1]:         0         0         0         0         0         0         0         0         0         0         0         0         0         0         0         0 
dram[2]:         0         0         0         0         0         0         0         0         0         0         0         0         0         0         0         0 
dram[3]:         0         0         0         0         0         0         0         0         0         0         0         0         0         0         0         0 
dram[4]:         0         0         0         0         0         0         0         0         0         0         0         0         0         0         0         0 
dram[5]:         0         0         0         0         0         0         0         0         0         0         0         0         0         0         0         0 
total accesses: 0
min_bank_accesses = 0!
min_chip_accesses = 0!
number of total read accesses:
dram[0]:     11670     11680     11924     11579     11567     11568     11586     11586     11591     11588     11564     11562     11558     11556     11554     11552 
dram[1]:     11673     11681     11588     11839     11566     11566     11586     11586     11591     11587     11565     11562     11559     11555     11552     11552 
dram[2]:     11667     11674     11588     11582     11562     11570     11584     11917     11584     11599     11564     11562     11552     11572     11557     11560 
dram[3]:     11672     11669     11587     11584     11563     11576     11840     11586     11585     11598     11564     11562     11552     11565     11554     11552 
dram[4]:     11674     11675     11588     11579     11567     11566     11586     11586     11590     11588     11563     11562     11890     11561     11554     11552 
dram[5]:     11674     11675     11585     11579     11564     11567     11589     11587     11586     11595     11568     11562     11554     11819     11552     11552 
total reads: 1113885
bank skew: 11924/11552 = 1.03
chip skew: 185694/185608 = 1.00
number of total write accesses:
dram[0]:       495       505       347       337       291       288       308       308       310       308       294       295       288       288       288       288 
dram[1]:       503       505       345       338       273       276       295       293       301       299       290       292       288       289       288       288 
dram[2]:       498       494       346       334       288       292       307       307       309       314       294       293       288       288       288       288 
dram[3]:       492       503       351       336       274       274       295       296       301       302       290       290       288       290       288       288 
dram[4]:       497       500       347       332       291       290       308       306       309       312       295       293       290       288       289       288 
dram[5]:       502       505       342       333       274       275       294       296       298       305       292       290       289       291       288       288 
total reads: 31184
bank skew: 505/273 = 1.85
chip skew: 5238/5158 = 1.02
average mf latency per bank:
dram[0]:        358       359       455       369       367       374       373       373       380       382       366       368       372       369       379       385
dram[1]:        352       354       363       465       364       369       365       372       375       378       363       363       363       369       374       378
dram[2]:        361       357       370       364       375       371       374       459       380       380       372       366       374       375       388       378
dram[3]:        355       357       362       367       368       382       465       373       373       392       366       367       365       377       374       382
dram[4]:        368       350       375       362       382       357       380       371       388       369       376       356       463       367       388       368
dram[5]:        353       364       361       372       364       371       375       387       368       381       367       368       366       476       369       382
maximum mf latency per bank:
dram[0]:       1090      1063       860       922      1056      1060       940      1033      1123       942      1116      1065      1125       996       960      1076
dram[1]:       1072       859       810       900       881       905       855       873       978       938      1008       925       952      1040       926       950
dram[2]:       1424      1156      1153       984      1081       947       970      1066      1043      1006       973       981       945       988       919       966
dram[3]:        992       933      1040       959      1043      1011      1072       957       898       996      1031       936       952      1038       970       978
dram[4]:       1042       932       993       975       906       924      1020      1139      1020       994       894       967      1087       859       981      1013
dram[5]:        949       949      1087      1037       967       918      1104      1063       885      1010       919      1035      1042       911       904      1052

Number of Memory Banks Accessed per Memory Operation per Warp (from 0):
0	0	0	0	0	0	0	0	0	0	0	0	0	0	0	0	0	0	0	0	0	0	0	0	0	0	0	0	0	0	0	0	0	0	0	0	0	0	0	0	0	0	0	0	0	0	0	0	0	0	0	0	0	0	0	0	0	0	0	0	0	0	0	0	0	0	0	0	0	0	0	0	0	0	0	0	0	0	0	0	0	0	0	0	0	0	0	0	0	0	0	0	0	0	0	0	
Average # of Memory Banks Accessed per Memory Operation per Warp=-nan

position of mrq chosen
0	0	0	0	0	0	0	0	0	0	0	0	0	0	0	0	

average position of mrq chosen = -nan
Memory Partition 0: 
Cache L2_bank_000:
MSHR contents

Cache L2_bank_001:
MSHR contents

In Dram Latency Queue (total = 0): 
DRAM[0]: 16 bks, busW=4 BL=8 CL=12, tRRD=2 tCCD=6, tRCD=12 tRAS=28 tRP=12 tRC=40
n_cmd=1901703 n_nop=1261355 n_act=129416 n_pre=129400 n_req=190923 n_rd=371370 n_write=10162 bw_util=0.4013
n_activity=1276126 dram_eff=0.598
bk0: 23340a 1511400i bk1: 23360a 1503225i bk2: 23848a 1499839i bk3: 23158a 1495079i bk4: 23134a 1507593i bk5: 23136a 1491695i bk6: 23172a 1483102i bk7: 23172a 1466144i bk8: 23182a 1524101i bk9: 23176a 1513180i bk10: 23128a 1492010i bk11: 23124a 1500396i bk12: 23116a 1497097i bk13: 23112a 1490441i bk14: 23108a 1476857i bk15: 23104a 1465079i 
dram_util_bins: 0 0 0 0 0 0 0 0 0 0
dram_eff_bins: 0 0 0 0 0 0 0 0 0 0
mrqq: max=16 avg=2.38735
Memory Partition 1: 
Cache L2_bank_002:
MSHR contents

Cache L2_bank_003:
MSHR contents

In Dram Latency Queue (total = 0): 
DRAM[1]: 16 bks, busW=4 BL=8 CL=12, tRRD=2 tCCD=6, tRCD=12 tRAS=28 tRP=12 tRC=40
n_cmd=1901703 n_nop=1258258 n_act=131121 n_pre=131105 n_req=190771 n_rd=371216 n_write=10003 bw_util=0.4009
n_activity=1273160 dram_eff=0.5989
bk0: 23346a 1506377i bk1: 23362a 1504259i bk2: 23176a 1498865i bk3: 23678a 1486999i bk4: 23132a 1509496i bk5: 23132a 1480756i bk6: 23172a 1478552i bk7: 23172a 1466662i bk8: 23182a 1517979i bk9: 23174a 1509988i bk10: 23130a 1501741i bk11: 23124a 1499698i bk12: 23118a 1486810i bk13: 23110a 1475635i bk14: 23104a 1477779i bk15: 23104a 1468303i 
dram_util_bins: 0 0 0 0 0 0 0 0 0 0
dram_eff_bins: 0 0 0 0 0 0 0 0 0 0
mrqq: max=16 avg=2.37068
Memory Partition 2: 
Cache L2_bank_004:
MSHR contents

Cache L2_bank_005:
MSHR contents

In Dram Latency Queue (total = 0): 
DRAM[2]: 16 bks, busW=4 BL=8 CL=12, tRRD=2 tCCD=6, tRCD=12 tRAS=28 tRP=12 tRC=40
n_cmd=1901703 n_nop=1259694 n_act=130246 n_pre=130230 n_req=190922 n_rd=371388 n_write=10145 bw_util=0.4013
n_activity=1276379 dram_eff=0.5978
bk0: 23334a 1500562i bk1: 23348a 1505649i bk2: 23176a 1504101i bk3: 23164a 1502766i bk4: 23124a 1497919i bk5: 23140a 1494476i bk6: 23168a 1477915i bk7: 23834a 1463254i bk8: 23168a 1518556i bk9: 23198a 1524351i bk10: 23128a 1499860i bk11: 23124a 1502110i bk12: 23104a 1485689i bk13: 23144a 1479294i bk14: 23114a 1484750i bk15: 23120a 1460859i 
dram_util_bins: 0 0 0 0 0 0 0 0 0 0
dram_eff_bins: 0 0 0 0 0 0 0 0 0 0
mrqq: max=16 avg=2.32127
Memory Partition 3: 
Cache L2_bank_006:
MSHR contents

Cache L2_bank_007:
MSHR contents

In Dram Latency Queue (total = 0): 
DRAM[3]: 16 bks, busW=4 BL=8 CL=12, tRRD=2 tCCD=6, tRCD=12 tRAS=28 tRP=12 tRC=40
n_cmd=1901703 n_nop=1258389 n_act=131059 n_pre=131043 n_req=190767 n_rd=371218 n_write=9994 bw_util=0.4009
n_activity=1273225 dram_eff=0.5988
bk0: 23344a 1512660i bk1: 23338a 1497863i bk2: 23174a 1490551i bk3: 23168a 1502239i bk4: 23126a 1505454i bk5: 23152a 1494340i bk6: 23680a 1471782i bk7: 23172a 1468866i bk8: 23170a 1513025i bk9: 23196a 1515807i bk10: 23128a 1496413i bk11: 23124a 1507362i bk12: 23104a 1489392i bk13: 23130a 1486590i bk14: 23108a 1473267i bk15: 23104a 1466558i 
dram_util_bins: 0 0 0 0 0 0 0 0 0 0
dram_eff_bins: 0 0 0 0 0 0 0 0 0 0
mrqq: max=16 avg=2.32857
Memory Partition 4: 
Cache L2_bank_008:
MSHR contents

Cache L2_bank_009:
MSHR contents

In Dram Latency Queue (total = 0): 
DRAM[4]: 16 bks, busW=4 BL=8 CL=12, tRRD=2 tCCD=6, tRCD=12 tRAS=28 tRP=12 tRC=40
n_cmd=1901703 n_nop=1260468 n_act=129875 n_pre=129859 n_req=190916 n_rd=371362 n_write=10139 bw_util=0.4012
n_activity=1276820 dram_eff=0.5976
bk0: 23348a 1510554i bk1: 23350a 1503372i bk2: 23176a 1509233i bk3: 23158a 1489369i bk4: 23134a 1492838i bk5: 23132a 1500725i bk6: 23172a 1481224i bk7: 23172a 1465958i bk8: 23180a 1519166i bk9: 23176a 1510528i bk10: 23126a 1505171i bk11: 23124a 1497546i bk12: 23780a 1486072i bk13: 23122a 1485467i bk14: 23108a 1485360i bk15: 23104a 1463945i 
dram_util_bins: 0 0 0 0 0 0 0 0 0 0
dram_eff_bins: 0 0 0 0 0 0 0 0 0 0
mrqq: max=16 avg=2.36385
Memory Partition 5: 
Cache L2_bank_010:
MSHR contents

Cache L2_bank_011:
MSHR contents

In Dram Latency Queue (total = 0): 
DRAM[5]: 16 bks, busW=4 BL=8 CL=12, tRRD=2 tCCD=6, tRCD=12 tRAS=28 tRP=12 tRC=40
n_cmd=1901703 n_nop=1258424 n_act=131039 n_pre=131023 n_req=190770 n_rd=371216 n_write=10001 bw_util=0.4009
n_activity=1271840 dram_eff=0.5995
bk0: 23348a 1510867i bk1: 23350a 1491043i bk2: 23170a 1501966i bk3: 23158a 1495544i bk4: 23128a 1501764i bk5: 23134a 1488342i bk6: 23178a 1474068i bk7: 23174a 1465260i bk8: 23172a 1526003i bk9: 23190a 1506554i bk10: 23136a 1500098i bk11: 23124a 1497674i bk12: 23108a 1492838i bk13: 23638a 1472003i bk14: 23104a 1481284i bk15: 23104a 1457327i 
dram_util_bins: 0 0 0 0 0 0 0 0 0 0
dram_eff_bins: 0 0 0 0 0 0 0 0 0 0
mrqq: max=16 avg=2.40148

========= L2 cache stats =========
L2_cache_bank[0]: Access = 102103, Miss = 93014, Miss_rate = 0.911, Pending_hits = 754, Reservation_fails = 42487
L2_cache_bank[1]: Access = 97607, Miss = 92671, Miss_rate = 0.949, Pending_hits = 10, Reservation_fails = 17609
L2_cache_bank[2]: Access = 97801, Miss = 92680, Miss_rate = 0.948, Pending_hits = 19, Reservation_fails = 14060
L2_cache_bank[3]: Access = 102567, Miss = 92928, Miss_rate = 0.906, Pending_hits = 767, Reservation_fails = 44737
L2_cache_bank[4]: Access = 98046, Miss = 92658, Miss_rate = 0.945, Pending_hits = 16, Reservation_fails = 16006
L2_cache_bank[5]: Access = 103015, Miss = 93036, Miss_rate = 0.903, Pending_hits = 757, Reservation_fails = 37661
L2_cache_bank[6]: Access = 102473, Miss = 92917, Miss_rate = 0.907, Pending_hits = 771, Reservation_fails = 40077
L2_cache_bank[7]: Access = 98709, Miss = 92692, Miss_rate = 0.939, Pending_hits = 18, Reservation_fails = 16487
L2_cache_bank[8]: Access = 102007, Miss = 93012, Miss_rate = 0.912, Pending_hits = 755, Reservation_fails = 46090
L2_cache_bank[9]: Access = 97647, Miss = 92669, Miss_rate = 0.949, Pending_hits = 12, Reservation_fails = 11769
L2_cache_bank[10]: Access = 98081, Miss = 92672, Miss_rate = 0.945, Pending_hits = 15, Reservation_fails = 11682
L2_cache_bank[11]: Access = 102531, Miss = 92936, Miss_rate = 0.906, Pending_hits = 766, Reservation_fails = 45027
L2_total_cache_accesses = 1202587
L2_total_cache_misses = 1113885
L2_total_cache_miss_rate = 0.9262
L2_total_cache_pending_hits = 4660
L2_total_cache_reservation_fails = 343692
L2_total_cache_breakdown:
	L2_cache_stats_breakdown[GLOBAL_ACC_R][HIT] = 44597
	L2_cache_stats_breakdown[GLOBAL_ACC_R][HIT_RESERVED] = 4499
	L2_cache_stats_breakdown[GLOBAL_ACC_R][MISS] = 1112013
	L2_cache_stats_breakdown[GLOBAL_ACC_R][RESERVATION_FAIL] = 343130
	L2_cache_stats_breakdown[CONST_ACC_R][HIT] = 11
	L2_cache_stats_breakdown[CONST_ACC_R][HIT_RESERVED] = 3
	L2_cache_stats_breakdown[CONST_ACC_R][MISS] = 1
	L2_cache_stats_breakdown[CONST_ACC_R][RESERVATION_FAIL] = 109
	L2_cache_stats_breakdown[GLOBAL_ACC_W][HIT] = 39351
	L2_cache_stats_breakdown[GLOBAL_ACC_W][HIT_RESERVED] = 143
	L2_cache_stats_breakdown[GLOBAL_ACC_W][MISS] = 1864
	L2_cache_stats_breakdown[GLOBAL_ACC_W][RESERVATION_FAIL] = 33
	L2_cache_stats_breakdown[INST_ACC_R][HIT] = 83
	L2_cache_stats_breakdown[INST_ACC_R][HIT_RESERVED] = 15
	L2_cache_stats_breakdown[INST_ACC_R][MISS] = 7
	L2_cache_stats_breakdown[INST_ACC_R][RESERVATION_FAIL] = 420
L2_cache_data_port_util = 0.024
L2_cache_fill_port_util = 0.258

icnt_total_pkts_mem_to_simt=5847473
icnt_total_pkts_simt_to_mem=1333326
LD_mem_lat_dist  0 0 0 0 0 0 0 0 0 0 0 0 0 0 0 0 0 0 0 0 0 0 0 0 0 0 0
ST_mem_lat_dist  0 0 0 0 0 0 0 0 0 0 0 0 0 0 0 0 0 0 0 0 0 0 0 0 0 0 0
----------------------------Interconnect-DETAILS--------------------------------
Class 0:
Packet latency average = 16.9786
	minimum = 6
	maximum = 566
Network latency average = 13.777
	minimum = 6
	maximum = 467
Slowest packet = 1575027
Flit latency average = 12.8251
	minimum = 6
	maximum = 463
Slowest flit = 4696082
Fragmentation average = 0.0101869
	minimum = 0
	maximum = 346
Injected packet rate average = 0.0614479
	minimum = 0.0453039 (at node 5)
	maximum = 0.0743239 (at node 18)
Accepted packet rate average = 0.0614479
	minimum = 0.0453039 (at node 5)
	maximum = 0.0743239 (at node 18)
Injected flit rate average = 0.184007
	minimum = 0.0480165 (at node 5)
	maximum = 0.366751 (at node 18)
Accepted flit rate average= 0.184007
	minimum = 0.0714233 (at node 23)
	maximum = 0.289016 (at node 6)
Injected packet length average = 2.99452
Accepted packet length average = 2.99452
Total in-flight flits = 0 (0 measured)
====== Overall Traffic Statistics ======
====== Traffic class 0 ======
Packet latency average = 19.1541 (2 samples)
	minimum = 6 (2 samples)
	maximum = 612.5 (2 samples)
Network latency average = 15.0307 (2 samples)
	minimum = 6 (2 samples)
	maximum = 523 (2 samples)
Flit latency average = 13.4487 (2 samples)
	minimum = 6 (2 samples)
	maximum = 521 (2 samples)
Fragmentation average = 0.0183689 (2 samples)
	minimum = 0 (2 samples)
	maximum = 351 (2 samples)
Injected packet rate average = 0.0618199 (2 samples)
	minimum = 0.0457161 (2 samples)
	maximum = 0.0747249 (2 samples)
Accepted packet rate average = 0.0618199 (2 samples)
	minimum = 0.0457161 (2 samples)
	maximum = 0.0747249 (2 samples)
Injected flit rate average = 0.184585 (2 samples)
	minimum = 0.0506091 (2 samples)
	maximum = 0.36427 (2 samples)
Accepted flit rate average = 0.184585 (2 samples)
	minimum = 0.0750484 (2 samples)
	maximum = 0.286774 (2 samples)
Injected packet size average = 2.98585 (2 samples)
Accepted packet size average = 2.98585 (2 samples)
Hops average = 1 (2 samples)
----------------------------END-of-Interconnect-DETAILS-------------------------
GPGPU-Sim API: Stream Manager State
