

        *** GPGPU-Sim Simulator Version 3.2.2  [build 0] ***


GPGPU-Sim PTX: simulation mode 0 (can change with PTX_SIM_MODE_FUNC environment variable:
               1=functional simulation only, 0=detailed performance simulator)
GPGPU-Sim: Configuration options:

-network_mode                           1 # Interconnection network mode
-inter_config_file   config_fermi_islip.icnt # Interconnection network config file
-gpgpu_ptx_use_cuobjdump                    1 # Use cuobjdump to extract ptx and sass from binaries
-gpgpu_experimental_lib_support                    0 # Try to extract code from cuda libraries [Broken because of unknown cudaGetExportTable]
-gpgpu_ptx_convert_to_ptxplus                    0 # Convert SASS (native ISA) to ptxplus and run ptxplus
-gpgpu_ptx_force_max_capability                   20 # Force maximum compute capability
-gpgpu_ptx_inst_debug_to_file                    0 # Dump executed instructions' debug information to file
-gpgpu_ptx_inst_debug_file       inst_debug.txt # Executed instructions' debug output file
-gpgpu_ptx_inst_debug_thread_uid                    1 # Thread UID for executed instructions' debug output
-gpgpu_simd_model                       1 # 1 = post-dominator
-gpgpu_shader_core_pipeline              1536:32 # shader core pipeline config, i.e., {<nthread>:<warpsize>}
-gpgpu_tex_cache:l1  4:128:24,L:R:m:N:L,F:128:4,128:2 # per-shader L1 texture cache  (READ-ONLY) config  {<nsets>:<bsize>:<assoc>,<rep>:<wr>:<alloc>:<wr_alloc>,<mshr>:<N>:<merge>,<mq>:<rf>}
-gpgpu_const_cache:l1 64:64:2,L:R:f:N:L,A:2:32,4 # per-shader L1 constant memory cache  (READ-ONLY) config  {<nsets>:<bsize>:<assoc>,<rep>:<wr>:<alloc>:<wr_alloc>,<mshr>:<N>:<merge>,<mq>} 
-gpgpu_cache:il1     4:128:4,L:R:f:N:L,A:2:32,4 # shader L1 instruction cache config  {<nsets>:<bsize>:<assoc>,<rep>:<wr>:<alloc>:<wr_alloc>,<mshr>:<N>:<merge>,<mq>} 
-gpgpu_cache:dl1     32:128:4,L:L:m:N:H,A:32:8,8:2,0,1:0:1:1:0:1,1:4:8:16:32:64,/sciclone/data10/hwang07/GPU_RESEARCH/swl/swl_outputs/RESULTS/lrr/ # per-shader L1 data cache config  {<nsets>:<bsize>:<assoc>,<rep>:<wr>:<alloc>:<wr_alloc>,<mshr>:<N>:<merge>,<mq> | none}
-gpgpu_cache:dl1PrefL1                 none # per-shader L1 data cache config  {<nsets>:<bsize>:<assoc>,<rep>:<wr>:<alloc>:<wr_alloc>,<mshr>:<N>:<merge>,<mq> | none}
-gpgpu_cache:dl1PreShared                 none # per-shader L1 data cache config  {<nsets>:<bsize>:<assoc>,<rep>:<wr>:<alloc>:<wr_alloc>,<mshr>:<N>:<merge>,<mq> | none}
-gmem_skip_L1D                          0 # global memory access skip L1D cache (implements -Xptxas -dlcm=cg, default=no skip)
-gpgpu_perfect_mem                      0 # enable perfect memory mode (no cache miss)
-n_regfile_gating_group                    4 # group of lanes that should be read/written together)
-gpgpu_clock_gated_reg_file                    0 # enable clock gated reg file for power calculations
-gpgpu_clock_gated_lanes                    0 # enable clock gated lanes for power calculations
-gpgpu_shader_registers                32768 # Number of registers per shader core. Limits number of concurrent CTAs. (default 8192)
-gpgpu_shader_cta                       8 # Maximum number of concurrent CTAs in shader (default 8)
-gpgpu_num_cta_barriers                   16 # Maximum number of named barriers per CTA (default 16)
-gpgpu_n_clusters                      15 # number of processing clusters
-gpgpu_n_cores_per_cluster                    1 # number of simd cores per cluster
-gpgpu_n_cluster_ejection_buffer_size                    8 # number of packets in ejection buffer
-gpgpu_n_ldst_response_buffer_size                    2 # number of response packets in ld/st unit ejection buffer
-gpgpu_shmem_size                   16384 # Size of shared memory per shader core (default 16kB)
-gpgpu_shmem_size                   49152 # Size of shared memory per shader core (default 16kB)
-gpgpu_shmem_size_PrefL1                16384 # Size of shared memory per shader core (default 16kB)
-gpgpu_shmem_size_PrefShared                16384 # Size of shared memory per shader core (default 16kB)
-gpgpu_shmem_num_banks                   32 # Number of banks in the shared memory in each shader core (default 16)
-gpgpu_shmem_limited_broadcast                    0 # Limit shared memory to do one broadcast per cycle (default on)
-gpgpu_shmem_warp_parts                    1 # Number of portions a warp is divided into for shared memory bank conflict check 
-gpgpu_warpdistro_shader                   -1 # Specify which shader core to collect the warp size distribution from
-gpgpu_warp_issue_shader                    0 # Specify which shader core to collect the warp issue distribution from
-gpgpu_local_mem_map                    1 # Mapping from local memory space address to simulated GPU physical address space (default = enabled)
-gpgpu_num_reg_banks                   16 # Number of register banks (default = 8)
-gpgpu_reg_bank_use_warp_id                    0 # Use warp ID in mapping registers to banks (default = off)
-gpgpu_operand_collector_num_units_sp                    6 # number of collector units (default = 4)
-gpgpu_operand_collector_num_units_sfu                    8 # number of collector units (default = 4)
-gpgpu_operand_collector_num_units_mem                    2 # number of collector units (default = 2)
-gpgpu_operand_collector_num_units_gen                    0 # number of collector units (default = 0)
-gpgpu_operand_collector_num_in_ports_sp                    2 # number of collector unit in ports (default = 1)
-gpgpu_operand_collector_num_in_ports_sfu                    1 # number of collector unit in ports (default = 1)
-gpgpu_operand_collector_num_in_ports_mem                    1 # number of collector unit in ports (default = 1)
-gpgpu_operand_collector_num_in_ports_gen                    0 # number of collector unit in ports (default = 0)
-gpgpu_operand_collector_num_out_ports_sp                    2 # number of collector unit in ports (default = 1)
-gpgpu_operand_collector_num_out_ports_sfu                    1 # number of collector unit in ports (default = 1)
-gpgpu_operand_collector_num_out_ports_mem                    1 # number of collector unit in ports (default = 1)
-gpgpu_operand_collector_num_out_ports_gen                    0 # number of collector unit in ports (default = 0)
-gpgpu_coalesce_arch                   13 # Coalescing arch (default = 13, anything else is off for now)
-gpgpu_num_sched_per_core                    2 # Number of warp schedulers per core
-gpgpu_max_insn_issue_per_warp                    1 # Max number of instructions that can be issued per warp in one cycle by scheduler
-gpgpu_simt_core_sim_order                    1 # Select the simulation order of cores in a cluster (0=Fix, 1=Round-Robin)
-gpgpu_pipeline_widths        2,1,1,2,1,1,2 # Pipeline widths ID_OC_SP,ID_OC_SFU,ID_OC_MEM,OC_EX_SP,OC_EX_SFU,OC_EX_MEM,EX_WB
-gpgpu_num_sp_units                     2 # Number of SP units (default=1)
-gpgpu_num_sfu_units                    1 # Number of SF units (default=1)
-gpgpu_num_mem_units                    1 # Number if ldst units (default=1) WARNING: not hooked up to anything
-gpgpu_scheduler                      lrr # Scheduler configuration: < lrr | gto | two_level_active > If two_level_active:<num_active_warps>:<inner_prioritization>:<outer_prioritization>For complete list of prioritization values see shader.h enum scheduler_prioritization_typeDefault: gto
-gpgpu_dram_scheduler                    1 # 0 = fifo, 1 = FR-FCFS (defaul)
-gpgpu_dram_partition_queues              8:8:8:8 # i2$:$2d:d2$:$2i
-l2_ideal                               0 # Use a ideal L2 cache that always hit
-gpgpu_cache:dl2     64:128:8,L:B:m:W:L,A:32:4,4:0,32 # unified banked L2 data cache config  {<nsets>:<bsize>:<assoc>,<rep>:<wr>:<alloc>:<wr_alloc>,<mshr>:<N>:<merge>,<mq>}
-gpgpu_cache:dl2_texture_only                    0 # L2 cache used for texture only
-gpgpu_n_mem                            6 # number of memory modules (e.g. memory controllers) in gpu
-gpgpu_n_sub_partition_per_mchannel                    2 # number of memory subpartition in each memory module
-gpgpu_n_mem_per_ctrlr                    2 # number of memory chips per memory controller
-gpgpu_memlatency_stat                   14 # track and display latency statistics 0x2 enables MC, 0x4 enables queue logs
-gpgpu_frfcfs_dram_sched_queue_size                   16 # 0 = unlimited (default); # entries per chip
-gpgpu_dram_return_queue_size                  116 # 0 = unlimited (default); # entries per chip
-gpgpu_dram_buswidth                    4 # default = 4 bytes (8 bytes per cycle at DDR)
-gpgpu_dram_burst_length                    8 # Burst length of each DRAM request (default = 4 data bus cycle)
-dram_data_command_freq_ratio                    4 # Frequency ratio between DRAM data bus and command bus (default = 2 times, i.e. DDR)
-gpgpu_dram_timing_opt nbk=16:CCD=2:RRD=6:RCD=12:RAS=28:RP=12:RC=40: CL=12:WL=4:CDLR=5:WR=12:nbkgrp=4:CCDL=3:RTPL=2 # DRAM timing parameters = {nbk:tCCD:tRRD:tRCD:tRAS:tRP:tRC:CL:WL:tCDLR:tWR:nbkgrp:tCCDL:tRTPL}
-rop_latency                          120 # ROP queue latency (default 85)
-dram_latency                         100 # DRAM latency (default 30)
-gpgpu_mem_addr_mapping dramid@8;00000000.00000000.00000000.00000000.0000RRRR.RRRRRRRR.BBBCCCCB.CCSSSSSS # mapping memory address to dram model {dramid@<start bit>;<memory address map>}
-gpgpu_mem_addr_test                    0 # run sweep test to check address mapping for aliased address
-gpgpu_mem_address_mask                    1 # 0 = old addressing mask, 1 = new addressing mask, 2 = new add. mask + flipped bank sel and chip sel bits
-gpuwattch_xml_file  gpuwattch_gtx480.xml # GPUWattch XML file
-power_simulation_enabled                    0 # Turn on power simulator (1=On, 0=Off)
-power_per_cycle_dump                    0 # Dump detailed power output each cycle
-power_trace_enabled                    0 # produce a file for the power trace (1=On, 0=Off)
-power_trace_zlevel                     6 # Compression level of the power trace output log (0=no comp, 9=highest)
-steady_power_levels_enabled                    0 # produce a file for the steady power levels (1=On, 0=Off)
-steady_state_definition                  8:4 # allowed deviation:number of samples
-gpgpu_max_cycle                        0 # terminates gpu simulation early (0 = no limit)
-gpgpu_max_insn                         0 # terminates gpu simulation early (0 = no limit)
-gpgpu_max_cta                          0 # terminates gpu simulation early (0 = no limit)
-gpgpu_runtime_stat                   500 # display runtime statistics such as dram utilization {<freq>:<flag>}
-liveness_message_freq                    1 # Minimum number of seconds between simulation liveness messages (0 = always print)
-gpgpu_flush_l1_cache                    0 # Flush L1 cache at the end of each kernel call
-gpgpu_flush_l2_cache                    0 # Flush L2 cache at the end of each kernel call
-gpgpu_deadlock_detect                    1 # Stop the simulation at deadlock (1=on (default), 0=off)
-gpgpu_ptx_instruction_classification                    0 # if enabled will classify ptx instruction types per kernel (Max 255 kernels now)
-gpgpu_ptx_sim_mode                     0 # Select between Performance (default) or Functional simulation (1)
-gpgpu_clock_domains 700.0:700.0:700.0:924.0 # Clock Domain Frequencies in MhZ {<Core Clock>:<ICNT Clock>:<L2 Clock>:<DRAM Clock>}
-gpgpu_max_concurrent_kernel                    8 # maximum kernels that can run concurrently on GPU
-gpgpu_cflog_interval                    0 # Interval between each snapshot in control flow logger
-visualizer_enabled                     0 # Turn on visualizer output (1=On, 0=Off)
-visualizer_outputfile                 NULL # Specifies the output log file for visualizer
-visualizer_zlevel                      6 # Compression level of the visualizer output log (0=no comp, 9=highest)
-trace_enabled                          0 # Turn on traces
-trace_components                    none # comma seperated list of traces to enable. Complete list found in trace_streams.tup. Default none
-trace_sampling_core                    0 # The core which is printed using CORE_DPRINTF. Default 0
-trace_sampling_memory_partition                   -1 # The memory partition which is printed using MEMPART_DPRINTF. Default -1 (i.e. all)
-enable_ptx_file_line_stats                    1 # Turn on PTX source line statistic profiling. (1 = On)
-ptx_line_stats_filename gpgpu_inst_stats.txt # Output file for PTX source line statistics.
-save_embedded_ptx                      0 # saves ptx files embedded in binary as <n>.ptx
-keep                                   0 # keep intermediate files created by GPGPU-Sim when interfacing with external programs
-gpgpu_ptx_save_converted_ptxplus                    0 # Saved converted ptxplus to a file
-ptx_opcode_latency_int         4,13,4,5,145 # Opcode latencies for integers <ADD,MAX,MUL,MAD,DIV>Default 1,1,19,25,145
-ptx_opcode_latency_fp          4,13,4,5,39 # Opcode latencies for single precision floating points <ADD,MAX,MUL,MAD,DIV>Default 1,1,1,1,30
-ptx_opcode_latency_dp         8,19,8,8,330 # Opcode latencies for double precision floating points <ADD,MAX,MUL,MAD,DIV>Default 8,8,8,8,335
-ptx_opcode_initiation_int            1,2,2,1,8 # Opcode initiation intervals for integers <ADD,MAX,MUL,MAD,DIV>Default 1,1,4,4,32
-ptx_opcode_initiation_fp            1,2,1,1,4 # Opcode initiation intervals for single precision floating points <ADD,MAX,MUL,MAD,DIV>Default 1,1,1,1,5
-ptx_opcode_initiation_dp         8,16,8,8,130 # Opcode initiation intervals for double precision floating points <ADD,MAX,MUL,MAD,DIV>Default 8,8,8,8,130
DRAM Timing Options:
nbk                                    16 # number of banks
CCD                                     2 # column to column delay
RRD                                     6 # minimal delay between activation of rows in different banks
RCD                                    12 # row to column delay
RAS                                    28 # time needed to activate row
RP                                     12 # time needed to precharge (deactivate) row
RC                                     40 # row cycle time
CDLR                                    5 # switching from write to read (changes tWTR)
WR                                     12 # last data-in to row precharge
CL                                     12 # CAS latency
WL                                      4 # Write latency
nbkgrp                                  4 # number of bank groups
CCDL                                    3 # column to column delay between accesses to different bank groups
RTPL                                    2 # read to precharge delay between accesses to different bank groups
Total number of memory sub partition = 12
addr_dec_mask[CHIP]  = 0000000000000000 	high:64 low:0
addr_dec_mask[BK]    = 000000000000e100 	high:16 low:8
addr_dec_mask[ROW]   = 000000000fff0000 	high:28 low:16
addr_dec_mask[COL]   = 0000000000001eff 	high:13 low:0
addr_dec_mask[BURST] = 000000000000003f 	high:6 low:0
sub_partition_id_mask = 0000000000000100
GPGPU-Sim uArch: clock freqs: 700000000.000000:700000000.000000:700000000.000000:924000000.000000
GPGPU-Sim uArch: clock periods: 0.00000000142857142857:0.00000000142857142857:0.00000000142857142857:0.00000000108225108225
*** Initializing Memory Statistics ***
GPGPU-Sim uArch: interconnect node map (shaderID+MemID to icntID)
GPGPU-Sim uArch: Memory nodes ID start from index: 15
GPGPU-Sim uArch:    0   1   2   3   4
GPGPU-Sim uArch:    5   6   7   8   9
GPGPU-Sim uArch:   10  11  12  13  14
GPGPU-Sim uArch:   15  16  17  18  19
GPGPU-Sim uArch:   20  21  22  23  24
GPGPU-Sim uArch:   25  26
GPGPU-Sim uArch: interconnect node reverse map (icntID to shaderID+MemID)
GPGPU-Sim uArch: Memory nodes start from ID: 15
GPGPU-Sim uArch:    0   1   2   3   4
GPGPU-Sim uArch:    5   6   7   8   9
GPGPU-Sim uArch:   10  11  12  13  14
GPGPU-Sim uArch:   15  16  17  18  19
GPGPU-Sim uArch:   20  21  22  23  24
GPGPU-Sim uArch:   25  26
3ac84fa4a7694480acfeeecc44658c10  /sciclone/data10/hwang07/adwait/applications/benchmarks/lonestar/bin/mst
GPGPU-Sim uArch: performance model initialization complete.
GPGPU-Sim PTX: __cudaRegisterFatBinary, fat_cubin_handle = 1, filename=apps/mst/./main.cu
self exe links to: /sciclone/data10/hwang07/adwait/applications/benchmarks/lonestar/bin/mst
Running md5sum using "md5sum /sciclone/data10/hwang07/adwait/applications/benchmarks/lonestar/bin/mst "
Parsing file _cuobjdump_complete_output_0EUqq1
######### cuobjdump parser ########
## Adding new section PTX
Adding ptx filename: _cuobjdump_1.ptx
Adding arch: sm_20
Adding identifier: apps/mst/./main.cu
## Adding new section ELF
Adding arch: sm_20
Adding identifier: apps/mst/./main.cu
Done parsing!!!
GPGPU-Sim PTX: __cudaRegisterFunction _Z18dfindcompminatomicPf5Graph14ComponentSpacePjS2_S2_S2_Pbi : hostFun 0x0x402390, fat_cubin_handle = 1
GPGPU-Sim PTX: allocating stack frame region for .param "__cudaparmf1__Z11global_syncjPVjS0_" from 0x0 to 0x4
GPGPU-Sim PTX: allocating stack frame region for .param "__cudaparmf2__Z11global_syncjPVjS0_" from 0x4 to 0xc
GPGPU-Sim PTX: allocating stack frame region for .param "__cudaparmf3__Z11global_syncjPVjS0_" from 0xc to 0x14
GPGPU-Sim PTX: allocating stack frame region for .param "__cudaparmf1__ZN5Graph13printStats1x1Ev" from 0x0 to 0x8
GPGPU-Sim PTX: allocating stack frame region for .param "__cudaretf__ZN5Graph13computeLevelsEv" from 0x0 to 0x4
GPGPU-Sim PTX: allocating stack frame region for .param "__cudaparmf1__ZN5Graph13computeLevelsEv" from 0x4 to 0xc
GPGPU-Sim PTX: allocating stack frame region for .param "__cudaparmf1__ZN5Graph10initLevelsEv" from 0x0 to 0x8
GPGPU-Sim PTX: allocating stack frame region for .param "__cudaparmf1__ZN5Graph8print1x1Ev" from 0x0 to 0x8
GPGPU-Sim PTX: allocating stack frame region for .param "__cudaparmf1__ZN14ComponentSpace8print1x1Ev" from 0x0 to 0x8
GPGPU-Sim PTX: allocating stack frame region for .param "__cudaretf__ZN14ComponentSpace4findEjb" from 0x0 to 0x4
GPGPU-Sim PTX: allocating stack frame region for .param "__cudaparmf1__ZN14ComponentSpace4findEjb" from 0x4 to 0xc
GPGPU-Sim PTX: allocating stack frame region for .param "__cudaparmf2__ZN14ComponentSpace4findEjb" from 0xc to 0x10
GPGPU-Sim PTX: allocating stack frame region for .param "__cudaparmf3__ZN14ComponentSpace4findEjb" from 0x10 to 0x14
GPGPU-Sim PTX: allocating stack frame region for .param "__cudaretf__ZN5Graph12getOutDegreeEj" from 0x0 to 0x4
GPGPU-Sim PTX: allocating stack frame region for .param "__cudaparmf1__ZN5Graph12getOutDegreeEj" from 0x4 to 0xc
GPGPU-Sim PTX: allocating stack frame region for .param "__cudaparmf2__ZN5Graph12getOutDegreeEj" from 0xc to 0x10
GPGPU-Sim PTX: allocating stack frame region for .param "__cudaretf__ZN5Graph9getWeightEjj" from 0x0 to 0x4
GPGPU-Sim PTX: allocating stack frame region for .param "__cudaparmf1__ZN5Graph9getWeightEjj" from 0x4 to 0xc
GPGPU-Sim PTX: allocating stack frame region for .param "__cudaparmf2__ZN5Graph9getWeightEjj" from 0xc to 0x10
GPGPU-Sim PTX: allocating stack frame region for .param "__cudaparmf3__ZN5Graph9getWeightEjj" from 0x10 to 0x14
GPGPU-Sim PTX: allocating stack frame region for .param "__cudaretf__ZN5Graph14getDestinationEjj" from 0x0 to 0x4
GPGPU-Sim PTX: allocating stack frame region for .param "__cudaparmf1__ZN5Graph14getDestinationEjj" from 0x4 to 0xc
GPGPU-Sim PTX: allocating stack frame region for .param "__cudaparmf2__ZN5Graph14getDestinationEjj" from 0xc to 0x10
GPGPU-Sim PTX: allocating stack frame region for .param "__cudaparmf3__ZN5Graph14getDestinationEjj" from 0x10 to 0x14
GPGPU-Sim PTX: allocating stack frame region for .param "__cudaretf_printf" from 0x0 to 0x4
GPGPU-Sim PTX: allocating stack frame region for .param "__cudaparmf1_printf" from 0x4 to 0xc
GPGPU-Sim PTX: allocating stack frame region for .param "__cudaretf_vprintf" from 0x0 to 0x4
GPGPU-Sim PTX: allocating stack frame region for .param "__cudaparmf1_vprintf" from 0x4 to 0xc
GPGPU-Sim PTX: allocating stack frame region for .param "__cudaparmf2_vprintf" from 0xc to 0x14
GPGPU-Sim PTX: allocating stack frame region for .param "__cudaretf__ZN14ComponentSpace5unifyEjj" from 0x0 to 0x4
GPGPU-Sim PTX: allocating stack frame region for .param "__cudaparmf1__ZN14ComponentSpace5unifyEjj" from 0x4 to 0xc
GPGPU-Sim PTX: allocating stack frame region for .param "__cudaparmf2__ZN14ComponentSpace5unifyEjj" from 0xc to 0x10
GPGPU-Sim PTX: allocating stack frame region for .param "__cudaparmf3__ZN14ComponentSpace5unifyEjj" from 0x10 to 0x14
GPGPU-Sim PTX: allocating stack frame region for .param "__cudaparmf1__ZN5Graph12computeStatsEv" from 0x0 to 0x8
GPGPU-Sim PTX: allocating stack frame region for .param "__cudaretf__ZN5Graph11getInDegreeEj" from 0x0 to 0x4
GPGPU-Sim PTX: allocating stack frame region for .param "__cudaparmf1__ZN5Graph11getInDegreeEj" from 0x4 to 0xc
GPGPU-Sim PTX: allocating stack frame region for .param "__cudaparmf2__ZN5Graph11getInDegreeEj" from 0xc to 0x10
GPGPU-Sim PTX: allocating stack frame region for .param "__cudaretf__ZN5Graph12getFirstEdgeEj" from 0x0 to 0x4
GPGPU-Sim PTX: allocating stack frame region for .param "__cudaparmf1__ZN5Graph12getFirstEdgeEj" from 0x4 to 0xc
GPGPU-Sim PTX: allocating stack frame region for .param "__cudaparmf2__ZN5Graph12getFirstEdgeEj" from 0xc to 0x10
GPGPU-Sim PTX: allocating stack frame region for .param "__cudaretf__ZN5Graph10getMinEdgeEj" from 0x0 to 0x4
GPGPU-Sim PTX: allocating stack frame region for .param "__cudaparmf1__ZN5Graph10getMinEdgeEj" from 0x4 to 0xc
GPGPU-Sim PTX: allocating stack frame region for .param "__cudaparmf2__ZN5Graph10getMinEdgeEj" from 0xc to 0x10
GPGPU-Sim PTX: allocating stack frame region for .param "__cudaparmf1__ZN5Graph12computeInOutEv" from 0x0 to 0x8
GPGPU-Sim PTX: allocating stack frame region for .param "__cudaparmf1__ZN5Graph15computeDiameterEv" from 0x0 to 0x8
GPGPU-Sim PTX: allocating stack frame region for .param "__cudaretf__ZN5Graph12findMaxLevelEv" from 0x0 to 0x4
GPGPU-Sim PTX: allocating stack frame region for .param "__cudaparmf1__ZN5Graph12findMaxLevelEv" from 0x4 to 0xc
GPGPU-Sim PTX: allocating stack frame region for .param "__cudaparmf1__ZN4ListC1Ej" from 0x0 to 0x8
GPGPU-Sim PTX: allocating stack frame region for .param "__cudaparmf2__ZN4ListC1Ej" from 0x8 to 0xc
GPGPU-Sim PTX: allocating stack frame region for .param "__cudaretf_malloc" from 0x0 to 0x8
GPGPU-Sim PTX: allocating stack frame region for .param "__cudaparmf1_malloc" from 0x8 to 0x10
GPGPU-Sim PTX: allocating stack frame region for .param "__cudaparmf1__ZN4List4initEPjjj" from 0x0 to 0x8
GPGPU-Sim PTX: allocating stack frame region for .param "__cudaparmf2__ZN4List4initEPjjj" from 0x8 to 0x10
GPGPU-Sim PTX: allocating stack frame region for .param "__cudaparmf3__ZN4List4initEPjjj" from 0x10 to 0x14
GPGPU-Sim PTX: allocating stack frame region for .param "__cudaparmf4__ZN4List4initEPjjj" from 0x14 to 0x18
GPGPU-Sim PTX: allocating stack frame region for .param "__cudaparmf1__ZN4List4pushEj" from 0x0 to 0x8
GPGPU-Sim PTX: allocating stack frame region for .param "__cudaparmf2__ZN4List4pushEj" from 0x8 to 0xc
GPGPU-Sim PTX: allocating stack frame region for .param "__cudaretf__ZN4List7toArrayEv" from 0x0 to 0x8
GPGPU-Sim PTX: allocating stack frame region for .param "__cudaparmf1__ZN4List7toArrayEv" from 0x8 to 0x10
GPGPU-Sim PTX: allocating stack frame region for .param "__cudaparmf1__ZN4List5clearEv" from 0x0 to 0x8
GPGPU-Sim PTX: allocating stack frame region for .param "__cudaparmf1_free" from 0x0 to 0x8
GPGPU-Sim PTX: allocating stack frame region for .param "__cudaretf__ZN4List4sizeEv" from 0x0 to 0x4
GPGPU-Sim PTX: allocating stack frame region for .param "__cudaparmf1__ZN4List4sizeEv" from 0x4 to 0xc
GPGPU-Sim PTX: allocating stack frame region for .param "__cudaparmf1__ZN4List4uniqEPjj" from 0x0 to 0x8
GPGPU-Sim PTX: allocating stack frame region for .param "__cudaparmf2__ZN4List4uniqEPjj" from 0x8 to 0x10
GPGPU-Sim PTX: allocating stack frame region for .param "__cudaparmf3__ZN4List4uniqEPjj" from 0x10 to 0x14
GPGPU-Sim PTX: allocating stack frame region for .param "__cudaretf__ZN14ComponentSpace16numberOfElementsEv" from 0x0 to 0x4
GPGPU-Sim PTX: allocating stack frame region for .param "__cudaparmf1__ZN14ComponentSpace16numberOfElementsEv" from 0x4 to 0xc
GPGPU-Sim PTX: allocating stack frame region for .param "__cudaretf__ZN14ComponentSpace18numberOfComponentsEv" from 0x0 to 0x4
GPGPU-Sim PTX: allocating stack frame region for .param "__cudaparmf1__ZN14ComponentSpace18numberOfComponentsEv" from 0x4 to 0xc
GPGPU-Sim PTX: allocating stack frame region for .param "__cudaretf__ZN14ComponentSpace6isBossEj" from 0x0 to 0x4
GPGPU-Sim PTX: allocating stack frame region for .param "__cudaparmf1__ZN14ComponentSpace6isBossEj" from 0x4 to 0xc
GPGPU-Sim PTX: allocating stack frame region for .param "__cudaparmf2__ZN14ComponentSpace6isBossEj" from 0xc to 0x10
GPGPU-Sim PTX: instruction assembly for function '_Z11global_syncjPVjS0_'...   done.
GPGPU-Sim PTX: finding reconvergence points for '_Z11global_syncjPVjS0_'...
GPGPU-Sim PTX: Finding dominators for '_Z11global_syncjPVjS0_'...
GPGPU-Sim PTX: Finding immediate dominators for '_Z11global_syncjPVjS0_'...
GPGPU-Sim PTX: Finding postdominators for '_Z11global_syncjPVjS0_'...
GPGPU-Sim PTX: Finding immediate postdominators for '_Z11global_syncjPVjS0_'...
GPGPU-Sim PTX: pre-decoding instructions for '_Z11global_syncjPVjS0_'...
GPGPU-Sim PTX: reconvergence points for _Z11global_syncjPVjS0_...
GPGPU-Sim PTX:  1 (potential) branch divergence @  PC=0x090 (_1.ptx:144) @!%p1 bra $Lt_0_6146;
GPGPU-Sim PTX:    immediate post dominator      @  PC=0x0c0 (_1.ptx:153) mov.u32 %r14, 0;
GPGPU-Sim PTX:  2 (potential) branch divergence @  PC=0x0d0 (_1.ptx:155) @%p2 bra $Lt_0_6658;
GPGPU-Sim PTX:    immediate post dominator      @  PC=0x178 (_1.ptx:184) @!%p1 bra $Lt_0_9218;
GPGPU-Sim PTX:  3 (potential) branch divergence @  PC=0x0f0 (_1.ptx:159) @!%p3 bra $Lt_0_7170;
GPGPU-Sim PTX:    immediate post dominator      @  PC=0x140 (_1.ptx:173) bar.sync 0;
GPGPU-Sim PTX:  4 (potential) branch divergence @  PC=0x120 (_1.ptx:165) @%p4 bra $Lt_0_7682;
GPGPU-Sim PTX:    immediate post dominator      @  PC=0x140 (_1.ptx:173) bar.sync 0;
GPGPU-Sim PTX:  5 (potential) branch divergence @  PC=0x138 (_1.ptx:169) @%p5 bra $Lt_0_8194;
GPGPU-Sim PTX:    immediate post dominator      @  PC=0x140 (_1.ptx:173) bar.sync 0;
GPGPU-Sim PTX:  6 (potential) branch divergence @  PC=0x148 (_1.ptx:174) @!%p3 bra $Lt_0_8706;
GPGPU-Sim PTX:    immediate post dominator      @  PC=0x178 (_1.ptx:184) @!%p1 bra $Lt_0_9218;
GPGPU-Sim PTX:  7 (potential) branch divergence @  PC=0x178 (_1.ptx:184) @!%p1 bra $Lt_0_9218;
GPGPU-Sim PTX:    immediate post dominator      @  PC=0x1c8 (_1.ptx:198) ret;
GPGPU-Sim PTX:  8 (potential) branch divergence @  PC=0x1a8 (_1.ptx:190) @%p6 bra $Lt_0_9730;
GPGPU-Sim PTX:    immediate post dominator      @  PC=0x1c8 (_1.ptx:198) ret;
GPGPU-Sim PTX:  9 (potential) branch divergence @  PC=0x1c0 (_1.ptx:194) @%p7 bra $Lt_0_10242;
GPGPU-Sim PTX:    immediate post dominator      @  PC=0x1c8 (_1.ptx:198) ret;
GPGPU-Sim PTX: ... end of reconvergence points for _Z11global_syncjPVjS0_
GPGPU-Sim PTX: ... done pre-decoding instructions for '_Z11global_syncjPVjS0_'.
GPGPU-Sim PTX: allocating global region for "__constant880" from 0x100 to 0x11c (global memory space)
GPGPU-Sim PTX: allocating global region for "__constant881" from 0x180 to 0x19c (global memory space)
GPGPU-Sim PTX: allocating global region for "__constant882" from 0x200 to 0x222 (global memory space)
GPGPU-Sim PTX: allocating global region for "__constant883" from 0x280 to 0x2a2 (global memory space)
GPGPU-Sim PTX: allocating global region for "__constant884" from 0x300 to 0x31c (global memory space)
GPGPU-Sim PTX: allocating global region for "__constant888" from 0x380 to 0x3b5 (global memory space)
GPGPU-Sim PTX: allocating global region for "__constant889" from 0x400 to 0x412 (global memory space)
GPGPU-Sim PTX: allocating stack frame region for .local "__cuda___cuda__temp__valist_array_53_40104" from 0x0 to 0x18
GPGPU-Sim PTX: allocating stack frame region for .local "__cuda___cuda__temp__valist_array_47_64128" from 0x80 to 0x94
GPGPU-Sim PTX: allocating stack frame region for .local "__cuda___cuda_local_var_75906_7_non_const_prefix_320" from 0x94 to 0x96
GPGPU-Sim PTX: allocating stack frame region for .param "__cudaparma1_vprintf" from 0x96 to 0x9e
GPGPU-Sim PTX: allocating stack frame region for .param "__cudaparma2_vprintf" from 0x9e to 0xa6
GPGPU-Sim PTX: instruction assembly for function '_Z11dprintstats5Graph'...   done.
GPGPU-Sim PTX: finding reconvergence points for '_Z11dprintstats5Graph'...
GPGPU-Sim PTX: Finding dominators for '_Z11dprintstats5Graph'...
GPGPU-Sim PTX: Finding immediate dominators for '_Z11dprintstats5Graph'...
GPGPU-Sim PTX: Finding postdominators for '_Z11dprintstats5Graph'...
GPGPU-Sim PTX: Finding immediate postdominators for '_Z11dprintstats5Graph'...
GPGPU-Sim PTX: pre-decoding instructions for '_Z11dprintstats5Graph'...
GPGPU-Sim PTX: reconvergence points for _Z11dprintstats5Graph...
GPGPU-Sim PTX:  1 (potential) branch divergence @  PC=0x208 (_1.ptx:232) @!%p1 bra $Lt_1_12034;
GPGPU-Sim PTX:    immediate post dominator      @  PC=0x398 (_1.ptx:299) @!%p1 bra $Lt_1_12290;
GPGPU-Sim PTX:  2 (potential) branch divergence @  PC=0x270 (_1.ptx:248) @%p2 bra $Lt_1_9218;
GPGPU-Sim PTX:    immediate post dominator      @  PC=0x280 (_1.ptx:253) setp.le.u32 %p3, %r3, %r6;
GPGPU-Sim PTX:  3 (potential) branch divergence @  PC=0x288 (_1.ptx:254) @%p3 bra $Lt_1_9730;
GPGPU-Sim PTX:    immediate post dominator      @  PC=0x338 (_1.ptx:282) ld.global.u32 %r17, [%rd3+0];
GPGPU-Sim PTX:  4 (potential) branch divergence @  PC=0x2a8 (_1.ptx:259) bra.uni $LDWendi__ZN5Graph11getInDegreeEj_184_1;
GPGPU-Sim PTX:    immediate post dominator      @  PC=0x338 (_1.ptx:282) ld.global.u32 %r17, [%rd3+0];
GPGPU-Sim PTX:  5 (potential) branch divergence @  PC=0x350 (_1.ptx:285) @%p4 bra $Lt_1_10242;
GPGPU-Sim PTX:    immediate post dominator      @  PC=0x360 (_1.ptx:289) add.u32 %r6, %r6, 1;
GPGPU-Sim PTX:  6 (potential) branch divergence @  PC=0x378 (_1.ptx:292) @%p5 bra $Lt_1_8962;
GPGPU-Sim PTX:    immediate post dominator      @  PC=0x380 (_1.ptx:293) bra.uni $Lt_1_8450;
GPGPU-Sim PTX:  7 (potential) branch divergence @  PC=0x380 (_1.ptx:293) bra.uni $Lt_1_8450;
GPGPU-Sim PTX:    immediate post dominator      @  PC=0x398 (_1.ptx:299) @!%p1 bra $Lt_1_12290;
GPGPU-Sim PTX:  8 (potential) branch divergence @  PC=0x398 (_1.ptx:299) @!%p1 bra $Lt_1_12290;
GPGPU-Sim PTX:    immediate post dominator      @  PC=0x440 (_1.ptx:329) cvta.local.u64 %rd12, __cuda___cuda_local_var_75906_7_non_const_prefix_320;
GPGPU-Sim PTX:  9 (potential) branch divergence @  PC=0x3d8 (_1.ptx:310) @%p6 bra $Lt_1_12546;
GPGPU-Sim PTX:    immediate post dominator      @  PC=0x408 (_1.ptx:319) mov.s32 %r21, %r24;
GPGPU-Sim PTX: 10 (potential) branch divergence @  PC=0x3e8 (_1.ptx:312) @%p7 bra $Lt_1_12546;
GPGPU-Sim PTX:    immediate post dominator      @  PC=0x408 (_1.ptx:319) mov.s32 %r21, %r24;
GPGPU-Sim PTX: 11 (potential) branch divergence @  PC=0x3f8 (_1.ptx:314) bra.uni $L_1_7682;
GPGPU-Sim PTX:    immediate post dominator      @  PC=0x408 (_1.ptx:319) mov.s32 %r21, %r24;
GPGPU-Sim PTX: 12 (potential) branch divergence @  PC=0x428 (_1.ptx:323) @%p8 bra $Lt_1_11522;
GPGPU-Sim PTX:    immediate post dominator      @  PC=0x430 (_1.ptx:324) bra.uni $Lt_1_11010;
GPGPU-Sim PTX: 13 (potential) branch divergence @  PC=0x430 (_1.ptx:324) bra.uni $Lt_1_11010;
GPGPU-Sim PTX:    immediate post dominator      @  PC=0x440 (_1.ptx:329) cvta.local.u64 %rd12, __cuda___cuda_local_var_75906_7_non_const_prefix_320;
GPGPU-Sim PTX: ... end of reconvergence points for _Z11dprintstats5Graph
GPGPU-Sim PTX: ... done pre-decoding instructions for '_Z11dprintstats5Graph'.
GPGPU-Sim PTX: allocating global region for "__constant892" from 0x480 to 0x4be (global memory space)
GPGPU-Sim PTX: allocating global region for "__constant894" from 0x500 to 0x535 (global memory space)
GPGPU-Sim PTX: allocating global region for "__constant897" from 0x580 to 0x59f (global memory space)
GPGPU-Sim PTX: allocating stack frame region for .local "__cuda___cuda__temp__valist_array_61_16264" from 0x0 to 0x18
GPGPU-Sim PTX: allocating stack frame region for .local "__cuda___cuda__temp__valist_array_55_40288" from 0x80 to 0x9c
GPGPU-Sim PTX: allocating stack frame region for .local "__cuda___cuda__temp__valist_array_63_72320" from 0x100 to 0x114
GPGPU-Sim PTX: allocating stack frame region for .param "__cudaparma1_vprintf" from 0x114 to 0x11c
GPGPU-Sim PTX: allocating stack frame region for .param "__cudaparma2_vprintf" from 0x11c to 0x124
GPGPU-Sim PTX: instruction assembly for function '_Z14dcomputelevels5GraphPb'...   done.
GPGPU-Sim PTX: finding reconvergence points for '_Z14dcomputelevels5GraphPb'...
GPGPU-Sim PTX: Finding dominators for '_Z14dcomputelevels5GraphPb'...
GPGPU-Sim PTX: Finding immediate dominators for '_Z14dcomputelevels5GraphPb'...
GPGPU-Sim PTX: Finding postdominators for '_Z14dcomputelevels5GraphPb'...
GPGPU-Sim PTX: Finding immediate postdominators for '_Z14dcomputelevels5GraphPb'...
GPGPU-Sim PTX: pre-decoding instructions for '_Z14dcomputelevels5GraphPb'...
GPGPU-Sim PTX: reconvergence points for _Z14dcomputelevels5GraphPb...
GPGPU-Sim PTX:  1 (potential) branch divergence @  PC=0x5e0 (_1.ptx:408) @%p1 bra $Lt_2_17410;
GPGPU-Sim PTX:    immediate post dominator      @  PC=0x960 (_1.ptx:555) mov.u32 %r36, 0;
GPGPU-Sim PTX:  2 (potential) branch divergence @  PC=0x638 (_1.ptx:421) @%p2 bra $Lt_2_22018;
GPGPU-Sim PTX:    immediate post dominator      @  PC=0x960 (_1.ptx:555) mov.u32 %r36, 0;
GPGPU-Sim PTX:  3 (potential) branch divergence @  PC=0x678 (_1.ptx:432) @%p3 bra $Lt_2_7170;
GPGPU-Sim PTX:    immediate post dominator      @  PC=0x868 (_1.ptx:511) setp.ge.u32 %p7, %r30, %r6;
GPGPU-Sim PTX:  4 (potential) branch divergence @  PC=0x690 (_1.ptx:436) @%p4 bra $Lt_2_22274;
GPGPU-Sim PTX:    immediate post dominator      @  PC=0x758 (_1.ptx:468) add.u32 %r20, %r17, %r11;
GPGPU-Sim PTX:  5 (potential) branch divergence @  PC=0x6b8 (_1.ptx:441) @%p5 bra $Lt_2_22274;
GPGPU-Sim PTX:    immediate post dominator      @  PC=0x758 (_1.ptx:468) add.u32 %r20, %r17, %r11;
GPGPU-Sim PTX:  6 (potential) branch divergence @  PC=0x6e8 (_1.ptx:448) bra.uni $LDWendi__ZN5Graph12getFirstEdgeEj_186_4;
GPGPU-Sim PTX:    immediate post dominator      @  PC=0x758 (_1.ptx:468) add.u32 %r20, %r17, %r11;
GPGPU-Sim PTX:  7 (potential) branch divergence @  PC=0x7b0 (_1.ptx:479) @%p6 bra $Lt_2_18946;
GPGPU-Sim PTX:    immediate post dominator      @  PC=0x868 (_1.ptx:511) setp.ge.u32 %p7, %r30, %r6;
GPGPU-Sim PTX:  8 (potential) branch divergence @  PC=0x7e0 (_1.ptx:486) bra.uni $LDWendi__ZN5Graph14getDestinationEjj_186_1;
GPGPU-Sim PTX:    immediate post dominator      @  PC=0x868 (_1.ptx:511) setp.ge.u32 %p7, %r30, %r6;
GPGPU-Sim PTX:  9 (potential) branch divergence @  PC=0x7f0 (_1.ptx:490) bra.uni $LDWendi__ZN5Graph14getDestinationEjj_186_1;
GPGPU-Sim PTX:    immediate post dominator      @  PC=0x868 (_1.ptx:511) setp.ge.u32 %p7, %r30, %r6;
GPGPU-Sim PTX: 10 (potential) branch divergence @  PC=0x870 (_1.ptx:512) @%p7 bra $Lt_2_22786;
GPGPU-Sim PTX:    immediate post dominator      @  PC=0x928 (_1.ptx:544) add.u32 %r11, %r11, 1;
GPGPU-Sim PTX: 11 (potential) branch divergence @  PC=0x8a8 (_1.ptx:519) @%p8 bra $Lt_2_22786;
GPGPU-Sim PTX:    immediate post dominator      @  PC=0x928 (_1.ptx:544) add.u32 %r11, %r11, 1;
GPGPU-Sim PTX: 12 (potential) branch divergence @  PC=0x8c0 (_1.ptx:524) bra.uni $Lt_2_20482;
GPGPU-Sim PTX:    immediate post dominator      @  PC=0x928 (_1.ptx:544) add.u32 %r11, %r11, 1;
GPGPU-Sim PTX: 13 (potential) branch divergence @  PC=0x8d0 (_1.ptx:529) @%p9 bra $Lt_2_20482;
GPGPU-Sim PTX:    immediate post dominator      @  PC=0x928 (_1.ptx:544) add.u32 %r11, %r11, 1;
GPGPU-Sim PTX: 14 (potential) branch divergence @  PC=0x938 (_1.ptx:546) @%p10 bra $Lt_2_18178;
GPGPU-Sim PTX:    immediate post dominator      @  PC=0x940 (_1.ptx:547) bra.uni $Lt_2_17154;
GPGPU-Sim PTX: 15 (potential) branch divergence @  PC=0x940 (_1.ptx:547) bra.uni $Lt_2_17154;
GPGPU-Sim PTX:    immediate post dominator      @  PC=0x960 (_1.ptx:555) mov.u32 %r36, 0;
GPGPU-Sim PTX: 16 (potential) branch divergence @  PC=0x950 (_1.ptx:550) bra.uni $Lt_2_17154;
GPGPU-Sim PTX:    immediate post dominator      @  PC=0x960 (_1.ptx:555) mov.u32 %r36, 0;
GPGPU-Sim PTX: 17 (potential) branch divergence @  PC=0x970 (_1.ptx:557) @%p11 bra $Lt_2_21250;
GPGPU-Sim PTX:    immediate post dominator      @  PC=0x990 (_1.ptx:564) exit;
GPGPU-Sim PTX: ... end of reconvergence points for _Z14dcomputelevels5GraphPb
GPGPU-Sim PTX: ... done pre-decoding instructions for '_Z14dcomputelevels5GraphPb'.
GPGPU-Sim PTX: instruction assembly for function '_Z11dinitlevels5Graph'...   done.
GPGPU-Sim PTX: finding reconvergence points for '_Z11dinitlevels5Graph'...
GPGPU-Sim PTX: Finding dominators for '_Z11dinitlevels5Graph'...
GPGPU-Sim PTX: Finding immediate dominators for '_Z11dinitlevels5Graph'...
GPGPU-Sim PTX: Finding postdominators for '_Z11dinitlevels5Graph'...
GPGPU-Sim PTX: Finding immediate postdominators for '_Z11dinitlevels5Graph'...
GPGPU-Sim PTX: pre-decoding instructions for '_Z11dinitlevels5Graph'...
GPGPU-Sim PTX: reconvergence points for _Z11dinitlevels5Graph...
GPGPU-Sim PTX:  1 (potential) branch divergence @  PC=0x9d0 (_1.ptx:584) @%p1 bra $Lt_3_1026;
GPGPU-Sim PTX:    immediate post dominator      @  PC=0xa00 (_1.ptx:593) exit;
GPGPU-Sim PTX: ... end of reconvergence points for _Z11dinitlevels5Graph
GPGPU-Sim PTX: ... done pre-decoding instructions for '_Z11dinitlevels5Graph'.
GPGPU-Sim PTX: allocating global region for "__constant885" from 0x600 to 0x607 (global memory space)
GPGPU-Sim PTX: allocating global region for "__constant886" from 0x680 to 0x68a (global memory space)
GPGPU-Sim PTX: allocating global region for "__constant887" from 0x700 to 0x724 (global memory space)
GPGPU-Sim PTX: allocating stack frame region for .local "__cuda___cuda__temp__valist_array_49_16552" from 0x0 to 0xc
GPGPU-Sim PTX: allocating stack frame region for .local "__cuda___cuda__temp__valist_array_61_32568" from 0x80 to 0x98
GPGPU-Sim PTX: allocating stack frame region for .local "__cuda___cuda__temp__valist_array_55_56592" from 0x100 to 0x11c
GPGPU-Sim PTX: allocating stack frame region for .local "__cuda___cuda__temp__valist_array_61_88624" from 0x180 to 0x198
GPGPU-Sim PTX: allocating stack frame region for .local "__cuda___cuda__temp__valist_array_57_112648" from 0x200 to 0x21c
GPGPU-Sim PTX: allocating stack frame region for .param "__cudaparma1_vprintf" from 0x21c to 0x224
GPGPU-Sim PTX: allocating stack frame region for .param "__cudaparma2_vprintf" from 0x224 to 0x22c
GPGPU-Sim PTX: instruction assembly for function '_Z9dprint1x15Graph'...   done.
GPGPU-Sim PTX: finding reconvergence points for '_Z9dprint1x15Graph'...
GPGPU-Sim PTX: Finding dominators for '_Z9dprint1x15Graph'...
GPGPU-Sim PTX: Finding immediate dominators for '_Z9dprint1x15Graph'...
GPGPU-Sim PTX: Finding postdominators for '_Z9dprint1x15Graph'...
GPGPU-Sim PTX: Finding immediate postdominators for '_Z9dprint1x15Graph'...
GPGPU-Sim PTX: pre-decoding instructions for '_Z9dprint1x15Graph'...
GPGPU-Sim PTX: reconvergence points for _Z9dprint1x15Graph...
GPGPU-Sim PTX:  1 (potential) branch divergence @  PC=0xa60 (_1.ptx:628) @%p1 bra $Lt_4_32002;
GPGPU-Sim PTX:    immediate post dominator      @  PC=0x10e8 (_1.ptx:890) setp.eq.u32 %p14, %r2, %r6;
GPGPU-Sim PTX:  2 (potential) branch divergence @  PC=0xac0 (_1.ptx:643) @%p2 bra $Lt_4_25858;
GPGPU-Sim PTX:    immediate post dominator      @  PC=0x10b8 (_1.ptx:882) add.u32 %r5, %r5, 1;
GPGPU-Sim PTX:  3 (potential) branch divergence @  PC=0xae8 (_1.ptx:651) @!%p3 bra $Lt_4_32514;
GPGPU-Sim PTX:    immediate post dominator      @  PC=0xda0 (_1.ptx:759) @!%p3 bra $Lt_4_33538;
GPGPU-Sim PTX:  4 (potential) branch divergence @  PC=0xb00 (_1.ptx:655) @%p4 bra $Lt_4_32514;
GPGPU-Sim PTX:    immediate post dominator      @  PC=0xda0 (_1.ptx:759) @!%p3 bra $Lt_4_33538;
GPGPU-Sim PTX:  5 (potential) branch divergence @  PC=0xb18 (_1.ptx:659) @%p5 bra $Lt_4_33026;
GPGPU-Sim PTX:    immediate post dominator      @  PC=0xc08 (_1.ptx:696) add.u32 %r24, %r16, %r11;
GPGPU-Sim PTX:  6 (potential) branch divergence @  PC=0xb40 (_1.ptx:664) @%p6 bra $Lt_4_33026;
GPGPU-Sim PTX:    immediate post dominator      @  PC=0xc08 (_1.ptx:696) add.u32 %r24, %r16, %r11;
GPGPU-Sim PTX:  7 (potential) branch divergence @  PC=0xb70 (_1.ptx:671) bra.uni $LDWendi__ZN5Graph12getFirstEdgeEj_190_14;
GPGPU-Sim PTX:    immediate post dominator      @  PC=0xc08 (_1.ptx:696) add.u32 %r24, %r16, %r11;
GPGPU-Sim PTX:  8 (potential) branch divergence @  PC=0xc58 (_1.ptx:706) @%p7 bra $Lt_4_27138;
GPGPU-Sim PTX:    immediate post dominator      @  PC=0xda0 (_1.ptx:759) @!%p3 bra $Lt_4_33538;
GPGPU-Sim PTX:  9 (potential) branch divergence @  PC=0xc88 (_1.ptx:713) bra.uni $LDWendi__ZN5Graph14getDestinationEjj_190_11;
GPGPU-Sim PTX:    immediate post dominator      @  PC=0xda0 (_1.ptx:759) @!%p3 bra $Lt_4_33538;
GPGPU-Sim PTX: 10 (potential) branch divergence @  PC=0xc98 (_1.ptx:717) bra.uni $LDWendi__ZN5Graph14getDestinationEjj_190_11;
GPGPU-Sim PTX:    immediate post dominator      @  PC=0xda0 (_1.ptx:759) @!%p3 bra $Lt_4_33538;
GPGPU-Sim PTX: 11 (potential) branch divergence @  PC=0xcc8 (_1.ptx:725) @!%p3 bra $Lt_4_27906;
GPGPU-Sim PTX:    immediate post dominator      @  PC=0xd98 (_1.ptx:756) mov.s32 %r33, %r1;
GPGPU-Sim PTX: 12 (potential) branch divergence @  PC=0xd38 (_1.ptx:740) bra.uni $Lt_4_27650;
GPGPU-Sim PTX:    immediate post dominator      @  PC=0xd98 (_1.ptx:756) mov.s32 %r33, %r1;
GPGPU-Sim PTX: 13 (potential) branch divergence @  PC=0xda0 (_1.ptx:759) @!%p3 bra $Lt_4_33538;
GPGPU-Sim PTX:    immediate post dominator      @  PC=0x1058 (_1.ptx:867) st.local.u32 [__cuda___cuda__temp__valist_array_49_16552+0], %r5;
GPGPU-Sim PTX: 14 (potential) branch divergence @  PC=0xdb8 (_1.ptx:763) @%p8 bra $Lt_4_33538;
GPGPU-Sim PTX:    immediate post dominator      @  PC=0x1058 (_1.ptx:867) st.local.u32 [__cuda___cuda__temp__valist_array_49_16552+0], %r5;
GPGPU-Sim PTX: 15 (potential) branch divergence @  PC=0xdd0 (_1.ptx:767) @%p9 bra $Lt_4_34050;
GPGPU-Sim PTX:    immediate post dominator      @  PC=0xec0 (_1.ptx:804) add.u32 %r52, %r44, %r11;
GPGPU-Sim PTX: 16 (potential) branch divergence @  PC=0xdf8 (_1.ptx:772) @%p10 bra $Lt_4_34050;
GPGPU-Sim PTX:    immediate post dominator      @  PC=0xec0 (_1.ptx:804) add.u32 %r52, %r44, %r11;
GPGPU-Sim PTX: 17 (potential) branch divergence @  PC=0xe28 (_1.ptx:779) bra.uni $LDWendi__ZN5Graph12getFirstEdgeEj_190_4;
GPGPU-Sim PTX:    immediate post dominator      @  PC=0xec0 (_1.ptx:804) add.u32 %r52, %r44, %r11;
GPGPU-Sim PTX: 18 (potential) branch divergence @  PC=0xf10 (_1.ptx:814) @%p11 bra $Lt_4_29186;
GPGPU-Sim PTX:    immediate post dominator      @  PC=0x1058 (_1.ptx:867) st.local.u32 [__cuda___cuda__temp__valist_array_49_16552+0], %r5;
GPGPU-Sim PTX: 19 (potential) branch divergence @  PC=0xf40 (_1.ptx:821) bra.uni $LDWendi__ZN5Graph9getWeightEjj_190_1;
GPGPU-Sim PTX:    immediate post dominator      @  PC=0x1058 (_1.ptx:867) st.local.u32 [__cuda___cuda__temp__valist_array_49_16552+0], %r5;
GPGPU-Sim PTX: 20 (potential) branch divergence @  PC=0xf50 (_1.ptx:825) bra.uni $LDWendi__ZN5Graph9getWeightEjj_190_1;
GPGPU-Sim PTX:    immediate post dominator      @  PC=0x1058 (_1.ptx:867) st.local.u32 [__cuda___cuda__temp__valist_array_49_16552+0], %r5;
GPGPU-Sim PTX: 21 (potential) branch divergence @  PC=0xf80 (_1.ptx:833) @!%p3 bra $Lt_4_29954;
GPGPU-Sim PTX:    immediate post dominator      @  PC=0x1050 (_1.ptx:864) mov.u32 %r61, 1000000000;
GPGPU-Sim PTX: 22 (potential) branch divergence @  PC=0xff0 (_1.ptx:848) bra.uni $Lt_4_29698;
GPGPU-Sim PTX:    immediate post dominator      @  PC=0x1050 (_1.ptx:864) mov.u32 %r61, 1000000000;
GPGPU-Sim PTX: 23 (potential) branch divergence @  PC=0x10b0 (_1.ptx:880) @%p12 bra $Lt_4_26370;
GPGPU-Sim PTX:    immediate post dominator      @  PC=0x10b8 (_1.ptx:882) add.u32 %r5, %r5, 1;
GPGPU-Sim PTX: 24 (potential) branch divergence @  PC=0x10d0 (_1.ptx:885) @%p13 bra $Lt_4_25602;
GPGPU-Sim PTX:    immediate post dominator      @  PC=0x10d8 (_1.ptx:886) bra.uni $Lt_4_25090;
GPGPU-Sim PTX: 25 (potential) branch divergence @  PC=0x10d8 (_1.ptx:886) bra.uni $Lt_4_25090;
GPGPU-Sim PTX:    immediate post dominator      @  PC=0x10e8 (_1.ptx:890) setp.eq.u32 %p14, %r2, %r6;
GPGPU-Sim PTX: 26 (potential) branch divergence @  PC=0x10f0 (_1.ptx:891) @%p14 bra $Lt_4_31234;
GPGPU-Sim PTX:    immediate post dominator      @  PC=0x1130 (_1.ptx:902) exit;
GPGPU-Sim PTX: ... end of reconvergence points for _Z9dprint1x15Graph
GPGPU-Sim PTX: ... done pre-decoding instructions for '_Z9dprint1x15Graph'.
GPGPU-Sim PTX: allocating global region for "__constant916" from 0x780 to 0x795 (global memory space)
GPGPU-Sim PTX: allocating global region for "__constant917" from 0x800 to 0x80c (global memory space)
GPGPU-Sim PTX: allocating stack frame region for .local "__cuda___cuda__temp__valist_array_74_2456" from 0x0 to 0x8
GPGPU-Sim PTX: allocating stack frame region for .param "__cudaparma1_vprintf" from 0x8 to 0x10
GPGPU-Sim PTX: allocating stack frame region for .param "__cudaparma2_vprintf" from 0x10 to 0x18
GPGPU-Sim PTX: instruction assembly for function '_Z8print1x114ComponentSpace'...   done.
GPGPU-Sim PTX: finding reconvergence points for '_Z8print1x114ComponentSpace'...
GPGPU-Sim PTX: Finding dominators for '_Z8print1x114ComponentSpace'...
GPGPU-Sim PTX: Finding immediate dominators for '_Z8print1x114ComponentSpace'...
GPGPU-Sim PTX: Finding postdominators for '_Z8print1x114ComponentSpace'...
GPGPU-Sim PTX: Finding immediate postdominators for '_Z8print1x114ComponentSpace'...
GPGPU-Sim PTX: pre-decoding instructions for '_Z8print1x114ComponentSpace'...
GPGPU-Sim PTX: reconvergence points for _Z8print1x114ComponentSpace...
GPGPU-Sim PTX:  1 (potential) branch divergence @  PC=0x1180 (_1.ptx:930) @%p1 bra $Lt_5_1282;
GPGPU-Sim PTX:    immediate post dominator      @  PC=0x1210 (_1.ptx:953) cvta.global.u64 %rd8, __constant916;
GPGPU-Sim PTX:  2 (potential) branch divergence @  PC=0x1200 (_1.ptx:949) @%p2 bra $Lt_5_1794;
GPGPU-Sim PTX:    immediate post dominator      @  PC=0x1208 (_1.ptx:950) cvta.local.u64 %rd1, __cuda___cuda__temp__valist_array_74_2456;
GPGPU-Sim PTX: ... end of reconvergence points for _Z8print1x114ComponentSpace
GPGPU-Sim PTX: ... done pre-decoding instructions for '_Z8print1x114ComponentSpace'.
GPGPU-Sim PTX: instruction assembly for function '_Z7dinitcsjPjS_'...   done.
GPGPU-Sim PTX: finding reconvergence points for '_Z7dinitcsjPjS_'...
GPGPU-Sim PTX: Finding dominators for '_Z7dinitcsjPjS_'...
GPGPU-Sim PTX: Finding immediate dominators for '_Z7dinitcsjPjS_'...
GPGPU-Sim PTX: Finding postdominators for '_Z7dinitcsjPjS_'...
GPGPU-Sim PTX: Finding immediate postdominators for '_Z7dinitcsjPjS_'...
GPGPU-Sim PTX: pre-decoding instructions for '_Z7dinitcsjPjS_'...
GPGPU-Sim PTX: reconvergence points for _Z7dinitcsjPjS_...
GPGPU-Sim PTX:  1 (potential) branch divergence @  PC=0x1278 (_1.ptx:980) @%p1 bra $Lt_6_1026;
GPGPU-Sim PTX:    immediate post dominator      @  PC=0x12c8 (_1.ptx:994) exit;
GPGPU-Sim PTX: ... end of reconvergence points for _Z7dinitcsjPjS_
GPGPU-Sim PTX: ... done pre-decoding instructions for '_Z7dinitcsjPjS_'.
GPGPU-Sim PTX: instruction assembly for function '_Z5dinitPf5Graph14ComponentSpacePjS2_S2_S2_PbS2_j'...   done.
GPGPU-Sim PTX: finding reconvergence points for '_Z5dinitPf5Graph14ComponentSpacePjS2_S2_S2_PbS2_j'...
GPGPU-Sim PTX: Finding dominators for '_Z5dinitPf5Graph14ComponentSpacePjS2_S2_S2_PbS2_j'...
GPGPU-Sim PTX: Finding immediate dominators for '_Z5dinitPf5Graph14ComponentSpacePjS2_S2_S2_PbS2_j'...
GPGPU-Sim PTX: Finding postdominators for '_Z5dinitPf5Graph14ComponentSpacePjS2_S2_S2_PbS2_j'...
GPGPU-Sim PTX: Finding immediate postdominators for '_Z5dinitPf5Graph14ComponentSpacePjS2_S2_S2_PbS2_j'...
GPGPU-Sim PTX: pre-decoding instructions for '_Z5dinitPf5Graph14ComponentSpacePjS2_S2_S2_PbS2_j'...
GPGPU-Sim PTX: reconvergence points for _Z5dinitPf5Graph14ComponentSpacePjS2_S2_S2_PbS2_j...
GPGPU-Sim PTX:  1 (potential) branch divergence @  PC=0x1320 (_1.ptx:1025) @%p2 bra $Lt_7_1794;
GPGPU-Sim PTX:    immediate post dominator      @  PC=0x13e8 (_1.ptx:1058) exit;
GPGPU-Sim PTX: ... end of reconvergence points for _Z5dinitPf5Graph14ComponentSpacePjS2_S2_S2_PbS2_j
GPGPU-Sim PTX: ... done pre-decoding instructions for '_Z5dinitPf5Graph14ComponentSpacePjS2_S2_S2_PbS2_j'.
GPGPU-Sim PTX: allocating stack frame region for .local "__cuda___cuda__temp__valist_array_61_161136" from 0x0 to 0x18
GPGPU-Sim PTX: allocating stack frame region for .local "__cuda___cuda__temp__valist_array_57_401160" from 0x80 to 0x9c
GPGPU-Sim PTX: allocating stack frame region for .local "__cuda___cuda__temp__valist_array_61_721192" from 0x100 to 0x118
GPGPU-Sim PTX: allocating stack frame region for .local "__cuda___cuda__temp__valist_array_55_961216" from 0x180 to 0x19c
GPGPU-Sim PTX: allocating stack frame region for .param "__cudaparma1_vprintf" from 0x19c to 0x1a4
GPGPU-Sim PTX: allocating stack frame region for .param "__cudaparma2_vprintf" from 0x1a4 to 0x1ac
GPGPU-Sim PTX: instruction assembly for function '_Z11dfindeleminPf5Graph14ComponentSpacePjS2_S2_S2_PbS2_j'...   done.
GPGPU-Sim PTX: finding reconvergence points for '_Z11dfindeleminPf5Graph14ComponentSpacePjS2_S2_S2_PbS2_j'...
GPGPU-Sim PTX: Finding dominators for '_Z11dfindeleminPf5Graph14ComponentSpacePjS2_S2_S2_PbS2_j'...
GPGPU-Sim PTX: Finding immediate dominators for '_Z11dfindeleminPf5Graph14ComponentSpacePjS2_S2_S2_PbS2_j'...
GPGPU-Sim PTX: Finding postdominators for '_Z11dfindeleminPf5Graph14ComponentSpacePjS2_S2_S2_PbS2_j'...
GPGPU-Sim PTX: Finding immediate postdominators for '_Z11dfindeleminPf5Graph14ComponentSpacePjS2_S2_S2_PbS2_j'...
GPGPU-Sim PTX: pre-decoding instructions for '_Z11dfindeleminPf5Graph14ComponentSpacePjS2_S2_S2_PbS2_j'...
GPGPU-Sim PTX: reconvergence points for _Z11dfindeleminPf5Graph14ComponentSpacePjS2_S2_S2_PbS2_j...
GPGPU-Sim PTX:  1 (potential) branch divergence @  PC=0x1440 (_1.ptx:1095) @%p2 bra $Lt_8_45826;
GPGPU-Sim PTX:    immediate post dominator      @  PC=0x1af0 (_1.ptx:1379) exit;
GPGPU-Sim PTX:  2 (potential) branch divergence @  PC=0x1480 (_1.ptx:1105) @%p3 bra $Lt_8_34562;
GPGPU-Sim PTX:    immediate post dominator      @  PC=0x14e0 (_1.ptx:1123) mov.s32 %r15, %r9;
GPGPU-Sim PTX:  3 (potential) branch divergence @  PC=0x14d8 (_1.ptx:1120) @%p4 bra $Lt_8_35074;
GPGPU-Sim PTX:    immediate post dominator      @  PC=0x14e0 (_1.ptx:1123) mov.s32 %r15, %r9;
GPGPU-Sim PTX:  4 (potential) branch divergence @  PC=0x1520 (_1.ptx:1133) @%p5 bra $Lt_8_44290;
GPGPU-Sim PTX:    immediate post dominator      @  PC=0x1a40 (_1.ptx:1350) ld.param.u64 %rd45, [__cudaparm__Z11dfindeleminPf5Graph14ComponentSpacePjS2_S2_S2_PbS2_j_eleminwts];
GPGPU-Sim PTX:  5 (potential) branch divergence @  PC=0x1560 (_1.ptx:1144) @%p6 bra $Lt_8_10754;
GPGPU-Sim PTX:    immediate post dominator      @  PC=0x1750 (_1.ptx:1223) setp.ge.u32 %p10, %r39, %r21;
GPGPU-Sim PTX:  6 (potential) branch divergence @  PC=0x1578 (_1.ptx:1148) @%p7 bra $Lt_8_44546;
GPGPU-Sim PTX:    immediate post dominator      @  PC=0x1640 (_1.ptx:1180) add.u32 %r29, %r26, %r20;
GPGPU-Sim PTX:  7 (potential) branch divergence @  PC=0x15a0 (_1.ptx:1153) @%p8 bra $Lt_8_44546;
GPGPU-Sim PTX:    immediate post dominator      @  PC=0x1640 (_1.ptx:1180) add.u32 %r29, %r26, %r20;
GPGPU-Sim PTX:  8 (potential) branch divergence @  PC=0x15d0 (_1.ptx:1160) bra.uni $LDWendi__ZN5Graph12getFirstEdgeEj_196_14;
GPGPU-Sim PTX:    immediate post dominator      @  PC=0x1640 (_1.ptx:1180) add.u32 %r29, %r26, %r20;
GPGPU-Sim PTX:  9 (potential) branch divergence @  PC=0x1698 (_1.ptx:1191) @%p9 bra $Lt_8_37378;
GPGPU-Sim PTX:    immediate post dominator      @  PC=0x1750 (_1.ptx:1223) setp.ge.u32 %p10, %r39, %r21;
GPGPU-Sim PTX: 10 (potential) branch divergence @  PC=0x16c8 (_1.ptx:1198) bra.uni $LDWendi__ZN5Graph9getWeightEjj_196_11;
GPGPU-Sim PTX:    immediate post dominator      @  PC=0x1750 (_1.ptx:1223) setp.ge.u32 %p10, %r39, %r21;
GPGPU-Sim PTX: 11 (potential) branch divergence @  PC=0x16d8 (_1.ptx:1202) bra.uni $LDWendi__ZN5Graph9getWeightEjj_196_11;
GPGPU-Sim PTX:    immediate post dominator      @  PC=0x1750 (_1.ptx:1223) setp.ge.u32 %p10, %r39, %r21;
GPGPU-Sim PTX: 12 (potential) branch divergence @  PC=0x1758 (_1.ptx:1224) @%p10 bra $Lt_8_42498;
GPGPU-Sim PTX:    immediate post dominator      @  PC=0x1a18 (_1.ptx:1342) add.u32 %r20, %r20, 1;
GPGPU-Sim PTX: 13 (potential) branch divergence @  PC=0x1770 (_1.ptx:1228) @%p11 bra $Lt_8_15618;
GPGPU-Sim PTX:    immediate post dominator      @  PC=0x1960 (_1.ptx:1307) mov.s32 %r9, %r57;
GPGPU-Sim PTX: 14 (potential) branch divergence @  PC=0x1788 (_1.ptx:1232) @%p12 bra $Lt_8_45058;
GPGPU-Sim PTX:    immediate post dominator      @  PC=0x1850 (_1.ptx:1264) add.u32 %r47, %r44, %r20;
GPGPU-Sim PTX: 15 (potential) branch divergence @  PC=0x17b0 (_1.ptx:1237) @%p13 bra $Lt_8_45058;
GPGPU-Sim PTX:    immediate post dominator      @  PC=0x1850 (_1.ptx:1264) add.u32 %r47, %r44, %r20;
GPGPU-Sim PTX: 16 (potential) branch divergence @  PC=0x17e0 (_1.ptx:1244) bra.uni $LDWendi__ZN5Graph12getFirstEdgeEj_196_4;
GPGPU-Sim PTX:    immediate post dominator      @  PC=0x1850 (_1.ptx:1264) add.u32 %r47, %r44, %r20;
GPGPU-Sim PTX: 17 (potential) branch divergence @  PC=0x18a8 (_1.ptx:1275) @%p14 bra $Lt_8_39938;
GPGPU-Sim PTX:    immediate post dominator      @  PC=0x1960 (_1.ptx:1307) mov.s32 %r9, %r57;
GPGPU-Sim PTX: 18 (potential) branch divergence @  PC=0x18d8 (_1.ptx:1282) bra.uni $LDWendi__ZN5Graph14getDestinationEjj_196_1;
GPGPU-Sim PTX:    immediate post dominator      @  PC=0x1960 (_1.ptx:1307) mov.s32 %r9, %r57;
GPGPU-Sim PTX: 19 (potential) branch divergence @  PC=0x18e8 (_1.ptx:1286) bra.uni $LDWendi__ZN5Graph14getDestinationEjj_196_1;
GPGPU-Sim PTX:    immediate post dominator      @  PC=0x1960 (_1.ptx:1307) mov.s32 %r9, %r57;
GPGPU-Sim PTX: 20 (potential) branch divergence @  PC=0x1990 (_1.ptx:1314) @%p15 bra $Lt_8_41474;
GPGPU-Sim PTX:    immediate post dominator      @  PC=0x19f0 (_1.ptx:1332) st.global.u32 [%rd41+0], %r9;
GPGPU-Sim PTX: 21 (potential) branch divergence @  PC=0x19e8 (_1.ptx:1329) @%p16 bra $Lt_8_41986;
GPGPU-Sim PTX:    immediate post dominator      @  PC=0x19f0 (_1.ptx:1332) st.global.u32 [%rd41+0], %r9;
GPGPU-Sim PTX: 22 (potential) branch divergence @  PC=0x1a00 (_1.ptx:1335) @%p17 bra $Lt_8_42498;
GPGPU-Sim PTX:    immediate post dominator      @  PC=0x1a18 (_1.ptx:1342) add.u32 %r20, %r20, 1;
GPGPU-Sim PTX: 23 (potential) branch divergence @  PC=0x1a28 (_1.ptx:1344) @%p18 bra $Lt_8_36610;
GPGPU-Sim PTX:    immediate post dominator      @  PC=0x1a30 (_1.ptx:1345) bra.uni $Lt_8_36098;
GPGPU-Sim PTX: 24 (potential) branch divergence @  PC=0x1a30 (_1.ptx:1345) bra.uni $Lt_8_36098;
GPGPU-Sim PTX:    immediate post dominator      @  PC=0x1a40 (_1.ptx:1350) ld.param.u64 %rd45, [__cudaparm__Z11dfindeleminPf5Graph14ComponentSpacePjS2_S2_S2_PbS2_j_eleminwts];
GPGPU-Sim PTX: 25 (potential) branch divergence @  PC=0x1a88 (_1.ptx:1359) @%p19 bra $Lt_8_45826;
GPGPU-Sim PTX:    immediate post dominator      @  PC=0x1af0 (_1.ptx:1379) exit;
GPGPU-Sim PTX: 26 (potential) branch divergence @  PC=0x1a98 (_1.ptx:1361) @%p20 bra $Lt_8_45826;
GPGPU-Sim PTX:    immediate post dominator      @  PC=0x1af0 (_1.ptx:1379) exit;
GPGPU-Sim PTX: 27 (potential) branch divergence @  PC=0x1ab8 (_1.ptx:1366) @%p21 bra $Lt_8_45826;
GPGPU-Sim PTX:    immediate post dominator      @  PC=0x1af0 (_1.ptx:1379) exit;
GPGPU-Sim PTX: ... end of reconvergence points for _Z11dfindeleminPf5Graph14ComponentSpacePjS2_S2_S2_PbS2_j
GPGPU-Sim PTX: ... done pre-decoding instructions for '_Z11dfindeleminPf5Graph14ComponentSpacePjS2_S2_S2_PbS2_j'.
GPGPU-Sim PTX: instruction assembly for function '_Z12dfindcompminPf5Graph14ComponentSpacePjS2_S2_S2_PbS2_j'...   done.
GPGPU-Sim PTX: finding reconvergence points for '_Z12dfindcompminPf5Graph14ComponentSpacePjS2_S2_S2_PbS2_j'...
GPGPU-Sim PTX: Finding dominators for '_Z12dfindcompminPf5Graph14ComponentSpacePjS2_S2_S2_PbS2_j'...
GPGPU-Sim PTX: Finding immediate dominators for '_Z12dfindcompminPf5Graph14ComponentSpacePjS2_S2_S2_PbS2_j'...
GPGPU-Sim PTX: Finding postdominators for '_Z12dfindcompminPf5Graph14ComponentSpacePjS2_S2_S2_PbS2_j'...
GPGPU-Sim PTX: Finding immediate postdominators for '_Z12dfindcompminPf5Graph14ComponentSpacePjS2_S2_S2_PbS2_j'...
GPGPU-Sim PTX: pre-decoding instructions for '_Z12dfindcompminPf5Graph14ComponentSpacePjS2_S2_S2_PbS2_j'...
GPGPU-Sim PTX: reconvergence points for _Z12dfindcompminPf5Graph14ComponentSpacePjS2_S2_S2_PbS2_j...
GPGPU-Sim PTX:  1 (potential) branch divergence @  PC=0x1b48 (_1.ptx:1410) @%p2 bra $Lt_9_13058;
GPGPU-Sim PTX:    immediate post dominator      @  PC=0x1d90 (_1.ptx:1506) exit;
GPGPU-Sim PTX:  2 (potential) branch divergence @  PC=0x1b88 (_1.ptx:1420) @%p3 bra $Lt_9_9474;
GPGPU-Sim PTX:    immediate post dominator      @  PC=0x1be8 (_1.ptx:1438) mov.s32 %r15, %r9;
GPGPU-Sim PTX:  3 (potential) branch divergence @  PC=0x1be0 (_1.ptx:1435) @%p4 bra $Lt_9_9986;
GPGPU-Sim PTX:    immediate post dominator      @  PC=0x1be8 (_1.ptx:1438) mov.s32 %r15, %r9;
GPGPU-Sim PTX:  4 (potential) branch divergence @  PC=0x1c40 (_1.ptx:1452) @%p5 bra $Lt_9_10498;
GPGPU-Sim PTX:    immediate post dominator      @  PC=0x1ca0 (_1.ptx:1470) st.global.u32 [%rd12+0], %r9;
GPGPU-Sim PTX:  5 (potential) branch divergence @  PC=0x1c98 (_1.ptx:1467) @%p6 bra $Lt_9_11010;
GPGPU-Sim PTX:    immediate post dominator      @  PC=0x1ca0 (_1.ptx:1470) st.global.u32 [%rd12+0], %r9;
GPGPU-Sim PTX:  6 (potential) branch divergence @  PC=0x1cb8 (_1.ptx:1474) @%p7 bra $Lt_9_13058;
GPGPU-Sim PTX:    immediate post dominator      @  PC=0x1d90 (_1.ptx:1506) exit;
GPGPU-Sim PTX:  7 (potential) branch divergence @  PC=0x1cc8 (_1.ptx:1476) @%p8 bra $Lt_9_13058;
GPGPU-Sim PTX:    immediate post dominator      @  PC=0x1d90 (_1.ptx:1506) exit;
GPGPU-Sim PTX:  8 (potential) branch divergence @  PC=0x1cf8 (_1.ptx:1482) @%p9 bra $Lt_9_13058;
GPGPU-Sim PTX:    immediate post dominator      @  PC=0x1d90 (_1.ptx:1506) exit;
GPGPU-Sim PTX:  9 (potential) branch divergence @  PC=0x1d30 (_1.ptx:1489) @%p10 bra $Lt_9_13058;
GPGPU-Sim PTX:    immediate post dominator      @  PC=0x1d90 (_1.ptx:1506) exit;
GPGPU-Sim PTX: 10 (potential) branch divergence @  PC=0x1d40 (_1.ptx:1491) @%p11 bra $Lt_9_13058;
GPGPU-Sim PTX:    immediate post dominator      @  PC=0x1d90 (_1.ptx:1506) exit;
GPGPU-Sim PTX: 11 (potential) branch divergence @  PC=0x1d68 (_1.ptx:1496) @%p12 bra $Lt_9_13058;
GPGPU-Sim PTX:    immediate post dominator      @  PC=0x1d90 (_1.ptx:1506) exit;
GPGPU-Sim PTX: ... end of reconvergence points for _Z12dfindcompminPf5Graph14ComponentSpacePjS2_S2_S2_PbS2_j
GPGPU-Sim PTX: ... done pre-decoding instructions for '_Z12dfindcompminPf5Graph14ComponentSpacePjS2_S2_S2_PbS2_j'.
GPGPU-Sim PTX: instruction assembly for function '_Z15dfindcompmintwoPf5Graph14ComponentSpacePjS2_S2_S2_PbS2_j'...   done.
GPGPU-Sim PTX: finding reconvergence points for '_Z15dfindcompmintwoPf5Graph14ComponentSpacePjS2_S2_S2_PbS2_j'...
GPGPU-Sim PTX: Finding dominators for '_Z15dfindcompmintwoPf5Graph14ComponentSpacePjS2_S2_S2_PbS2_j'...
GPGPU-Sim PTX: Finding immediate dominators for '_Z15dfindcompmintwoPf5Graph14ComponentSpacePjS2_S2_S2_PbS2_j'...
GPGPU-Sim PTX: Finding postdominators for '_Z15dfindcompmintwoPf5Graph14ComponentSpacePjS2_S2_S2_PbS2_j'...
GPGPU-Sim PTX: Finding immediate postdominators for '_Z15dfindcompmintwoPf5Graph14ComponentSpacePjS2_S2_S2_PbS2_j'...
GPGPU-Sim PTX: pre-decoding instructions for '_Z15dfindcompmintwoPf5Graph14ComponentSpacePjS2_S2_S2_PbS2_j'...
GPGPU-Sim PTX: reconvergence points for _Z15dfindcompmintwoPf5Graph14ComponentSpacePjS2_S2_S2_PbS2_j...
GPGPU-Sim PTX:  1 (potential) branch divergence @  PC=0x1de8 (_1.ptx:1539) @%p2 bra $Lt_10_26626;
GPGPU-Sim PTX:    immediate post dominator      @  PC=0x2200 (_1.ptx:1727) exit;
GPGPU-Sim PTX:  2 (potential) branch divergence @  PC=0x1e20 (_1.ptx:1546) @%p3 bra $Lt_10_26626;
GPGPU-Sim PTX:    immediate post dominator      @  PC=0x2200 (_1.ptx:1727) exit;
GPGPU-Sim PTX:  3 (potential) branch divergence @  PC=0x1e58 (_1.ptx:1555) @%p4 bra $Lt_10_20482;
GPGPU-Sim PTX:    immediate post dominator      @  PC=0x1eb8 (_1.ptx:1573) mov.s32 %r17, %r11;
GPGPU-Sim PTX:  4 (potential) branch divergence @  PC=0x1eb0 (_1.ptx:1570) @%p5 bra $Lt_10_20994;
GPGPU-Sim PTX:    immediate post dominator      @  PC=0x1eb8 (_1.ptx:1573) mov.s32 %r17, %r11;
GPGPU-Sim PTX:  5 (potential) branch divergence @  PC=0x1f10 (_1.ptx:1587) @%p6 bra $Lt_10_21506;
GPGPU-Sim PTX:    immediate post dominator      @  PC=0x1f70 (_1.ptx:1605) st.global.u32 [%rd14+0], %r11;
GPGPU-Sim PTX:  6 (potential) branch divergence @  PC=0x1f68 (_1.ptx:1602) @%p7 bra $Lt_10_22018;
GPGPU-Sim PTX:    immediate post dominator      @  PC=0x1f70 (_1.ptx:1605) st.global.u32 [%rd14+0], %r11;
GPGPU-Sim PTX:  7 (potential) branch divergence @  PC=0x1fb8 (_1.ptx:1618) @%p8 bra $Lt_10_22530;
GPGPU-Sim PTX:    immediate post dominator      @  PC=0x2018 (_1.ptx:1636) mov.s32 %r31, %r25;
GPGPU-Sim PTX:  8 (potential) branch divergence @  PC=0x2010 (_1.ptx:1633) @%p9 bra $Lt_10_23042;
GPGPU-Sim PTX:    immediate post dominator      @  PC=0x2018 (_1.ptx:1636) mov.s32 %r31, %r25;
GPGPU-Sim PTX:  9 (potential) branch divergence @  PC=0x2050 (_1.ptx:1645) @%p10 bra $Lt_10_23554;
GPGPU-Sim PTX:    immediate post dominator      @  PC=0x20b0 (_1.ptx:1663) setp.ne.u32 %p12, %r31, %r25;
GPGPU-Sim PTX: 10 (potential) branch divergence @  PC=0x20a8 (_1.ptx:1660) @%p11 bra $Lt_10_24066;
GPGPU-Sim PTX:    immediate post dominator      @  PC=0x20b0 (_1.ptx:1663) setp.ne.u32 %p12, %r31, %r25;
GPGPU-Sim PTX: 11 (potential) branch divergence @  PC=0x20b8 (_1.ptx:1664) @%p12 bra $Lt_10_24578;
GPGPU-Sim PTX:    immediate post dominator      @  PC=0x21a8 (_1.ptx:1710) ld.param.u64 %rd39, [__cudaparm__Z15dfindcompmintwoPf5Graph14ComponentSpacePjS2_S2_S2_PbS2_j_eleminwts];
GPGPU-Sim PTX: 12 (potential) branch divergence @  PC=0x20c8 (_1.ptx:1667) bra.uni $LDWendi__ZN14ComponentSpace6isBossEj_204_1;
GPGPU-Sim PTX:    immediate post dominator      @  PC=0x21a8 (_1.ptx:1710) ld.param.u64 %rd39, [__cudaparm__Z15dfindcompmintwoPf5Graph14ComponentSpacePjS2_S2_S2_PbS2_j_eleminwts];
GPGPU-Sim PTX: 13 (potential) branch divergence @  PC=0x20e8 (_1.ptx:1674) @%p13 bra $Lt_10_25090;
GPGPU-Sim PTX:    immediate post dominator      @  PC=0x2100 (_1.ptx:1681) cvt.u64.u32 %rd30, %r38;
GPGPU-Sim PTX: 14 (potential) branch divergence @  PC=0x2130 (_1.ptx:1687) @%p14 bra $Lt_10_25858;
GPGPU-Sim PTX:    immediate post dominator      @  PC=0x21a8 (_1.ptx:1710) ld.param.u64 %rd39, [__cudaparm__Z15dfindcompmintwoPf5Graph14ComponentSpacePjS2_S2_S2_PbS2_j_eleminwts];
GPGPU-Sim PTX: 15 (potential) branch divergence @  PC=0x2148 (_1.ptx:1693) bra.uni $Lt_10_14082;
GPGPU-Sim PTX:    immediate post dominator      @  PC=0x1f88 (_1.ptx:1611) mov.s32 %r25, %r23;
GPGPU-Sim PTX: 16 (potential) branch divergence @  PC=0x21c8 (_1.ptx:1714) @%p15 bra $Lt_10_26114;
GPGPU-Sim PTX:    immediate post dominator      @  PC=0x21f0 (_1.ptx:1722) mov.u32 %r47, 1000000000;
GPGPU-Sim PTX: ... end of reconvergence points for _Z15dfindcompmintwoPf5Graph14ComponentSpacePjS2_S2_S2_PbS2_j
GPGPU-Sim PTX: ... done pre-decoding instructions for '_Z15dfindcompmintwoPf5Graph14ComponentSpacePjS2_S2_S2_PbS2_j'.
GPGPU-Sim PTX: allocating global region for "__constant874" from 0x880 to 0x898 (global memory space)
GPGPU-Sim PTX: allocating global region for "__constant875" from 0x900 to 0x913 (global memory space)
GPGPU-Sim PTX: allocating stack frame region for .local "__cuda___cuda__temp__valist_array_45_1696" from 0x0 to 0x8
GPGPU-Sim PTX: allocating stack frame region for .param "__cudaparma1_vprintf" from 0x8 to 0x10
GPGPU-Sim PTX: allocating stack frame region for .param "__cudaparma2_vprintf" from 0x10 to 0x18
GPGPU-Sim PTX: instruction assembly for function '_Z22dfindcompminundirectedPf5Graph14ComponentSpacePjS2_S2_S2_Pb'...   done.
GPGPU-Sim PTX: finding reconvergence points for '_Z22dfindcompminundirectedPf5Graph14ComponentSpacePjS2_S2_S2_Pb'...
GPGPU-Sim PTX: Finding dominators for '_Z22dfindcompminundirectedPf5Graph14ComponentSpacePjS2_S2_S2_Pb'...
GPGPU-Sim PTX: Finding immediate dominators for '_Z22dfindcompminundirectedPf5Graph14ComponentSpacePjS2_S2_S2_Pb'...
GPGPU-Sim PTX: Finding postdominators for '_Z22dfindcompminundirectedPf5Graph14ComponentSpacePjS2_S2_S2_Pb'...
GPGPU-Sim PTX: Finding immediate postdominators for '_Z22dfindcompminundirectedPf5Graph14ComponentSpacePjS2_S2_S2_Pb'...
GPGPU-Sim PTX: pre-decoding instructions for '_Z22dfindcompminundirectedPf5Graph14ComponentSpacePjS2_S2_S2_Pb'...
GPGPU-Sim PTX: reconvergence points for _Z22dfindcompminundirectedPf5Graph14ComponentSpacePjS2_S2_S2_Pb...
GPGPU-Sim PTX:  1 (potential) branch divergence @  PC=0x2240 (_1.ptx:1758) @%p1 bra $LBB21__Z22dfindcompminundirectedPf5Graph14ComponentSpacePjS2_S2_S2_Pb;
GPGPU-Sim PTX:    immediate post dominator      @  PC=0x2550 (_1.ptx:1898) exit;
GPGPU-Sim PTX:  2 (potential) branch divergence @  PC=0x2280 (_1.ptx:1768) @%p2 bra $Lt_11_9218;
GPGPU-Sim PTX:    immediate post dominator      @  PC=0x22e0 (_1.ptx:1786) mov.s32 %r13, %r7;
GPGPU-Sim PTX:  3 (potential) branch divergence @  PC=0x22d8 (_1.ptx:1783) @%p3 bra $Lt_11_9730;
GPGPU-Sim PTX:    immediate post dominator      @  PC=0x22e0 (_1.ptx:1786) mov.s32 %r13, %r7;
GPGPU-Sim PTX:  4 (potential) branch divergence @  PC=0x2338 (_1.ptx:1800) @%p4 bra $Lt_11_14082;
GPGPU-Sim PTX:    immediate post dominator      @  PC=0x23a8 (_1.ptx:1821) mov.s32 %r18, %r7;
GPGPU-Sim PTX:  5 (potential) branch divergence @  PC=0x2390 (_1.ptx:1815) @%p5 bra $Lt_11_10754;
GPGPU-Sim PTX:    immediate post dominator      @  PC=0x2398 (_1.ptx:1816) bra.uni $Lt_11_10242;
GPGPU-Sim PTX:  6 (potential) branch divergence @  PC=0x2398 (_1.ptx:1816) bra.uni $Lt_11_10242;
GPGPU-Sim PTX:    immediate post dominator      @  PC=0x23a8 (_1.ptx:1821) mov.s32 %r18, %r7;
GPGPU-Sim PTX:  7 (potential) branch divergence @  PC=0x23f8 (_1.ptx:1834) @%p6 bra $Lt_11_11266;
GPGPU-Sim PTX:    immediate post dominator      @  PC=0x2458 (_1.ptx:1852) st.global.u32 [%rd18+0], %r7;
GPGPU-Sim PTX:  8 (potential) branch divergence @  PC=0x2450 (_1.ptx:1849) @%p7 bra $Lt_11_11778;
GPGPU-Sim PTX:    immediate post dominator      @  PC=0x2458 (_1.ptx:1852) st.global.u32 [%rd18+0], %r7;
GPGPU-Sim PTX:  9 (potential) branch divergence @  PC=0x2468 (_1.ptx:1855) @%p8 bra $Lt_11_12546;
GPGPU-Sim PTX:    immediate post dominator      @  PC=0x2550 (_1.ptx:1898) exit;
GPGPU-Sim PTX: 10 (potential) branch divergence @  PC=0x2470 (_1.ptx:1856) bra.uni $LBB21__Z22dfindcompminundirectedPf5Graph14ComponentSpacePjS2_S2_S2_Pb;
GPGPU-Sim PTX:    immediate post dominator      @  PC=0x2550 (_1.ptx:1898) exit;
GPGPU-Sim PTX: 11 (potential) branch divergence @  PC=0x2480 (_1.ptx:1860) @%p9 bra $Lt_11_13058;
GPGPU-Sim PTX:    immediate post dominator      @  PC=0x2550 (_1.ptx:1898) exit;
GPGPU-Sim PTX: 12 (potential) branch divergence @  PC=0x2490 (_1.ptx:1862) @%p10 bra $LBB21__Z22dfindcompminundirectedPf5Graph14ComponentSpacePjS2_S2_S2_Pb;
GPGPU-Sim PTX:    immediate post dominator      @  PC=0x2550 (_1.ptx:1898) exit;
GPGPU-Sim PTX: 13 (potential) branch divergence @  PC=0x24f0 (_1.ptx:1878) bra.uni $LBB21__Z22dfindcompminundirectedPf5Graph14ComponentSpacePjS2_S2_S2_Pb;
GPGPU-Sim PTX:    immediate post dominator      @  PC=0x2550 (_1.ptx:1898) exit;
GPGPU-Sim PTX: ... end of reconvergence points for _Z22dfindcompminundirectedPf5Graph14ComponentSpacePjS2_S2_S2_Pb
GPGPU-Sim PTX: ... done pre-decoding instructions for '_Z22dfindcompminundirectedPf5Graph14ComponentSpacePjS2_S2_S2_Pb'.
GPGPU-Sim PTX: instruction assembly for function '_Z16dfindcompminlockPf5Graph14ComponentSpacePjS2_S2_S2_Pbi'...   done.
GPGPU-Sim PTX: finding reconvergence points for '_Z16dfindcompminlockPf5Graph14ComponentSpacePjS2_S2_S2_Pbi'...
GPGPU-Sim PTX: Finding dominators for '_Z16dfindcompminlockPf5Graph14ComponentSpacePjS2_S2_S2_Pbi'...
GPGPU-Sim PTX: Finding immediate dominators for '_Z16dfindcompminlockPf5Graph14ComponentSpacePjS2_S2_S2_Pbi'...
GPGPU-Sim PTX: Finding postdominators for '_Z16dfindcompminlockPf5Graph14ComponentSpacePjS2_S2_S2_Pbi'...
GPGPU-Sim PTX: Finding immediate postdominators for '_Z16dfindcompminlockPf5Graph14ComponentSpacePjS2_S2_S2_Pbi'...
GPGPU-Sim PTX: pre-decoding instructions for '_Z16dfindcompminlockPf5Graph14ComponentSpacePjS2_S2_S2_Pbi'...
GPGPU-Sim PTX: reconvergence points for _Z16dfindcompminlockPf5Graph14ComponentSpacePjS2_S2_S2_Pbi...
GPGPU-Sim PTX:  1 (potential) branch divergence @  PC=0x2598 (_1.ptx:1928) @%p1 bra $Lt_12_20482;
GPGPU-Sim PTX:    immediate post dominator      @  PC=0x25a8 (_1.ptx:1932) ld.param.u32 %r8, [__cudaparm__Z16dfindcompminlockPf5Graph14ComponentSpacePjS2_S2_S2_Pbi_graph+4];
GPGPU-Sim PTX:  2 (potential) branch divergence @  PC=0x25b8 (_1.ptx:1934) @%p2 bra $Lt_12_30722;
GPGPU-Sim PTX:    immediate post dominator      @  PC=0x2b48 (_1.ptx:2182) exit;
GPGPU-Sim PTX:  3 (potential) branch divergence @  PC=0x25f8 (_1.ptx:1944) @%p3 bra $Lt_12_21506;
GPGPU-Sim PTX:    immediate post dominator      @  PC=0x2658 (_1.ptx:1962) mov.s32 %r15, %r9;
GPGPU-Sim PTX:  4 (potential) branch divergence @  PC=0x2650 (_1.ptx:1959) @%p4 bra $Lt_12_22018;
GPGPU-Sim PTX:    immediate post dominator      @  PC=0x2658 (_1.ptx:1962) mov.s32 %r15, %r9;
GPGPU-Sim PTX:  5 (potential) branch divergence @  PC=0x26b0 (_1.ptx:1976) @%p5 bra $Lt_12_22530;
GPGPU-Sim PTX:    immediate post dominator      @  PC=0x2710 (_1.ptx:1994) mov.s32 %r21, %r9;
GPGPU-Sim PTX:  6 (potential) branch divergence @  PC=0x2708 (_1.ptx:1991) @%p6 bra $Lt_12_23042;
GPGPU-Sim PTX:    immediate post dominator      @  PC=0x2710 (_1.ptx:1994) mov.s32 %r21, %r9;
GPGPU-Sim PTX:  7 (potential) branch divergence @  PC=0x2728 (_1.ptx:1998) @%p7 bra $Lt_12_30722;
GPGPU-Sim PTX:    immediate post dominator      @  PC=0x2b48 (_1.ptx:2182) exit;
GPGPU-Sim PTX:  8 (potential) branch divergence @  PC=0x2758 (_1.ptx:2004) @%p8 bra $Lt_12_30722;
GPGPU-Sim PTX:    immediate post dominator      @  PC=0x2b48 (_1.ptx:2182) exit;
GPGPU-Sim PTX:  9 (potential) branch divergence @  PC=0x2790 (_1.ptx:2011) @%p9 bra $Lt_12_30722;
GPGPU-Sim PTX:    immediate post dominator      @  PC=0x2b48 (_1.ptx:2182) exit;
GPGPU-Sim PTX: 10 (potential) branch divergence @  PC=0x27a0 (_1.ptx:2013) @%p10 bra $Lt_12_30722;
GPGPU-Sim PTX:    immediate post dominator      @  PC=0x2b48 (_1.ptx:2182) exit;
GPGPU-Sim PTX: 11 (potential) branch divergence @  PC=0x27c0 (_1.ptx:2018) @%p11 bra $Lt_12_23554;
GPGPU-Sim PTX:    immediate post dominator      @  PC=0x27d8 (_1.ptx:2024) add.u32 %r27, %r8, 1;
GPGPU-Sim PTX: 12 (potential) branch divergence @  PC=0x2820 (_1.ptx:2033) @%p12 bra $Lt_12_24066;
GPGPU-Sim PTX:    immediate post dominator      @  PC=0x2858 (_1.ptx:2045) cvt.u64.u32 %rd26, %r26;
GPGPU-Sim PTX: 13 (potential) branch divergence @  PC=0x2850 (_1.ptx:2042) @%p13 bra $Lt_12_24578;
GPGPU-Sim PTX:    immediate post dominator      @  PC=0x2858 (_1.ptx:2045) cvt.u64.u32 %rd26, %r26;
GPGPU-Sim PTX: 14 (potential) branch divergence @  PC=0x2890 (_1.ptx:2052) @%p14 bra $Lt_12_25090;
GPGPU-Sim PTX:    immediate post dominator      @  PC=0x28c8 (_1.ptx:2064) mov.s32 %r42, %r15;
GPGPU-Sim PTX: 15 (potential) branch divergence @  PC=0x28c0 (_1.ptx:2061) @%p15 bra $Lt_12_25602;
GPGPU-Sim PTX:    immediate post dominator      @  PC=0x28c8 (_1.ptx:2064) mov.s32 %r42, %r15;
GPGPU-Sim PTX: 16 (potential) branch divergence @  PC=0x2908 (_1.ptx:2075) @%p16 bra $Lt_12_26114;
GPGPU-Sim PTX:    immediate post dominator      @  PC=0x2968 (_1.ptx:2093) mov.s32 %r50, %r44;
GPGPU-Sim PTX: 17 (potential) branch divergence @  PC=0x2960 (_1.ptx:2090) @%p17 bra $Lt_12_26626;
GPGPU-Sim PTX:    immediate post dominator      @  PC=0x2968 (_1.ptx:2093) mov.s32 %r50, %r44;
GPGPU-Sim PTX: 18 (potential) branch divergence @  PC=0x29a0 (_1.ptx:2102) @%p18 bra $Lt_12_27138;
GPGPU-Sim PTX:    immediate post dominator      @  PC=0x2a00 (_1.ptx:2120) setp.ne.u32 %p20, %r50, %r44;
GPGPU-Sim PTX: 19 (potential) branch divergence @  PC=0x29f8 (_1.ptx:2117) @%p19 bra $Lt_12_27650;
GPGPU-Sim PTX:    immediate post dominator      @  PC=0x2a00 (_1.ptx:2120) setp.ne.u32 %p20, %r50, %r44;
GPGPU-Sim PTX: 20 (potential) branch divergence @  PC=0x2a08 (_1.ptx:2121) @%p20 bra $Lt_12_28162;
GPGPU-Sim PTX:    immediate post dominator      @  PC=0x2ae8 (_1.ptx:2164) ld.param.u64 %rd50, [__cudaparm__Z16dfindcompminlockPf5Graph14ComponentSpacePjS2_S2_S2_Pbi_mstwt];
GPGPU-Sim PTX: 21 (potential) branch divergence @  PC=0x2a10 (_1.ptx:2122) bra.uni $LDWendi__ZN14ComponentSpace6isBossEj_207_1;
GPGPU-Sim PTX:    immediate post dominator      @  PC=0x2ae8 (_1.ptx:2164) ld.param.u64 %rd50, [__cudaparm__Z16dfindcompminlockPf5Graph14ComponentSpacePjS2_S2_S2_Pbi_mstwt];
GPGPU-Sim PTX: 22 (potential) branch divergence @  PC=0x2a30 (_1.ptx:2129) @%p21 bra $Lt_12_28674;
GPGPU-Sim PTX:    immediate post dominator      @  PC=0x2a48 (_1.ptx:2136) cvt.u64.u32 %rd41, %r56;
GPGPU-Sim PTX: 23 (potential) branch divergence @  PC=0x2a78 (_1.ptx:2142) @%p22 bra $Lt_12_29442;
GPGPU-Sim PTX:    immediate post dominator      @  PC=0x2ae8 (_1.ptx:2164) ld.param.u64 %rd50, [__cudaparm__Z16dfindcompminlockPf5Graph14ComponentSpacePjS2_S2_S2_Pbi_mstwt];
GPGPU-Sim PTX: 24 (potential) branch divergence @  PC=0x2a90 (_1.ptx:2148) bra.uni $Lt_12_15362;
GPGPU-Sim PTX:    immediate post dominator      @  PC=0x28d8 (_1.ptx:2068) mov.s32 %r44, %r42;
GPGPU-Sim PTX: ... end of reconvergence points for _Z16dfindcompminlockPf5Graph14ComponentSpacePjS2_S2_S2_Pbi
GPGPU-Sim PTX: ... done pre-decoding instructions for '_Z16dfindcompminlockPf5Graph14ComponentSpacePjS2_S2_S2_Pbi'.
GPGPU-Sim PTX: instruction assembly for function '_Z18dfindcompminatomicPf5Graph14ComponentSpacePjS2_S2_S2_Pbi'...   done.
GPGPU-Sim PTX: finding reconvergence points for '_Z18dfindcompminatomicPf5Graph14ComponentSpacePjS2_S2_S2_Pbi'...
GPGPU-Sim PTX: Finding dominators for '_Z18dfindcompminatomicPf5Graph14ComponentSpacePjS2_S2_S2_Pbi'...
GPGPU-Sim PTX: Finding immediate dominators for '_Z18dfindcompminatomicPf5Graph14ComponentSpacePjS2_S2_S2_Pbi'...
GPGPU-Sim PTX: Finding postdominators for '_Z18dfindcompminatomicPf5Graph14ComponentSpacePjS2_S2_S2_Pbi'...
GPGPU-Sim PTX: Finding immediate postdominators for '_Z18dfindcompminatomicPf5Graph14ComponentSpacePjS2_S2_S2_Pbi'...
GPGPU-Sim PTX: pre-decoding instructions for '_Z18dfindcompminatomicPf5Graph14ComponentSpacePjS2_S2_S2_Pbi'...
GPGPU-Sim PTX: reconvergence points for _Z18dfindcompminatomicPf5Graph14ComponentSpacePjS2_S2_S2_Pbi...
GPGPU-Sim PTX:  1 (potential) branch divergence @  PC=0x2b90 (_1.ptx:2212) @%p1 bra $Lt_13_19202;
GPGPU-Sim PTX:    immediate post dominator      @  PC=0x2ba0 (_1.ptx:2216) ld.param.u32 %r8, [__cudaparm__Z18dfindcompminatomicPf5Graph14ComponentSpacePjS2_S2_S2_Pbi_graph+4];
GPGPU-Sim PTX:  2 (potential) branch divergence @  PC=0x2bb0 (_1.ptx:2218) @%p2 bra $Lt_13_27906;
GPGPU-Sim PTX:    immediate post dominator      @  PC=0x30b8 (_1.ptx:2445) exit;
GPGPU-Sim PTX:  3 (potential) branch divergence @  PC=0x2bf0 (_1.ptx:2228) @%p3 bra $Lt_13_20226;
GPGPU-Sim PTX:    immediate post dominator      @  PC=0x2c50 (_1.ptx:2246) mov.s32 %r15, %r9;
GPGPU-Sim PTX:  4 (potential) branch divergence @  PC=0x2c48 (_1.ptx:2243) @%p4 bra $Lt_13_20738;
GPGPU-Sim PTX:    immediate post dominator      @  PC=0x2c50 (_1.ptx:2246) mov.s32 %r15, %r9;
GPGPU-Sim PTX:  5 (potential) branch divergence @  PC=0x2ca8 (_1.ptx:2260) @%p5 bra $Lt_13_21250;
GPGPU-Sim PTX:    immediate post dominator      @  PC=0x2d08 (_1.ptx:2278) st.global.u32 [%rd12+0], %r9;
GPGPU-Sim PTX:  6 (potential) branch divergence @  PC=0x2d00 (_1.ptx:2275) @%p6 bra $Lt_13_21762;
GPGPU-Sim PTX:    immediate post dominator      @  PC=0x2d08 (_1.ptx:2278) st.global.u32 [%rd12+0], %r9;
GPGPU-Sim PTX:  7 (potential) branch divergence @  PC=0x2d18 (_1.ptx:2281) @%p7 bra $Lt_13_27906;
GPGPU-Sim PTX:    immediate post dominator      @  PC=0x30b8 (_1.ptx:2445) exit;
GPGPU-Sim PTX:  8 (potential) branch divergence @  PC=0x2d48 (_1.ptx:2287) @%p8 bra $Lt_13_27906;
GPGPU-Sim PTX:    immediate post dominator      @  PC=0x30b8 (_1.ptx:2445) exit;
GPGPU-Sim PTX:  9 (potential) branch divergence @  PC=0x2d80 (_1.ptx:2294) @%p9 bra $Lt_13_27906;
GPGPU-Sim PTX:    immediate post dominator      @  PC=0x30b8 (_1.ptx:2445) exit;
GPGPU-Sim PTX: 10 (potential) branch divergence @  PC=0x2d90 (_1.ptx:2296) @%p10 bra $Lt_13_27906;
GPGPU-Sim PTX:    immediate post dominator      @  PC=0x30b8 (_1.ptx:2445) exit;
GPGPU-Sim PTX: 11 (potential) branch divergence @  PC=0x2dd0 (_1.ptx:2305) @%p11 bra $Lt_13_22530;
GPGPU-Sim PTX:    immediate post dominator      @  PC=0x30b0 (_1.ptx:2440) atom.global.dec.u32 %r57, [%rd23], %r24;
GPGPU-Sim PTX: 12 (potential) branch divergence @  PC=0x2e10 (_1.ptx:2314) @%p12 bra $Lt_13_23042;
GPGPU-Sim PTX:    immediate post dominator      @  PC=0x3088 (_1.ptx:2431) atom.global.dec.u32 %r55, [%rd26], %r24;
GPGPU-Sim PTX: 13 (potential) branch divergence @  PC=0x2e58 (_1.ptx:2327) @%p13 bra $Lt_13_23298;
GPGPU-Sim PTX:    immediate post dominator      @  PC=0x2eb8 (_1.ptx:2345) mov.s32 %r39, %r33;
GPGPU-Sim PTX: 14 (potential) branch divergence @  PC=0x2eb0 (_1.ptx:2342) @%p14 bra $Lt_13_23810;
GPGPU-Sim PTX:    immediate post dominator      @  PC=0x2eb8 (_1.ptx:2345) mov.s32 %r39, %r33;
GPGPU-Sim PTX: 15 (potential) branch divergence @  PC=0x2ef0 (_1.ptx:2354) @%p15 bra $Lt_13_24322;
GPGPU-Sim PTX:    immediate post dominator      @  PC=0x2f50 (_1.ptx:2372) setp.ne.u32 %p17, %r39, %r33;
GPGPU-Sim PTX: 16 (potential) branch divergence @  PC=0x2f48 (_1.ptx:2369) @%p16 bra $Lt_13_24834;
GPGPU-Sim PTX:    immediate post dominator      @  PC=0x2f50 (_1.ptx:2372) setp.ne.u32 %p17, %r39, %r33;
GPGPU-Sim PTX: 17 (potential) branch divergence @  PC=0x2f58 (_1.ptx:2373) @%p17 bra $Lt_13_25346;
GPGPU-Sim PTX:    immediate post dominator      @  PC=0x3038 (_1.ptx:2416) ld.param.u64 %rd48, [__cudaparm__Z18dfindcompminatomicPf5Graph14ComponentSpacePjS2_S2_S2_Pbi_mstwt];
GPGPU-Sim PTX: 18 (potential) branch divergence @  PC=0x2f60 (_1.ptx:2374) bra.uni $LDWendi__ZN14ComponentSpace6isBossEj_208_1;
GPGPU-Sim PTX:    immediate post dominator      @  PC=0x3038 (_1.ptx:2416) ld.param.u64 %rd48, [__cudaparm__Z18dfindcompminatomicPf5Graph14ComponentSpacePjS2_S2_S2_Pbi_mstwt];
GPGPU-Sim PTX: 19 (potential) branch divergence @  PC=0x2f80 (_1.ptx:2381) @%p18 bra $Lt_13_25858;
GPGPU-Sim PTX:    immediate post dominator      @  PC=0x2f98 (_1.ptx:2388) cvt.u64.u32 %rd39, %r45;
GPGPU-Sim PTX: 20 (potential) branch divergence @  PC=0x2fc8 (_1.ptx:2394) @%p19 bra $Lt_13_26626;
GPGPU-Sim PTX:    immediate post dominator      @  PC=0x3038 (_1.ptx:2416) ld.param.u64 %rd48, [__cudaparm__Z18dfindcompminatomicPf5Graph14ComponentSpacePjS2_S2_S2_Pbi_mstwt];
GPGPU-Sim PTX: 21 (potential) branch divergence @  PC=0x2fe0 (_1.ptx:2400) bra.uni $Lt_13_14082;
GPGPU-Sim PTX:    immediate post dominator      @  PC=0x2e28 (_1.ptx:2320) mov.s32 %r33, %r31;
GPGPU-Sim PTX: 22 (potential) branch divergence @  PC=0x3068 (_1.ptx:2423) bra.uni $Lt_13_22786;
GPGPU-Sim PTX:    immediate post dominator      @  PC=0x3088 (_1.ptx:2431) atom.global.dec.u32 %r55, [%rd26], %r24;
GPGPU-Sim PTX: 23 (potential) branch divergence @  PC=0x3090 (_1.ptx:2432) bra.uni $Lt_13_22274;
[...]
traffic_breakdown_memtocore[GLOBAL_ACC_R] = 296970416 {136:2183606,}
traffic_breakdown_memtocore[GLOBAL_ACC_W] = 10395672 {8:1299459,}
traffic_breakdown_memtocore[GLOBAL_ATOMIC] = 4816696 {40:1,72:66898,}
traffic_breakdown_memtocore[INST_ACC_R] = 48960 {136:360,}
maxmrqlatency = 1722 
maxdqlatency = 0 
maxmflatency = 2605 
averagemflatency = 396 
max_icnt2mem_latency = 1097 
max_icnt2sh_latency = 2623572 
mrq_lat_table:657251 	49488 	38884 	60688 	171259 	148844 	142919 	77318 	14840 	1762 	543 	0 	0 	0 	0 	0 	0 	0 	0 	0 	0 	0 	0 	0 	0 	0 	0 	0 	0 	0 	0 	0 	
dq_lat_table:0 	0 	0 	0 	0 	0 	0 	0 	0 	0 	0 	0 	0 	0 	0 	0 	0 	0 	0 	0 	0 	0 	0 	0 	0 	0 	0 	0 	0 	0 	0 	0 	
mf_lat_table:0 	0 	0 	0 	0 	0 	0 	537432 	2425940 	566869 	19633 	150 	0 	0 	0 	0 	0 	0 	0 	0 	0 	0 	0 	0 	0 	0 	0 	0 	0 	0 	0 	0 	
icnt2mem_lat_table:0 	0 	0 	519193 	256865 	470277 	1068238 	861273 	367534 	6995 	9 	0 	0 	0 	0 	0 	0 	0 	0 	0 	0 	0 	0 	0 	
icnt2sh_lat_table:0 	0 	0 	79485 	1056659 	1049133 	65152 	136 	0 	0 	420 	883 	2232 	4247 	8695 	17292 	33589 	100004 	147920 	195584 	390399 	398194 	0 	0 	
mf_lat_pw_table:0 	0 	0 	0 	0 	0 	0 	24 	4449 	761 	11 	0 	0 	0 	0 	0 	0 	0 	0 	0 	0 	0 	0 	0 	0 	0 	0 	0 	0 	0 	0 	0 	
maximum concurrent accesses to same row:
dram[0]:        64        64        64        64        64        64        64        64        64        64        64        64        64        64        64        64 
dram[1]:        64        64        64        64        64        64        64        64        64        64        64        64        64        64        64        64 
dram[2]:        64        64        64        64        64        64        64        64        64        64        64        64        64        64        64        64 
dram[3]:        64        64        64        64        64        64        64        64        64        64        64        64        64        64        64        64 
dram[4]:        64        64        64        64        64        64        64        64        64        64        64        64        64        64        64        64 
dram[5]:        64        64        64        64        64        64        64        64        64        64        64        64        64        64        64        64 
maximum service time to same row:
dram[0]:     24259     25525     24757     24541     23610     24130     21394     26655     26030     26307     22734     22468     29064     24676     23261     28225 
dram[1]:     34367     26447     23025     24699     25009     24967     26281     27130     39512     26343     23083     25706     25750     24527     24166     28390 
dram[2]:     24767     34779     24125     23994     25159     24489     26816     21632     27880     26622     21680     22923     27903     28614     25738     25103 
dram[3]:     34156     20244     23831     20388     25165     23556     26216     26192     29399     26731     21789     25867     26665     25355     26812     25020 
dram[4]:     25931     24737     23261     26347     24929     24069     26017     23509     25837     25132     23153     25910     23633     30190     25171     25640 
dram[5]:     34283     26362     24307     25209     25056     24484     21338     24940     25353     28522     22702     25836     23153     30106     28793     26084 
average row accesses per activate:
dram[0]:  3.522178  3.557242  3.567228  3.634472  3.646498  3.581612  3.591765  3.600403  3.682267  3.683016  3.652207  3.684593  3.493526  3.578231  3.716198  3.669599 
dram[1]:  3.527367  3.581951  3.649213  3.651319  3.582870  3.644696  3.622684  3.511383  3.639117  3.697516  3.634423  3.692128  3.557755  3.525062  3.664077  3.622926 
dram[2]:  3.574969  3.570075  3.669261  3.632417  3.521911  3.582429  3.633011  3.562998  3.670981  3.738958  3.678442  3.743407  3.528246  3.625351  3.680375  3.720430 
dram[3]:  3.566244  3.555611  3.708290  3.673438  3.547846  3.539730  3.599096  3.508076  3.671162  3.649263  3.671738  3.744186  3.516695  3.519188  3.717174  3.693712 
dram[4]:  3.637475  3.597282  3.607898  3.655262  3.585187  3.530303  3.564448  3.559622  3.634071  3.685543  3.618672  3.654933  3.524932  3.493120  3.678125  3.694096 
dram[5]:  3.545995  3.650319  3.617760  3.707010  3.567976  3.520218  3.562314  3.566475  3.640597  3.673851  3.689189  3.766020  3.529881  3.563331  3.644838  3.656339 
average row locality = 1363796/377121 = 3.616335
number of total memory accesses made:
dram[0]:         0         0         0         0         0         0         0         0         0         0         0         0         0         0         0         0 
dram[1]:         0         0         0         0         0         0         0         0         0         0         0         0         0         0         0         0 
dram[2]:         0         0         0         0         0         0         0         0         0         0         0         0         0         0         0         0 
dram[3]:         0         0         0         0         0         0         0         0         0         0         0         0         0         0         0         0 
dram[4]:         0         0         0         0         0         0         0         0         0         0         0         0         0         0         0         0 
dram[5]:         0         0         0         0         0         0         0         0         0         0         0         0         0         0         0         0 
total accesses: 0
min_bank_accesses = 0!
min_chip_accesses = 0!
number of total read accesses:
dram[0]:      9132      9136      9125      9098      9118      9154      9166      9162      9078      9044      9104      9076      9141      9090      9066      9074 
dram[1]:      9125      9095      9097      9084      9133      9119      9149      9171      9081      9071      9043      9089      9090      9091      9052      9074 
dram[2]:      9121      9136      9094      9095      9160      9133      9143      9166      9087      9061      9058      9085      9111      9089      9052      9086 
dram[3]:      9158      9122      9090      9076      9119      9126      9165      9172      9065      9050      9105      9059      9098      9095      9060      9055 
dram[4]:      9122      9130      9101      9074      9133      9144      9154      9156      9060      9056      9093      9090      9091      9092      9045      9049 
dram[5]:      9130      9125      9112      9086      9142      9134      9183      9153      9066      9064      9082      9056      9069      9094      9083      9059 
total reads: 873848
bank skew: 9183/9043 = 1.02
chip skew: 145764/145564 = 1.00
number of total write accesses:
dram[0]:      5161      5157      5069      5051      5045      5065      5140      5146      5084      5073      5125      5106      5158      5112      5089      5109 
dram[1]:      5182      5154      5051      5032      5048      5037      5128      5173      5097      5072      5084      5122      5109      5115      5095      5117 
dram[2]:      5161      5180      5051      5046      5065      5057      5142      5143      5094      5076      5104      5110      5129      5126      5088      5100 
dram[3]:      5189      5168      5046      5030      5044      5040      5163      5162      5091      5069      5134      5109      5120      5119      5095      5103 
dram[4]:      5166      5162      5060      5028      5050      5069      5143      5143      5062      5067      5132      5135      5118      5125      5079      5092 
dram[5]:      5171      5166      5066      5034      5030      5056      5166      5145      5085      5084      5114      5108      5107      5113      5110      5102 
total reads: 489948
bank skew: 5189/5028 = 1.03
chip skew: 81690/81616 = 1.00
average mf latency per bank:
dram[0]:       1045      1035      1056      1037      1067      1043      1031      1046      1013      1023      1046      1033      1040      1039      1026      1001
dram[1]:       1034      1028      1057      1034      1037      1040      1027      1047      1023      1041      1035      1043      1034      1035      1016      1019
dram[2]:       1040      1023      1033      1022      1036      1041      1047      1021      1029      1002      1042      1026      1037      1031      1005       989
dram[3]:       1045      1011      1037      1010      1054      1041      1048      1025      1037      1038      1069      1055      1058      1048      1023      1002
dram[4]:       1004      1041      1016      1028      1036      1044      1042      1021      1023      1019      1041      1021      1031      1045       991      1016
dram[5]:       1019      1032      1014      1026      1013      1050      1023      1032      1014      1026      1049      1026      1021      1032       993      1016
maximum mf latency per bank:
dram[0]:       2323      2156      2537      2197      2560      2463      2028      1630      2275      2296      2489      2495      2451      2095      2079      2023
dram[1]:       2240      2186      2281      2016      2125      1595      2066      1904      2072      2276      2470      2275      2273      1862      1955      2015
dram[2]:       2106      2211      2250      2324      2391      2407      1955      2105      2292      2430      2474      2524      2155      2605      1768      1920
dram[3]:       1624      2212      1972      2059      2343      2467      1875      1922      1972      2186      1506      2458      2060      2427      1900      2032
dram[4]:       1971      2215      2148      2195      2302      2453      1610      1794      2021      2237      2147      2449      1956      2417      1975      1975
dram[5]:       1868      1946      2185      1506      2337      1553      1705      1774      2146      1547      2315      1794      2029      2465      2037      1599

Number of Memory Banks Accessed per Memory Operation per Warp (from 0):
0	0	0	0	0	0	0	0	0	0	0	0	0	0	0	0	0	0	0	0	0	0	0	0	0	0	0	0	0	0	0	0	0	0	0	0	0	0	0	0	0	0	0	0	0	0	0	0	0	0	0	0	0	0	0	0	0	0	0	0	0	0	0	0	0	0	0	0	0	0	0	0	0	0	0	0	0	0	0	0	0	0	0	0	0	0	0	0	0	0	0	0	0	0	0	0	
Average # of Memory Banks Accessed per Memory Operation per Warp=-nan

position of mrq chosen
0	0	0	0	0	0	0	0	0	0	0	0	0	0	0	0	

average position of mrq chosen = -nan
Memory Partition 0: 
Cache L2_bank_000:
MSHR contents

Cache L2_bank_001:
MSHR contents

In Dram Latency Queue (total = 0): 
DRAM[0]: 16 bks, busW=4 BL=8 CL=12, tRRD=2 tCCD=6, tRCD=12 tRAS=28 tRP=12 tRC=40
n_cmd=3463112 n_nop=2887081 n_act=62920 n_pre=62904 n_req=227454 n_rd=291528 n_write=158679 bw_util=0.26
n_activity=2375312 dram_eff=0.3791
bk0: 18264a 3076409i bk1: 18272a 3068310i bk2: 18250a 3065786i bk3: 18196a 3062768i bk4: 18236a 3063780i bk5: 18308a 3060229i bk6: 18332a 3060793i bk7: 18324a 3053941i bk8: 18156a 3083179i bk9: 18088a 3073471i bk10: 18208a 3065479i bk11: 18152a 3063200i bk12: 18282a 3058157i bk13: 18180a 3054900i bk14: 18132a 3064298i bk15: 18148a 3057762i 
dram_util_bins: 0 0 0 0 0 0 0 0 0 0
dram_eff_bins: 0 0 0 0 0 0 0 0 0 0
mrqq: max=16 avg=2.8075
Memory Partition 1: 
Cache L2_bank_002:
MSHR contents

Cache L2_bank_003:
MSHR contents

In Dram Latency Queue (total = 0): 
DRAM[1]: 16 bks, busW=4 BL=8 CL=12, tRRD=2 tCCD=6, tRCD=12 tRAS=28 tRP=12 tRC=40
n_cmd=3463112 n_nop=2887706 n_act=62901 n_pre=62885 n_req=227180 n_rd=291128 n_write=158492 bw_util=0.2597
n_activity=2374250 dram_eff=0.3787
bk0: 18250a 3079011i bk1: 18190a 3072638i bk2: 18194a 3069153i bk3: 18168a 3065268i bk4: 18266a 3062869i bk5: 18238a 3063514i bk6: 18298a 3061036i bk7: 18342a 3051445i bk8: 18162a 3081796i bk9: 18142a 3076724i bk10: 18086a 3069278i bk11: 18178a 3063909i bk12: 18180a 3058712i bk13: 18182a 3054858i bk14: 18104a 3062528i bk15: 18148a 3055369i 
dram_util_bins: 0 0 0 0 0 0 0 0 0 0
dram_eff_bins: 0 0 0 0 0 0 0 0 0 0
mrqq: max=16 avg=2.79931
Memory Partition 2: 
Cache L2_bank_004:
MSHR contents

Cache L2_bank_005:
MSHR contents

In Dram Latency Queue (total = 0): 
DRAM[2]: 16 bks, busW=4 BL=8 CL=12, tRRD=2 tCCD=6, tRCD=12 tRAS=28 tRP=12 tRC=40
n_cmd=3463112 n_nop=2887985 n_act=62599 n_pre=62583 n_req=227349 n_rd=291354 n_write=158591 bw_util=0.2599
n_activity=2366831 dram_eff=0.3802
bk0: 18242a 3073890i bk1: 18272a 3071790i bk2: 18188a 3067117i bk3: 18190a 3066816i bk4: 18320a 3060946i bk5: 18266a 3058616i bk6: 18286a 3061082i bk7: 18332a 3053352i bk8: 18174a 3084015i bk9: 18122a 3079461i bk10: 18116a 3068393i bk11: 18170a 3065566i bk12: 18222a 3059753i bk13: 18178a 3057531i bk14: 18104a 3064881i bk15: 18172a 3059199i 
dram_util_bins: 0 0 0 0 0 0 0 0 0 0
dram_eff_bins: 0 0 0 0 0 0 0 0 0 0
mrqq: max=16 avg=2.79046
Memory Partition 3: 
Cache L2_bank_006:
MSHR contents

Cache L2_bank_007:
MSHR contents

In Dram Latency Queue (total = 0): 
DRAM[3]: 16 bks, busW=4 BL=8 CL=12, tRRD=2 tCCD=6, tRCD=12 tRAS=28 tRP=12 tRC=40
n_cmd=3463112 n_nop=2887562 n_act=62865 n_pre=62849 n_req=227297 n_rd=291230 n_write=158606 bw_util=0.2598
n_activity=2377717 dram_eff=0.3784
bk0: 18316a 3072465i bk1: 18244a 3069365i bk2: 18180a 3073726i bk3: 18152a 3065589i bk4: 18238a 3061948i bk5: 18252a 3058986i bk6: 18330a 3058492i bk7: 18344a 3054778i bk8: 18130a 3080275i bk9: 18100a 3074369i bk10: 18210a 3068580i bk11: 18118a 3066527i bk12: 18196a 3060183i bk13: 18190a 3055253i bk14: 18120a 3063304i bk15: 18110a 3062100i 
dram_util_bins: 0 0 0 0 0 0 0 0 0 0
dram_eff_bins: 0 0 0 0 0 0 0 0 0 0
mrqq: max=16 avg=2.80009
Memory Partition 4: 
Cache L2_bank_008:
MSHR contents

Cache L2_bank_009:
MSHR contents

In Dram Latency Queue (total = 0): 
DRAM[4]: 16 bks, busW=4 BL=8 CL=12, tRRD=2 tCCD=6, tRCD=12 tRAS=28 tRP=12 tRC=40
n_cmd=3463112 n_nop=2887408 n_act=63004 n_pre=62988 n_req=227221 n_rd=291180 n_write=158532 bw_util=0.2597
n_activity=2367331 dram_eff=0.3799
bk0: 18244a 3076782i bk1: 18260a 3067441i bk2: 18202a 3070963i bk3: 18148a 3065971i bk4: 18266a 3063965i bk5: 18288a 3056533i bk6: 18308a 3059178i bk7: 18312a 3050615i bk8: 18120a 3084958i bk9: 18112a 3075170i bk10: 18186a 3069295i bk11: 18180a 3061767i bk12: 18182a 3059480i bk13: 18184a 3051134i bk14: 18090a 3062815i bk15: 18098a 3059396i 
dram_util_bins: 0 0 0 0 0 0 0 0 0 0
dram_eff_bins: 0 0 0 0 0 0 0 0 0 0
mrqq: max=16 avg=2.80217
Memory Partition 5: 
Cache L2_bank_010:
MSHR contents

Cache L2_bank_011:
MSHR contents

In Dram Latency Queue (total = 0): 
DRAM[5]: 16 bks, busW=4 BL=8 CL=12, tRRD=2 tCCD=6, tRCD=12 tRAS=28 tRP=12 tRC=40
n_cmd=3463112 n_nop=2887596 n_act=62833 n_pre=62817 n_req=227295 n_rd=291276 n_write=158590 bw_util=0.2598
n_activity=2372147 dram_eff=0.3793
bk0: 18260a 3075843i bk1: 18250a 3073076i bk2: 18224a 3065716i bk3: 18172a 3066748i bk4: 18284a 3063447i bk5: 18268a 3058119i bk6: 18366a 3058867i bk7: 18306a 3049724i bk8: 18132a 3080166i bk9: 18128a 3077093i bk10: 18164a 3069891i bk11: 18112a 3067286i bk12: 18138a 3060734i bk13: 18188a 3056692i bk14: 18166a 3060114i bk15: 18118a 3056716i 
dram_util_bins: 0 0 0 0 0 0 0 0 0 0
dram_eff_bins: 0 0 0 0 0 0 0 0 0 0
mrqq: max=16 avg=2.79666

========= L2 cache stats =========
L2_cache_bank[0]: Access = 297269, Miss = 72930, Miss_rate = 0.245, Pending_hits = 1152, Reservation_fails = 1261
L2_cache_bank[1]: Access = 295804, Miss = 72834, Miss_rate = 0.246, Pending_hits = 1126, Reservation_fails = 976
L2_cache_bank[2]: Access = 295924, Miss = 72770, Miss_rate = 0.246, Pending_hits = 1142, Reservation_fails = 1114
L2_cache_bank[3]: Access = 296280, Miss = 72794, Miss_rate = 0.246, Pending_hits = 1180, Reservation_fails = 1334
L2_cache_bank[4]: Access = 296411, Miss = 72826, Miss_rate = 0.246, Pending_hits = 1185, Reservation_fails = 702
L2_cache_bank[5]: Access = 295412, Miss = 72851, Miss_rate = 0.247, Pending_hits = 1172, Reservation_fails = 1060
L2_cache_bank[6]: Access = 296741, Miss = 72860, Miss_rate = 0.246, Pending_hits = 1180, Reservation_fails = 1094
L2_cache_bank[7]: Access = 294728, Miss = 72755, Miss_rate = 0.247, Pending_hits = 1181, Reservation_fails = 1162
L2_cache_bank[8]: Access = 295359, Miss = 72799, Miss_rate = 0.246, Pending_hits = 1167, Reservation_fails = 819
L2_cache_bank[9]: Access = 295430, Miss = 72791, Miss_rate = 0.246, Pending_hits = 1162, Reservation_fails = 1548
L2_cache_bank[10]: Access = 295283, Miss = 72867, Miss_rate = 0.247, Pending_hits = 1127, Reservation_fails = 856
L2_cache_bank[11]: Access = 295743, Miss = 72771, Miss_rate = 0.246, Pending_hits = 1165, Reservation_fails = 1577
L2_total_cache_accesses = 3550384
L2_total_cache_misses = 873848
L2_total_cache_miss_rate = 0.2461
L2_total_cache_pending_hits = 13939
L2_total_cache_reservation_fails = 13503
L2_total_cache_breakdown:
	L2_cache_stats_breakdown[GLOBAL_ACC_R][HIT] = 1725715
	L2_cache_stats_breakdown[GLOBAL_ACC_R][HIT_RESERVED] = 2196
	L2_cache_stats_breakdown[GLOBAL_ACC_R][MISS] = 522594
	L2_cache_stats_breakdown[GLOBAL_ACC_R][RESERVATION_FAIL] = 4656
	L2_cache_stats_breakdown[CONST_ACC_R][HIT] = 48
	L2_cache_stats_breakdown[CONST_ACC_R][HIT_RESERVED] = 9
	L2_cache_stats_breakdown[CONST_ACC_R][MISS] = 3
	L2_cache_stats_breakdown[CONST_ACC_R][RESERVATION_FAIL] = 335
	L2_cache_stats_breakdown[GLOBAL_ACC_W][HIT] = 936563
	L2_cache_stats_breakdown[GLOBAL_ACC_W][HIT_RESERVED] = 11669
	L2_cache_stats_breakdown[GLOBAL_ACC_W][MISS] = 351227
	L2_cache_stats_breakdown[GLOBAL_ACC_W][RESERVATION_FAIL] = 6173
	L2_cache_stats_breakdown[INST_ACC_R][HIT] = 271
	L2_cache_stats_breakdown[INST_ACC_R][HIT_RESERVED] = 65
	L2_cache_stats_breakdown[INST_ACC_R][MISS] = 24
	L2_cache_stats_breakdown[INST_ACC_R][RESERVATION_FAIL] = 2339
L2_cache_data_port_util = 0.281
L2_cache_fill_port_util = 0.111

icnt_total_pkts_mem_to_simt=12420165
icnt_total_pkts_simt_to_mem=6787809
LD_mem_lat_dist  0 0 0 0 0 0 0 0 0 0 0 0 0 0 0 0 0 0 0 0 0 0 0 0 0 0 0
ST_mem_lat_dist  0 0 0 0 0 0 0 0 0 0 0 0 0 0 0 0 0 0 0 0 0 0 0 0 0 0 0
----------------------------Interconnect-DETAILS--------------------------------
Class 0:
Packet latency average = 47.5465
	minimum = 6
	maximum = 522
Network latency average = 29.9868
	minimum = 6
	maximum = 471
Slowest packet = 5585028
Flit latency average = 23.7049
	minimum = 6
	maximum = 471
Slowest flit = 17940309
Fragmentation average = 0.133807
	minimum = 0
	maximum = 364
Injected packet rate average = 0.121194
	minimum = 0.107297 (at node 5)
	maximum = 0.138014 (at node 15)
Accepted packet rate average = 0.121194
	minimum = 0.107297 (at node 5)
	maximum = 0.138014 (at node 15)
Injected flit rate average = 0.298931
	minimum = 0.201891 (at node 1)
	maximum = 0.41963 (at node 15)
Accepted flit rate average= 0.298931
	minimum = 0.255745 (at node 22)
	maximum = 0.337643 (at node 13)
Injected packet length average = 2.46655
Accepted packet length average = 2.46655
Total in-flight flits = 0 (0 measured)
====== Overall Traffic Statistics ======
====== Traffic class 0 ======
Packet latency average = 39.497 (4 samples)
	minimum = 6 (4 samples)
	maximum = 632 (4 samples)
Network latency average = 26.8609 (4 samples)
	minimum = 6 (4 samples)
	maximum = 542.25 (4 samples)
Flit latency average = 24.5939 (4 samples)
	minimum = 6 (4 samples)
	maximum = 540.25 (4 samples)
Fragmentation average = 0.522427 (4 samples)
	minimum = 0 (4 samples)
	maximum = 413.75 (4 samples)
Injected packet rate average = 0.0804583 (4 samples)
	minimum = 0.0710522 (4 samples)
	maximum = 0.0910858 (4 samples)
Accepted packet rate average = 0.0804583 (4 samples)
	minimum = 0.0710522 (4 samples)
	maximum = 0.0910858 (4 samples)
Injected flit rate average = 0.215513 (4 samples)
	minimum = 0.115365 (4 samples)
	maximum = 0.324782 (4 samples)
Accepted flit rate average = 0.215513 (4 samples)
	minimum = 0.133056 (4 samples)
	maximum = 0.303905 (4 samples)
Injected packet size average = 2.67857 (4 samples)
Accepted packet size average = 2.67857 (4 samples)
Hops average = 1 (4 samples)
----------------------------END-of-Interconnect-DETAILS-------------------------
GPGPU-Sim API: Stream Manager State
