

        *** GPGPU-Sim Simulator Version 3.2.2  [build 0] ***


GPGPU-Sim PTX: simulation mode 0 (can change with PTX_SIM_MODE_FUNC environment variable:
               1=functional simulation only, 0=detailed performance simulator)
GPGPU-Sim: Configuration options:

-network_mode                           1 # Interconnection network mode
-inter_config_file   config_fermi_islip.icnt # Interconnection network config file
-gpgpu_ptx_use_cuobjdump                    1 # Use cuobjdump to extract ptx and sass from binaries
-gpgpu_experimental_lib_support                    0 # Try to extract code from cuda libraries [Broken because of unknown cudaGetExportTable]
-gpgpu_ptx_convert_to_ptxplus                    0 # Convert SASS (native ISA) to ptxplus and run ptxplus
-gpgpu_ptx_force_max_capability                   20 # Force maximum compute capability
-gpgpu_ptx_inst_debug_to_file                    0 # Dump executed instructions' debug information to file
-gpgpu_ptx_inst_debug_file       inst_debug.txt # Executed instructions' debug output file
-gpgpu_ptx_inst_debug_thread_uid                    1 # Thread UID for executed instructions' debug output
-gpgpu_simd_model                       1 # 1 = post-dominator
-gpgpu_shader_core_pipeline              1536:32 # shader core pipeline config, i.e., {<nthread>:<warpsize>}
-gpgpu_tex_cache:l1  4:128:24,L:R:m:N:L,F:128:4,128:2 # per-shader L1 texture cache  (READ-ONLY) config  {<nsets>:<bsize>:<assoc>,<rep>:<wr>:<alloc>:<wr_alloc>,<mshr>:<N>:<merge>,<mq>:<rf>}
-gpgpu_const_cache:l1 64:64:2,L:R:f:N:L,A:2:32,4 # per-shader L1 constant memory cache  (READ-ONLY) config  {<nsets>:<bsize>:<assoc>,<rep>:<wr>:<alloc>:<wr_alloc>,<mshr>:<N>:<merge>,<mq>} 
-gpgpu_cache:il1     4:128:4,L:R:f:N:L,A:2:32,4 # shader L1 instruction cache config  {<nsets>:<bsize>:<assoc>,<rep>:<wr>:<alloc>:<wr_alloc>,<mshr>:<N>:<merge>,<mq>} 
-gpgpu_cache:dl1     32:128:4,L:L:m:N:H,A:32:8,8:2,0,1:0:1:1:0:1,1:4:8:16:32:64,/sciclone/data10/hwang07/GPU_RESEARCH/swl/swl_outputs/RESULTS/lrr/ # per-shader L1 data cache config  {<nsets>:<bsize>:<assoc>,<rep>:<wr>:<alloc>:<wr_alloc>,<mshr>:<N>:<merge>,<mq> | none}
-gpgpu_cache:dl1PrefL1                 none # per-shader L1 data cache config  {<nsets>:<bsize>:<assoc>,<rep>:<wr>:<alloc>:<wr_alloc>,<mshr>:<N>:<merge>,<mq> | none}
-gpgpu_cache:dl1PreShared                 none # per-shader L1 data cache config  {<nsets>:<bsize>:<assoc>,<rep>:<wr>:<alloc>:<wr_alloc>,<mshr>:<N>:<merge>,<mq> | none}
-gmem_skip_L1D                          0 # global memory access skip L1D cache (implements -Xptxas -dlcm=cg, default=no skip)
-gpgpu_perfect_mem                      0 # enable perfect memory mode (no cache miss)
-n_regfile_gating_group                    4 # group of lanes that should be read/written together)
-gpgpu_clock_gated_reg_file                    0 # enable clock gated reg file for power calculations
-gpgpu_clock_gated_lanes                    0 # enable clock gated lanes for power calculations
-gpgpu_shader_registers                32768 # Number of registers per shader core. Limits number of concurrent CTAs. (default 8192)
-gpgpu_shader_cta                       8 # Maximum number of concurrent CTAs in shader (default 8)
-gpgpu_num_cta_barriers                   16 # Maximum number of named barriers per CTA (default 16)
-gpgpu_n_clusters                      15 # number of processing clusters
-gpgpu_n_cores_per_cluster                    1 # number of simd cores per cluster
-gpgpu_n_cluster_ejection_buffer_size                    8 # number of packets in ejection buffer
-gpgpu_n_ldst_response_buffer_size                    2 # number of response packets in ld/st unit ejection buffer
-gpgpu_shmem_size                   16384 # Size of shared memory per shader core (default 16kB)
-gpgpu_shmem_size                   49152 # Size of shared memory per shader core (default 16kB)
-gpgpu_shmem_size_PrefL1                16384 # Size of shared memory per shader core (default 16kB)
-gpgpu_shmem_size_PrefShared                16384 # Size of shared memory per shader core (default 16kB)
-gpgpu_shmem_num_banks                   32 # Number of banks in the shared memory in each shader core (default 16)
-gpgpu_shmem_limited_broadcast                    0 # Limit shared memory to do one broadcast per cycle (default on)
-gpgpu_shmem_warp_parts                    1 # Number of portions a warp is divided into for shared memory bank conflict check 
-gpgpu_warpdistro_shader                   -1 # Specify which shader core to collect the warp size distribution from
-gpgpu_warp_issue_shader                    0 # Specify which shader core to collect the warp issue distribution from
-gpgpu_local_mem_map                    1 # Mapping from local memory space address to simulated GPU physical address space (default = enabled)
-gpgpu_num_reg_banks                   16 # Number of register banks (default = 8)
-gpgpu_reg_bank_use_warp_id                    0 # Use warp ID in mapping registers to banks (default = off)
-gpgpu_operand_collector_num_units_sp                    6 # number of collector units (default = 4)
-gpgpu_operand_collector_num_units_sfu                    8 # number of collector units (default = 4)
-gpgpu_operand_collector_num_units_mem                    2 # number of collector units (default = 2)
-gpgpu_operand_collector_num_units_gen                    0 # number of collector units (default = 0)
-gpgpu_operand_collector_num_in_ports_sp                    2 # number of collector unit in ports (default = 1)
-gpgpu_operand_collector_num_in_ports_sfu                    1 # number of collector unit in ports (default = 1)
-gpgpu_operand_collector_num_in_ports_mem                    1 # number of collector unit in ports (default = 1)
-gpgpu_operand_collector_num_in_ports_gen                    0 # number of collector unit in ports (default = 0)
-gpgpu_operand_collector_num_out_ports_sp                    2 # number of collector unit in ports (default = 1)
-gpgpu_operand_collector_num_out_ports_sfu                    1 # number of collector unit in ports (default = 1)
-gpgpu_operand_collector_num_out_ports_mem                    1 # number of collector unit in ports (default = 1)
-gpgpu_operand_collector_num_out_ports_gen                    0 # number of collector unit in ports (default = 0)
-gpgpu_coalesce_arch                   13 # Coalescing arch (default = 13, anything else is off for now)
-gpgpu_num_sched_per_core                    2 # Number of warp schedulers per core
-gpgpu_max_insn_issue_per_warp                    1 # Max number of instructions that can be issued per warp in one cycle by scheduler
-gpgpu_simt_core_sim_order                    1 # Select the simulation order of cores in a cluster (0=Fix, 1=Round-Robin)
-gpgpu_pipeline_widths        2,1,1,2,1,1,2 # Pipeline widths ID_OC_SP,ID_OC_SFU,ID_OC_MEM,OC_EX_SP,OC_EX_SFU,OC_EX_MEM,EX_WB
-gpgpu_num_sp_units                     2 # Number of SP units (default=1)
-gpgpu_num_sfu_units                    1 # Number of SF units (default=1)
-gpgpu_num_mem_units                    1 # Number if ldst units (default=1) WARNING: not hooked up to anything
-gpgpu_scheduler                      lrr # Scheduler configuration: < lrr | gto | two_level_active > If two_level_active:<num_active_warps>:<inner_prioritization>:<outer_prioritization>For complete list of prioritization values see shader.h enum scheduler_prioritization_typeDefault: gto
-gpgpu_dram_scheduler                    1 # 0 = fifo, 1 = FR-FCFS (defaul)
-gpgpu_dram_partition_queues              8:8:8:8 # i2$:$2d:d2$:$2i
-l2_ideal                               0 # Use a ideal L2 cache that always hit
-gpgpu_cache:dl2     64:128:8,L:B:m:W:L,A:32:4,4:0,32 # unified banked L2 data cache config  {<nsets>:<bsize>:<assoc>,<rep>:<wr>:<alloc>:<wr_alloc>,<mshr>:<N>:<merge>,<mq>}
-gpgpu_cache:dl2_texture_only                    0 # L2 cache used for texture only
-gpgpu_n_mem                            6 # number of memory modules (e.g. memory controllers) in gpu
-gpgpu_n_sub_partition_per_mchannel                    2 # number of memory subpartition in each memory module
-gpgpu_n_mem_per_ctrlr                    2 # number of memory chips per memory controller
-gpgpu_memlatency_stat                   14 # track and display latency statistics 0x2 enables MC, 0x4 enables queue logs
-gpgpu_frfcfs_dram_sched_queue_size                   16 # 0 = unlimited (default); # entries per chip
-gpgpu_dram_return_queue_size                  116 # 0 = unlimited (default); # entries per chip
-gpgpu_dram_buswidth                    4 # default = 4 bytes (8 bytes per cycle at DDR)
-gpgpu_dram_burst_length                    8 # Burst length of each DRAM request (default = 4 data bus cycle)
-dram_data_command_freq_ratio                    4 # Frequency ratio between DRAM data bus and command bus (default = 2 times, i.e. DDR)
-gpgpu_dram_timing_opt nbk=16:CCD=2:RRD=6:RCD=12:RAS=28:RP=12:RC=40: CL=12:WL=4:CDLR=5:WR=12:nbkgrp=4:CCDL=3:RTPL=2 # DRAM timing parameters = {nbk:tCCD:tRRD:tRCD:tRAS:tRP:tRC:CL:WL:tCDLR:tWR:nbkgrp:tCCDL:tRTPL}
-rop_latency                          120 # ROP queue latency (default 85)
-dram_latency                         100 # DRAM latency (default 30)
-gpgpu_mem_addr_mapping dramid@8;00000000.00000000.00000000.00000000.0000RRRR.RRRRRRRR.BBBCCCCB.CCSSSSSS # mapping memory address to dram model {dramid@<start bit>;<memory address map>}
-gpgpu_mem_addr_test                    0 # run sweep test to check address mapping for aliased address
-gpgpu_mem_address_mask                    1 # 0 = old addressing mask, 1 = new addressing mask, 2 = new add. mask + flipped bank sel and chip sel bits
-gpuwattch_xml_file  gpuwattch_gtx480.xml # GPUWattch XML file
-power_simulation_enabled                    0 # Turn on power simulator (1=On, 0=Off)
-power_per_cycle_dump                    0 # Dump detailed power output each cycle
-power_trace_enabled                    0 # produce a file for the power trace (1=On, 0=Off)
-power_trace_zlevel                     6 # Compression level of the power trace output log (0=no comp, 9=highest)
-steady_power_levels_enabled                    0 # produce a file for the steady power levels (1=On, 0=Off)
-steady_state_definition                  8:4 # allowed deviation:number of samples
-gpgpu_max_cycle                        0 # terminates gpu simulation early (0 = no limit)
-gpgpu_max_insn                         0 # terminates gpu simulation early (0 = no limit)
-gpgpu_max_cta                          0 # terminates gpu simulation early (0 = no limit)
-gpgpu_runtime_stat                   500 # display runtime statistics such as dram utilization {<freq>:<flag>}
-liveness_message_freq                    1 # Minimum number of seconds between simulation liveness messages (0 = always print)
-gpgpu_flush_l1_cache                    0 # Flush L1 cache at the end of each kernel call
-gpgpu_flush_l2_cache                    0 # Flush L2 cache at the end of each kernel call
-gpgpu_deadlock_detect                    1 # Stop the simulation at deadlock (1=on (default), 0=off)
-gpgpu_ptx_instruction_classification                    0 # if enabled will classify ptx instruction types per kernel (Max 255 kernels now)
-gpgpu_ptx_sim_mode                     0 # Select between Performance (default) or Functional simulation (1)
-gpgpu_clock_domains 700.0:700.0:700.0:924.0 # Clock Domain Frequencies in MhZ {<Core Clock>:<ICNT Clock>:<L2 Clock>:<DRAM Clock>}
-gpgpu_max_concurrent_kernel                    8 # maximum kernels that can run concurrently on GPU
-gpgpu_cflog_interval                    0 # Interval between each snapshot in control flow logger
-visualizer_enabled                     0 # Turn on visualizer output (1=On, 0=Off)
-visualizer_outputfile                 NULL # Specifies the output log file for visualizer
-visualizer_zlevel                      6 # Compression level of the visualizer output log (0=no comp, 9=highest)
-trace_enabled                          0 # Turn on traces
-trace_components                    none # comma seperated list of traces to enable. Complete list found in trace_streams.tup. Default none
-trace_sampling_core                    0 # The core which is printed using CORE_DPRINTF. Default 0
-trace_sampling_memory_partition                   -1 # The memory partition which is printed using MEMPART_DPRINTF. Default -1 (i.e. all)
-enable_ptx_file_line_stats                    1 # Turn on PTX source line statistic profiling. (1 = On)
-ptx_line_stats_filename gpgpu_inst_stats.txt # Output file for PTX source line statistics.
-save_embedded_ptx                      0 # saves ptx files embedded in binary as <n>.ptx
-keep                                   0 # keep intermediate files created by GPGPU-Sim when interfacing with external programs
-gpgpu_ptx_save_converted_ptxplus                    0 # Saved converted ptxplus to a file
-ptx_opcode_latency_int         4,13,4,5,145 # Opcode latencies for integers <ADD,MAX,MUL,MAD,DIV>Default 1,1,19,25,145
-ptx_opcode_latency_fp          4,13,4,5,39 # Opcode latencies for single precision floating points <ADD,MAX,MUL,MAD,DIV>Default 1,1,1,1,30
-ptx_opcode_latency_dp         8,19,8,8,330 # Opcode latencies for double precision floating points <ADD,MAX,MUL,MAD,DIV>Default 8,8,8,8,335
-ptx_opcode_initiation_int            1,2,2,1,8 # Opcode initiation intervals for integers <ADD,MAX,MUL,MAD,DIV>Default 1,1,4,4,32
-ptx_opcode_initiation_fp            1,2,1,1,4 # Opcode initiation intervals for single precision floating points <ADD,MAX,MUL,MAD,DIV>Default 1,1,1,1,5
-ptx_opcode_initiation_dp         8,16,8,8,130 # Opcode initiation intervals for double precision floating points <ADD,MAX,MUL,MAD,DIV>Default 8,8,8,8,130
DRAM Timing Options:
nbk                                    16 # number of banks
CCD                                     2 # column to column delay
RRD                                     6 # minimal delay between activation of rows in different banks
RCD                                    12 # row to column delay
RAS                                    28 # time needed to activate row
RP                                     12 # time needed to precharge (deactivate) row
RC                                     40 # row cycle time
CDLR                                    5 # switching from write to read (changes tWTR)
WR                                     12 # last data-in to row precharge
CL                                     12 # CAS latency
WL                                      4 # Write latency
nbkgrp                                  4 # number of bank groups
CCDL                                    3 # column to column delay between accesses to different bank groups
RTPL                                    2 # read to precharge delay between accesses to different bank groups
Total number of memory sub partition = 12
addr_dec_mask[CHIP]  = 0000000000000000 	high:64 low:0
addr_dec_mask[BK]    = 000000000000e100 	high:16 low:8
addr_dec_mask[ROW]   = 000000000fff0000 	high:28 low:16
addr_dec_mask[COL]   = 0000000000001eff 	high:13 low:0
addr_dec_mask[BURST] = 000000000000003f 	high:6 low:0
sub_partition_id_mask = 0000000000000100
GPGPU-Sim uArch: clock freqs: 700000000.000000:700000000.000000:700000000.000000:924000000.000000
GPGPU-Sim uArch: clock periods: 0.00000000142857142857:0.00000000142857142857:0.00000000142857142857:0.00000000108225108225
*** Initializing Memory Statistics ***
GPGPU-Sim uArch: interconnect node map (shaderID+MemID to icntID)
GPGPU-Sim uArch: Memory nodes ID start from index: 15
GPGPU-Sim uArch:    0   1   2   3   4
GPGPU-Sim uArch:    5   6   7   8   9
GPGPU-Sim uArch:   10  11  12  13  14
GPGPU-Sim uArch:   15  16  17  18  19
GPGPU-Sim uArch:   20  21  22  23  24
GPGPU-Sim uArch:   25  26
GPGPU-Sim uArch: interconnect node reverse map (icntID to shaderID+MemID)
GPGPU-Sim uArch: Memory nodes start from ID: 15
GPGPU-Sim uArch:    0   1   2   3   4
GPGPU-Sim uArch:    5   6   7   8   9
GPGPU-Sim uArch:   10  11  12  13  14
GPGPU-Sim uArch:   15  16  17  18  19
GPGPU-Sim uArch:   20  21  22  23  24
GPGPU-Sim uArch:   25  26
ad1bf5b305a7ba26809fa90a097e825d  /sciclone/data10/hwang07/adwait/applications/benchmarks/Mars/sample_apps/Kmeans/gpgpu_ptx_sim__Kmeans
GPGPU-Sim uArch: performance model initialization complete.
GPGPU-Sim PTX: __cudaRegisterFatBinary, fat_cubin_handle = 1, filename=MarsSort.cu
self exe links to: /sciclone/data10/hwang07/adwait/applications/benchmarks/Mars/sample_apps/Kmeans/gpgpu_ptx_sim__Kmeans
Running md5sum using "md5sum /sciclone/data10/hwang07/adwait/applications/benchmarks/Mars/sample_apps/Kmeans/gpgpu_ptx_sim__Kmeans "
Parsing file _cuobjdump_complete_output_3ki7LE
######### cuobjdump parser ########
## Adding new section ELF
Adding arch: sm_20
Adding identifier: main.cu
## Adding new section PTX
Adding ptx filename: _cuobjdump_1.ptx
Adding arch: sm_20
Adding identifier: main.cu
## Adding new section ELF
Adding arch: sm_20
Adding identifier: MarsLib.cu
## Adding new section PTX
Adding ptx filename: _cuobjdump_2.ptx
Adding arch: sm_20
Adding identifier: MarsLib.cu
## Adding new section ELF
Adding arch: sm_20
Adding identifier: MarsScan.cu
## Adding new section PTX
Adding ptx filename: _cuobjdump_3.ptx
Adding arch: sm_20
Adding identifier: MarsScan.cu
## Adding new section ELF
Adding arch: sm_20
Adding identifier: MarsSort.cu
## Adding new section PTX
Adding ptx filename: _cuobjdump_4.ptx
Adding arch: sm_20
Adding identifier: MarsSort.cu
Done parsing!!!
GPGPU-Sim PTX: __cudaRegisterFunction _Z20writeBoundary_kerneliiPiS_S_ : hostFun 0x0x4095af, fat_cubin_handle = 1
GPGPU-Sim PTX: allocating stack frame region for .param "__cudaretf__Z7comparePKviS0_i" from 0x0 to 0x4
GPGPU-Sim PTX: allocating stack frame region for .param "__cudaparmf1__Z7comparePKviS0_i" from 0x4 to 0xc
GPGPU-Sim PTX: allocating stack frame region for .param "__cudaparmf2__Z7comparePKviS0_i" from 0xc to 0x10
GPGPU-Sim PTX: allocating stack frame region for .param "__cudaparmf3__Z7comparePKviS0_i" from 0x10 to 0x18
GPGPU-Sim PTX: allocating stack frame region for .param "__cudaparmf4__Z7comparePKviS0_i" from 0x18 to 0x1c
GPGPU-Sim PTX: allocating stack frame region for .param "__cudaretf__Z15getCompareValuePv4int4S0_" from 0x0 to 0x4
GPGPU-Sim PTX: allocating stack frame region for .param "__cudaparmf1__Z15getCompareValuePv4int4S0_" from 0x4 to 0xc
GPGPU-Sim PTX: allocating stack frame region for .param "__cudaparmf2__Z15getCompareValuePv4int4S0_" from 0xc to 0x1c
GPGPU-Sim PTX: allocating stack frame region for .param "__cudaparmf3__Z15getCompareValuePv4int4S0_" from 0x1c to 0x2c
GPGPU-Sim PTX: instruction assembly for function '_Z7comparePKviS0_i'...   done.
GPGPU-Sim PTX: finding reconvergence points for '_Z7comparePKviS0_i'...
GPGPU-Sim PTX: Finding dominators for '_Z7comparePKviS0_i'...
GPGPU-Sim PTX: Finding immediate dominators for '_Z7comparePKviS0_i'...
GPGPU-Sim PTX: Finding postdominators for '_Z7comparePKviS0_i'...
GPGPU-Sim PTX: Finding immediate postdominators for '_Z7comparePKviS0_i'...
GPGPU-Sim PTX: pre-decoding instructions for '_Z7comparePKviS0_i'...
GPGPU-Sim PTX: reconvergence points for _Z7comparePKviS0_i...
GPGPU-Sim PTX:  1 (potential) branch divergence @  PC=0x088 (_1.ptx:84) @%p1 bra $Lt_0_1794;
GPGPU-Sim PTX:    immediate post dominator      @  PC=0x0c8 (_1.ptx:98) mov.s32 %r6, %r5;
GPGPU-Sim PTX:  2 (potential) branch divergence @  PC=0x098 (_1.ptx:87) bra.uni $LBB6__Z7comparePKviS0_i;
GPGPU-Sim PTX:    immediate post dominator      @  PC=0x0c8 (_1.ptx:98) mov.s32 %r6, %r5;
GPGPU-Sim PTX:  3 (potential) branch divergence @  PC=0x0a8 (_1.ptx:90) @%p2 bra $Lt_0_2306;
GPGPU-Sim PTX:    immediate post dominator      @  PC=0x0c8 (_1.ptx:98) mov.s32 %r6, %r5;
GPGPU-Sim PTX:  4 (potential) branch divergence @  PC=0x0b8 (_1.ptx:93) bra.uni $LBB6__Z7comparePKviS0_i;
GPGPU-Sim PTX:    immediate post dominator      @  PC=0x0c8 (_1.ptx:98) mov.s32 %r6, %r5;
GPGPU-Sim PTX: ... end of reconvergence points for _Z7comparePKviS0_i
GPGPU-Sim PTX: ... done pre-decoding instructions for '_Z7comparePKviS0_i'.
GPGPU-Sim PTX: instruction assembly for function '_Z15getCompareValuePv4int4S0_'...   done.
GPGPU-Sim PTX: finding reconvergence points for '_Z15getCompareValuePv4int4S0_'...
GPGPU-Sim PTX: Finding dominators for '_Z15getCompareValuePv4int4S0_'...
GPGPU-Sim PTX: Finding immediate dominators for '_Z15getCompareValuePv4int4S0_'...
GPGPU-Sim PTX: Finding postdominators for '_Z15getCompareValuePv4int4S0_'...
GPGPU-Sim PTX: Finding immediate postdominators for '_Z15getCompareValuePv4int4S0_'...
GPGPU-Sim PTX: pre-decoding instructions for '_Z15getCompareValuePv4int4S0_'...
GPGPU-Sim PTX: reconvergence points for _Z15getCompareValuePv4int4S0_...
GPGPU-Sim PTX:  1 (potential) branch divergence @  PC=0x158 (_1.ptx:126) @%p2 bra $Lt_1_5122;
GPGPU-Sim PTX:    immediate post dominator      @  PC=0x270 (_1.ptx:175) mov.s32 %r20, %r12;
GPGPU-Sim PTX:  2 (potential) branch divergence @  PC=0x168 (_1.ptx:128) @%p3 bra $Lt_1_5634;
GPGPU-Sim PTX:    immediate post dominator      @  PC=0x270 (_1.ptx:175) mov.s32 %r20, %r12;
GPGPU-Sim PTX:  3 (potential) branch divergence @  PC=0x178 (_1.ptx:130) bra.uni $Lt_1_4866;
GPGPU-Sim PTX:    immediate post dominator      @  PC=0x270 (_1.ptx:175) mov.s32 %r20, %r12;
GPGPU-Sim PTX:  4 (potential) branch divergence @  PC=0x198 (_1.ptx:136) bra.uni $Lt_1_4866;
GPGPU-Sim PTX:    immediate post dominator      @  PC=0x270 (_1.ptx:175) mov.s32 %r20, %r12;
GPGPU-Sim PTX:  5 (potential) branch divergence @  PC=0x228 (_1.ptx:157) @%p4 bra $Lt_1_5890;
GPGPU-Sim PTX:    immediate post dominator      @  PC=0x268 (_1.ptx:172) mov.s32 %r12, %r19;
GPGPU-Sim PTX:  6 (potential) branch divergence @  PC=0x238 (_1.ptx:160) bra.uni $LDWendi__Z7comparePKviS0_i_181_1;
GPGPU-Sim PTX:    immediate post dominator      @  PC=0x268 (_1.ptx:172) mov.s32 %r12, %r19;
GPGPU-Sim PTX:  7 (potential) branch divergence @  PC=0x248 (_1.ptx:163) @%p5 bra $Lt_1_6402;
GPGPU-Sim PTX:    immediate post dominator      @  PC=0x268 (_1.ptx:172) mov.s32 %r12, %r19;
GPGPU-Sim PTX:  8 (potential) branch divergence @  PC=0x258 (_1.ptx:166) bra.uni $LDWendi__Z7comparePKviS0_i_181_1;
GPGPU-Sim PTX:    immediate post dominator      @  PC=0x268 (_1.ptx:172) mov.s32 %r12, %r19;
GPGPU-Sim PTX: ... end of reconvergence points for _Z15getCompareValuePv4int4S0_
GPGPU-Sim PTX: ... done pre-decoding instructions for '_Z15getCompareValuePv4int4S0_'.
GPGPU-Sim PTX: allocating shared region for "__cuda___cuda_local_var_45781_37_non_const_shared48" from 0x0 to 0x1000 (shared memory space)
GPGPU-Sim PTX: instruction assembly for function '_Z21partBitonicSortKernelPviP4int4jii'...   done.
GPGPU-Sim PTX: finding reconvergence points for '_Z21partBitonicSortKernelPviP4int4jii'...
GPGPU-Sim PTX: Finding dominators for '_Z21partBitonicSortKernelPviP4int4jii'...
GPGPU-Sim PTX: Finding immediate dominators for '_Z21partBitonicSortKernelPviP4int4jii'...
GPGPU-Sim PTX: Finding postdominators for '_Z21partBitonicSortKernelPviP4int4jii'...
GPGPU-Sim PTX: Finding immediate postdominators for '_Z21partBitonicSortKernelPviP4int4jii'...
GPGPU-Sim PTX: pre-decoding instructions for '_Z21partBitonicSortKernelPviP4int4jii'...
GPGPU-Sim PTX: reconvergence points for _Z21partBitonicSortKernelPviP4int4jii...
GPGPU-Sim PTX:  1 (potential) branch divergence @  PC=0x358 (_1.ptx:223) @%p1 bra $Lt_2_24322;
GPGPU-Sim PTX:    immediate post dominator      @  PC=0x808 (_1.ptx:425) ld.v4.s32 {%r77,%r78,%r79,%r80}, [%rd4+0];
GPGPU-Sim PTX:  2 (potential) branch divergence @  PC=0x3a0 (_1.ptx:235) @%p2 bra $Lt_2_23298;
GPGPU-Sim PTX:    immediate post dominator      @  PC=0x588 (_1.ptx:317) bar.sync 0;
GPGPU-Sim PTX:  3 (potential) branch divergence @  PC=0x3f0 (_1.ptx:246) @%p4 bra $Lt_2_20482;
GPGPU-Sim PTX:    immediate post dominator      @  PC=0x510 (_1.ptx:296) and.b32 %r44, %r6, 256;
GPGPU-Sim PTX:  4 (potential) branch divergence @  PC=0x400 (_1.ptx:248) @%p5 bra $Lt_2_20994;
GPGPU-Sim PTX:    immediate post dominator      @  PC=0x510 (_1.ptx:296) and.b32 %r44, %r6, 256;
GPGPU-Sim PTX:  5 (potential) branch divergence @  PC=0x410 (_1.ptx:250) bra.uni $Lt_2_20226;
GPGPU-Sim PTX:    immediate post dominator      @  PC=0x510 (_1.ptx:296) and.b32 %r44, %r6, 256;
GPGPU-Sim PTX:  6 (potential) branch divergence @  PC=0x430 (_1.ptx:256) bra.uni $Lt_2_20226;
GPGPU-Sim PTX:    immediate post dominator      @  PC=0x510 (_1.ptx:296) and.b32 %r44, %r6, 256;
GPGPU-Sim PTX:  7 (potential) branch divergence @  PC=0x4c8 (_1.ptx:278) @%p6 bra $Lt_2_21250;
GPGPU-Sim PTX:    immediate post dominator      @  PC=0x508 (_1.ptx:293) mov.s32 %r36, %r43;
GPGPU-Sim PTX:  8 (potential) branch divergence @  PC=0x4d8 (_1.ptx:281) bra.uni $LDWendi__Z7comparePKviS0_i_182_3;
GPGPU-Sim PTX:    immediate post dominator      @  PC=0x508 (_1.ptx:293) mov.s32 %r36, %r43;
GPGPU-Sim PTX:  9 (potential) branch divergence @  PC=0x4e8 (_1.ptx:284) @%p7 bra $Lt_2_21762;
GPGPU-Sim PTX:    immediate post dominator      @  PC=0x508 (_1.ptx:293) mov.s32 %r36, %r43;
GPGPU-Sim PTX: 10 (potential) branch divergence @  PC=0x4f8 (_1.ptx:287) bra.uni $LDWendi__Z7comparePKviS0_i_182_3;
GPGPU-Sim PTX:    immediate post dominator      @  PC=0x508 (_1.ptx:293) mov.s32 %r36, %r43;
GPGPU-Sim PTX: 11 (potential) branch divergence @  PC=0x528 (_1.ptx:299) @%p8 bra $Lt_2_22530;
GPGPU-Sim PTX:    immediate post dominator      @  PC=0x588 (_1.ptx:317) bar.sync 0;
GPGPU-Sim PTX: 12 (potential) branch divergence @  PC=0x540 (_1.ptx:302) @%p9 bra $Lt_2_23298;
GPGPU-Sim PTX:    immediate post dominator      @  PC=0x588 (_1.ptx:317) bar.sync 0;
GPGPU-Sim PTX: 13 (potential) branch divergence @  PC=0x558 (_1.ptx:305) bra.uni $Lt_2_23298;
GPGPU-Sim PTX:    immediate post dominator      @  PC=0x588 (_1.ptx:317) bar.sync 0;
GPGPU-Sim PTX: 14 (potential) branch divergence @  PC=0x570 (_1.ptx:310) @%p10 bra $Lt_2_23298;
GPGPU-Sim PTX:    immediate post dominator      @  PC=0x588 (_1.ptx:317) bar.sync 0;
GPGPU-Sim PTX: 15 (potential) branch divergence @  PC=0x5a8 (_1.ptx:322) @%p11 bra $Lt_2_19458;
GPGPU-Sim PTX:    immediate post dominator      @  PC=0x5b0 (_1.ptx:323) bra.uni $Lt_2_18434;
GPGPU-Sim PTX: 16 (potential) branch divergence @  PC=0x5b0 (_1.ptx:323) bra.uni $Lt_2_18434;
GPGPU-Sim PTX:    immediate post dominator      @  PC=0x808 (_1.ptx:425) ld.v4.s32 {%r77,%r78,%r79,%r80}, [%rd4+0];
GPGPU-Sim PTX: 17 (potential) branch divergence @  PC=0x5f8 (_1.ptx:336) @%p12 bra $Lt_2_28418;
GPGPU-Sim PTX:    immediate post dominator      @  PC=0x7e0 (_1.ptx:418) bar.sync 0;
GPGPU-Sim PTX: 18 (potential) branch divergence @  PC=0x648 (_1.ptx:347) @%p14 bra $Lt_2_25602;
GPGPU-Sim PTX:    immediate post dominator      @  PC=0x768 (_1.ptx:397) and.b32 %r72, %r6, 256;
GPGPU-Sim PTX: 19 (potential) branch divergence @  PC=0x658 (_1.ptx:349) @%p15 bra $Lt_2_26114;
GPGPU-Sim PTX:    immediate post dominator      @  PC=0x768 (_1.ptx:397) and.b32 %r72, %r6, 256;
GPGPU-Sim PTX: 20 (potential) branch divergence @  PC=0x668 (_1.ptx:351) bra.uni $Lt_2_25346;
GPGPU-Sim PTX:    immediate post dominator      @  PC=0x768 (_1.ptx:397) and.b32 %r72, %r6, 256;
GPGPU-Sim PTX: 21 (potential) branch divergence @  PC=0x688 (_1.ptx:357) bra.uni $Lt_2_25346;
GPGPU-Sim PTX:    immediate post dominator      @  PC=0x768 (_1.ptx:397) and.b32 %r72, %r6, 256;
GPGPU-Sim PTX: 22 (potential) branch divergence @  PC=0x720 (_1.ptx:379) @%p16 bra $Lt_2_26370;
GPGPU-Sim PTX:    immediate post dominator      @  PC=0x760 (_1.ptx:394) mov.s32 %r36, %r43;
GPGPU-Sim PTX: 23 (potential) branch divergence @  PC=0x730 (_1.ptx:382) bra.uni $LDWendi__Z7comparePKviS0_i_182_1;
GPGPU-Sim PTX:    immediate post dominator      @  PC=0x760 (_1.ptx:394) mov.s32 %r36, %r43;
GPGPU-Sim PTX: 24 (potential) branch divergence @  PC=0x740 (_1.ptx:385) @%p17 bra $Lt_2_26882;
GPGPU-Sim PTX:    immediate post dominator      @  PC=0x760 (_1.ptx:394) mov.s32 %r36, %r43;
GPGPU-Sim PTX: 25 (potential) branch divergence @  PC=0x750 (_1.ptx:388) bra.uni $LDWendi__Z7comparePKviS0_i_182_1;
GPGPU-Sim PTX:    immediate post dominator      @  PC=0x760 (_1.ptx:394) mov.s32 %r36, %r43;
GPGPU-Sim PTX: 26 (potential) branch divergence @  PC=0x780 (_1.ptx:400) @%p18 bra $Lt_2_27650;
GPGPU-Sim PTX:    immediate post dominator      @  PC=0x7e0 (_1.ptx:418) bar.sync 0;
GPGPU-Sim PTX: 27 (potential) branch divergence @  PC=0x798 (_1.ptx:403) @%p19 bra $Lt_2_28418;
GPGPU-Sim PTX:    immediate post dominator      @  PC=0x7e0 (_1.ptx:418) bar.sync 0;
GPGPU-Sim PTX: 28 (potential) branch divergence @  PC=0x7b0 (_1.ptx:406) bra.uni $Lt_2_28418;
GPGPU-Sim PTX:    immediate post dominator      @  PC=0x7e0 (_1.ptx:418) bar.sync 0;
GPGPU-Sim PTX: 29 (potential) branch divergence @  PC=0x7c8 (_1.ptx:411) @%p20 bra $Lt_2_28418;
GPGPU-Sim PTX:    immediate post dominator      @  PC=0x7e0 (_1.ptx:418) bar.sync 0;
GPGPU-Sim PTX: 30 (potential) branch divergence @  PC=0x800 (_1.ptx:423) @%p21 bra $Lt_2_24578;
GPGPU-Sim PTX:    immediate post dominator      @  PC=0x808 (_1.ptx:425) ld.v4.s32 {%r77,%r78,%r79,%r80}, [%rd4+0];
GPGPU-Sim PTX: ... end of reconvergence points for _Z21partBitonicSortKernelPviP4int4jii
GPGPU-Sim PTX: ... done pre-decoding instructions for '_Z21partBitonicSortKernelPviP4int4jii'.
GPGPU-Sim PTX: allocating shared region for "__cuda___cuda_local_var_45864_37_non_const_shared4176" from 0x0 to 0x1000 (shared memory space)
GPGPU-Sim PTX: instruction assembly for function '_Z21unitBitonicSortKernelPviP4int4ji'...   done.
GPGPU-Sim PTX: finding reconvergence points for '_Z21unitBitonicSortKernelPviP4int4ji'...
GPGPU-Sim PTX: Finding dominators for '_Z21unitBitonicSortKernelPviP4int4ji'...
GPGPU-Sim PTX: Finding immediate dominators for '_Z21unitBitonicSortKernelPviP4int4ji'...
GPGPU-Sim PTX: Finding postdominators for '_Z21unitBitonicSortKernelPviP4int4ji'...
GPGPU-Sim PTX: Finding immediate postdominators for '_Z21unitBitonicSortKernelPviP4int4ji'...
GPGPU-Sim PTX: pre-decoding instructions for '_Z21unitBitonicSortKernelPviP4int4ji'...
GPGPU-Sim PTX: reconvergence points for _Z21unitBitonicSortKernelPviP4int4ji...
GPGPU-Sim PTX:  1 (potential) branch divergence @  PC=0x8e0 (_1.ptx:471) @%p1 bra $Lt_3_27394;
GPGPU-Sim PTX:    immediate post dominator      @  PC=0xe20 (_1.ptx:699) ld.v4.s32 {%r83,%r84,%r85,%r86}, [%rd4+0];
GPGPU-Sim PTX:  2 (potential) branch divergence @  PC=0x910 (_1.ptx:480) @%p2 bra $Lt_3_21762;
GPGPU-Sim PTX:    immediate post dominator      @  PC=0xb60 (_1.ptx:580) shl.b32 %r17, %r17, 1;
GPGPU-Sim PTX:  3 (potential) branch divergence @  PC=0x950 (_1.ptx:490) @%p3 bra $Lt_3_26114;
GPGPU-Sim PTX:    immediate post dominator      @  PC=0xb38 (_1.ptx:572) bar.sync 0;
GPGPU-Sim PTX:  4 (potential) branch divergence @  PC=0x9a0 (_1.ptx:501) @%p5 bra $Lt_3_23298;
GPGPU-Sim PTX:    immediate post dominator      @  PC=0xac0 (_1.ptx:551) and.b32 %r45, %r17, %r6;
GPGPU-Sim PTX:  5 (potential) branch divergence @  PC=0x9b0 (_1.ptx:503) @%p6 bra $Lt_3_23810;
GPGPU-Sim PTX:    immediate post dominator      @  PC=0xac0 (_1.ptx:551) and.b32 %r45, %r17, %r6;
GPGPU-Sim PTX:  6 (potential) branch divergence @  PC=0x9c0 (_1.ptx:505) bra.uni $Lt_3_23042;
GPGPU-Sim PTX:    immediate post dominator      @  PC=0xac0 (_1.ptx:551) and.b32 %r45, %r17, %r6;
GPGPU-Sim PTX:  7 (potential) branch divergence @  PC=0x9e0 (_1.ptx:511) bra.uni $Lt_3_23042;
GPGPU-Sim PTX:    immediate post dominator      @  PC=0xac0 (_1.ptx:551) and.b32 %r45, %r17, %r6;
GPGPU-Sim PTX:  8 (potential) branch divergence @  PC=0xa78 (_1.ptx:533) @%p7 bra $Lt_3_24066;
GPGPU-Sim PTX:    immediate post dominator      @  PC=0xab8 (_1.ptx:548) mov.s32 %r37, %r44;
GPGPU-Sim PTX:  9 (potential) branch divergence @  PC=0xa88 (_1.ptx:536) bra.uni $LDWendi__Z7comparePKviS0_i_183_3;
GPGPU-Sim PTX:    immediate post dominator      @  PC=0xab8 (_1.ptx:548) mov.s32 %r37, %r44;
GPGPU-Sim PTX: 10 (potential) branch divergence @  PC=0xa98 (_1.ptx:539) @%p8 bra $Lt_3_24578;
GPGPU-Sim PTX:    immediate post dominator      @  PC=0xab8 (_1.ptx:548) mov.s32 %r37, %r44;
GPGPU-Sim PTX: 11 (potential) branch divergence @  PC=0xaa8 (_1.ptx:542) bra.uni $LDWendi__Z7comparePKviS0_i_183_3;
GPGPU-Sim PTX:    immediate post dominator      @  PC=0xab8 (_1.ptx:548) mov.s32 %r37, %r44;
GPGPU-Sim PTX: 12 (potential) branch divergence @  PC=0xad8 (_1.ptx:554) @%p9 bra $Lt_3_25346;
GPGPU-Sim PTX:    immediate post dominator      @  PC=0xb38 (_1.ptx:572) bar.sync 0;
GPGPU-Sim PTX: 13 (potential) branch divergence @  PC=0xaf0 (_1.ptx:557) @%p10 bra $Lt_3_26114;
GPGPU-Sim PTX:    immediate post dominator      @  PC=0xb38 (_1.ptx:572) bar.sync 0;
GPGPU-Sim PTX: 14 (potential) branch divergence @  PC=0xb08 (_1.ptx:560) bra.uni $Lt_3_26114;
GPGPU-Sim PTX:    immediate post dominator      @  PC=0xb38 (_1.ptx:572) bar.sync 0;
GPGPU-Sim PTX: 15 (potential) branch divergence @  PC=0xb20 (_1.ptx:565) @%p11 bra $Lt_3_26114;
GPGPU-Sim PTX:    immediate post dominator      @  PC=0xb38 (_1.ptx:572) bar.sync 0;
GPGPU-Sim PTX: 16 (potential) branch divergence @  PC=0xb58 (_1.ptx:577) @%p12 bra $Lt_3_22274;
GPGPU-Sim PTX:    immediate post dominator      @  PC=0xb60 (_1.ptx:580) shl.b32 %r17, %r17, 1;
GPGPU-Sim PTX: 17 (potential) branch divergence @  PC=0xb78 (_1.ptx:583) @%p13 bra $Lt_3_21506;
GPGPU-Sim PTX:    immediate post dominator      @  PC=0xb80 (_1.ptx:584) bra.uni $Lt_3_20482;
GPGPU-Sim PTX: 18 (potential) branch divergence @  PC=0xb80 (_1.ptx:584) bra.uni $Lt_3_20482;
GPGPU-Sim PTX:    immediate post dominator      @  PC=0xe20 (_1.ptx:699) ld.v4.s32 {%r83,%r84,%r85,%r86}, [%rd4+0];
GPGPU-Sim PTX: 19 (potential) branch divergence @  PC=0xbb0 (_1.ptx:594) @%p14 bra $Lt_3_27906;
GPGPU-Sim PTX:    immediate post dominator      @  PC=0xe00 (_1.ptx:694) shl.b32 %r51, %r51, 1;
GPGPU-Sim PTX: 20 (potential) branch divergence @  PC=0xbf0 (_1.ptx:604) @%p15 bra $Lt_3_32258;
GPGPU-Sim PTX:    immediate post dominator      @  PC=0xdd8 (_1.ptx:686) bar.sync 0;
GPGPU-Sim PTX: 21 (potential) branch divergence @  PC=0xc40 (_1.ptx:615) @%p17 bra $Lt_3_29442;
GPGPU-Sim PTX:    immediate post dominator      @  PC=0xd60 (_1.ptx:665) and.b32 %r77, %r51, %r6;
GPGPU-Sim PTX: 22 (potential) branch divergence @  PC=0xc50 (_1.ptx:617) @%p18 bra $Lt_3_29954;
GPGPU-Sim PTX:    immediate post dominator      @  PC=0xd60 (_1.ptx:665) and.b32 %r77, %r51, %r6;
GPGPU-Sim PTX: 23 (potential) branch divergence @  PC=0xc60 (_1.ptx:619) bra.uni $Lt_3_29186;
GPGPU-Sim PTX:    immediate post dominator      @  PC=0xd60 (_1.ptx:665) and.b32 %r77, %r51, %r6;
GPGPU-Sim PTX: 24 (potential) branch divergence @  PC=0xc80 (_1.ptx:625) bra.uni $Lt_3_29186;
GPGPU-Sim PTX:    immediate post dominator      @  PC=0xd60 (_1.ptx:665) and.b32 %r77, %r51, %r6;
GPGPU-Sim PTX: 25 (potential) branch divergence @  PC=0xd18 (_1.ptx:647) @%p19 bra $Lt_3_30210;
GPGPU-Sim PTX:    immediate post dominator      @  PC=0xd58 (_1.ptx:662) mov.s32 %r37, %r44;
GPGPU-Sim PTX: 26 (potential) branch divergence @  PC=0xd28 (_1.ptx:650) bra.uni $LDWendi__Z7comparePKviS0_i_183_1;
GPGPU-Sim PTX:    immediate post dominator      @  PC=0xd58 (_1.ptx:662) mov.s32 %r37, %r44;
GPGPU-Sim PTX: 27 (potential) branch divergence @  PC=0xd38 (_1.ptx:653) @%p20 bra $Lt_3_30722;
GPGPU-Sim PTX:    immediate post dominator      @  PC=0xd58 (_1.ptx:662) mov.s32 %r37, %r44;
GPGPU-Sim PTX: 28 (potential) branch divergence @  PC=0xd48 (_1.ptx:656) bra.uni $LDWendi__Z7comparePKviS0_i_183_1;
GPGPU-Sim PTX:    immediate post dominator      @  PC=0xd58 (_1.ptx:662) mov.s32 %r37, %r44;
GPGPU-Sim PTX: 29 (potential) branch divergence @  PC=0xd78 (_1.ptx:668) @%p21 bra $Lt_3_31490;
GPGPU-Sim PTX:    immediate post dominator      @  PC=0xdd8 (_1.ptx:686) bar.sync 0;
GPGPU-Sim PTX: 30 (potential) branch divergence @  PC=0xd90 (_1.ptx:671) @%p22 bra $Lt_3_32258;
GPGPU-Sim PTX:    immediate post dominator      @  PC=0xdd8 (_1.ptx:686) bar.sync 0;
GPGPU-Sim PTX: 31 (potential) branch divergence @  PC=0xda8 (_1.ptx:674) bra.uni $Lt_3_32258;
GPGPU-Sim PTX:    immediate post dominator      @  PC=0xdd8 (_1.ptx:686) bar.sync 0;
GPGPU-Sim PTX: 32 (potential) branch divergence @  PC=0xdc0 (_1.ptx:679) @%p23 bra $Lt_3_32258;
GPGPU-Sim PTX:    immediate post dominator      @  PC=0xdd8 (_1.ptx:686) bar.sync 0;
GPGPU-Sim PTX: 33 (potential) branch divergence @  PC=0xdf8 (_1.ptx:691) @%p24 bra $Lt_3_28418;
GPGPU-Sim PTX:    immediate post dominator      @  PC=0xe00 (_1.ptx:694) shl.b32 %r51, %r51, 1;
GPGPU-Sim PTX: 34 (potential) branch divergence @  PC=0xe18 (_1.ptx:697) @%p25 bra $Lt_3_27650;
GPGPU-Sim PTX:    immediate post dominator      @  PC=0xe20 (_1.ptx:699) ld.v4.s32 {%r83,%r84,%r85,%r86}, [%rd4+0];
GPGPU-Sim PTX: ... end of reconvergence points for _Z21unitBitonicSortKernelPviP4int4ji
GPGPU-Sim PTX: ... done pre-decoding instructions for '_Z21unitBitonicSortKernelPviP4int4ji'.
GPGPU-Sim PTX: instruction assembly for function '_Z13bitonicKernelPviP4int4jii'...   done.
GPGPU-Sim PTX: finding reconvergence points for '_Z13bitonicKernelPviP4int4jii'...
GPGPU-Sim PTX: Finding dominators for '_Z13bitonicKernelPviP4int4jii'...
GPGPU-Sim PTX: Finding immediate dominators for '_Z13bitonicKernelPviP4int4jii'...
GPGPU-Sim PTX: Finding postdominators for '_Z13bitonicKernelPviP4int4jii'...
GPGPU-Sim PTX: Finding immediate postdominators for '_Z13bitonicKernelPviP4int4jii'...
GPGPU-Sim PTX: pre-decoding instructions for '_Z13bitonicKernelPviP4int4jii'...
GPGPU-Sim PTX: reconvergence points for _Z13bitonicKernelPviP4int4jii...
GPGPU-Sim PTX:  1 (potential) branch divergence @  PC=0xe98 (_1.ptx:731) @%p1 bra $Lt_4_18178;
GPGPU-Sim PTX:    immediate post dominator      @  PC=0x1200 (_1.ptx:877) exit;
GPGPU-Sim PTX:  2 (potential) branch divergence @  PC=0xf40 (_1.ptx:754) @%p4 bra $Lt_4_13314;
GPGPU-Sim PTX:    immediate post dominator      @  PC=0x1200 (_1.ptx:877) exit;
GPGPU-Sim PTX:  3 (potential) branch divergence @  PC=0xf58 (_1.ptx:758) @%p5 bra $Lt_4_13826;
GPGPU-Sim PTX:    immediate post dominator      @  PC=0x1078 (_1.ptx:808) mov.u32 %r37, 1;
GPGPU-Sim PTX:  4 (potential) branch divergence @  PC=0xf68 (_1.ptx:760) @%p6 bra $Lt_4_14338;
GPGPU-Sim PTX:    immediate post dominator      @  PC=0x1078 (_1.ptx:808) mov.u32 %r37, 1;
GPGPU-Sim PTX:  5 (potential) branch divergence @  PC=0xf78 (_1.ptx:762) bra.uni $Lt_4_13570;
GPGPU-Sim PTX:    immediate post dominator      @  PC=0x1078 (_1.ptx:808) mov.u32 %r37, 1;
GPGPU-Sim PTX:  6 (potential) branch divergence @  PC=0xf98 (_1.ptx:768) bra.uni $Lt_4_13570;
GPGPU-Sim PTX:    immediate post dominator      @  PC=0x1078 (_1.ptx:808) mov.u32 %r37, 1;
GPGPU-Sim PTX:  7 (potential) branch divergence @  PC=0x1030 (_1.ptx:790) @%p7 bra $Lt_4_14594;
GPGPU-Sim PTX:    immediate post dominator      @  PC=0x1070 (_1.ptx:805) mov.s32 %r29, %r36;
GPGPU-Sim PTX:  8 (potential) branch divergence @  PC=0x1040 (_1.ptx:793) bra.uni $LDWendi__Z7comparePKviS0_i_184_3;
GPGPU-Sim PTX:    immediate post dominator      @  PC=0x1070 (_1.ptx:805) mov.s32 %r29, %r36;
GPGPU-Sim PTX:  9 (potential) branch divergence @  PC=0x1050 (_1.ptx:796) @%p8 bra $Lt_4_15106;
GPGPU-Sim PTX:    immediate post dominator      @  PC=0x1070 (_1.ptx:805) mov.s32 %r29, %r36;
GPGPU-Sim PTX: 10 (potential) branch divergence @  PC=0x1060 (_1.ptx:799) bra.uni $LDWendi__Z7comparePKviS0_i_184_3;
GPGPU-Sim PTX:    immediate post dominator      @  PC=0x1070 (_1.ptx:805) mov.s32 %r29, %r36;
GPGPU-Sim PTX: 11 (potential) branch divergence @  PC=0x1088 (_1.ptx:810) @%p9 bra $Lt_4_18178;
GPGPU-Sim PTX:    immediate post dominator      @  PC=0x1200 (_1.ptx:877) exit;
GPGPU-Sim PTX: 12 (potential) branch divergence @  PC=0x10a0 (_1.ptx:813) bra.uni $Lt_4_18178;
GPGPU-Sim PTX:    immediate post dominator      @  PC=0x1200 (_1.ptx:877) exit;
GPGPU-Sim PTX: 13 (potential) branch divergence @  PC=0x10b8 (_1.ptx:818) @%p10 bra $Lt_4_16386;
GPGPU-Sim PTX:    immediate post dominator      @  PC=0x11d8 (_1.ptx:868) mov.u32 %r45, -1;
GPGPU-Sim PTX: 14 (potential) branch divergence @  PC=0x10c8 (_1.ptx:820) @%p11 bra $Lt_4_16898;
GPGPU-Sim PTX:    immediate post dominator      @  PC=0x11d8 (_1.ptx:868) mov.u32 %r45, -1;
GPGPU-Sim PTX: 15 (potential) branch divergence @  PC=0x10d8 (_1.ptx:822) bra.uni $Lt_4_16130;
GPGPU-Sim PTX:    immediate post dominator      @  PC=0x11d8 (_1.ptx:868) mov.u32 %r45, -1;
GPGPU-Sim PTX: 16 (potential) branch divergence @  PC=0x10f8 (_1.ptx:828) bra.uni $Lt_4_16130;
GPGPU-Sim PTX:    immediate post dominator      @  PC=0x11d8 (_1.ptx:868) mov.u32 %r45, -1;
GPGPU-Sim PTX: 17 (potential) branch divergence @  PC=0x1190 (_1.ptx:850) @%p12 bra $Lt_4_17154;
GPGPU-Sim PTX:    immediate post dominator      @  PC=0x11d0 (_1.ptx:865) mov.s32 %r29, %r36;
GPGPU-Sim PTX: 18 (potential) branch divergence @  PC=0x11a0 (_1.ptx:853) bra.uni $LDWendi__Z7comparePKviS0_i_184_1;
GPGPU-Sim PTX:    immediate post dominator      @  PC=0x11d0 (_1.ptx:865) mov.s32 %r29, %r36;
GPGPU-Sim PTX: 19 (potential) branch divergence @  PC=0x11b0 (_1.ptx:856) @%p13 bra $Lt_4_17666;
GPGPU-Sim PTX:    immediate post dominator      @  PC=0x11d0 (_1.ptx:865) mov.s32 %r29, %r36;
GPGPU-Sim PTX: 20 (potential) branch divergence @  PC=0x11c0 (_1.ptx:859) bra.uni $LDWendi__Z7comparePKviS0_i_184_1;
GPGPU-Sim PTX:    immediate post dominator      @  PC=0x11d0 (_1.ptx:865) mov.s32 %r29, %r36;
GPGPU-Sim PTX: 21 (potential) branch divergence @  PC=0x11e8 (_1.ptx:870) @%p14 bra $Lt_4_18178;
GPGPU-Sim PTX:    immediate post dominator      @  PC=0x1200 (_1.ptx:877) exit;
GPGPU-Sim PTX: ... end of reconvergence points for _Z13bitonicKernelPviP4int4jii
GPGPU-Sim PTX: ... done pre-decoding instructions for '_Z13bitonicKernelPviP4int4jii'.
GPGPU-Sim PTX: allocating shared region for "__cuda___cuda_local_var_46001_37_non_const_bs_cmpbuf8352" from 0x0 to 0x1000 (shared memory space)
GPGPU-Sim PTX: instruction assembly for function '_Z29bitonicSortSingleBlock_kernelPviP4int4iS1_'...   done.
GPGPU-Sim PTX: finding reconvergence points for '_Z29bitonicSortSingleBlock_kernelPviP4int4iS1_'...
GPGPU-Sim PTX: Finding dominators for '_Z29bitonicSortSingleBlock_kernelPviP4int4iS1_'...
GPGPU-Sim PTX: Finding immediate dominators for '_Z29bitonicSortSingleBlock_kernelPviP4int4iS1_'...
GPGPU-Sim PTX: Finding postdominators for '_Z29bitonicSortSingleBlock_kernelPviP4int4iS1_'...
GPGPU-Sim PTX: Finding immediate postdominators for '_Z29bitonicSortSingleBlock_kernelPviP4int4iS1_'...
GPGPU-Sim PTX: pre-decoding instructions for '_Z29bitonicSortSingleBlock_kernelPviP4int4iS1_'...
GPGPU-Sim PTX: reconvergence points for _Z29bitonicSortSingleBlock_kernelPviP4int4iS1_...
GPGPU-Sim PTX:  1 (potential) branch divergence @  PC=0x1260 (_1.ptx:905) @%p1 bra $Lt_5_16386;
GPGPU-Sim PTX:    immediate post dominator      @  PC=0x12a0 (_1.ptx:918) bar.sync 0;
GPGPU-Sim PTX:  2 (potential) branch divergence @  PC=0x1288 (_1.ptx:911) bra.uni $Lt_5_16130;
GPGPU-Sim PTX:    immediate post dominator      @  PC=0x12a0 (_1.ptx:918) bar.sync 0;
GPGPU-Sim PTX:  3 (potential) branch divergence @  PC=0x12f0 (_1.ptx:931) @%p2 bra $Lt_5_17410;
GPGPU-Sim PTX:    immediate post dominator      @  PC=0x16e8 (_1.ptx:1097) mul.lo.s32 %r12, %r12, 2;
GPGPU-Sim PTX:  4 (potential) branch divergence @  PC=0x1308 (_1.ptx:935) @%p3 bra $Lt_5_23810;
GPGPU-Sim PTX:    immediate post dominator      @  PC=0x16a0 (_1.ptx:1085) bar.sync 0;
GPGPU-Sim PTX:  5 (potential) branch divergence @  PC=0x1350 (_1.ptx:944) @%p4 bra $Lt_5_18946;
GPGPU-Sim PTX:    immediate post dominator      @  PC=0x16a0 (_1.ptx:1085) bar.sync 0;
GPGPU-Sim PTX:  6 (potential) branch divergence @  PC=0x13a0 (_1.ptx:955) @%p6 bra $Lt_5_19458;
GPGPU-Sim PTX:    immediate post dominator      @  PC=0x14c0 (_1.ptx:1005) mov.u32 %r40, 0;
GPGPU-Sim PTX:  7 (potential) branch divergence @  PC=0x13b0 (_1.ptx:957) @%p7 bra $Lt_5_19970;
GPGPU-Sim PTX:    immediate post dominator      @  PC=0x14c0 (_1.ptx:1005) mov.u32 %r40, 0;
GPGPU-Sim PTX:  8 (potential) branch divergence @  PC=0x13c0 (_1.ptx:959) bra.uni $Lt_5_19202;
GPGPU-Sim PTX:    immediate post dominator      @  PC=0x14c0 (_1.ptx:1005) mov.u32 %r40, 0;
GPGPU-Sim PTX:  9 (potential) branch divergence @  PC=0x13e0 (_1.ptx:965) bra.uni $Lt_5_19202;
GPGPU-Sim PTX:    immediate post dominator      @  PC=0x14c0 (_1.ptx:1005) mov.u32 %r40, 0;
GPGPU-Sim PTX: 10 (potential) branch divergence @  PC=0x1478 (_1.ptx:987) @%p8 bra $Lt_5_20226;
GPGPU-Sim PTX:    immediate post dominator      @  PC=0x14b8 (_1.ptx:1002) mov.s32 %r32, %r39;
GPGPU-Sim PTX: 11 (potential) branch divergence @  PC=0x1488 (_1.ptx:990) bra.uni $LDWendi__Z7comparePKviS0_i_185_3;
GPGPU-Sim PTX:    immediate post dominator      @  PC=0x14b8 (_1.ptx:1002) mov.s32 %r32, %r39;
GPGPU-Sim PTX: 12 (potential) branch divergence @  PC=0x1498 (_1.ptx:993) @%p9 bra $Lt_5_20738;
GPGPU-Sim PTX:    immediate post dominator      @  PC=0x14b8 (_1.ptx:1002) mov.s32 %r32, %r39;
GPGPU-Sim PTX: 13 (potential) branch divergence @  PC=0x14a8 (_1.ptx:996) bra.uni $LDWendi__Z7comparePKviS0_i_185_3;
GPGPU-Sim PTX:    immediate post dominator      @  PC=0x14b8 (_1.ptx:1002) mov.s32 %r32, %r39;
GPGPU-Sim PTX: 14 (potential) branch divergence @  PC=0x14d0 (_1.ptx:1007) @%p10 bra $Lt_5_23810;
GPGPU-Sim PTX:    immediate post dominator      @  PC=0x16a0 (_1.ptx:1085) bar.sync 0;
GPGPU-Sim PTX: 15 (potential) branch divergence @  PC=0x14f8 (_1.ptx:1012) bra.uni $Lt_5_23810;
GPGPU-Sim PTX:    immediate post dominator      @  PC=0x16a0 (_1.ptx:1085) bar.sync 0;
GPGPU-Sim PTX: 16 (potential) branch divergence @  PC=0x1548 (_1.ptx:1024) @%p11 bra $Lt_5_22018;
GPGPU-Sim PTX:    immediate post dominator      @  PC=0x1668 (_1.ptx:1074) mov.u32 %r58, 0;
GPGPU-Sim PTX: 17 (potential) branch divergence @  PC=0x1558 (_1.ptx:1026) @%p12 bra $Lt_5_22530;
GPGPU-Sim PTX:    immediate post dominator      @  PC=0x1668 (_1.ptx:1074) mov.u32 %r58, 0;
GPGPU-Sim PTX: 18 (potential) branch divergence @  PC=0x1568 (_1.ptx:1028) bra.uni $Lt_5_21762;
GPGPU-Sim PTX:    immediate post dominator      @  PC=0x1668 (_1.ptx:1074) mov.u32 %r58, 0;
GPGPU-Sim PTX: 19 (potential) branch divergence @  PC=0x1588 (_1.ptx:1034) bra.uni $Lt_5_21762;
GPGPU-Sim PTX:    immediate post dominator      @  PC=0x1668 (_1.ptx:1074) mov.u32 %r58, 0;
GPGPU-Sim PTX: 20 (potential) branch divergence @  PC=0x1620 (_1.ptx:1056) @%p13 bra $Lt_5_22786;
GPGPU-Sim PTX:    immediate post dominator      @  PC=0x1660 (_1.ptx:1071) mov.s32 %r32, %r39;
GPGPU-Sim PTX: 21 (potential) branch divergence @  PC=0x1630 (_1.ptx:1059) bra.uni $LDWendi__Z7comparePKviS0_i_185_1;
GPGPU-Sim PTX:    immediate post dominator      @  PC=0x1660 (_1.ptx:1071) mov.s32 %r32, %r39;
GPGPU-Sim PTX: 22 (potential) branch divergence @  PC=0x1640 (_1.ptx:1062) @%p14 bra $Lt_5_23298;
GPGPU-Sim PTX:    immediate post dominator      @  PC=0x1660 (_1.ptx:1071) mov.s32 %r32, %r39;
GPGPU-Sim PTX: 23 (potential) branch divergence @  PC=0x1650 (_1.ptx:1065) bra.uni $LDWendi__Z7comparePKviS0_i_185_1;
GPGPU-Sim PTX:    immediate post dominator      @  PC=0x1660 (_1.ptx:1071) mov.s32 %r32, %r39;
GPGPU-Sim PTX: 24 (potential) branch divergence @  PC=0x1678 (_1.ptx:1076) @%p15 bra $Lt_5_23810;
GPGPU-Sim PTX:    immediate post dominator      @  PC=0x16a0 (_1.ptx:1085) bar.sync 0;
GPGPU-Sim PTX: 25 (potential) branch divergence @  PC=0x16e0 (_1.ptx:1094) @%p16 bra $Lt_5_17922;
GPGPU-Sim PTX:    immediate post dominator      @  PC=0x16e8 (_1.ptx:1097) mul.lo.s32 %r12, %r12, 2;
GPGPU-Sim PTX: 26 (potential) branch divergence @  PC=0x1700 (_1.ptx:1100) @%p17 bra $Lt_5_17154;
GPGPU-Sim PTX:    immediate post dominator      @  PC=0x1708 (_1.ptx:1101) mov.s32 %r71, 256;
GPGPU-Sim PTX: 27 (potential) branch divergence @  PC=0x1720 (_1.ptx:1104) @%p18 bra $Lt_5_24834;
GPGPU-Sim PTX:    immediate post dominator      @  PC=0x1760 (_1.ptx:1115) exit;
GPGPU-Sim PTX: ... end of reconvergence points for _Z29bitonicSortSingleBlock_kernelPviP4int4iS1_
GPGPU-Sim PTX: ... done pre-decoding instructions for '_Z29bitonicSortSingleBlock_kernelPviP4int4iS1_'.
GPGPU-Sim PTX: allocating shared region for "__cuda___cuda_local_var_46076_40_non_const_bs_shared12496" from 0x0 to 0x1000 (shared memory space)
GPGPU-Sim PTX: allocating shared region for "__cuda_local_var_46073_30_non_const_bs_pStart" from 0x1000 to 0x1004 (shared memory space)
GPGPU-Sim PTX: allocating shared region for "__cuda_local_var_46074_30_non_const_bs_pEnd" from 0x1004 to 0x1008 (shared memory space)
GPGPU-Sim PTX: allocating shared region for "__cuda_local_var_46075_30_non_const_bs_numElement" from 0x1008 to 0x100c (shared memory space)
GPGPU-Sim PTX: instruction assembly for function '_Z32bitonicSortMultipleBlocks_kernelPviP4int4PiiiS1_'...   done.
GPGPU-Sim PTX: finding reconvergence points for '_Z32bitonicSortMultipleBlocks_kernelPviP4int4PiiiS1_'...
GPGPU-Sim PTX: Finding dominators for '_Z32bitonicSortMultipleBlocks_kernelPviP4int4PiiiS1_'...
GPGPU-Sim PTX: Finding immediate dominators for '_Z32bitonicSortMultipleBlocks_kernelPviP4int4PiiiS1_'...
GPGPU-Sim PTX: Finding postdominators for '_Z32bitonicSortMultipleBlocks_kernelPviP4int4PiiiS1_'...
GPGPU-Sim PTX: Finding immediate postdominators for '_Z32bitonicSortMultipleBlocks_kernelPviP4int4PiiiS1_'...
GPGPU-Sim PTX: pre-decoding instructions for '_Z32bitonicSortMultipleBlocks_kernelPviP4int4PiiiS1_'...
GPGPU-Sim PTX: reconvergence points for _Z32bitonicSortMultipleBlocks_kernelPviP4int4PiiiS1_...
GPGPU-Sim PTX:  1 (potential) branch divergence @  PC=0x17a0 (_1.ptx:1144) @%p1 bra $Lt_6_17666;
GPGPU-Sim PTX:    immediate post dominator      @  PC=0x1da8 (_1.ptx:1394) exit;
GPGPU-Sim PTX:  2 (potential) branch divergence @  PC=0x17a8 (_1.ptx:1145) bra.uni $LBB44__Z32bitonicSortMultipleBlocks_kernelPviP4int4PiiiS1_;
GPGPU-Sim PTX:    immediate post dominator      @  PC=0x1da8 (_1.ptx:1394) exit;
GPGPU-Sim PTX:  3 (potential) branch divergence @  PC=0x17e8 (_1.ptx:1155) @%p2 bra $Lt_6_18178;
GPGPU-Sim PTX:    immediate post dominator      @  PC=0x1858 (_1.ptx:1174) bar.sync 0;
GPGPU-Sim PTX:  4 (potential) branch divergence @  PC=0x1890 (_1.ptx:1181) @%p3 bra $Lt_6_18946;
GPGPU-Sim PTX:    immediate post dominator      @  PC=0x18f0 (_1.ptx:1198) bar.sync 0;
GPGPU-Sim PTX:  5 (potential) branch divergence @  PC=0x18d8 (_1.ptx:1191) bra.uni $Lt_6_18690;
GPGPU-Sim PTX:    immediate post dominator      @  PC=0x18f0 (_1.ptx:1198) bar.sync 0;
GPGPU-Sim PTX:  6 (potential) branch divergence @  PC=0x1940 (_1.ptx:1211) @%p4 bra $Lt_6_19970;
GPGPU-Sim PTX:    immediate post dominator      @  PC=0x1d38 (_1.ptx:1377) mul.lo.s32 %r27, %r27, 2;
GPGPU-Sim PTX:  7 (potential) branch divergence @  PC=0x1958 (_1.ptx:1215) @%p5 bra $Lt_6_26370;
GPGPU-Sim PTX:    immediate post dominator      @  PC=0x1cf0 (_1.ptx:1365) bar.sync 0;
GPGPU-Sim PTX:  8 (potential) branch divergence @  PC=0x19a0 (_1.ptx:1224) @%p6 bra $Lt_6_21506;
GPGPU-Sim PTX:    immediate post dominator      @  PC=0x1cf0 (_1.ptx:1365) bar.sync 0;
GPGPU-Sim PTX:  9 (potential) branch divergence @  PC=0x19f0 (_1.ptx:1235) @%p8 bra $Lt_6_22018;
GPGPU-Sim PTX:    immediate post dominator      @  PC=0x1b10 (_1.ptx:1285) mov.u32 %r55, 0;
GPGPU-Sim PTX: 10 (potential) branch divergence @  PC=0x1a00 (_1.ptx:1237) @%p9 bra $Lt_6_22530;
GPGPU-Sim PTX:    immediate post dominator      @  PC=0x1b10 (_1.ptx:1285) mov.u32 %r55, 0;
GPGPU-Sim PTX: 11 (potential) branch divergence @  PC=0x1a10 (_1.ptx:1239) bra.uni $Lt_6_21762;
GPGPU-Sim PTX:    immediate post dominator      @  PC=0x1b10 (_1.ptx:1285) mov.u32 %r55, 0;
GPGPU-Sim PTX: 12 (potential) branch divergence @  PC=0x1a30 (_1.ptx:1245) bra.uni $Lt_6_21762;
GPGPU-Sim PTX:    immediate post dominator      @  PC=0x1b10 (_1.ptx:1285) mov.u32 %r55, 0;
GPGPU-Sim PTX: 13 (potential) branch divergence @  PC=0x1ac8 (_1.ptx:1267) @%p10 bra $Lt_6_22786;
GPGPU-Sim PTX:    immediate post dominator      @  PC=0x1b08 (_1.ptx:1282) mov.s32 %r47, %r54;
GPGPU-Sim PTX: 14 (potential) branch divergence @  PC=0x1ad8 (_1.ptx:1270) bra.uni $LDWendi__Z7comparePKviS0_i_186_3;
GPGPU-Sim PTX:    immediate post dominator      @  PC=0x1b08 (_1.ptx:1282) mov.s32 %r47, %r54;
GPGPU-Sim PTX: 15 (potential) branch divergence @  PC=0x1ae8 (_1.ptx:1273) @%p11 bra $Lt_6_23298;
GPGPU-Sim PTX:    immediate post dominator      @  PC=0x1b08 (_1.ptx:1282) mov.s32 %r47, %r54;
GPGPU-Sim PTX: 16 (potential) branch divergence @  PC=0x1af8 (_1.ptx:1276) bra.uni $LDWendi__Z7comparePKviS0_i_186_3;
GPGPU-Sim PTX:    immediate post dominator      @  PC=0x1b08 (_1.ptx:1282) mov.s32 %r47, %r54;
GPGPU-Sim PTX: 17 (potential) branch divergence @  PC=0x1b20 (_1.ptx:1287) @%p12 bra $Lt_6_26370;
GPGPU-Sim PTX:    immediate post dominator      @  PC=0x1cf0 (_1.ptx:1365) bar.sync 0;
GPGPU-Sim PTX: 18 (potential) branch divergence @  PC=0x1b48 (_1.ptx:1292) bra.uni $Lt_6_26370;
GPGPU-Sim PTX:    immediate post dominator      @  PC=0x1cf0 (_1.ptx:1365) bar.sync 0;
GPGPU-Sim PTX: 19 (potential) branch divergence @  PC=0x1b98 (_1.ptx:1304) @%p13 bra $Lt_6_24578;
GPGPU-Sim PTX:    immediate post dominator      @  PC=0x1cb8 (_1.ptx:1354) mov.u32 %r73, 0;
GPGPU-Sim PTX: 20 (potential) branch divergence @  PC=0x1ba8 (_1.ptx:1306) @%p14 bra $Lt_6_25090;
GPGPU-Sim PTX:    immediate post dominator      @  PC=0x1cb8 (_1.ptx:1354) mov.u32 %r73, 0;
GPGPU-Sim PTX: 21 (potential) branch divergence @  PC=0x1bb8 (_1.ptx:1308) bra.uni $Lt_6_24322;
GPGPU-Sim PTX:    immediate post dominator      @  PC=0x1cb8 (_1.ptx:1354) mov.u32 %r73, 0;
GPGPU-Sim PTX: 22 (potential) branch divergence @  PC=0x1bd8 (_1.ptx:1314) bra.uni $Lt_6_24322;
GPGPU-Sim PTX:    immediate post dominator      @  PC=0x1cb8 (_1.ptx:1354) mov.u32 %r73, 0;
GPGPU-Sim PTX: 23 (potential) branch divergence @  PC=0x1c70 (_1.ptx:1336) @%p15 bra $Lt_6_25346;
GPGPU-Sim PTX:    immediate post dominator      @  PC=0x1cb0 (_1.ptx:1351) mov.s32 %r47, %r54;
GPGPU-Sim PTX: 24 (potential) branch divergence @  PC=0x1c80 (_1.ptx:1339) bra.uni $LDWendi__Z7comparePKviS0_i_186_1;
GPGPU-Sim PTX:    immediate post dominator      @  PC=0x1cb0 (_1.ptx:1351) mov.s32 %r47, %r54;
GPGPU-Sim PTX: 25 (potential) branch divergence @  PC=0x1c90 (_1.ptx:1342) @%p16 bra $Lt_6_25858;
GPGPU-Sim PTX:    immediate post dominator      @  PC=0x1cb0 (_1.ptx:1351) mov.s32 %r47, %r54;
GPGPU-Sim PTX: 26 (potential) branch divergence @  PC=0x1ca0 (_1.ptx:1345) bra.uni $LDWendi__Z7comparePKviS0_i_186_1;
GPGPU-Sim PTX:    immediate post dominator      @  PC=0x1cb0 (_1.ptx:1351) mov.s32 %r47, %r54;
GPGPU-Sim PTX: 27 (potential) branch divergence @  PC=0x1cc8 (_1.ptx:1356) @%p17 bra $Lt_6_26370;
GPGPU-Sim PTX:    immediate post dominator      @  PC=0x1cf0 (_1.ptx:1365) bar.sync 0;
GPGPU-Sim PTX: 28 (potential) branch divergence @  PC=0x1d30 (_1.ptx:1374) @%p18 bra $Lt_6_20482;
GPGPU-Sim PTX:    immediate post dominator      @  PC=0x1d38 (_1.ptx:1377) mul.lo.s32 %r27, %r27, 2;
GPGPU-Sim PTX: 29 (potential) branch divergence @  PC=0x1d50 (_1.ptx:1380) @%p19 bra $Lt_6_19714;
GPGPU-Sim PTX:    immediate post dominator      @  PC=0x1d58 (_1.ptx:1381) ld.shared.s32 %r86, [__cuda_local_var_46075_30_non_const_bs_numElement];
GPGPU-Sim PTX: 30 (potential) branch divergence @  PC=0x1d68 (_1.ptx:1383) @%p20 bra $LBB44__Z32bitonicSortMultipleBlocks_kernelPviP4int4PiiiS1_;
GPGPU-Sim PTX:    immediate post dominator      @  PC=0x1da8 (_1.ptx:1394) exit;
GPGPU-Sim PTX: ... end of reconvergence points for _Z32bitonicSortMultipleBlocks_kernelPviP4int4PiiiS1_
GPGPU-Sim PTX: ... done pre-decoding instructions for '_Z32bitonicSortMultipleBlocks_kernelPviP4int4PiiiS1_'.
GPGPU-Sim PTX: instruction assembly for function '_Z17initialize_kernelP4int4iiS_'...   done.
GPGPU-Sim PTX: finding reconvergence points for '_Z17initialize_kernelP4int4iiS_'...
GPGPU-Sim PTX: Finding dominators for '_Z17initialize_kernelP4int4iiS_'...
GPGPU-Sim PTX: Finding immediate dominators for '_Z17initialize_kernelP4int4iiS_'...
GPGPU-Sim PTX: Finding postdominators for '_Z17initialize_kernelP4int4iiS_'...
GPGPU-Sim PTX: Finding immediate postdominators for '_Z17initialize_kernelP4int4iiS_'...
GPGPU-Sim PTX: pre-decoding instructions for '_Z17initialize_kernelP4int4iiS_'...
GPGPU-Sim PTX: reconvergence points for _Z17initialize_kernelP4int4iiS_...
GPGPU-Sim PTX:  1 (potential) branch divergence @  PC=0x1e38 (_1.ptx:1426) @%p1 bra $Lt_7_1026;
GPGPU-Sim PTX:    immediate post dominator      @  PC=0x1e88 (_1.ptx:1439) exit;
GPGPU-Sim PTX: ... end of reconvergence points for _Z17initialize_kernelP4int4iiS_
GPGPU-Sim PTX: ... done pre-decoding instructions for '_Z17initialize_kernelP4int4iiS_'.
GPGPU-Sim PTX: instruction assembly for function '_Z19getIntYArray_kernelP4int2iiPi'...   done.
GPGPU-Sim PTX: finding reconvergence points for '_Z19getIntYArray_kernelP4int2iiPi'...
GPGPU-Sim PTX: Finding dominators for '_Z19getIntYArray_kernelP4int2iiPi'...
GPGPU-Sim PTX: Finding immediate dominators for '_Z19getIntYArray_kernelP4int2iiPi'...
GPGPU-Sim PTX: Finding postdominators for '_Z19getIntYArray_kernelP4int2iiPi'...
GPGPU-Sim PTX: Finding immediate postdominators for '_Z19getIntYArray_kernelP4int2iiPi'...
GPGPU-Sim PTX: pre-decoding instructions for '_Z19getIntYArray_kernelP4int2iiPi'...
GPGPU-Sim PTX: reconvergence points for _Z19getIntYArray_kernelP4int2iiPi...
GPGPU-Sim PTX:  1 (potential) branch divergence @  PC=0x1f18 (_1.ptx:1471) @%p1 bra $Lt_8_1026;
GPGPU-Sim PTX:    immediate post dominator      @  PC=0x1f68 (_1.ptx:1484) exit;
GPGPU-Sim PTX: ... end of reconvergence points for _Z19getIntYArray_kernelP4int2iiPi
GPGPU-Sim PTX: ... done pre-decoding instructions for '_Z19getIntYArray_kernelP4int2iiPi'.
GPGPU-Sim PTX: instruction assembly for function '_Z17getXYArray_kernelP4int4iiP4int2'...   done.
GPGPU-Sim PTX: finding reconvergence points for '_Z17getXYArray_kernelP4int4iiP4int2'...
GPGPU-Sim PTX: Finding dominators for '_Z17getXYArray_kernelP4int4iiP4int2'...
GPGPU-Sim PTX: Finding immediate dominators for '_Z17getXYArray_kernelP4int4iiP4int2'...
GPGPU-Sim PTX: Finding postdominators for '_Z17getXYArray_kernelP4int4iiP4int2'...
GPGPU-Sim PTX: Finding immediate postdominators for '_Z17getXYArray_kernelP4int4iiP4int2'...
GPGPU-Sim PTX: pre-decoding instructions for '_Z17getXYArray_kernelP4int4iiP4int2'...
GPGPU-Sim PTX: reconvergence points for _Z17getXYArray_kernelP4int4iiP4int2...
GPGPU-Sim PTX:  1 (potential) branch divergence @  PC=0x1ff8 (_1.ptx:1516) @%p1 bra $Lt_9_1026;
GPGPU-Sim PTX:    immediate post dominator      @  PC=0x2048 (_1.ptx:1530) exit;
GPGPU-Sim PTX: ... end of reconvergence points for _Z17getXYArray_kernelP4int4iiP4int2
GPGPU-Sim PTX: ... done pre-decoding instructions for '_Z17getXYArray_kernelP4int4iiP4int2'.
GPGPU-Sim PTX: instruction assembly for function '_Z17getZWArray_kernelP4int4iiP4int2'...   done.
GPGPU-Sim PTX: finding reconvergence points for '_Z17getZWArray_kernelP4int4iiP4int2'...
GPGPU-Sim PTX: Finding dominators for '_Z17getZWArray_kernelP4int4iiP4int2'...
GPGPU-Sim PTX: Finding immediate dominators for '_Z17getZWArray_kernelP4int4iiP4int2'...
GPGPU-Sim PTX: Finding postdominators for '_Z17getZWArray_kernelP4int4iiP4int2'...
GPGPU-Sim PTX: Finding immediate postdominators for '_Z17getZWArray_kernelP4int4iiP4int2'...
GPGPU-Sim PTX: pre-decoding instructions for '_Z17getZWArray_kernelP4int4iiP4int2'...
GPGPU-Sim PTX: reconvergence points for _Z17getZWArray_kernelP4int4iiP4int2...
GPGPU-Sim PTX:  1 (potential) branch divergence @  PC=0x20d8 (_1.ptx:1562) @%p1 bra $Lt_10_1026;
GPGPU-Sim PTX:    immediate post dominator      @  PC=0x2128 (_1.ptx:1576) exit;
GPGPU-Sim PTX: ... end of reconvergence points for _Z17getZWArray_kernelP4int4iiP4int2
GPGPU-Sim PTX: ... done pre-decoding instructions for '_Z17getZWArray_kernelP4int4iiP4int2'.
GPGPU-Sim PTX: instruction assembly for function '_Z17setXYArray_kernelP4int4iiP4int2'...   done.
GPGPU-Sim PTX: finding reconvergence points for '_Z17setXYArray_kernelP4int4iiP4int2'...
GPGPU-Sim PTX: Finding dominators for '_Z17setXYArray_kernelP4int4iiP4int2'...
GPGPU-Sim PTX: Finding immediate dominators for '_Z17setXYArray_kernelP4int4iiP4int2'...
GPGPU-Sim PTX: Finding postdominators for '_Z17setXYArray_kernelP4int4iiP4int2'...
GPGPU-Sim PTX: Finding immediate postdominators for '_Z17setXYArray_kernelP4int4iiP4int2'...
GPGPU-Sim PTX: pre-decoding instructions for '_Z17setXYArray_kernelP4int4iiP4int2'...
GPGPU-Sim PTX: reconvergence points for _Z17setXYArray_kernelP4int4iiP4int2...
GPGPU-Sim PTX:  1 (potential) branch divergence @  PC=0x21b8 (_1.ptx:1608) @%p1 bra $Lt_11_1026;
GPGPU-Sim PTX:    immediate post dominator      @  PC=0x2210 (_1.ptx:1623) exit;
GPGPU-Sim PTX: ... end of reconvergence points for _Z17setXYArray_kernelP4int4iiP4int2
GPGPU-Sim PTX: ... done pre-decoding instructions for '_Z17setXYArray_kernelP4int4iiP4int2'.
GPGPU-Sim PTX: instruction assembly for function '_Z17setZWArray_kernelP4int4iiP4int2'...   done.
GPGPU-Sim PTX: finding reconvergence points for '_Z17setZWArray_kernelP4int4iiP4int2'...
GPGPU-Sim PTX: Finding dominators for '_Z17setZWArray_kernelP4int4iiP4int2'...
GPGPU-Sim PTX: Finding immediate dominators for '_Z17setZWArray_kernelP4int4iiP4int2'...
GPGPU-Sim PTX: Finding postdominators for '_Z17setZWArray_kernelP4int4iiP4int2'...
GPGPU-Sim PTX: Finding immediate postdominators for '_Z17setZWArray_kernelP4int4iiP4int2'...
GPGPU-Sim PTX: pre-decoding instructions for '_Z17setZWArray_kernelP4int4iiP4int2'...
GPGPU-Sim PTX: reconvergence points for _Z17setZWArray_kernelP4int4iiP4int2...
GPGPU-Sim PTX:  1 (potential) branch divergence @  PC=0x22a0 (_1.ptx:1655) @%p1 bra $Lt_12_1026;
GPGPU-Sim PTX:    immediate post dominator      @  PC=0x2300 (_1.ptx:1672) exit;
GPGPU-Sim PTX: ... end of reconvergence points for _Z17setZWArray_kernelP4int4iiP4int2
GPGPU-Sim PTX: ... done pre-decoding instructions for '_Z17setZWArray_kernelP4int4iiP4int2'.
GPGPU-Sim PTX: instruction assembly for function '_Z17copyChunks_kernelPviP4int2iPiS_'...   done.
GPGPU-Sim PTX: finding reconvergence points for '_Z17copyChunks_kernelPviP4int2iPiS_'...
GPGPU-Sim PTX: Finding dominators for '_Z17copyChunks_kernelPviP4int2iPiS_'...
GPGPU-Sim PTX: Finding immediate dominators for '_Z17copyChunks_kernelPviP4int2iPiS_'...
GPGPU-Sim PTX: Finding postdominators for '_Z17copyChunks_kernelPviP4int2iPiS_'...
GPGPU-Sim PTX: Finding immediate postdominators for '_Z17copyChunks_kernelPviP4int2iPiS_'...
GPGPU-Sim PTX: pre-decoding instructions for '_Z17copyChunks_kernelPviP4int2iPiS_'...
GPGPU-Sim PTX: reconvergence points for _Z17copyChunks_kernelPviP4int2iPiS_...
GPGPU-Sim PTX:  1 (potential) branch divergence @  PC=0x2390 (_1.ptx:1706) @%p1 bra $Lt_13_2050;
GPGPU-Sim PTX:    immediate post dominator      @  PC=0x2488 (_1.ptx:1745) exit;
GPGPU-Sim PTX:  2 (potential) branch divergence @  PC=0x23f0 (_1.ptx:1720) @%p2 bra $Lt_13_2562;
GPGPU-Sim PTX:    immediate post dominator      @  PC=0x2480 (_1.ptx:1742) st.global.v2.s32 [%rd4+0], {%r19,%r18};
GPGPU-Sim PTX:  3 (potential) branch divergence @  PC=0x2478 (_1.ptx:1740) @%p3 bra $Lt_13_3074;
GPGPU-Sim PTX:    immediate post dominator      @  PC=0x2480 (_1.ptx:1742) st.global.v2.s32 [%rd4+0], {%r19,%r18};
GPGPU-Sim PTX: ... end of reconvergence points for _Z17copyChunks_kernelPviP4int2iPiS_
GPGPU-Sim PTX: ... done pre-decoding instructions for '_Z17copyChunks_kernelPviP4int2iPiS_'.
GPGPU-Sim PTX: instruction assembly for function '_Z23getChunkBoundary_kernelPviP4int4iPi'...   done.
GPGPU-Sim PTX: finding reconvergence points for '_Z23getChunkBoundary_kernelPviP4int4iPi'...
GPGPU-Sim PTX: Finding dominators for '_Z23getChunkBoundary_kernelPviP4int4iPi'...
GPGPU-Sim PTX: Finding immediate dominators for '_Z23getChunkBoundary_kernelPviP4int4iPi'...
GPGPU-Sim PTX: Finding postdominators for '_Z23getChunkBoundary_kernelPviP4int4iPi'...
GPGPU-Sim PTX: Finding immediate postdominators for '_Z23getChunkBoundary_kernelPviP4int4iPi'...
GPGPU-Sim PTX: pre-decoding instructions for '_Z23getChunkBoundary_kernelPviP4int4iPi'...
GPGPU-Sim PTX: reconvergence points for _Z23getChunkBoundary_kernelPviP4int4iPi...
GPGPU-Sim PTX:  1 (potential) branch divergence @  PC=0x2518 (_1.ptx:1778) @%p1 bra $Lt_14_7170;
GPGPU-Sim PTX:    immediate post dominator      @  PC=0x2718 (_1.ptx:1864) exit;
GPGPU-Sim PTX:  2 (potential) branch divergence @  PC=0x2538 (_1.ptx:1782) @%p2 bra $Lt_14_7938;
GPGPU-Sim PTX:    immediate post dominator      @  PC=0x26f8 (_1.ptx:1858) ld.param.u64 %rd18, [__cudaparm__Z23getChunkBoundary_kernelPviP4int4iPi_d_startArray];
GPGPU-Sim PTX:  3 (potential) branch divergence @  PC=0x2548 (_1.ptx:1784) bra.uni $Lt_14_7682;
GPGPU-Sim PTX:    immediate post dominator      @  PC=0x26f8 (_1.ptx:1858) ld.param.u64 %rd18, [__cudaparm__Z23getChunkBoundary_kernelPviP4int4iPi_d_startArray];
GPGPU-Sim PTX:  4 (potential) branch divergence @  PC=0x25c0 (_1.ptx:1803) @%p4 bra $Lt_14_8450;
GPGPU-Sim PTX:    immediate post dominator      @  PC=0x26e0 (_1.ptx:1853) mov.s32 %r36, 0;
GPGPU-Sim PTX:  5 (potential) branch divergence @  PC=0x25d0 (_1.ptx:1805) @%p5 bra $Lt_14_8962;
GPGPU-Sim PTX:    immediate post dominator      @  PC=0x26e0 (_1.ptx:1853) mov.s32 %r36, 0;
GPGPU-Sim PTX:  6 (potential) branch divergence @  PC=0x25e0 (_1.ptx:1807) bra.uni $Lt_14_8194;
GPGPU-Sim PTX:    immediate post dominator      @  PC=0x26e0 (_1.ptx:1853) mov.s32 %r36, 0;
GPGPU-Sim PTX:  7 (potential) branch divergence @  PC=0x2600 (_1.ptx:1813) bra.uni $Lt_14_8194;
GPGPU-Sim PTX:    immediate post dominator      @  PC=0x26e0 (_1.ptx:1853) mov.s32 %r36, 0;
GPGPU-Sim PTX:  8 (potential) branch divergence @  PC=0x2698 (_1.ptx:1835) @%p6 bra $Lt_14_9218;
GPGPU-Sim PTX:    immediate post dominator      @  PC=0x26d8 (_1.ptx:1850) mov.s32 %r28, %r35;
GPGPU-Sim PTX:  9 (potential) branch divergence @  PC=0x26a8 (_1.ptx:1838) bra.uni $LDWendi__Z7comparePKviS0_i_194_1;
GPGPU-Sim PTX:    immediate post dominator      @  PC=0x26d8 (_1.ptx:1850) mov.s32 %r28, %r35;
GPGPU-Sim PTX: 10 (potential) branch divergence @  PC=0x26b8 (_1.ptx:1841) @%p7 bra $Lt_14_9730;
GPGPU-Sim PTX:    immediate post dominator      @  PC=0x26d8 (_1.ptx:1850) mov.s32 %r28, %r35;
GPGPU-Sim PTX: 11 (potential) branch divergence @  PC=0x26c8 (_1.ptx:1844) bra.uni $LDWendi__Z7comparePKviS0_i_194_1;
GPGPU-Sim PTX:    immediate post dominator      @  PC=0x26d8 (_1.ptx:1850) mov.s32 %r28, %r35;
GPGPU-Sim PTX: ... end of reconvergence points for _Z23getChunkBoundary_kernelPviP4int4iPi
GPGPU-Sim PTX: ... done pre-decoding instructions for '_Z23getChunkBoundary_kernelPviP4int4iPi'.
GPGPU-Sim PTX: instruction assembly for function '_Z22setBoundaryInt2_kernelPiiiiP4int2'...   done.
GPGPU-Sim PTX: finding reconvergence points for '_Z22setBoundaryInt2_kernelPiiiiP4int2'...
GPGPU-Sim PTX: Finding dominators for '_Z22setBoundaryInt2_kernelPiiiiP4int2'...
GPGPU-Sim PTX: Finding immediate dominators for '_Z22setBoundaryInt2_kernelPiiiiP4int2'...
GPGPU-Sim PTX: Finding postdominators for '_Z22setBoundaryInt2_kernelPiiiiP4int2'...
GPGPU-Sim PTX: Finding immediate postdominators for '_Z22setBoundaryInt2_kernelPiiiiP4int2'...
GPGPU-Sim PTX: pre-decoding instructions for '_Z22setBoundaryInt2_kernelPiiiiP4int2'...
GPGPU-Sim PTX: reconvergence points for _Z22setBoundaryInt2_kernelPiiiiP4int2...
GPGPU-Sim PTX:  1 (potential) branch divergence @  PC=0x27a8 (_1.ptx:1897) @%p1 bra $Lt_15_1794;
GPGPU-Sim PTX:    immediate post dominator      @  PC=0x2828 (_1.ptx:1920) exit;
GPGPU-Sim PTX:  2 (potential) branch divergence @  PC=0x27e0 (_1.ptx:1904) @%p2 bra $Lt_15_2562;
GPGPU-Sim PTX:    immediate post dominator      @  PC=0x2800 (_1.ptx:1913) ld.param.u64 %rd5, [__cudaparm__Z22setBoundaryInt2_kernelPiiiiP4int2_d_boundaryRange];
GPGPU-Sim PTX:  3 (potential) branch divergence @  PC=0x27f0 (_1.ptx:1907) bra.uni $Lt_15_2306;
GPGPU-Sim PTX:    immediate post dominator      @  PC=0x2800 (_1.ptx:1913) ld.param.u64 %rd5, [__cudaparm__Z22setBoundaryInt2_kernelPiiiiP4int2_d_boundaryRange];
GPGPU-Sim PTX: ... end of reconvergence points for _Z22setBoundaryInt2_kernelPiiiiP4int2
GPGPU-Sim PTX: ... done pre-decoding instructions for '_Z22setBoundaryInt2_kernelPiiiiP4int2'.
GPGPU-Sim PTX: instruction assembly for function '_Z20writeBoundary_kerneliiPiS_S_'...   done.
GPGPU-Sim PTX: finding reconvergence points for '_Z20writeBoundary_kerneliiPiS_S_'...
GPGPU-Sim PTX: Finding dominators for '_Z20writeBoundary_kerneliiPiS_S_'...
GPGPU-Sim PTX: Finding immediate dominators for '_Z20writeBoundary_kerneliiPiS_S_'...
GPGPU-Sim PTX: Finding postdominators for '_Z20writeBoundary_kerneliiPiS_S_'...
GPGPU-Sim PTX: Finding immediate postdominators for '_Z20writeBoundary_kerneliiPiS_S_'...
GPGPU-Sim PTX: pre-decoding instructions for '_Z20writeBoundary_kerneliiPiS_S_'...
GPGPU-Sim PTX: reconvergence points for _Z20writeBoundary_kerneliiPiS_S_...
GPGPU-Sim PTX:  1 (potential) branch divergence @  PC=0x28b8 (_1.ptx:1953) @%p1 bra $Lt_16_1794;
GPGPU-Sim PTX:    immediate post dominator      @  PC=0x2940 (_1.ptx:1974) exit;
GPGPU-Sim PTX:  2 (potential) branch divergence @  PC=0x28f8 (_1.ptx:1961) @%p2 bra $Lt_16_2306;
GPGPU-Sim PTX:    immediate post dominator      @  PC=0x2940 (_1.ptx:1974) exit;
GPGPU-Sim PTX: ... end of reconvergence points for _Z20writeBoundary_kerneliiPiS_S_
GPGPU-Sim PTX: ... done pre-decoding instructions for '_Z20writeBoundary_kerneliiPiS_S_'.
GPGPU-Sim PTX: finished parsing EMBEDDED .ptx file _1.ptx
Adding _cuobjdump_4.ptx with cubin handle 1
GPGPU-Sim PTX: extracting embedded .ptx to temporary file "_ptx_phyYSU"
Running: cat _ptx_phyYSU | sed 's/.version 1.5/.version 1.4/' | sed 's/, texmode_independent//' | sed 's/\(\.extern \.const\[1\] .b8 \w\+\)\[\]/\1\[1\]/' | sed 's/const\[.\]/const\[0\]/g' > _ptx2_Iz4Xde
GPGPU-Sim PTX: generating ptxinfo using "$CUDA_INSTALL_PATH/bin/ptxas --gpu-name=sm_20 -v _ptx2_Iz4Xde --output-file  /dev/null 2> _ptx_phyYSUinfo"
GPGPU-Sim PTX: Kernel '_Z20writeBoundary_kerneliiPiS_S_' : regs=8, lmem=0, smem=0, cmem=64
GPGPU-Sim PTX: Kernel '_Z22setBoundaryInt2_kernelPiiiiP4int2' : regs=9, lmem=0, smem=0, cmem=64
GPGPU-Sim PTX: Kernel '_Z23getChunkBoundary_kernelPviP4int4iPi' : regs=14, lmem=0, smem=0, cmem=72
GPGPU-Sim PTX: Kernel '_Z17copyChunks_kernelPviP4int2iPiS_' : regs=12, lmem=0, smem=0, cmem=80
GPGPU-Sim PTX: Kernel '_Z17setZWArray_kernelP4int4iiP4int2' : regs=8, lmem=0, smem=0, cmem=56
GPGPU-Sim PTX: Kernel '_Z17setXYArray_kernelP4int4iiP4int2' : regs=10, lmem=0, smem=0, cmem=56
GPGPU-Sim PTX: Kernel '_Z17getZWArray_kernelP4int4iiP4int2' : regs=10, lmem=0, smem=0, cmem=56
GPGPU-Sim PTX: Kernel '_Z17getXYArray_kernelP4int4iiP4int2' : regs=10, lmem=0, smem=0, cmem=56
GPGPU-Sim PTX: Kernel '_Z19getIntYArray_kernelP4int2iiPi' : regs=8, lmem=0, smem=0, cmem=56
GPGPU-Sim PTX: Kernel '_Z17initialize_kernelP4int4iiS_' : regs=10, lmem=0, smem=0, cmem=64
GPGPU-Sim PTX: Kernel '_Z32bitonicSortMultipleBlocks_kernelPviP4int4PiiiS1_' : regs=25, lmem=0, smem=4108, cmem=80
GPGPU-Sim PTX: Kernel '_Z29bitonicSortSingleBlock_kernelPviP4int4iS1_' : regs=25, lmem=0, smem=4096, cmem=72
GPGPU-Sim PTX: Kernel '_Z13bitonicKernelPviP4int4jii' : regs=21, lmem=0, smem=0, cmem=68
GPGPU-Sim PTX: Kernel '_Z21unitBitonicSortKernelPviP4int4ji' : regs=27, lmem=0, smem=4096, cmem=64
GPGPU-Sim PTX: Kernel '_Z21partBitonicSortKernelPviP4int4jii' : regs=25, lmem=0, smem=4096, cmem=68
GPGPU-Sim PTX: removing ptxinfo using "rm -f _ptx_phyYSU _ptx2_Iz4Xde _ptx_phyYSUinfo"
GPGPU-Sim PTX: loading globals with explicit initializers... 
GPGPU-Sim PTX: finished loading globals (0 bytes total).
GPGPU-Sim PTX: loading constants with explicit initializers...  done.
GPGPU-Sim PTX: __cudaRegisterFunction _Z22setBoundaryInt2_kernelPiiiiP4int2 : hostFun 0x0x40948d, fat_cubin_handle = 1
GPGPU-Sim PTX: __cudaRegisterFunction _Z23getChunkBoundary_kernelPviP4int4iPi : hostFun 0x0x40936a, fat_cubin_handle = 1
GPGPU-Sim PTX: __cudaRegisterFunction _Z17copyChunks_kernelPviP4int2iPiS_ : hostFun 0x0x40923b, fat_cubin_handle = 1
GPGPU-Sim PTX: __cudaRegisterFunction _Z17setZWArray_kernelP4int4iiP4int2 : hostFun 0x0x4090f8, fat_cubin_handle = 1
GPGPU-Sim PTX: __cudaRegisterFunction _Z17setXYArray_kernelP4int4iiP4int2 : hostFun 0x0x409009, fat_cubin_handle = 1
GPGPU-Sim PTX: __cudaRegisterFunction _Z17getZWArray_kernelP4int4iiP4int2 : hostFun 0x0x408f1a, fat_cubin_handle = 1
GPGPU-Sim PTX: __cudaRegisterFunction _Z17getXYArray_kernelP4int4iiP4int2 : hostFun 0x0x408e2b, fat_cubin_handle = 1
GPGPU-Sim PTX: __cudaRegisterFunction _Z19getIntYArray_kernelP4int2iiPi : hostFun 0x0x408d3c, fat_cubin_handle = 1
GPGPU-Sim PTX: __cudaRegisterFunction _Z17initialize_kernelP4int4iiS_ : hostFun 0x0x408c43, fat_cubin_handle = 1
GPGPU-Sim PTX: __cudaRegisterFunction _Z32bitonicSortMultipleBlocks_kernelPviP4int4PiiiS1_ : hostFun 0x0x408b29, fat_cubin_handle = 1
GPGPU-Sim PTX: __cudaRegisterFunction _Z29bitonicSortSingleBlock_kernelPviP4int4iS1_ : hostFun 0x0x4089b7, fat_cubin_handle = 1
GPGPU-Sim PTX: __cudaRegisterFunction _Z13bitonicKernelPviP4int4jii : hostFun 0x0x40888a, fat_cubin_handle = 1
GPGPU-Sim PTX: __cudaRegisterFunction _Z21unitBitonicSortKernelPviP4int4ji : hostFun 0x0x40873d, fat_cubin_handle = 1
GPGPU-Sim PTX: __cudaRegisterFunction _Z21partBitonicSortKernelPviP4int4jii : hostFun 0x0x408610, fat_cubin_handle = 1
GPGPU-Sim PTX: __cudaRegisterFatBinary, fat_cubin_handle = 2, filename=MarsScan.cu
GPGPU-Sim PTX: __cudaRegisterFunction _Z7prescanILb0ELb1EEvPiPKiS0_iii : hostFun 0x0x40686f, fat_cubin_handle = 2
GPGPU-Sim PTX: allocating stack frame region for .param "__cudaretf__Z8buildSumPi" from 0x0 to 0x4
GPGPU-Sim PTX: allocating stack frame region for .param "__cudaparmf1__Z8buildSumPi" from 0x4 to 0xc
GPGPU-Sim PTX: allocating stack frame region for .param "__cudaparmf1__Z16scanRootToLeavesPij" from 0x0 to 0x8
GPGPU-Sim PTX: allocating stack frame region for .param "__cudaparmf2__Z16scanRootToLeavesPij" from 0x8 to 0xc
GPGPU-Sim PTX: allocating stack frame region for .param "__cudaparmf1__Z22loadSharedChunkFromMemILb0EEvPiPKiiiRiS3_S3_S3_S3_S3_" from 0x0 to 0x8
GPGPU-Sim PTX: allocating stack frame region for .param "__cudaparmf2__Z22loadSharedChunkFromMemILb0EEvPiPKiiiRiS3_S3_S3_S3_S3_" from 0x8 to 0x10
GPGPU-Sim PTX: allocating stack frame region for .param "__cudaparmf3__Z22loadSharedChunkFromMemILb0EEvPiPKiiiRiS3_S3_S3_S3_S3_" from 0x10 to 0x14
GPGPU-Sim PTX: allocating stack frame region for .param "__cudaparmf4__Z22loadSharedChunkFromMemILb0EEvPiPKiiiRiS3_S3_S3_S3_S3_" from 0x14 to 0x18
GPGPU-Sim PTX: allocating stack frame region for .param "__cudaparmf5__Z22loadSharedChunkFromMemILb0EEvPiPKiiiRiS3_S3_S3_S3_S3_" from 0x18 to 0x20
GPGPU-Sim PTX: allocating stack frame region for .param "__cudaparmf6__Z22loadSharedChunkFromMemILb0EEvPiPKiiiRiS3_S3_S3_S3_S3_" from 0x20 to 0x28
GPGPU-Sim PTX: allocating stack frame region for .param "__cudaparmf7__Z22loadSharedChunkFromMemILb0EEvPiPKiiiRiS3_S3_S3_S3_S3_" from 0x28 to 0x30
GPGPU-Sim PTX: allocating stack frame region for .param "__cudaparmf8__Z22loadSharedChunkFromMemILb0EEvPiPKiiiRiS3_S3_S3_S3_S3_" from 0x30 to 0x38
GPGPU-Sim PTX: allocating stack frame region for .param "__cudaparmf9__Z22loadSharedChunkFromMemILb0EEvPiPKiiiRiS3_S3_S3_S3_S3_" from 0x38 to 0x40
GPGPU-Sim PTX: allocating stack frame region for .param "__cudaparmf10__Z22loadSharedChunkFromMemILb0EEvPiPKiiiRiS3_S3_S3_S3_S3_" from 0x40 to 0x48
GPGPU-Sim PTX: allocating stack frame region for .param "__cudaparmf1__Z12prescanBlockILb1EEvPiiS0_" from 0x0 to 0x8
GPGPU-Sim PTX: allocating stack frame region for .param "__cudaparmf2__Z12prescanBlockILb1EEvPiiS0_" from 0x8 to 0xc
GPGPU-Sim PTX: allocating stack frame region for .param "__cudaparmf3__Z12prescanBlockILb1EEvPiiS0_" from 0xc to 0x14
GPGPU-Sim PTX: allocating stack frame region for .param "__cudaparmf1__Z16clearLastElementILb1EEvPiS0_i" from 0x0 to 0x8
GPGPU-Sim PTX: allocating stack frame region for .param "__cudaparmf2__Z16clearLastElementILb1EEvPiS0_i" from 0x8 to 0x10
GPGPU-Sim PTX: allocating stack frame region for .param "__cudaparmf3__Z16clearLastElementILb1EEvPiS0_i" from 0x10 to 0x14
GPGPU-Sim PTX: allocating stack frame region for .param "__cudaparmf1__Z21storeSharedChunkToMemILb0EEvPiPKiiiiiiii" from 0x0 to 0x8
GPGPU-Sim PTX: allocating stack frame region for .param "__cudaparmf2__Z21storeSharedChunkToMemILb0EEvPiPKiiiiiiii" from 0x8 to 0x10
GPGPU-Sim PTX: allocating stack frame region for .param "__cudaparmf3__Z21storeSharedChunkToMemILb0EEvPiPKiiiiiiii" from 0x10 to 0x14
GPGPU-Sim PTX: allocating stack frame region for .param "__cudaparmf4__Z21storeSharedChunkToMemILb0EEvPiPKiiiiiiii" from 0x14 to 0x18
GPGPU-Sim PTX: allocating stack frame region for .param "__cudaparmf5__Z21storeSharedChunkToMemILb0EEvPiPKiiiiiiii" from 0x18 to 0x1c
GPGPU-Sim PTX: allocating stack frame region for .param "__cudaparmf6__Z21storeSharedChunkToMemILb0EEvPiPKiiiiiiii" from 0x1c to 0x20
GPGPU-Sim PTX: allocating stack frame region for .param "__cudaparmf7__Z21storeSharedChunkToMemILb0EEvPiPKiiiiiiii" from 0x20 to 0x24
GPGPU-Sim PTX: allocating stack frame region for .param "__cudaparmf8__Z21storeSharedChunkToMemILb0EEvPiPKiiiiiiii" from 0x24 to 0x28
GPGPU-Sim PTX: allocating stack frame region for .param "__cudaparmf9__Z21storeSharedChunkToMemILb0EEvPiPKiiiiiiii" from 0x28 to 0x2c
GPGPU-Sim PTX: allocating stack frame region for .param "__cudaparmf1__Z22loadSharedChunkFromMemILb1EEvPiPKiiiRiS3_S3_S3_S3_S3_" from 0x0 to 0x8
GPGPU-Sim PTX: allocating stack frame region for .param "__cudaparmf2__Z22loadSharedChunkFromMemILb1EEvPiPKiiiRiS3_S3_S3_S3_S3_" from 0x8 to 0x10
GPGPU-Sim PTX: allocating stack frame region for .param "__cudaparmf3__Z22loadSharedChunkFromMemILb1EEvPiPKiiiRiS3_S3_S3_S3_S3_" from 0x10 to 0x14
GPGPU-Sim PTX: allocating stack frame region for .param "__cudaparmf4__Z22loadSharedChunkFromMemILb1EEvPiPKiiiRiS3_S3_S3_S3_S3_" from 0x14 to 0x18
GPGPU-Sim PTX: allocating stack frame region for .param "__cudaparmf5__Z22loadSharedChunkFromMemILb1EEvPiPKiiiRiS3_S3_S3_S3_S3_" from 0x18 to 0x20
GPGPU-Sim PTX: allocating stack frame region for .param "__cudaparmf6__Z22loadSharedChunkFromMemILb1EEvPiPKiiiRiS3_S3_S3_S3_S3_" from 0x20 to 0x28
GPGPU-Sim PTX: allocating stack frame region for .param "__cudaparmf7__Z22loadSharedChunkFromMemILb1EEvPiPKiiiRiS3_S3_S3_S3_S3_" from 0x28 to 0x30
GPGPU-Sim PTX: allocating stack frame region for .param "__cudaparmf8__Z22loadSharedChunkFromMemILb1EEvPiPKiiiRiS3_S3_S3_S3_S3_" from 0x30 to 0x38
GPGPU-Sim PTX: allocating stack frame region for .param "__cudaparmf9__Z22loadSharedChunkFromMemILb1EEvPiPKiiiRiS3_S3_S3_S3_S3_" from 0x38 to 0x40
GPGPU-Sim PTX: allocating stack frame region for .param "__cudaparmf10__Z22loadSharedChunkFromMemILb1EEvPiPKiiiRiS3_S3_S3_S3_S3_" from 0x40 to 0x48
GPGPU-Sim PTX: allocating stack frame region for .param "__cudaparmf1__Z21storeSharedChunkToMemILb1EEvPiPKiiiiiiii" from 0x0 to 0x8
GPGPU-Sim PTX: allocating stack frame region for .param "__cudaparmf2__Z21storeSharedChunkToMemILb1EEvPiPKiiiiiiii" from 0x8 to 0x10
GPGPU-Sim PTX: allocating stack frame region for .param "__cudaparmf3__Z21storeSharedChunkToMemILb1EEvPiPKiiiiiiii" from 0x10 to 0x14
GPGPU-Sim PTX: allocating stack frame region for .param "__cudaparmf4__Z21storeSharedChunkToMemILb1EEvPiPKiiiiiiii" from 0x14 to 0x18
GPGPU-Sim PTX: allocating stack frame region for .param "__cudaparmf5__Z21storeSharedChunkToMemILb1EEvPiPKiiiiiiii" from 0x18 to 0x1c
GPGPU-Sim PTX: allocating stack frame region for .param "__cudaparmf6__Z21storeSharedChunkToMemILb1EEvPiPKiiiiiiii" from 0x1c to 0x20
GPGPU-Sim PTX: allocating stack frame region for .param "__cudaparmf7__Z21storeSharedChunkToMemILb1EEvPiPKiiiiiiii" from 0x20 to 0x24
GPGPU-Sim PTX: allocating stack frame region for .param "__cudaparmf8__Z21storeSharedChunkToMemILb1EEvPiPKiiiiiiii" from 0x24 to 0x28
GPGPU-Sim PTX: allocating stack frame region for .param "__cudaparmf9__Z21storeSharedChunkToMemILb1EEvPiPKiiiiiiii" from 0x28 to 0x2c
GPGPU-Sim PTX: allocating stack frame region for .param "__cudaparmf1__Z12prescanBlockILb0EEvPiiS0_" from 0x0 to 0x8
GPGPU-Sim PTX: allocating stack frame region for .param "__cudaparmf2__Z12prescanBlockILb0EEvPiiS0_" from 0x8 to 0xc
[...]
gpgpu_stall_shd_mem[g_mem_st][wb_icnt_rc] = 0
gpgpu_stall_shd_mem[g_mem_st][wb_rsrv_fail] = 0
gpgpu_stall_shd_mem[l_mem_ld][mshr_rc] = 0
gpgpu_stall_shd_mem[l_mem_ld][icnt_rc] = 0
gpgpu_stall_shd_mem[l_mem_ld][wb_icnt_rc] = 0
gpgpu_stall_shd_mem[l_mem_ld][wb_rsrv_fail] = 0
gpgpu_stall_shd_mem[l_mem_st][mshr_rc] = 0
gpgpu_stall_shd_mem[l_mem_st][icnt_rc] = 0
gpgpu_stall_shd_mem[l_mem_ld][wb_icnt_rc] = 0
gpgpu_stall_shd_mem[l_mem_ld][wb_rsrv_fail] = 0
gpu_reg_bank_conflict_stalls = 0
Warp Occupancy Distribution:
Stall:60882	W0_Idle:135388	W0_Scoreboard:83235	W1:3776	W2:2596	W3:0	W4:2596	W5:0	W6:0	W7:0	W8:2596	W9:0	W10:0	W11:0	W12:0	W13:0	W14:0	W15:0	W16:2629	W17:0	W18:0	W19:0	W20:0	W21:0	W22:0	W23:0	W24:0	W25:0	W26:0	W27:0	W28:0	W29:0	W30:0	W31:0	W32:175130
traffic_breakdown_coretomem[CONST_ACC_R] = 120 {8:15,}
traffic_breakdown_coretomem[GLOBAL_ACC_R] = 30064 {8:3758,}
traffic_breakdown_coretomem[GLOBAL_ACC_W] = 513256 {40:59,72:3,136:3755,}
traffic_breakdown_coretomem[INST_ACC_R] = 1680 {8:210,}
traffic_breakdown_memtocore[CONST_ACC_R] = 1080 {72:15,}
traffic_breakdown_memtocore[GLOBAL_ACC_R] = 511088 {136:3758,}
traffic_breakdown_memtocore[GLOBAL_ACC_W] = 30536 {8:3817,}
traffic_breakdown_memtocore[INST_ACC_R] = 28560 {136:210,}
maxmrqlatency = 346 
maxdqlatency = 0 
maxmflatency = 1275 
averagemflatency = 353 
max_icnt2mem_latency = 654 
max_icnt2sh_latency = 16680 
mrq_lat_table:2309 	209 	220 	239 	345 	448 	548 	354 	56 	0 	0 	0 	0 	0 	0 	0 	0 	0 	0 	0 	0 	0 	0 	0 	0 	0 	0 	0 	0 	0 	0 	0 	
dq_lat_table:0 	0 	0 	0 	0 	0 	0 	0 	0 	0 	0 	0 	0 	0 	0 	0 	0 	0 	0 	0 	0 	0 	0 	0 	0 	0 	0 	0 	0 	0 	0 	0 	
mf_lat_table:0 	0 	0 	0 	0 	0 	0 	2172 	4586 	728 	104 	0 	0 	0 	0 	0 	0 	0 	0 	0 	0 	0 	0 	0 	0 	0 	0 	0 	0 	0 	0 	0 	
icnt2mem_lat_table:0 	0 	0 	2045 	1041 	827 	2807 	920 	159 	1 	0 	0 	0 	0 	0 	0 	0 	0 	0 	0 	0 	0 	0 	0 	
icnt2sh_lat_table:0 	0 	0 	589 	1740 	1385 	59 	0 	0 	0 	0 	1356 	1458 	870 	133 	0 	0 	0 	0 	0 	0 	0 	0 	0 	
mf_lat_pw_table:0 	0 	0 	0 	0 	0 	0 	8 	11 	2 	0 	0 	0 	0 	0 	0 	0 	0 	0 	0 	0 	0 	0 	0 	0 	0 	0 	0 	0 	0 	0 	0 	
maximum concurrent accesses to same row:
dram[0]:        32         0         0         0         0         0        14        16        32        32        32        32         0         0         0         0 
dram[1]:        32         0         0         0         0         0        14        16        32        32        32        32         0         0         0         0 
dram[2]:        32         0         0         0         0         0        14        16        32        32        32        32         0         0         0         0 
dram[3]:        32         0         0         0         0         0        14        16        32        32        32        32         0         0         0         0 
dram[4]:         1        30         0         0         0         0        16        16        32        32        32        32         0         0         0         0 
dram[5]:         0        30         0         0         0         0        16        16        32        32        32        32         0         0         0         0 
maximum service time to same row:
dram[0]:      3363      3244      3391      3438      3388      3666      6344      6571      6272      6531      6571      6598      2760      2757      2809      3001 
dram[1]:      3497      3244      3521      3204      3360      3347      6348      6575      6290      6483      6572      6596      2769      2763      2816      2853 
dram[2]:      3028      3354      3244      3422      3588      3709      6358      6185      6288      6177      6769      3014      2829      2793      2949      2810 
dram[3]:      4577      3351      3362      3179      3763      3619      6340      6203      6292      6181      6768      6740      2803      2999      2906      2816 
dram[4]:      2379      3194      3181      3378      3735      3776      6543      6203      6472      6167      6603      6858      2932      2810      2972      3006 
dram[5]:      3182      3201      3271      3237      3638      3722      6555      6212      6476      6198      6600      6878      2926      2816      2737      3065 
average row accesses per activate:
dram[0]: 17.500000 32.000000 32.000000 32.000000 34.000000 36.000000 39.000000 40.000000 48.000000 48.000000 28.000000 28.000000 32.000000 32.000000 32.000000 32.000000 
dram[1]: 17.000000 32.000000 32.000000 32.000000 32.000000 36.000000 39.000000 40.000000 48.000000 48.000000 28.000000 28.000000 32.000000 32.000000 32.000000 32.000000 
dram[2]: 11.666667 32.000000 32.000000 32.000000 32.000000 36.000000 39.000000 40.000000 48.000000 48.000000 28.000000 28.500000 32.000000 32.000000 32.000000 32.000000 
dram[3]: 11.666667 30.000000 32.000000 32.000000 32.000000 36.000000 39.000000 40.000000 48.000000 48.000000 28.000000 26.000000 32.000000 32.000000 32.000000 32.000000 
dram[4]: 16.500000 15.500000 32.000000 32.000000 36.000000 36.000000 40.000000 40.000000 48.000000 48.000000 28.000000 26.000000 32.000000 32.000000 32.000000 32.000000 
dram[5]: 32.000000 16.000000 32.000000 32.000000 36.000000 36.000000 40.000000 40.000000 48.000000 48.000000 28.000000 26.000000 32.000000 32.000000 32.000000 32.000000 
average row locality = 4728/141 = 33.531914
number of total memory accesses made:
dram[0]:         0         0         0         0         0         0         0         0         0         0         0         0         0         0         0         0 
dram[1]:         0         0         0         0         0         0         0         0         0         0         0         0         0         0         0         0 
dram[2]:         0         0         0         0         0         0         0         0         0         0         0         0         0         0         0         0 
dram[3]:         0         0         0         0         0         0         0         0         0         0         0         0         0         0         0         0 
dram[4]:         0         0         0         0         0         0         0         0         0         0         0         0         0         0         0         0 
dram[5]:         0         0         0         0         0         0         0         0         0         0         0         0         0         0         0         0 
total accesses: 0
min_bank_accesses = 0!
min_chip_accesses = 0!
number of total read accesses:
dram[0]:        35        32        32        32        32        32        46        48        64        64        44        44        32        32        32        32 
dram[1]:        34        32        32        32        30        32        46        48        64        64        44        44        32        32        32        32 
dram[2]:        35        32        32        32        30        32        46        48        64        64        44        44        32        32        32        32 
dram[3]:        35        30        32        32        30        32        46        48        64        64        44        42        32        32        32        32 
dram[4]:        33        31        32        32        32        32        48        48        64        64        44        42        32        32        32        32 
dram[5]:        32        32        32        32        32        32        48        48        64        64        44        42        32        32        32        32 
total reads: 3781
bank skew: 64/30 = 2.13
chip skew: 633/627 = 1.01
number of total write accesses:
dram[0]:         0         0         0         0         2         4        32        32        32        32        12        12         0         0         0         0 
dram[1]:         0         0         0         0         2         4        32        32        32        32        12        12         0         0         0         0 
dram[2]:         0         0         0         0         2         4        32        32        32        32        12        13         0         0         0         0 
dram[3]:         0         0         0         0         2         4        32        32        32        32        12        10         0         0         0         0 
dram[4]:         0         0         0         0         4         4        32        32        32        32        12        10         0         0         0         0 
dram[5]:         0         0         0         0         4         4        32        32        32        32        12        10         0         0         0         0 
total reads: 947
min_bank_accesses = 0!
chip skew: 159/156 = 1.02
average mf latency per bank:
dram[0]:        621       602       620       667       468       477       428       504       505       591       678       668       686       717       657       771
dram[1]:        578       574       703       604       515       482       410       502       492       586       660       673       714       678       731       714
dram[2]:        494       592       602       693       482       478       405       430       479       534       629       746       650       668       638       638
dram[3]:        500       588       603       689       471       484       432       417       507       520       665       647       676       692       655       670
dram[4]:        574       571       632       664       467       488       493       460       572       523       662       684       710       673       767       670
dram[5]:        534       553       586       682       439       486       492       465       551       542       635       700       644       689       669       680
maximum mf latency per bank:
dram[0]:        490       520       511       586       742       957      1085      1274      1055      1226       990      1095       556       541       516       614
dram[1]:        540       497       508       518       809      1115      1079      1275      1049      1235       987      1116       532       490       531       579
dram[2]:        485       491       467       505       725       844      1100      1106       929      1082       927       919       452       499       487       510
dram[3]:        501       514       495       515       685       865      1143       992      1006      1030       930       962       454       525       502       512
dram[4]:        526       502       568       525       780       997      1229      1130      1117      1126      1014      1064       487       540       562       531
dram[5]:        468       510       447       556       945       999      1271      1152      1118      1094      1043      1115       420       480       517       552

Number of Memory Banks Accessed per Memory Operation per Warp (from 0):
0	0	0	0	0	0	0	0	0	0	0	0	0	0	0	0	0	0	0	0	0	0	0	0	0	0	0	0	0	0	0	0	0	0	0	0	0	0	0	0	0	0	0	0	0	0	0	0	0	0	0	0	0	0	0	0	0	0	0	0	0	0	0	0	0	0	0	0	0	0	0	0	0	0	0	0	0	0	0	0	0	0	0	0	0	0	0	0	0	0	0	0	0	0	0	0	
Average # of Memory Banks Accessed per Memory Operation per Warp=-nan

position of mrq chosen
0	0	0	0	0	0	0	0	0	0	0	0	0	0	0	0	

average position of mrq chosen = -nan
Memory Partition 0: 
Cache L2_bank_000:
MSHR contents

Cache L2_bank_001:
MSHR contents

In Dram Latency Queue (total = 0): 
DRAM[0]: 16 bks, busW=4 BL=8 CL=12, tRRD=2 tCCD=6, tRCD=12 tRAS=28 tRP=12 tRC=40
n_cmd=22017 n_nop=20403 n_act=24 n_pre=8 n_req=791 n_rd=1266 n_write=316 bw_util=0.1437
n_activity=6122 dram_eff=0.5168
bk0: 70a 21787i bk1: 64a 21821i bk2: 64a 21774i bk3: 64a 21791i bk4: 64a 21756i bk5: 64a 21637i bk6: 92a 20232i bk7: 96a 20120i bk8: 128a 20159i bk9: 128a 19740i bk10: 88a 20752i bk11: 88a 20812i bk12: 64a 21818i bk13: 64a 21752i bk14: 64a 21650i bk15: 64a 21617i 
dram_util_bins: 0 0 0 0 0 0 0 0 0 0
dram_eff_bins: 0 0 0 0 0 0 0 0 0 0
mrqq: max=16 avg=1.65699
Memory Partition 1: 
Cache L2_bank_002:
MSHR contents

Cache L2_bank_003:
MSHR contents

In Dram Latency Queue (total = 0): 
DRAM[1]: 16 bks, busW=4 BL=8 CL=12, tRRD=2 tCCD=6, tRCD=12 tRAS=28 tRP=12 tRC=40
n_cmd=22017 n_nop=20411 n_act=23 n_pre=7 n_req=788 n_rd=1260 n_write=316 bw_util=0.1432
n_activity=6192 dram_eff=0.509
bk0: 68a 21813i bk1: 64a 21820i bk2: 64a 21796i bk3: 64a 21746i bk4: 60a 21692i bk5: 64a 21635i bk6: 92a 20283i bk7: 96a 20058i bk8: 128a 20087i bk9: 128a 19791i bk10: 88a 20869i bk11: 88a 20748i bk12: 64a 21796i bk13: 64a 21745i bk14: 64a 21690i bk15: 64a 21631i 
dram_util_bins: 0 0 0 0 0 0 0 0 0 0
dram_eff_bins: 0 0 0 0 0 0 0 0 0 0
mrqq: max=16 avg=1.63251
Memory Partition 2: 
Cache L2_bank_004:
MSHR contents

Cache L2_bank_005:
MSHR contents

In Dram Latency Queue (total = 0): 
DRAM[2]: 16 bks, busW=4 BL=8 CL=12, tRRD=2 tCCD=6, tRCD=12 tRAS=28 tRP=12 tRC=40
n_cmd=22017 n_nop=20408 n_act=24 n_pre=8 n_req=790 n_rd=1262 n_write=315 bw_util=0.1433
n_activity=6192 dram_eff=0.5094
bk0: 70a 21774i bk1: 64a 21840i bk2: 64a 21782i bk3: 64a 21805i bk4: 60a 21733i bk5: 64a 21621i bk6: 92a 20384i bk7: 96a 20021i bk8: 128a 20106i bk9: 128a 19783i bk10: 88a 20775i bk11: 88a 20750i bk12: 64a 21825i bk13: 64a 21814i bk14: 64a 21755i bk15: 64a 21677i 
dram_util_bins: 0 0 0 0 0 0 0 0 0 0
dram_eff_bins: 0 0 0 0 0 0 0 0 0 0
mrqq: max=16 avg=1.48408
Memory Partition 3: 
Cache L2_bank_006:
MSHR contents

Cache L2_bank_007:
MSHR contents

In Dram Latency Queue (total = 0): 
DRAM[3]: 16 bks, busW=4 BL=8 CL=12, tRRD=2 tCCD=6, tRCD=12 tRAS=28 tRP=12 tRC=40
n_cmd=22017 n_nop=20419 n_act=24 n_pre=8 n_req=783 n_rd=1254 n_write=312 bw_util=0.1423
n_activity=6080 dram_eff=0.5151
bk0: 70a 21763i bk1: 60a 21827i bk2: 64a 21813i bk3: 64a 21779i bk4: 60a 21716i bk5: 64a 21640i bk6: 92a 20258i bk7: 96a 19965i bk8: 128a 20001i bk9: 128a 19811i bk10: 88a 20906i bk11: 84a 20777i bk12: 64a 21820i bk13: 64a 21740i bk14: 64a 21646i bk15: 64a 21530i 
dram_util_bins: 0 0 0 0 0 0 0 0 0 0
dram_eff_bins: 0 0 0 0 0 0 0 0 0 0
mrqq: max=16 avg=1.57147
Memory Partition 4: 
Cache L2_bank_008:
MSHR contents

Cache L2_bank_009:
MSHR contents

In Dram Latency Queue (total = 0): 
DRAM[4]: 16 bks, busW=4 BL=8 CL=12, tRRD=2 tCCD=6, tRCD=12 tRAS=28 tRP=12 tRC=40
n_cmd=22017 n_nop=20409 n_act=24 n_pre=8 n_req=788 n_rd=1260 n_write=316 bw_util=0.1432
n_activity=6055 dram_eff=0.5206
bk0: 66a 21813i bk1: 62a 21821i bk2: 64a 21831i bk3: 64a 21798i bk4: 64a 21687i bk5: 64a 21711i bk6: 96a 20184i bk7: 96a 20124i bk8: 128a 19916i bk9: 128a 19906i bk10: 88a 20833i bk11: 84a 21012i bk12: 64a 21805i bk13: 64a 21728i bk14: 64a 21579i bk15: 64a 21517i 
dram_util_bins: 0 0 0 0 0 0 0 0 0 0
dram_eff_bins: 0 0 0 0 0 0 0 0 0 0
mrqq: max=16 avg=1.66172
Memory Partition 5: 
Cache L2_bank_010:
MSHR contents
MSHR: tag=0x802a9980, atomic=0 1 entries : 0x7f963e0ae7d0 :  mf: uid=168121, sid13:w03, part=5, addr=0x802a9980, load , size=128, unknown  status = IN_PARTITION_DRAM (16678), 

Cache L2_bank_011:
MSHR contents

In Dram Latency Queue (total = 0): 
DRAM[5]: 16 bks, busW=4 BL=8 CL=12, tRRD=2 tCCD=6, tRCD=12 tRAS=28 tRP=12 tRC=40
n_cmd=22017 n_nop=20411 n_act=23 n_pre=7 n_req=788 n_rd=1260 n_write=316 bw_util=0.1432
n_activity=6077 dram_eff=0.5187
bk0: 64a 21806i bk1: 64a 21817i bk2: 64a 21796i bk3: 64a 21746i bk4: 64a 21691i bk5: 64a 21697i bk6: 96a 20181i bk7: 96a 20099i bk8: 128a 19854i bk9: 128a 19976i bk10: 88a 20758i bk11: 84a 20967i bk12: 64a 21824i bk13: 64a 21743i bk14: 64a 21681i bk15: 64a 21597i 
dram_util_bins: 0 0 0 0 0 0 0 0 0 0
dram_eff_bins: 0 0 0 0 0 0 0 0 0 0
mrqq: max=16 avg=1.65949

========= L2 cache stats =========
L2_cache_bank[0]: Access = 673, Miss = 317, Miss_rate = 0.471, Pending_hits = 9, Reservation_fails = 269
L2_cache_bank[1]: Access = 628, Miss = 316, Miss_rate = 0.503, Pending_hits = 0, Reservation_fails = 53
L2_cache_bank[2]: Access = 654, Miss = 314, Miss_rate = 0.480, Pending_hits = 3, Reservation_fails = 105
L2_cache_bank[3]: Access = 628, Miss = 316, Miss_rate = 0.503, Pending_hits = 0, Reservation_fails = 76
L2_cache_bank[4]: Access = 669, Miss = 315, Miss_rate = 0.471, Pending_hits = 3, Reservation_fails = 125
L2_cache_bank[5]: Access = 687, Miss = 316, Miss_rate = 0.460, Pending_hits = 1, Reservation_fails = 101
L2_cache_bank[6]: Access = 669, Miss = 315, Miss_rate = 0.471, Pending_hits = 6, Reservation_fails = 241
L2_cache_bank[7]: Access = 624, Miss = 312, Miss_rate = 0.500, Pending_hits = 0, Reservation_fails = 101
L2_cache_bank[8]: Access = 647, Miss = 317, Miss_rate = 0.490, Pending_hits = 3, Reservation_fails = 132
L2_cache_bank[9]: Access = 639, Miss = 313, Miss_rate = 0.490, Pending_hits = 3, Reservation_fails = 204
L2_cache_bank[10]: Access = 628, Miss = 316, Miss_rate = 0.503, Pending_hits = 0, Reservation_fails = 32
L2_cache_bank[11]: Access = 654, Miss = 314, Miss_rate = 0.480, Pending_hits = 6, Reservation_fails = 233
L2_total_cache_accesses = 7800
L2_total_cache_misses = 3781
L2_total_cache_miss_rate = 0.4847
L2_total_cache_pending_hits = 34
L2_total_cache_reservation_fails = 1672
L2_total_cache_breakdown:
	L2_cache_stats_breakdown[GLOBAL_ACC_R][HIT] = 938
	L2_cache_stats_breakdown[GLOBAL_ACC_R][MISS] = 2820
	L2_cache_stats_breakdown[GLOBAL_ACC_R][RESERVATION_FAIL] = 697
	L2_cache_stats_breakdown[CONST_ACC_R][HIT] = 11
	L2_cache_stats_breakdown[CONST_ACC_R][HIT_RESERVED] = 3
	L2_cache_stats_breakdown[CONST_ACC_R][MISS] = 1
	L2_cache_stats_breakdown[CONST_ACC_R][RESERVATION_FAIL] = 96
	L2_cache_stats_breakdown[GLOBAL_ACC_W][HIT] = 2870
	L2_cache_stats_breakdown[GLOBAL_ACC_W][HIT_RESERVED] = 1
	L2_cache_stats_breakdown[GLOBAL_ACC_W][MISS] = 946
	L2_cache_stats_breakdown[INST_ACC_R][HIT] = 166
	L2_cache_stats_breakdown[INST_ACC_R][HIT_RESERVED] = 30
	L2_cache_stats_breakdown[INST_ACC_R][MISS] = 14
	L2_cache_stats_breakdown[INST_ACC_R][RESERVATION_FAIL] = 879
L2_cache_data_port_util = 0.079
L2_cache_fill_port_util = 0.076

icnt_total_pkts_mem_to_simt=23702
icnt_total_pkts_simt_to_mem=22885
LD_mem_lat_dist  0 0 0 0 0 0 0 0 0 0 0 0 0 0 0 0 0 0 0 0 0 0 0 0 0 0 0
ST_mem_lat_dist  0 0 0 0 0 0 0 0 0 0 0 0 0 0 0 0 0 0 0 0 0 0 0 0 0 0 0
----------------------------Interconnect-DETAILS--------------------------------
Class 0:
Packet latency average = 22.5956
	minimum = 6
	maximum = 370
Network latency average = 17.6791
	minimum = 6
	maximum = 365
Slowest packet = 14595
Flit latency average = 18.1998
	minimum = 6
	maximum = 361
Slowest flit = 45034
Fragmentation average = 0.324988
	minimum = 0
	maximum = 350
Injected packet rate average = 0.0154807
	minimum = 0.0108631 (at node 14)
	maximum = 0.0214271 (at node 20)
Accepted packet rate average = 0.0154807
	minimum = 0.0108631 (at node 14)
	maximum = 0.0214271 (at node 20)
Injected flit rate average = 0.0457888
	minimum = 0.030297 (at node 14)
	maximum = 0.0615906 (at node 15)
Accepted flit rate average= 0.0457888
	minimum = 0.0339845 (at node 14)
	maximum = 0.0584014 (at node 20)
Injected packet length average = 2.9578
Accepted packet length average = 2.9578
Total in-flight flits = 0 (0 measured)
====== Overall Traffic Statistics ======
====== Traffic class 0 ======
Packet latency average = 25.3356 (2 samples)
	minimum = 6 (2 samples)
	maximum = 301 (2 samples)
Network latency average = 18.7862 (2 samples)
	minimum = 6 (2 samples)
	maximum = 268 (2 samples)
Flit latency average = 17.1445 (2 samples)
	minimum = 6 (2 samples)
	maximum = 266 (2 samples)
Fragmentation average = 0.185421 (2 samples)
	minimum = 0 (2 samples)
	maximum = 221.5 (2 samples)
Injected packet rate average = 0.0395174 (2 samples)
	minimum = 0.0274716 (2 samples)
	maximum = 0.0508068 (2 samples)
Accepted packet rate average = 0.0395174 (2 samples)
	minimum = 0.0274716 (2 samples)
	maximum = 0.0508068 (2 samples)
Injected flit rate average = 0.118125 (2 samples)
	minimum = 0.0805163 (2 samples)
	maximum = 0.150323 (2 samples)
Accepted flit rate average = 0.118125 (2 samples)
	minimum = 0.0837141 (2 samples)
	maximum = 0.150082 (2 samples)
Injected packet size average = 2.9892 (2 samples)
Accepted packet size average = 2.9892 (2 samples)
Hops average = 1 (2 samples)
