

        *** GPGPU-Sim Simulator Version 3.2.2  [build 0] ***


GPGPU-Sim PTX: simulation mode 0 (can change with PTX_SIM_MODE_FUNC environment variable:
               1=functional simulation only, 0=detailed performance simulator)
GPGPU-Sim: Configuration options:

-network_mode                           1 # Interconnection network mode
-inter_config_file   config_fermi_islip.icnt # Interconnection network config file
-gpgpu_ptx_use_cuobjdump                    1 # Use cuobjdump to extract ptx and sass from binaries
-gpgpu_experimental_lib_support                    0 # Try to extract code from cuda libraries [Broken because of unknown cudaGetExportTable]
-gpgpu_ptx_convert_to_ptxplus                    0 # Convert SASS (native ISA) to ptxplus and run ptxplus
-gpgpu_ptx_force_max_capability                   20 # Force maximum compute capability
-gpgpu_ptx_inst_debug_to_file                    0 # Dump executed instructions' debug information to file
-gpgpu_ptx_inst_debug_file       inst_debug.txt # Executed instructions' debug output file
-gpgpu_ptx_inst_debug_thread_uid                    1 # Thread UID for executed instructions' debug output
-gpgpu_simd_model                       1 # 1 = post-dominator
-gpgpu_shader_core_pipeline              1536:32 # shader core pipeline config, i.e., {<nthread>:<warpsize>}
-gpgpu_tex_cache:l1  4:128:24,L:R:m:N:L,F:128:4,128:2 # per-shader L1 texture cache  (READ-ONLY) config  {<nsets>:<bsize>:<assoc>,<rep>:<wr>:<alloc>:<wr_alloc>,<mshr>:<N>:<merge>,<mq>:<rf>}
-gpgpu_const_cache:l1 64:64:2,L:R:f:N:L,A:2:32,4 # per-shader L1 constant memory cache  (READ-ONLY) config  {<nsets>:<bsize>:<assoc>,<rep>:<wr>:<alloc>:<wr_alloc>,<mshr>:<N>:<merge>,<mq>} 
-gpgpu_cache:il1     4:128:4,L:R:f:N:L,A:2:32,4 # shader L1 instruction cache config  {<nsets>:<bsize>:<assoc>,<rep>:<wr>:<alloc>:<wr_alloc>,<mshr>:<N>:<merge>,<mq>} 
-gpgpu_cache:dl1     32:128:4,L:L:m:N:H,A:32:8,8:2,0,1:0:1:1:0:1,1:4:8:16:32:64,/sciclone/data10/hwang07/GPU_RESEARCH/swl/swl_outputs/RESULTS/gto/ # per-shader L1 data cache config  {<nsets>:<bsize>:<assoc>,<rep>:<wr>:<alloc>:<wr_alloc>,<mshr>:<N>:<merge>,<mq> | none}
-gpgpu_cache:dl1PrefL1                 none # per-shader L1 data cache config  {<nsets>:<bsize>:<assoc>,<rep>:<wr>:<alloc>:<wr_alloc>,<mshr>:<N>:<merge>,<mq> | none}
-gpgpu_cache:dl1PreShared                 none # per-shader L1 data cache config  {<nsets>:<bsize>:<assoc>,<rep>:<wr>:<alloc>:<wr_alloc>,<mshr>:<N>:<merge>,<mq> | none}
-gmem_skip_L1D                          0 # global memory access skip L1D cache (implements -Xptxas -dlcm=cg, default=no skip)
-gpgpu_perfect_mem                      0 # enable perfect memory mode (no cache miss)
-n_regfile_gating_group                    4 # group of lanes that should be read/written together)
-gpgpu_clock_gated_reg_file                    0 # enable clock gated reg file for power calculations
-gpgpu_clock_gated_lanes                    0 # enable clock gated lanes for power calculations
-gpgpu_shader_registers                32768 # Number of registers per shader core. Limits number of concurrent CTAs. (default 8192)
-gpgpu_shader_cta                       8 # Maximum number of concurrent CTAs in shader (default 8)
-gpgpu_num_cta_barriers                   16 # Maximum number of named barriers per CTA (default 16)
-gpgpu_n_clusters                      15 # number of processing clusters
-gpgpu_n_cores_per_cluster                    1 # number of simd cores per cluster
-gpgpu_n_cluster_ejection_buffer_size                    8 # number of packets in ejection buffer
-gpgpu_n_ldst_response_buffer_size                    2 # number of response packets in ld/st unit ejection buffer
-gpgpu_shmem_size                   16384 # Size of shared memory per shader core (default 16kB)
-gpgpu_shmem_size                   49152 # Size of shared memory per shader core (default 16kB)
-gpgpu_shmem_size_PrefL1                16384 # Size of shared memory per shader core (default 16kB)
-gpgpu_shmem_size_PrefShared                16384 # Size of shared memory per shader core (default 16kB)
-gpgpu_shmem_num_banks                   32 # Number of banks in the shared memory in each shader core (default 16)
-gpgpu_shmem_limited_broadcast                    0 # Limit shared memory to do one broadcast per cycle (default on)
-gpgpu_shmem_warp_parts                    1 # Number of portions a warp is divided into for shared memory bank conflict check 
-gpgpu_warpdistro_shader                   -1 # Specify which shader core to collect the warp size distribution from
-gpgpu_warp_issue_shader                    0 # Specify which shader core to collect the warp issue distribution from
-gpgpu_local_mem_map                    1 # Mapping from local memory space address to simulated GPU physical address space (default = enabled)
-gpgpu_num_reg_banks                   16 # Number of register banks (default = 8)
-gpgpu_reg_bank_use_warp_id                    0 # Use warp ID in mapping registers to banks (default = off)
-gpgpu_operand_collector_num_units_sp                    6 # number of collector units (default = 4)
-gpgpu_operand_collector_num_units_sfu                    8 # number of collector units (default = 4)
-gpgpu_operand_collector_num_units_mem                    2 # number of collector units (default = 2)
-gpgpu_operand_collector_num_units_gen                    0 # number of collector units (default = 0)
-gpgpu_operand_collector_num_in_ports_sp                    2 # number of collector unit in ports (default = 1)
-gpgpu_operand_collector_num_in_ports_sfu                    1 # number of collector unit in ports (default = 1)
-gpgpu_operand_collector_num_in_ports_mem                    1 # number of collector unit in ports (default = 1)
-gpgpu_operand_collector_num_in_ports_gen                    0 # number of collector unit in ports (default = 0)
-gpgpu_operand_collector_num_out_ports_sp                    2 # number of collector unit in ports (default = 1)
-gpgpu_operand_collector_num_out_ports_sfu                    1 # number of collector unit in ports (default = 1)
-gpgpu_operand_collector_num_out_ports_mem                    1 # number of collector unit in ports (default = 1)
-gpgpu_operand_collector_num_out_ports_gen                    0 # number of collector unit in ports (default = 0)
-gpgpu_coalesce_arch                   13 # Coalescing arch (default = 13, anything else is off for now)
-gpgpu_num_sched_per_core                    2 # Number of warp schedulers per core
-gpgpu_max_insn_issue_per_warp                    1 # Max number of instructions that can be issued per warp in one cycle by scheduler
-gpgpu_simt_core_sim_order                    1 # Select the simulation order of cores in a cluster (0=Fix, 1=Round-Robin)
-gpgpu_pipeline_widths        2,1,1,2,1,1,2 # Pipeline widths ID_OC_SP,ID_OC_SFU,ID_OC_MEM,OC_EX_SP,OC_EX_SFU,OC_EX_MEM,EX_WB
-gpgpu_num_sp_units                     2 # Number of SP units (default=1)
-gpgpu_num_sfu_units                    1 # Number of SF units (default=1)
-gpgpu_num_mem_units                    1 # Number if ldst units (default=1) WARNING: not hooked up to anything
-gpgpu_scheduler                      gto # Scheduler configuration: < lrr | gto | two_level_active > If two_level_active:<num_active_warps>:<inner_prioritization>:<outer_prioritization>For complete list of prioritization values see shader.h enum scheduler_prioritization_typeDefault: gto
-gpgpu_dram_scheduler                    1 # 0 = fifo, 1 = FR-FCFS (defaul)
-gpgpu_dram_partition_queues              8:8:8:8 # i2$:$2d:d2$:$2i
-l2_ideal                               0 # Use a ideal L2 cache that always hit
-gpgpu_cache:dl2     64:128:8,L:B:m:W:L,A:32:4,4:0,32 # unified banked L2 data cache config  {<nsets>:<bsize>:<assoc>,<rep>:<wr>:<alloc>:<wr_alloc>,<mshr>:<N>:<merge>,<mq>}
-gpgpu_cache:dl2_texture_only                    0 # L2 cache used for texture only
-gpgpu_n_mem                            6 # number of memory modules (e.g. memory controllers) in gpu
-gpgpu_n_sub_partition_per_mchannel                    2 # number of memory subpartition in each memory module
-gpgpu_n_mem_per_ctrlr                    2 # number of memory chips per memory controller
-gpgpu_memlatency_stat                   14 # track and display latency statistics 0x2 enables MC, 0x4 enables queue logs
-gpgpu_frfcfs_dram_sched_queue_size                   16 # 0 = unlimited (default); # entries per chip
-gpgpu_dram_return_queue_size                  116 # 0 = unlimited (default); # entries per chip
-gpgpu_dram_buswidth                    4 # default = 4 bytes (8 bytes per cycle at DDR)
-gpgpu_dram_burst_length                    8 # Burst length of each DRAM request (default = 4 data bus cycle)
-dram_data_command_freq_ratio                    4 # Frequency ratio between DRAM data bus and command bus (default = 2 times, i.e. DDR)
-gpgpu_dram_timing_opt nbk=16:CCD=2:RRD=6:RCD=12:RAS=28:RP=12:RC=40: CL=12:WL=4:CDLR=5:WR=12:nbkgrp=4:CCDL=3:RTPL=2 # DRAM timing parameters = {nbk:tCCD:tRRD:tRCD:tRAS:tRP:tRC:CL:WL:tCDLR:tWR:nbkgrp:tCCDL:tRTPL}
-rop_latency                          120 # ROP queue latency (default 85)
-dram_latency                         100 # DRAM latency (default 30)
-gpgpu_mem_addr_mapping dramid@8;00000000.00000000.00000000.00000000.0000RRRR.RRRRRRRR.BBBCCCCB.CCSSSSSS # mapping memory address to dram model {dramid@<start bit>;<memory address map>}
-gpgpu_mem_addr_test                    0 # run sweep test to check address mapping for aliased address
-gpgpu_mem_address_mask                    1 # 0 = old addressing mask, 1 = new addressing mask, 2 = new add. mask + flipped bank sel and chip sel bits
-gpuwattch_xml_file  gpuwattch_gtx480.xml # GPUWattch XML file
-power_simulation_enabled                    0 # Turn on power simulator (1=On, 0=Off)
-power_per_cycle_dump                    0 # Dump detailed power output each cycle
-power_trace_enabled                    0 # produce a file for the power trace (1=On, 0=Off)
-power_trace_zlevel                     6 # Compression level of the power trace output log (0=no comp, 9=highest)
-steady_power_levels_enabled                    0 # produce a file for the steady power levels (1=On, 0=Off)
-steady_state_definition                  8:4 # allowed deviation:number of samples
-gpgpu_max_cycle                        0 # terminates gpu simulation early (0 = no limit)
-gpgpu_max_insn                         0 # terminates gpu simulation early (0 = no limit)
-gpgpu_max_cta                          0 # terminates gpu simulation early (0 = no limit)
-gpgpu_runtime_stat                   500 # display runtime statistics such as dram utilization {<freq>:<flag>}
-liveness_message_freq                    1 # Minimum number of seconds between simulation liveness messages (0 = always print)
-gpgpu_flush_l1_cache                    0 # Flush L1 cache at the end of each kernel call
-gpgpu_flush_l2_cache                    0 # Flush L2 cache at the end of each kernel call
-gpgpu_deadlock_detect                    1 # Stop the simulation at deadlock (1=on (default), 0=off)
-gpgpu_ptx_instruction_classification                    0 # if enabled will classify ptx instruction types per kernel (Max 255 kernels now)
-gpgpu_ptx_sim_mode                     0 # Select between Performance (default) or Functional simulation (1)
-gpgpu_clock_domains 700.0:700.0:700.0:924.0 # Clock Domain Frequencies in MhZ {<Core Clock>:<ICNT Clock>:<L2 Clock>:<DRAM Clock>}
-gpgpu_max_concurrent_kernel                    8 # maximum kernels that can run concurrently on GPU
-gpgpu_cflog_interval                    0 # Interval between each snapshot in control flow logger
-visualizer_enabled                     0 # Turn on visualizer output (1=On, 0=Off)
-visualizer_outputfile                 NULL # Specifies the output log file for visualizer
-visualizer_zlevel                      6 # Compression level of the visualizer output log (0=no comp, 9=highest)
-trace_enabled                          0 # Turn on traces
-trace_components                    none # comma seperated list of traces to enable. Complete list found in trace_streams.tup. Default none
-trace_sampling_core                    0 # The core which is printed using CORE_DPRINTF. Default 0
-trace_sampling_memory_partition                   -1 # The memory partition which is printed using MEMPART_DPRINTF. Default -1 (i.e. all)
-enable_ptx_file_line_stats                    1 # Turn on PTX source line statistic profiling. (1 = On)
-ptx_line_stats_filename gpgpu_inst_stats.txt # Output file for PTX source line statistics.
-save_embedded_ptx                      0 # saves ptx files embedded in binary as <n>.ptx
-keep                                   0 # keep intermediate files created by GPGPU-Sim when interfacing with external programs
-gpgpu_ptx_save_converted_ptxplus                    0 # Saved converted ptxplus to a file
-ptx_opcode_latency_int         4,13,4,5,145 # Opcode latencies for integers <ADD,MAX,MUL,MAD,DIV>Default 1,1,19,25,145
-ptx_opcode_latency_fp          4,13,4,5,39 # Opcode latencies for single precision floating points <ADD,MAX,MUL,MAD,DIV>Default 1,1,1,1,30
-ptx_opcode_latency_dp         8,19,8,8,330 # Opcode latencies for double precision floating points <ADD,MAX,MUL,MAD,DIV>Default 8,8,8,8,335
-ptx_opcode_initiation_int            1,2,2,1,8 # Opcode initiation intervals for integers <ADD,MAX,MUL,MAD,DIV>Default 1,1,4,4,32
-ptx_opcode_initiation_fp            1,2,1,1,4 # Opcode initiation intervals for single precision floating points <ADD,MAX,MUL,MAD,DIV>Default 1,1,1,1,5
-ptx_opcode_initiation_dp         8,16,8,8,130 # Opcode initiation intervals for double precision floating points <ADD,MAX,MUL,MAD,DIV>Default 8,8,8,8,130
DRAM Timing Options:
nbk                                    16 # number of banks
CCD                                     2 # column to column delay
RRD                                     6 # minimal delay between activation of rows in different banks
RCD                                    12 # row to column delay
RAS                                    28 # time needed to activate row
RP                                     12 # time needed to precharge (deactivate) row
RC                                     40 # row cycle time
CDLR                                    5 # switching from write to read (changes tWTR)
WR                                     12 # last data-in to row precharge
CL                                     12 # CAS latency
WL                                      4 # Write latency
nbkgrp                                  4 # number of bank groups
CCDL                                    3 # column to column delay between accesses to different bank groups
RTPL                                    2 # read to precharge delay between accesses to different bank groups
Total number of memory sub partition = 12
addr_dec_mask[CHIP]  = 0000000000000000 	high:64 low:0
addr_dec_mask[BK]    = 000000000000e100 	high:16 low:8
addr_dec_mask[ROW]   = 000000000fff0000 	high:28 low:16
addr_dec_mask[COL]   = 0000000000001eff 	high:13 low:0
addr_dec_mask[BURST] = 000000000000003f 	high:6 low:0
sub_partition_id_mask = 0000000000000100
GPGPU-Sim uArch: clock freqs: 700000000.000000:700000000.000000:700000000.000000:924000000.000000
GPGPU-Sim uArch: clock periods: 0.00000000142857142857:0.00000000142857142857:0.00000000142857142857:0.00000000108225108225
*** Initializing Memory Statistics ***
GPGPU-Sim uArch: interconnect node map (shaderID+MemID to icntID)
GPGPU-Sim uArch: Memory nodes ID start from index: 15
GPGPU-Sim uArch:    0   1   2   3   4
GPGPU-Sim uArch:    5   6   7   8   9
GPGPU-Sim uArch:   10  11  12  13  14
GPGPU-Sim uArch:   15  16  17  18  19
GPGPU-Sim uArch:   20  21  22  23  24
GPGPU-Sim uArch:   25  26
GPGPU-Sim uArch: interconnect node reverse map (icntID to shaderID+MemID)
GPGPU-Sim uArch: Memory nodes start from ID: 15
GPGPU-Sim uArch:    0   1   2   3   4
GPGPU-Sim uArch:    5   6   7   8   9
GPGPU-Sim uArch:   10  11  12  13  14
GPGPU-Sim uArch:   15  16  17  18  19
GPGPU-Sim uArch:   20  21  22  23  24
GPGPU-Sim uArch:   25  26
c8a719e7400194cff1ea030763a5da04  /sciclone/data10/hwang07/adwait/applications/benchmarks/CUDA/SLA/gpgpu_ptx_sim__SLA
GPGPU-Sim uArch: performance model initialization complete.
GPGPU-Sim PTX: __cudaRegisterFatBinary, fat_cubin_handle = 1, filename=scanLargeArray.cu
self exe links to: /sciclone/data10/hwang07/adwait/applications/benchmarks/CUDA/SLA/gpgpu_ptx_sim__SLA
Running md5sum using "md5sum /sciclone/data10/hwang07/adwait/applications/benchmarks/CUDA/SLA/gpgpu_ptx_sim__SLA "
Parsing file _cuobjdump_complete_output_F4g8A0
######### cuobjdump parser ########
## Adding new section ELF
Adding arch: sm_20
Adding identifier: scanLargeArray.cu
## Adding new section PTX
Adding ptx filename: _cuobjdump_1.ptx
Adding arch: sm_20
Adding identifier: scanLargeArray.cu
Done parsing!!!
GPGPU-Sim PTX: __cudaRegisterFunction _Z7prescanILb0ELb1EEvPfPKfS0_iii : hostFun 0x0x406651, fat_cubin_handle = 1
GPGPU-Sim PTX: allocating stack frame region for .param "__cudaretf__Z8buildSumPf" from 0x0 to 0x4
GPGPU-Sim PTX: allocating stack frame region for .param "__cudaparmf1__Z8buildSumPf" from 0x4 to 0xc
GPGPU-Sim PTX: allocating stack frame region for .param "__cudaparmf1__Z16scanRootToLeavesPfj" from 0x0 to 0x8
GPGPU-Sim PTX: allocating stack frame region for .param "__cudaparmf2__Z16scanRootToLeavesPfj" from 0x8 to 0xc
GPGPU-Sim PTX: allocating stack frame region for .param "__cudaparmf1__Z22loadSharedChunkFromMemILb0EEvPfPKfiiRiS3_S3_S3_S3_S3_" from 0x0 to 0x8
GPGPU-Sim PTX: allocating stack frame region for .param "__cudaparmf2__Z22loadSharedChunkFromMemILb0EEvPfPKfiiRiS3_S3_S3_S3_S3_" from 0x8 to 0x10
GPGPU-Sim PTX: allocating stack frame region for .param "__cudaparmf3__Z22loadSharedChunkFromMemILb0EEvPfPKfiiRiS3_S3_S3_S3_S3_" from 0x10 to 0x14
GPGPU-Sim PTX: allocating stack frame region for .param "__cudaparmf4__Z22loadSharedChunkFromMemILb0EEvPfPKfiiRiS3_S3_S3_S3_S3_" from 0x14 to 0x18
GPGPU-Sim PTX: allocating stack frame region for .param "__cudaparmf5__Z22loadSharedChunkFromMemILb0EEvPfPKfiiRiS3_S3_S3_S3_S3_" from 0x18 to 0x20
GPGPU-Sim PTX: allocating stack frame region for .param "__cudaparmf6__Z22loadSharedChunkFromMemILb0EEvPfPKfiiRiS3_S3_S3_S3_S3_" from 0x20 to 0x28
GPGPU-Sim PTX: allocating stack frame region for .param "__cudaparmf7__Z22loadSharedChunkFromMemILb0EEvPfPKfiiRiS3_S3_S3_S3_S3_" from 0x28 to 0x30
GPGPU-Sim PTX: allocating stack frame region for .param "__cudaparmf8__Z22loadSharedChunkFromMemILb0EEvPfPKfiiRiS3_S3_S3_S3_S3_" from 0x30 to 0x38
GPGPU-Sim PTX: allocating stack frame region for .param "__cudaparmf9__Z22loadSharedChunkFromMemILb0EEvPfPKfiiRiS3_S3_S3_S3_S3_" from 0x38 to 0x40
GPGPU-Sim PTX: allocating stack frame region for .param "__cudaparmf10__Z22loadSharedChunkFromMemILb0EEvPfPKfiiRiS3_S3_S3_S3_S3_" from 0x40 to 0x48
GPGPU-Sim PTX: allocating stack frame region for .param "__cudaparmf1__Z12prescanBlockILb1EEvPfiS0_" from 0x0 to 0x8
GPGPU-Sim PTX: allocating stack frame region for .param "__cudaparmf2__Z12prescanBlockILb1EEvPfiS0_" from 0x8 to 0xc
GPGPU-Sim PTX: allocating stack frame region for .param "__cudaparmf3__Z12prescanBlockILb1EEvPfiS0_" from 0xc to 0x14
GPGPU-Sim PTX: allocating stack frame region for .param "__cudaparmf1__Z16clearLastElementILb1EEvPfS0_i" from 0x0 to 0x8
GPGPU-Sim PTX: allocating stack frame region for .param "__cudaparmf2__Z16clearLastElementILb1EEvPfS0_i" from 0x8 to 0x10
GPGPU-Sim PTX: allocating stack frame region for .param "__cudaparmf3__Z16clearLastElementILb1EEvPfS0_i" from 0x10 to 0x14
GPGPU-Sim PTX: allocating stack frame region for .param "__cudaparmf1__Z21storeSharedChunkToMemILb0EEvPfPKfiiiiiii" from 0x0 to 0x8
GPGPU-Sim PTX: allocating stack frame region for .param "__cudaparmf2__Z21storeSharedChunkToMemILb0EEvPfPKfiiiiiii" from 0x8 to 0x10
GPGPU-Sim PTX: allocating stack frame region for .param "__cudaparmf3__Z21storeSharedChunkToMemILb0EEvPfPKfiiiiiii" from 0x10 to 0x14
GPGPU-Sim PTX: allocating stack frame region for .param "__cudaparmf4__Z21storeSharedChunkToMemILb0EEvPfPKfiiiiiii" from 0x14 to 0x18
GPGPU-Sim PTX: allocating stack frame region for .param "__cudaparmf5__Z21storeSharedChunkToMemILb0EEvPfPKfiiiiiii" from 0x18 to 0x1c
GPGPU-Sim PTX: allocating stack frame region for .param "__cudaparmf6__Z21storeSharedChunkToMemILb0EEvPfPKfiiiiiii" from 0x1c to 0x20
GPGPU-Sim PTX: allocating stack frame region for .param "__cudaparmf7__Z21storeSharedChunkToMemILb0EEvPfPKfiiiiiii" from 0x20 to 0x24
GPGPU-Sim PTX: allocating stack frame region for .param "__cudaparmf8__Z21storeSharedChunkToMemILb0EEvPfPKfiiiiiii" from 0x24 to 0x28
GPGPU-Sim PTX: allocating stack frame region for .param "__cudaparmf9__Z21storeSharedChunkToMemILb0EEvPfPKfiiiiiii" from 0x28 to 0x2c
GPGPU-Sim PTX: allocating stack frame region for .param "__cudaparmf1__Z22loadSharedChunkFromMemILb1EEvPfPKfiiRiS3_S3_S3_S3_S3_" from 0x0 to 0x8
GPGPU-Sim PTX: allocating stack frame region for .param "__cudaparmf2__Z22loadSharedChunkFromMemILb1EEvPfPKfiiRiS3_S3_S3_S3_S3_" from 0x8 to 0x10
GPGPU-Sim PTX: allocating stack frame region for .param "__cudaparmf3__Z22loadSharedChunkFromMemILb1EEvPfPKfiiRiS3_S3_S3_S3_S3_" from 0x10 to 0x14
GPGPU-Sim PTX: allocating stack frame region for .param "__cudaparmf4__Z22loadSharedChunkFromMemILb1EEvPfPKfiiRiS3_S3_S3_S3_S3_" from 0x14 to 0x18
GPGPU-Sim PTX: allocating stack frame region for .param "__cudaparmf5__Z22loadSharedChunkFromMemILb1EEvPfPKfiiRiS3_S3_S3_S3_S3_" from 0x18 to 0x20
GPGPU-Sim PTX: allocating stack frame region for .param "__cudaparmf6__Z22loadSharedChunkFromMemILb1EEvPfPKfiiRiS3_S3_S3_S3_S3_" from 0x20 to 0x28
GPGPU-Sim PTX: allocating stack frame region for .param "__cudaparmf7__Z22loadSharedChunkFromMemILb1EEvPfPKfiiRiS3_S3_S3_S3_S3_" from 0x28 to 0x30
GPGPU-Sim PTX: allocating stack frame region for .param "__cudaparmf8__Z22loadSharedChunkFromMemILb1EEvPfPKfiiRiS3_S3_S3_S3_S3_" from 0x30 to 0x38
GPGPU-Sim PTX: allocating stack frame region for .param "__cudaparmf9__Z22loadSharedChunkFromMemILb1EEvPfPKfiiRiS3_S3_S3_S3_S3_" from 0x38 to 0x40
GPGPU-Sim PTX: allocating stack frame region for .param "__cudaparmf10__Z22loadSharedChunkFromMemILb1EEvPfPKfiiRiS3_S3_S3_S3_S3_" from 0x40 to 0x48
GPGPU-Sim PTX: allocating stack frame region for .param "__cudaparmf1__Z21storeSharedChunkToMemILb1EEvPfPKfiiiiiii" from 0x0 to 0x8
GPGPU-Sim PTX: allocating stack frame region for .param "__cudaparmf2__Z21storeSharedChunkToMemILb1EEvPfPKfiiiiiii" from 0x8 to 0x10
GPGPU-Sim PTX: allocating stack frame region for .param "__cudaparmf3__Z21storeSharedChunkToMemILb1EEvPfPKfiiiiiii" from 0x10 to 0x14
GPGPU-Sim PTX: allocating stack frame region for .param "__cudaparmf4__Z21storeSharedChunkToMemILb1EEvPfPKfiiiiiii" from 0x14 to 0x18
GPGPU-Sim PTX: allocating stack frame region for .param "__cudaparmf5__Z21storeSharedChunkToMemILb1EEvPfPKfiiiiiii" from 0x18 to 0x1c
GPGPU-Sim PTX: allocating stack frame region for .param "__cudaparmf6__Z21storeSharedChunkToMemILb1EEvPfPKfiiiiiii" from 0x1c to 0x20
GPGPU-Sim PTX: allocating stack frame region for .param "__cudaparmf7__Z21storeSharedChunkToMemILb1EEvPfPKfiiiiiii" from 0x20 to 0x24
GPGPU-Sim PTX: allocating stack frame region for .param "__cudaparmf8__Z21storeSharedChunkToMemILb1EEvPfPKfiiiiiii" from 0x24 to 0x28
GPGPU-Sim PTX: allocating stack frame region for .param "__cudaparmf9__Z21storeSharedChunkToMemILb1EEvPfPKfiiiiiii" from 0x28 to 0x2c
GPGPU-Sim PTX: allocating stack frame region for .param "__cudaparmf1__Z12prescanBlockILb0EEvPfiS0_" from 0x0 to 0x8
GPGPU-Sim PTX: allocating stack frame region for .param "__cudaparmf2__Z12prescanBlockILb0EEvPfiS0_" from 0x8 to 0xc
GPGPU-Sim PTX: allocating stack frame region for .param "__cudaparmf3__Z12prescanBlockILb0EEvPfiS0_" from 0xc to 0x14
GPGPU-Sim PTX: allocating stack frame region for .param "__cudaparmf1__Z16clearLastElementILb0EEvPfS0_i" from 0x0 to 0x8
GPGPU-Sim PTX: allocating stack frame region for .param "__cudaparmf2__Z16clearLastElementILb0EEvPfS0_i" from 0x8 to 0x10
GPGPU-Sim PTX: allocating stack frame region for .param "__cudaparmf3__Z16clearLastElementILb0EEvPfS0_i" from 0x10 to 0x14
GPGPU-Sim PTX: allocating stack frame region for .param "__cudaretf__ZSt5frexpfPi" from 0x0 to 0x4
GPGPU-Sim PTX: allocating stack frame region for .param "__cudaparmf1__ZSt5frexpfPi" from 0x4 to 0x8
GPGPU-Sim PTX: allocating stack frame region for .param "__cudaparmf2__ZSt5frexpfPi" from 0x8 to 0x10
GPGPU-Sim PTX: instruction assembly for function '_Z8buildSumPf'...   done.
GPGPU-Sim PTX: finding reconvergence points for '_Z8buildSumPf'...
GPGPU-Sim PTX: Finding dominators for '_Z8buildSumPf'...
GPGPU-Sim PTX: Finding immediate dominators for '_Z8buildSumPf'...
GPGPU-Sim PTX: Finding postdominators for '_Z8buildSumPf'...
GPGPU-Sim PTX: Finding immediate postdominators for '_Z8buildSumPf'...
GPGPU-Sim PTX: pre-decoding instructions for '_Z8buildSumPf'...
GPGPU-Sim PTX: reconvergence points for _Z8buildSumPf...
GPGPU-Sim PTX:  1 (potential) branch divergence @  PC=0x030 (_1.ptx:89) @%p1 bra $Lt_0_3586;
GPGPU-Sim PTX:    immediate post dominator      @  PC=0x140 (_1.ptx:132) mov.s32 %r18, %r5;
GPGPU-Sim PTX:  2 (potential) branch divergence @  PC=0x058 (_1.ptx:96) @%p2 bra $Lt_0_2818;
GPGPU-Sim PTX:    immediate post dominator      @  PC=0x108 (_1.ptx:121) mul.lo.u32 %r5, %r5, 2;
GPGPU-Sim PTX:  3 (potential) branch divergence @  PC=0x128 (_1.ptx:126) @%p3 bra $Lt_0_2562;
GPGPU-Sim PTX:    immediate post dominator      @  PC=0x130 (_1.ptx:127) bra.uni $Lt_0_2050;
GPGPU-Sim PTX:  4 (potential) branch divergence @  PC=0x130 (_1.ptx:127) bra.uni $Lt_0_2050;
GPGPU-Sim PTX:    immediate post dominator      @  PC=0x140 (_1.ptx:132) mov.s32 %r18, %r5;
GPGPU-Sim PTX: ... end of reconvergence points for _Z8buildSumPf
GPGPU-Sim PTX: ... done pre-decoding instructions for '_Z8buildSumPf'.
GPGPU-Sim PTX: instruction assembly for function '_Z16scanRootToLeavesPfj'...   done.
GPGPU-Sim PTX: finding reconvergence points for '_Z16scanRootToLeavesPfj'...
GPGPU-Sim PTX: Finding dominators for '_Z16scanRootToLeavesPfj'...
GPGPU-Sim PTX: Finding immediate dominators for '_Z16scanRootToLeavesPfj'...
GPGPU-Sim PTX: Finding postdominators for '_Z16scanRootToLeavesPfj'...
GPGPU-Sim PTX: Finding immediate postdominators for '_Z16scanRootToLeavesPfj'...
GPGPU-Sim PTX: pre-decoding instructions for '_Z16scanRootToLeavesPfj'...
GPGPU-Sim PTX: reconvergence points for _Z16scanRootToLeavesPfj...
GPGPU-Sim PTX:  1 (potential) branch divergence @  PC=0x190 (_1.ptx:153) @%p1 bra $Lt_1_2050;
GPGPU-Sim PTX:    immediate post dominator      @  PC=0x298 (_1.ptx:197) ret;
GPGPU-Sim PTX:  2 (potential) branch divergence @  PC=0x1c0 (_1.ptx:163) @%p2 bra $Lt_1_2818;
GPGPU-Sim PTX:    immediate post dominator      @  PC=0x280 (_1.ptx:192) mul.lo.s32 %r6, %r6, 2;
GPGPU-Sim PTX:  3 (potential) branch divergence @  PC=0x290 (_1.ptx:194) @%p3 bra $Lt_1_2562;
GPGPU-Sim PTX:    immediate post dominator      @  PC=0x298 (_1.ptx:197) ret;
GPGPU-Sim PTX: ... end of reconvergence points for _Z16scanRootToLeavesPfj
GPGPU-Sim PTX: ... done pre-decoding instructions for '_Z16scanRootToLeavesPfj'.
GPGPU-Sim PTX: instruction assembly for function '_Z22loadSharedChunkFromMemILb0EEvPfPKfiiRiS3_S3_S3_S3_S3_'...   done.
GPGPU-Sim PTX: finding reconvergence points for '_Z22loadSharedChunkFromMemILb0EEvPfPKfiiRiS3_S3_S3_S3_S3_'...
GPGPU-Sim PTX: Finding dominators for '_Z22loadSharedChunkFromMemILb0EEvPfPKfiiRiS3_S3_S3_S3_S3_'...
GPGPU-Sim PTX: Finding immediate dominators for '_Z22loadSharedChunkFromMemILb0EEvPfPKfiiRiS3_S3_S3_S3_S3_'...
GPGPU-Sim PTX: Finding postdominators for '_Z22loadSharedChunkFromMemILb0EEvPfPKfiiRiS3_S3_S3_S3_S3_'...
GPGPU-Sim PTX: Finding immediate postdominators for '_Z22loadSharedChunkFromMemILb0EEvPfPKfiiRiS3_S3_S3_S3_S3_'...
GPGPU-Sim PTX: pre-decoding instructions for '_Z22loadSharedChunkFromMemILb0EEvPfPKfiiRiS3_S3_S3_S3_S3_'...
GPGPU-Sim PTX: reconvergence points for _Z22loadSharedChunkFromMemILb0EEvPfPKfiiRiS3_S3_S3_S3_S3_...
GPGPU-Sim PTX: ... end of reconvergence points for _Z22loadSharedChunkFromMemILb0EEvPfPKfiiRiS3_S3_S3_S3_S3_
GPGPU-Sim PTX: ... done pre-decoding instructions for '_Z22loadSharedChunkFromMemILb0EEvPfPKfiiRiS3_S3_S3_S3_S3_'.
GPGPU-Sim PTX: instruction assembly for function '_Z12prescanBlockILb1EEvPfiS0_'...   done.
GPGPU-Sim PTX: finding reconvergence points for '_Z12prescanBlockILb1EEvPfiS0_'...
GPGPU-Sim PTX: Finding dominators for '_Z12prescanBlockILb1EEvPfiS0_'...
GPGPU-Sim PTX: Finding immediate dominators for '_Z12prescanBlockILb1EEvPfiS0_'...
GPGPU-Sim PTX: Finding postdominators for '_Z12prescanBlockILb1EEvPfiS0_'...
GPGPU-Sim PTX: Finding immediate postdominators for '_Z12prescanBlockILb1EEvPfiS0_'...
GPGPU-Sim PTX: pre-decoding instructions for '_Z12prescanBlockILb1EEvPfiS0_'...
GPGPU-Sim PTX: reconvergence points for _Z12prescanBlockILb1EEvPfiS0_...
GPGPU-Sim PTX:  1 (potential) branch divergence @  PC=0x4c8 (_1.ptx:298) @%p1 bra $Lt_3_9730;
GPGPU-Sim PTX:    immediate post dominator      @  PC=0x5e0 (_1.ptx:342) mov.u32 %r20, %ntid.x;
GPGPU-Sim PTX:  2 (potential) branch divergence @  PC=0x4f0 (_1.ptx:305) @%p2 bra $Lt_3_6914;
GPGPU-Sim PTX:    immediate post dominator      @  PC=0x5a0 (_1.ptx:330) mul.lo.u32 %r7, %r7, 2;
GPGPU-Sim PTX:  3 (potential) branch divergence @  PC=0x5c0 (_1.ptx:335) @%p3 bra $Lt_3_6658;
GPGPU-Sim PTX:    immediate post dominator      @  PC=0x5c8 (_1.ptx:336) bra.uni $Lt_3_6146;
GPGPU-Sim PTX:  4 (potential) branch divergence @  PC=0x5c8 (_1.ptx:336) bra.uni $Lt_3_6146;
GPGPU-Sim PTX:    immediate post dominator      @  PC=0x5e0 (_1.ptx:342) mov.u32 %r20, %ntid.x;
GPGPU-Sim PTX:  5 (potential) branch divergence @  PC=0x5f8 (_1.ptx:345) @%p4 bra $Lt_3_7682;
GPGPU-Sim PTX:    immediate post dominator      @  PC=0x690 (_1.ptx:368) mov.s32 %r29, %r7;
GPGPU-Sim PTX:  6 (potential) branch divergence @  PC=0x6a8 (_1.ptx:371) @%p6 bra $Lt_3_8194;
GPGPU-Sim PTX:    immediate post dominator      @  PC=0x7a8 (_1.ptx:414) ret;
GPGPU-Sim PTX:  7 (potential) branch divergence @  PC=0x6d0 (_1.ptx:380) @%p7 bra $Lt_3_8962;
GPGPU-Sim PTX:    immediate post dominator      @  PC=0x790 (_1.ptx:409) mul.lo.s32 %r31, %r31, 2;
GPGPU-Sim PTX:  8 (potential) branch divergence @  PC=0x7a0 (_1.ptx:411) @%p8 bra $Lt_3_8706;
GPGPU-Sim PTX:    immediate post dominator      @  PC=0x7a8 (_1.ptx:414) ret;
GPGPU-Sim PTX: ... end of reconvergence points for _Z12prescanBlockILb1EEvPfiS0_
GPGPU-Sim PTX: ... done pre-decoding instructions for '_Z12prescanBlockILb1EEvPfiS0_'.
GPGPU-Sim PTX: instruction assembly for function '_Z16clearLastElementILb1EEvPfS0_i'...   done.
GPGPU-Sim PTX: finding reconvergence points for '_Z16clearLastElementILb1EEvPfS0_i'...
GPGPU-Sim PTX: Finding dominators for '_Z16clearLastElementILb1EEvPfS0_i'...
GPGPU-Sim PTX: Finding immediate dominators for '_Z16clearLastElementILb1EEvPfS0_i'...
GPGPU-Sim PTX: Finding postdominators for '_Z16clearLastElementILb1EEvPfS0_i'...
GPGPU-Sim PTX: Finding immediate postdominators for '_Z16clearLastElementILb1EEvPfS0_i'...
GPGPU-Sim PTX: pre-decoding instructions for '_Z16clearLastElementILb1EEvPfS0_i'...
GPGPU-Sim PTX: reconvergence points for _Z16clearLastElementILb1EEvPfS0_i...
GPGPU-Sim PTX:  1 (potential) branch divergence @  PC=0x7f8 (_1.ptx:435) @%p1 bra $Lt_4_1794;
GPGPU-Sim PTX:    immediate post dominator      @  PC=0x878 (_1.ptx:455) ret;
GPGPU-Sim PTX: ... end of reconvergence points for _Z16clearLastElementILb1EEvPfS0_i
GPGPU-Sim PTX: ... done pre-decoding instructions for '_Z16clearLastElementILb1EEvPfS0_i'.
GPGPU-Sim PTX: instruction assembly for function '_Z21storeSharedChunkToMemILb0EEvPfPKfiiiiiii'...   done.
GPGPU-Sim PTX: finding reconvergence points for '_Z21storeSharedChunkToMemILb0EEvPfPKfiiiiiii'...
GPGPU-Sim PTX: Finding dominators for '_Z21storeSharedChunkToMemILb0EEvPfPKfiiiiiii'...
GPGPU-Sim PTX: Finding immediate dominators for '_Z21storeSharedChunkToMemILb0EEvPfPKfiiiiiii'...
GPGPU-Sim PTX: Finding postdominators for '_Z21storeSharedChunkToMemILb0EEvPfPKfiiiiiii'...
GPGPU-Sim PTX: Finding immediate postdominators for '_Z21storeSharedChunkToMemILb0EEvPfPKfiiiiiii'...
GPGPU-Sim PTX: pre-decoding instructions for '_Z21storeSharedChunkToMemILb0EEvPfPKfiiiiiii'...
GPGPU-Sim PTX: reconvergence points for _Z21storeSharedChunkToMemILb0EEvPfPKfiiiiiii...
GPGPU-Sim PTX: ... end of reconvergence points for _Z21storeSharedChunkToMemILb0EEvPfPKfiiiiiii
GPGPU-Sim PTX: ... done pre-decoding instructions for '_Z21storeSharedChunkToMemILb0EEvPfPKfiiiiiii'.
GPGPU-Sim PTX: instruction assembly for function '_Z22loadSharedChunkFromMemILb1EEvPfPKfiiRiS3_S3_S3_S3_S3_'...   done.
GPGPU-Sim PTX: finding reconvergence points for '_Z22loadSharedChunkFromMemILb1EEvPfPKfiiRiS3_S3_S3_S3_S3_'...
GPGPU-Sim PTX: Finding dominators for '_Z22loadSharedChunkFromMemILb1EEvPfPKfiiRiS3_S3_S3_S3_S3_'...
GPGPU-Sim PTX: Finding immediate dominators for '_Z22loadSharedChunkFromMemILb1EEvPfPKfiiRiS3_S3_S3_S3_S3_'...
GPGPU-Sim PTX: Finding postdominators for '_Z22loadSharedChunkFromMemILb1EEvPfPKfiiRiS3_S3_S3_S3_S3_'...
GPGPU-Sim PTX: Finding immediate postdominators for '_Z22loadSharedChunkFromMemILb1EEvPfPKfiiRiS3_S3_S3_S3_S3_'...
GPGPU-Sim PTX: pre-decoding instructions for '_Z22loadSharedChunkFromMemILb1EEvPfPKfiiRiS3_S3_S3_S3_S3_'...
GPGPU-Sim PTX: reconvergence points for _Z22loadSharedChunkFromMemILb1EEvPfPKfiiRiS3_S3_S3_S3_S3_...
GPGPU-Sim PTX:  1 (potential) branch divergence @  PC=0xb28 (_1.ptx:572) @%p1 bra $Lt_6_2050;
GPGPU-Sim PTX:    immediate post dominator      @  PC=0xb68 (_1.ptx:583) ld.s32 %r21, [%rd16+0];
GPGPU-Sim PTX:  2 (potential) branch divergence @  PC=0xb58 (_1.ptx:579) bra.uni $Lt_6_1794;
GPGPU-Sim PTX:    immediate post dominator      @  PC=0xb68 (_1.ptx:583) ld.s32 %r21, [%rd16+0];
GPGPU-Sim PTX: ... end of reconvergence points for _Z22loadSharedChunkFromMemILb1EEvPfPKfiiRiS3_S3_S3_S3_S3_
GPGPU-Sim PTX: ... done pre-decoding instructions for '_Z22loadSharedChunkFromMemILb1EEvPfPKfiiRiS3_S3_S3_S3_S3_'.
GPGPU-Sim PTX: instruction assembly for function '_Z21storeSharedChunkToMemILb1EEvPfPKfiiiiiii'...   done.
GPGPU-Sim PTX: finding reconvergence points for '_Z21storeSharedChunkToMemILb1EEvPfPKfiiiiiii'...
GPGPU-Sim PTX: Finding dominators for '_Z21storeSharedChunkToMemILb1EEvPfPKfiiiiiii'...
GPGPU-Sim PTX: Finding immediate dominators for '_Z21storeSharedChunkToMemILb1EEvPfPKfiiiiiii'...
GPGPU-Sim PTX: Finding postdominators for '_Z21storeSharedChunkToMemILb1EEvPfPKfiiiiiii'...
GPGPU-Sim PTX: Finding immediate postdominators for '_Z21storeSharedChunkToMemILb1EEvPfPKfiiiiiii'...
GPGPU-Sim PTX: pre-decoding instructions for '_Z21storeSharedChunkToMemILb1EEvPfPKfiiiiiii'...
GPGPU-Sim PTX: reconvergence points for _Z21storeSharedChunkToMemILb1EEvPfPKfiiiiiii...
GPGPU-Sim PTX:  1 (potential) branch divergence @  PC=0xc80 (_1.ptx:631) @%p1 bra $Lt_7_1794;
GPGPU-Sim PTX:    immediate post dominator      @  PC=0xcd0 (_1.ptx:644) ret;
GPGPU-Sim PTX: ... end of reconvergence points for _Z21storeSharedChunkToMemILb1EEvPfPKfiiiiiii
GPGPU-Sim PTX: ... done pre-decoding instructions for '_Z21storeSharedChunkToMemILb1EEvPfPKfiiiiiii'.
GPGPU-Sim PTX: instruction assembly for function '_Z12prescanBlockILb0EEvPfiS0_'...   done.
GPGPU-Sim PTX: finding reconvergence points for '_Z12prescanBlockILb0EEvPfiS0_'...
GPGPU-Sim PTX: Finding dominators for '_Z12prescanBlockILb0EEvPfiS0_'...
GPGPU-Sim PTX: Finding immediate dominators for '_Z12prescanBlockILb0EEvPfiS0_'...
GPGPU-Sim PTX: Finding postdominators for '_Z12prescanBlockILb0EEvPfiS0_'...
GPGPU-Sim PTX: Finding immediate postdominators for '_Z12prescanBlockILb0EEvPfiS0_'...
GPGPU-Sim PTX: pre-decoding instructions for '_Z12prescanBlockILb0EEvPfiS0_'...
GPGPU-Sim PTX: reconvergence points for _Z12prescanBlockILb0EEvPfiS0_...
GPGPU-Sim PTX:  1 (potential) branch divergence @  PC=0xd08 (_1.ptx:663) @%p1 bra $Lt_8_10242;
GPGPU-Sim PTX:    immediate post dominator      @  PC=0xe20 (_1.ptx:707) mov.u32 %r18, %ntid.x;
GPGPU-Sim PTX:  2 (potential) branch divergence @  PC=0xd30 (_1.ptx:670) @%p2 bra $Lt_8_7426;
GPGPU-Sim PTX:    immediate post dominator      @  PC=0xde0 (_1.ptx:695) mul.lo.u32 %r5, %r5, 2;
GPGPU-Sim PTX:  3 (potential) branch divergence @  PC=0xe00 (_1.ptx:700) @%p3 bra $Lt_8_7170;
GPGPU-Sim PTX:    immediate post dominator      @  PC=0xe08 (_1.ptx:701) bra.uni $Lt_8_6658;
GPGPU-Sim PTX:  4 (potential) branch divergence @  PC=0xe08 (_1.ptx:701) bra.uni $Lt_8_6658;
GPGPU-Sim PTX:    immediate post dominator      @  PC=0xe20 (_1.ptx:707) mov.u32 %r18, %ntid.x;
GPGPU-Sim PTX:  5 (potential) branch divergence @  PC=0xe38 (_1.ptx:710) @%p4 bra $Lt_8_8194;
GPGPU-Sim PTX:    immediate post dominator      @  PC=0xe88 (_1.ptx:723) mov.s32 %r24, %r5;
GPGPU-Sim PTX:  6 (potential) branch divergence @  PC=0xea0 (_1.ptx:726) @%p5 bra $Lt_8_8706;
GPGPU-Sim PTX:    immediate post dominator      @  PC=0xfa0 (_1.ptx:769) ret;
GPGPU-Sim PTX:  7 (potential) branch divergence @  PC=0xec8 (_1.ptx:735) @%p6 bra $Lt_8_9474;
GPGPU-Sim PTX:    immediate post dominator      @  PC=0xf88 (_1.ptx:764) mul.lo.s32 %r26, %r26, 2;
GPGPU-Sim PTX:  8 (potential) branch divergence @  PC=0xf98 (_1.ptx:766) @%p7 bra $Lt_8_9218;
GPGPU-Sim PTX:    immediate post dominator      @  PC=0xfa0 (_1.ptx:769) ret;
GPGPU-Sim PTX: ... end of reconvergence points for _Z12prescanBlockILb0EEvPfiS0_
GPGPU-Sim PTX: ... done pre-decoding instructions for '_Z12prescanBlockILb0EEvPfiS0_'.
GPGPU-Sim PTX: instruction assembly for function '_Z16clearLastElementILb0EEvPfS0_i'...   done.
GPGPU-Sim PTX: finding reconvergence points for '_Z16clearLastElementILb0EEvPfS0_i'...
GPGPU-Sim PTX: Finding dominators for '_Z16clearLastElementILb0EEvPfS0_i'...
GPGPU-Sim PTX: Finding immediate dominators for '_Z16clearLastElementILb0EEvPfS0_i'...
GPGPU-Sim PTX: Finding postdominators for '_Z16clearLastElementILb0EEvPfS0_i'...
GPGPU-Sim PTX: Finding immediate postdominators for '_Z16clearLastElementILb0EEvPfS0_i'...
GPGPU-Sim PTX: pre-decoding instructions for '_Z16clearLastElementILb0EEvPfS0_i'...
GPGPU-Sim PTX: reconvergence points for _Z16clearLastElementILb0EEvPfS0_i...
GPGPU-Sim PTX:  1 (potential) branch divergence @  PC=0xfd0 (_1.ptx:786) @%p1 bra $Lt_9_2050;
GPGPU-Sim PTX:    immediate post dominator      @  PC=0x1028 (_1.ptx:800) ret;
GPGPU-Sim PTX: ... end of reconvergence points for _Z16clearLastElementILb0EEvPfS0_i
GPGPU-Sim PTX: ... done pre-decoding instructions for '_Z16clearLastElementILb0EEvPfS0_i'.
GPGPU-Sim PTX: allocating shared region for "__cuda_local_var_42436_35_non_const_uni" from 0x0 to 0x4 (shared memory space)
GPGPU-Sim PTX: instruction assembly for function '_Z10uniformAddPfS_iii'...   done.
GPGPU-Sim PTX: finding reconvergence points for '_Z10uniformAddPfS_iii'...
GPGPU-Sim PTX: Finding dominators for '_Z10uniformAddPfS_iii'...
GPGPU-Sim PTX: Finding immediate dominators for '_Z10uniformAddPfS_iii'...
GPGPU-Sim PTX: Finding postdominators for '_Z10uniformAddPfS_iii'...
GPGPU-Sim PTX: Finding immediate postdominators for '_Z10uniformAddPfS_iii'...
GPGPU-Sim PTX: pre-decoding instructions for '_Z10uniformAddPfS_iii'...
GPGPU-Sim PTX: reconvergence points for _Z10uniformAddPfS_iii...
GPGPU-Sim PTX:  1 (potential) branch divergence @  PC=0x1048 (_1.ptx:821) @%p1 bra $Lt_10_1794;
GPGPU-Sim PTX:    immediate post dominator      @  PC=0x1098 (_1.ptx:834) bar.sync 0;
GPGPU-Sim PTX: ... end of reconvergence points for _Z10uniformAddPfS_iii
GPGPU-Sim PTX: ... done pre-decoding instructions for '_Z10uniformAddPfS_iii'.
GPGPU-Sim PTX: allocating shared region for "s_data" from 0x0 to 0x0 (shared memory space)
GPGPU-Sim PTX: instruction assembly for function '_Z7prescanILb1ELb0EEvPfPKfS0_iii'...   done.
GPGPU-Sim PTX: finding reconvergence points for '_Z7prescanILb1ELb0EEvPfPKfS0_iii'...
GPGPU-Sim PTX: Finding dominators for '_Z7prescanILb1ELb0EEvPfPKfS0_iii'...
GPGPU-Sim PTX: Finding immediate dominators for '_Z7prescanILb1ELb0EEvPfPKfS0_iii'...
GPGPU-Sim PTX: Finding postdominators for '_Z7prescanILb1ELb0EEvPfPKfS0_iii'...
GPGPU-Sim PTX: Finding immediate postdominators for '_Z7prescanILb1ELb0EEvPfPKfS0_iii'...
GPGPU-Sim PTX: pre-decoding instructions for '_Z7prescanILb1ELb0EEvPfPKfS0_iii'...
GPGPU-Sim PTX: reconvergence points for _Z7prescanILb1ELb0EEvPfPKfS0_iii...
GPGPU-Sim PTX:  1 (potential) branch divergence @  PC=0x1198 (_1.ptx:888) @%p1 bra $Lt_11_10242;
GPGPU-Sim PTX:    immediate post dominator      @  PC=0x11c8 (_1.ptx:896) mov.u64 %rd1, s_data;
GPGPU-Sim PTX:  2 (potential) branch divergence @  PC=0x11b8 (_1.ptx:892) bra.uni $Lt_11_9986;
GPGPU-Sim PTX:    immediate post dominator      @  PC=0x11c8 (_1.ptx:896) mov.u64 %rd1, s_data;
GPGPU-Sim PTX:  3 (potential) branch divergence @  PC=0x12c0 (_1.ptx:930) @%p2 bra $Lt_11_14082;
GPGPU-Sim PTX:    immediate post dominator      @  PC=0x13c8 (_1.ptx:972) mov.u32 %r32, 0;
GPGPU-Sim PTX:  4 (potential) branch divergence @  PC=0x12e0 (_1.ptx:936) @%p3 bra $Lt_11_11266;
GPGPU-Sim PTX:    immediate post dominator      @  PC=0x1390 (_1.ptx:961) mul.lo.u32 %r19, %r19, 2;
GPGPU-Sim PTX:  5 (potential) branch divergence @  PC=0x13b0 (_1.ptx:966) @%p4 bra $Lt_11_11010;
GPGPU-Sim PTX:    immediate post dominator      @  PC=0x13b8 (_1.ptx:967) bra.uni $Lt_11_10498;
GPGPU-Sim PTX:  6 (potential) branch divergence @  PC=0x13b8 (_1.ptx:967) bra.uni $Lt_11_10498;
GPGPU-Sim PTX:    immediate post dominator      @  PC=0x13c8 (_1.ptx:972) mov.u32 %r32, 0;
GPGPU-Sim PTX:  7 (potential) branch divergence @  PC=0x13d8 (_1.ptx:974) @%p5 bra $Lt_11_12034;
GPGPU-Sim PTX:    immediate post dominator      @  PC=0x1480 (_1.ptx:999) mov.s32 %r41, %r19;
GPGPU-Sim PTX:  8 (potential) branch divergence @  PC=0x1498 (_1.ptx:1002) @%p7 bra $Lt_11_12546;
GPGPU-Sim PTX:    immediate post dominator      @  PC=0x1598 (_1.ptx:1045) bar.sync 0;
GPGPU-Sim PTX:  9 (potential) branch divergence @  PC=0x14c0 (_1.ptx:1011) @%p8 bra $Lt_11_13314;
GPGPU-Sim PTX:    immediate post dominator      @  PC=0x1580 (_1.ptx:1040) mul.lo.s32 %r43, %r43, 2;
GPGPU-Sim PTX: 10 (potential) branch divergence @  PC=0x1590 (_1.ptx:1042) @%p9 bra $Lt_11_13058;
GPGPU-Sim PTX:    immediate post dominator      @  PC=0x1598 (_1.ptx:1045) bar.sync 0;
GPGPU-Sim PTX: ... end of reconvergence points for _Z7prescanILb1ELb0EEvPfPKfS0_iii
GPGPU-Sim PTX: ... done pre-decoding instructions for '_Z7prescanILb1ELb0EEvPfPKfS0_iii'.
GPGPU-Sim PTX: instruction assembly for function '_Z7prescanILb1ELb1EEvPfPKfS0_iii'...   done.
GPGPU-Sim PTX: finding reconvergence points for '_Z7prescanILb1ELb1EEvPfPKfS0_iii'...
GPGPU-Sim PTX: Finding dominators for '_Z7prescanILb1ELb1EEvPfPKfS0_iii'...
GPGPU-Sim PTX: Finding immediate dominators for '_Z7prescanILb1ELb1EEvPfPKfS0_iii'...
GPGPU-Sim PTX: Finding postdominators for '_Z7prescanILb1ELb1EEvPfPKfS0_iii'...
GPGPU-Sim PTX: Finding immediate postdominators for '_Z7prescanILb1ELb1EEvPfPKfS0_iii'...
GPGPU-Sim PTX: pre-decoding instructions for '_Z7prescanILb1ELb1EEvPfPKfS0_iii'...
GPGPU-Sim PTX: reconvergence points for _Z7prescanILb1ELb1EEvPfPKfS0_iii...
GPGPU-Sim PTX:  1 (potential) branch divergence @  PC=0x1600 (_1.ptx:1079) @%p1 bra $Lt_12_10242;
GPGPU-Sim PTX:    immediate post dominator      @  PC=0x1630 (_1.ptx:1087) mov.u64 %rd1, s_data;
GPGPU-Sim PTX:  2 (potential) branch divergence @  PC=0x1620 (_1.ptx:1083) bra.uni $Lt_12_9986;
GPGPU-Sim PTX:    immediate post dominator      @  PC=0x1630 (_1.ptx:1087) mov.u64 %rd1, s_data;
GPGPU-Sim PTX:  3 (potential) branch divergence @  PC=0x16c0 (_1.ptx:1106) @!%p2 bra $Lt_12_10754;
GPGPU-Sim PTX:    immediate post dominator      @  PC=0x1700 (_1.ptx:1117) shr.s32 %r15, %r12, 4;
GPGPU-Sim PTX:  4 (potential) branch divergence @  PC=0x16f0 (_1.ptx:1113) bra.uni $Lt_12_10498;
GPGPU-Sim PTX:    immediate post dominator      @  PC=0x1700 (_1.ptx:1117) shr.s32 %r15, %r12, 4;
GPGPU-Sim PTX:  5 (potential) branch divergence @  PC=0x1750 (_1.ptx:1128) @%p3 bra $Lt_12_15106;
GPGPU-Sim PTX:    immediate post dominator      @  PC=0x1858 (_1.ptx:1170) mov.u32 %r33, 0;
GPGPU-Sim PTX:  6 (potential) branch divergence @  PC=0x1770 (_1.ptx:1134) @%p4 bra $Lt_12_11778;
GPGPU-Sim PTX:    immediate post dominator      @  PC=0x1820 (_1.ptx:1159) mul.lo.u32 %r20, %r20, 2;
GPGPU-Sim PTX:  7 (potential) branch divergence @  PC=0x1840 (_1.ptx:1164) @%p5 bra $Lt_12_11522;
GPGPU-Sim PTX:    immediate post dominator      @  PC=0x1848 (_1.ptx:1165) bra.uni $Lt_12_11010;
GPGPU-Sim PTX:  8 (potential) branch divergence @  PC=0x1848 (_1.ptx:1165) bra.uni $Lt_12_11010;
GPGPU-Sim PTX:    immediate post dominator      @  PC=0x1858 (_1.ptx:1170) mov.u32 %r33, 0;
GPGPU-Sim PTX:  9 (potential) branch divergence @  PC=0x1868 (_1.ptx:1172) @%p6 bra $Lt_12_12546;
GPGPU-Sim PTX:    immediate post dominator      @  PC=0x1910 (_1.ptx:1197) mov.s32 %r42, %r20;
GPGPU-Sim PTX: 10 (potential) branch divergence @  PC=0x1928 (_1.ptx:1200) @%p8 bra $Lt_12_13058;
GPGPU-Sim PTX:    immediate post dominator      @  PC=0x1a28 (_1.ptx:1243) bar.sync 0;
GPGPU-Sim PTX: 11 (potential) branch divergence @  PC=0x1950 (_1.ptx:1209) @%p9 bra $Lt_12_13826;
GPGPU-Sim PTX:    immediate post dominator      @  PC=0x1a10 (_1.ptx:1238) mul.lo.s32 %r44, %r44, 2;
GPGPU-Sim PTX: 12 (potential) branch divergence @  PC=0x1a20 (_1.ptx:1240) @%p10 bra $Lt_12_13570;
GPGPU-Sim PTX:    immediate post dominator      @  PC=0x1a28 (_1.ptx:1243) bar.sync 0;
GPGPU-Sim PTX: 13 (potential) branch divergence @  PC=0x1a50 (_1.ptx:1249) @!%p2 bra $Lt_12_14594;
GPGPU-Sim PTX:    immediate post dominator      @  PC=0x1a88 (_1.ptx:1259) exit;
GPGPU-Sim PTX: ... end of reconvergence points for _Z7prescanILb1ELb1EEvPfPKfS0_iii
GPGPU-Sim PTX: ... done pre-decoding instructions for '_Z7prescanILb1ELb1EEvPfPKfS0_iii'.
GPGPU-Sim PTX: instruction assembly for function '_Z7prescanILb0ELb0EEvPfPKfS0_iii'...   done.
GPGPU-Sim PTX: finding reconvergence points for '_Z7prescanILb0ELb0EEvPfPKfS0_iii'...
GPGPU-Sim PTX: Finding dominators for '_Z7prescanILb0ELb0EEvPfPKfS0_iii'...
GPGPU-Sim PTX: Finding immediate dominators for '_Z7prescanILb0ELb0EEvPfPKfS0_iii'...
GPGPU-Sim PTX: Finding postdominators for '_Z7prescanILb0ELb0EEvPfPKfS0_iii'...
GPGPU-Sim PTX: Finding immediate postdominators for '_Z7prescanILb0ELb0EEvPfPKfS0_iii'...
GPGPU-Sim PTX: pre-decoding instructions for '_Z7prescanILb0ELb0EEvPfPKfS0_iii'...
GPGPU-Sim PTX: reconvergence points for _Z7prescanILb0ELb0EEvPfPKfS0_iii...
GPGPU-Sim PTX:  1 (potential) branch divergence @  PC=0x1ab0 (_1.ptx:1282) @%p1 bra $Lt_13_10754;
GPGPU-Sim PTX:    immediate post dominator      @  PC=0x1ae0 (_1.ptx:1290) mov.u64 %rd1, s_data;
GPGPU-Sim PTX:  2 (potential) branch divergence @  PC=0x1ad0 (_1.ptx:1286) bra.uni $Lt_13_10498;
GPGPU-Sim PTX:    immediate post dominator      @  PC=0x1ae0 (_1.ptx:1290) mov.u64 %rd1, s_data;
GPGPU-Sim PTX:  3 (potential) branch divergence @  PC=0x1bd8 (_1.ptx:1324) @%p2 bra $Lt_13_14594;
GPGPU-Sim PTX:    immediate post dominator      @  PC=0x1ce0 (_1.ptx:1366) mov.u32 %r32, 0;
GPGPU-Sim PTX:  4 (potential) branch divergence @  PC=0x1bf8 (_1.ptx:1330) @%p3 bra $Lt_13_11778;
GPGPU-Sim PTX:    immediate post dominator      @  PC=0x1ca8 (_1.ptx:1355) mul.lo.u32 %r19, %r19, 2;
GPGPU-Sim PTX:  5 (potential) branch divergence @  PC=0x1cc8 (_1.ptx:1360) @%p4 bra $Lt_13_11522;
GPGPU-Sim PTX:    immediate post dominator      @  PC=0x1cd0 (_1.ptx:1361) bra.uni $Lt_13_11010;
GPGPU-Sim PTX:  6 (potential) branch divergence @  PC=0x1cd0 (_1.ptx:1361) bra.uni $Lt_13_11010;
GPGPU-Sim PTX:    immediate post dominator      @  PC=0x1ce0 (_1.ptx:1366) mov.u32 %r32, 0;
GPGPU-Sim PTX:  7 (potential) branch divergence @  PC=0x1cf0 (_1.ptx:1368) @%p5 bra $Lt_13_12546;
GPGPU-Sim PTX:    immediate post dominator      @  PC=0x1d40 (_1.ptx:1381) mov.s32 %r37, %r19;
GPGPU-Sim PTX:  8 (potential) branch divergence @  PC=0x1d58 (_1.ptx:1384) @%p6 bra $Lt_13_13058;
GPGPU-Sim PTX:    immediate post dominator      @  PC=0x1e58 (_1.ptx:1427) bar.sync 0;
GPGPU-Sim PTX:  9 (potential) branch divergence @  PC=0x1d80 (_1.ptx:1393) @%p7 bra $Lt_13_13826;
GPGPU-Sim PTX:    immediate post dominator      @  PC=0x1e40 (_1.ptx:1422) mul.lo.s32 %r39, %r39, 2;
GPGPU-Sim PTX: 10 (potential) branch divergence @  PC=0x1e50 (_1.ptx:1424) @%p8 bra $Lt_13_13570;
GPGPU-Sim PTX:    immediate post dominator      @  PC=0x1e58 (_1.ptx:1427) bar.sync 0;
GPGPU-Sim PTX: ... end of reconvergence points for _Z7prescanILb0ELb0EEvPfPKfS0_iii
GPGPU-Sim PTX: ... done pre-decoding instructions for '_Z7prescanILb0ELb0EEvPfPKfS0_iii'.
GPGPU-Sim PTX: instruction assembly for function '_Z7prescanILb0ELb1EEvPfPKfS0_iii'...   done.
GPGPU-Sim PTX: finding reconvergence points for '_Z7prescanILb0ELb1EEvPfPKfS0_iii'...
GPGPU-Sim PTX: Finding dominators for '_Z7prescanILb0ELb1EEvPfPKfS0_iii'...
GPGPU-Sim PTX: Finding immediate dominators for '_Z7prescanILb0ELb1EEvPfPKfS0_iii'...
GPGPU-Sim PTX: Finding postdominators for '_Z7prescanILb0ELb1EEvPfPKfS0_iii'...
GPGPU-Sim PTX: Finding immediate postdominators for '_Z7prescanILb0ELb1EEvPfPKfS0_iii'...
GPGPU-Sim PTX: pre-decoding instructions for '_Z7prescanILb0ELb1EEvPfPKfS0_iii'...
GPGPU-Sim PTX: reconvergence points for _Z7prescanILb0ELb1EEvPfPKfS0_iii...
GPGPU-Sim PTX:  1 (potential) branch divergence @  PC=0x1ec0 (_1.ptx:1461) @%p1 bra $Lt_14_10754;
GPGPU-Sim PTX:    immediate post dominator      @  PC=0x1ef0 (_1.ptx:1469) mov.u64 %rd1, s_data;
GPGPU-Sim PTX:  2 (potential) branch divergence @  PC=0x1ee0 (_1.ptx:1465) bra.uni $Lt_14_10498;
GPGPU-Sim PTX:    immediate post dominator      @  PC=0x1ef0 (_1.ptx:1469) mov.u64 %rd1, s_data;
GPGPU-Sim PTX:  3 (potential) branch divergence @  PC=0x1f80 (_1.ptx:1488) @!%p2 bra $Lt_14_11266;
GPGPU-Sim PTX:    immediate post dominator      @  PC=0x1fc0 (_1.ptx:1499) shr.s32 %r15, %r12, 4;
GPGPU-Sim PTX:  4 (potential) branch divergence @  PC=0x1fb0 (_1.ptx:1495) bra.uni $Lt_14_11010;
GPGPU-Sim PTX:    immediate post dominator      @  PC=0x1fc0 (_1.ptx:1499) shr.s32 %r15, %r12, 4;
GPGPU-Sim PTX:  5 (potential) branch divergence @  PC=0x2010 (_1.ptx:1510) @%p3 bra $Lt_14_15618;
GPGPU-Sim PTX:    immediate post dominator      @  PC=0x2118 (_1.ptx:1552) mov.u32 %r33, 0;
GPGPU-Sim PTX:  6 (potential) branch divergence @  PC=0x2030 (_1.ptx:1516) @%p4 bra $Lt_14_12290;
GPGPU-Sim PTX:    immediate post dominator      @  PC=0x20e0 (_1.ptx:1541) mul.lo.u32 %r20, %r20, 2;
GPGPU-Sim PTX:  7 (potential) branch divergence @  PC=0x2100 (_1.ptx:1546) @%p5 bra $Lt_14_12034;
GPGPU-Sim PTX:    immediate post dominator      @  PC=0x2108 (_1.ptx:1547) bra.uni $Lt_14_11522;
GPGPU-Sim PTX:  8 (potential) branch divergence @  PC=0x2108 (_1.ptx:1547) bra.uni $Lt_14_11522;
GPGPU-Sim PTX:    immediate post dominator      @  PC=0x2118 (_1.ptx:1552) mov.u32 %r33, 0;
GPGPU-Sim PTX:  9 (potential) branch divergence @  PC=0x2128 (_1.ptx:1554) @%p6 bra $Lt_14_13058;
GPGPU-Sim PTX:    immediate post dominator      @  PC=0x2178 (_1.ptx:1567) mov.s32 %r38, %r20;
GPGPU-Sim PTX: 10 (potential) branch divergence @  PC=0x2190 (_1.ptx:1570) @%p7 bra $Lt_14_13570;
GPGPU-Sim PTX:    immediate post dominator      @  PC=0x2290 (_1.ptx:1613) bar.sync 0;
GPGPU-Sim PTX: 11 (potential) branch divergence @  PC=0x21b8 (_1.ptx:1579) @%p8 bra $Lt_14_14338;
GPGPU-Sim PTX:    immediate post dominator      @  PC=0x2278 (_1.ptx:1608) mul.lo.s32 %r40, %r40, 2;
GPGPU-Sim PTX: 12 (potential) branch divergence @  PC=0x2288 (_1.ptx:1610) @%p9 bra $Lt_14_14082;
GPGPU-Sim PTX:    immediate post dominator      @  PC=0x2290 (_1.ptx:1613) bar.sync 0;
GPGPU-Sim PTX: 13 (potential) branch divergence @  PC=0x22b8 (_1.ptx:1619) @!%p2 bra $Lt_14_15106;
GPGPU-Sim PTX:    immediate post dominator      @  PC=0x22f0 (_1.ptx:1629) exit;
GPGPU-Sim PTX: ... end of reconvergence points for _Z7prescanILb0ELb1EEvPfPKfS0_iii
GPGPU-Sim PTX: ... done pre-decoding instructions for '_Z7prescanILb0ELb1EEvPfPKfS0_iii'.
GPGPU-Sim PTX: instruction assembly for function '_ZSt5frexpfPi'...   done.
GPGPU-Sim PTX: finding reconvergence points for '_ZSt5frexpfPi'...
GPGPU-Sim PTX: Finding dominators for '_ZSt5frexpfPi'...
GPGPU-Sim PTX: Finding immediate dominators for '_ZSt5frexpfPi'...
GPGPU-Sim PTX: Finding postdominators for '_ZSt5frexpfPi'...
GPGPU-Sim PTX: Finding immediate postdominators for '_ZSt5frexpfPi'...
GPGPU-Sim PTX: pre-decoding instructions for '_ZSt5frexpfPi'...
GPGPU-Sim PTX: reconvergence points for _ZSt5frexpfPi...
GPGPU-Sim PTX:  1 (potential) branch divergence @  PC=0x2338 (_1.ptx:1650) @!%p1 bra $Lt_15_2306;
GPGPU-Sim PTX:    immediate post dominator      @  PC=0x2368 (_1.ptx:1660) mov.b32 %r2, %f3;
GPGPU-Sim PTX:  2 (potential) branch divergence @  PC=0x2358 (_1.ptx:1655) bra.uni $Lt_15_2050;
GPGPU-Sim PTX:    immediate post dominator      @  PC=0x2368 (_1.ptx:1660) mov.b32 %r2, %f3;
GPGPU-Sim PTX:  3 (potential) branch divergence @  PC=0x23c8 (_1.ptx:1672) @%p2 bra $Lt_15_2818;
GPGPU-Sim PTX:    immediate post dominator      @  PC=0x2410 (_1.ptx:1687) st.s32 [%rd2+0], %r12;
GPGPU-Sim PTX:  4 (potential) branch divergence @  PC=0x23e0 (_1.ptx:1676) bra.uni $Lt_15_2562;
GPGPU-Sim PTX:    immediate post dominator      @  PC=0x2410 (_1.ptx:1687) st.s32 [%rd2+0], %r12;
GPGPU-Sim PTX: ... end of reconvergence points for _ZSt5frexpfPi
GPGPU-Sim PTX: ... done pre-decoding instructions for '_ZSt5frexpfPi'.
GPGPU-Sim PTX: finished parsing EMBEDDED .ptx file _1.ptx
Adding _cuobjdump_1.ptx with cubin handle 1
GPGPU-Sim PTX: extracting embedded .ptx to temporary file "_ptx_7gxTuo"
Running: cat _ptx_7gxTuo | sed 's/.version 1.5/.version 1.4/' | sed 's/, texmode_independent//' | sed 's/\(\.extern \.const\[1\] .b8 \w\+\)\[\]/\1\[1\]/' | sed 's/const\[.\]/const\[0\]/g' > _ptx2_xZWRMN
GPGPU-Sim PTX: generating ptxinfo using "$CUDA_INSTALL_PATH/bin/ptxas --gpu-name=sm_20 -v _ptx2_xZWRMN --output-file  /dev/null 2> _ptx_7gxTuoinfo"
GPGPU-Sim PTX: Kernel '_Z7prescanILb0ELb1EEvPfPKfS0_iii' : regs=13, lmem=0, smem=0, cmem=68
GPGPU-Sim PTX: Kernel '_Z7prescanILb0ELb0EEvPfPKfS0_iii' : regs=15, lmem=0, smem=0, cmem=68
GPGPU-Sim PTX: Kernel '_Z7prescanILb1ELb1EEvPfPKfS0_iii' : regs=13, lmem=0, smem=0, cmem=68
GPGPU-Sim PTX: Kernel '_Z7prescanILb1ELb0EEvPfPKfS0_iii' : regs=15, lmem=0, smem=0, cmem=68
GPGPU-Sim PTX: Kernel '_Z10uniformAddPfS_iii' : regs=10, lmem=0, smem=16, cmem=60
GPGPU-Sim PTX: removing ptxinfo using "rm -f _ptx_7gxTuo _ptx2_xZWRMN _ptx_7gxTuoinfo"
GPGPU-Sim PTX: loading globals with explicit initializers... 
GPGPU-Sim PTX: finished loading globals (0 bytes total).
GPGPU-Sim PTX: loading constants with explicit initializers...  done.
GPGPU-Sim PTX: __cudaRegisterFunction _Z7prescanILb0ELb0EEvPfPKfS0_iii : hostFun 0x0x406601, fat_cubin_handle = 1
GPGPU-Sim PTX: __cudaRegisterFunction _Z7prescanILb1ELb1EEvPfPKfS0_iii : hostFun 0x0x4065b1, fat_cubin_handle = 1
GPGPU-Sim PTX: __cudaRegisterFunction _Z7prescanILb1ELb0EEvPfPKfS0_iii : hostFun 0x0x406561, fat_cubin_handle = 1
GPGPU-Sim PTX: __cudaRegisterFunction _Z10uniformAddPfS_iii : hostFun 0x0x4056fe, fat_cubin_handle = 1
Running parallel prefix sum (prescan) of 1000000 elements
This version is work efficient (O(n) adds)
and has very few shared memory bank conflicts


GPGPU-Sim PTX: cudaLaunch for 0x0x406561 (mode=performance simulation) on stream 0
GPGPU-Sim PTX: pushing kernel '_Z7prescanILb1ELb0EEvPfPKfS0_iii' to stream 0, gridDim= (1953,1,1) blockDim = (256,1,1) 
kernel '_Z7prescanILb1ELb0EEvPfPKfS0_iii' transfer to GPU hardware scheduler
GPGPU-Sim uArch: Shader 1 bind to kernel 1 '_Z7prescanILb1ELb0EEvPfPKfS0_iii'
GPGPU-Sim uArch: CTA/core = 6, limited by: threads
GPGPU-Sim uArch: core:  1, cta: 0 initialized @(1,0)
GPGPU-Sim uArch: Shader 2 bind to kernel 1 '_Z7prescanILb1ELb0EEvPfPKfS0_iii'
GPGPU-Sim uArch: core:  2, cta: 0 initialized @(1,0)
GPGPU-Sim uArch: Shader 3 bind to kernel 1 '_Z7prescanILb1ELb0EEvPfPKfS0_iii'
GPGPU-Sim uArch: core:  3, cta: 0 initialized @(1,0)
GPGPU-Sim uArch: Shader 4 bind to kernel 1 '_Z7prescanILb1ELb0EEvPfPKfS0_iii'
GPGPU-Sim uArch: core:  4, cta: 0 initialized @(1,0)
GPGPU-Sim uArch: Shader 5 bind to kernel 1 '_Z7prescanILb1ELb0EEvPfPKfS0_iii'
GPGPU-Sim uArch: core:  5, cta: 0 initialized @(1,0)
GPGPU-Sim uArch: Shader 6 bind to kernel 1 '_Z7prescanILb1ELb0EEvPfPKfS0_iii'
GPGPU-Sim uArch: core:  6, cta: 0 initialized @(1,0)
GPGPU-Sim uArch: Shader 7 bind to kernel 1 '_Z7prescanILb1ELb0EEvPfPKfS0_iii'
GPGPU-Sim uArch: core:  7, cta: 0 initialized @(1,0)
GPGPU-Sim uArch: Shader 8 bind to kernel 1 '_Z7prescanILb1ELb0EEvPfPKfS0_iii'
GPGPU-Sim uArch: core:  8, cta: 0 initialized @(1,0)
GPGPU-Sim uArch: Shader 9 bind to kernel 1 '_Z7prescanILb1ELb0EEvPfPKfS0_iii'
GPGPU-Sim uArch: core:  9, cta: 0 initialized @(1,0)
GPGPU-Sim uArch: Shader 10 bind to kernel 1 '_Z7prescanILb1ELb0EEvPfPKfS0_iii'
GPGPU-Sim uArch: core: 10, cta: 0 initialized @(1,0)
GPGPU-Sim uArch: Shader 11 bind to kernel 1 '_Z7prescanILb1ELb0EEvPfPKfS0_iii'
GPGPU-Sim uArch: core: 11, cta: 0 initialized @(1,0)
GPGPU-Sim uArch: Shader 12 bind to kernel 1 '_Z7prescanILb1ELb0EEvPfPKfS0_iii'
GPGPU-Sim uArch: core: 12, cta: 0 initialized @(1,0)
GPGPU-Sim uArch: Shader 13 bind to kernel 1 '_Z7prescanILb1ELb0EEvPfPKfS0_iii'
GPGPU-Sim uArch: core: 13, cta: 0 initialized @(1,0)
GPGPU-Sim uArch: Shader 14 bind to kernel 1 '_Z7prescanILb1ELb0EEvPfPKfS0_iii'
GPGPU-Sim uArch: core: 14, cta: 0 initialized @(1,0)
GPGPU-Sim uArch: Shader 0 bind to kernel 1 '_Z7prescanILb1ELb0EEvPfPKfS0_iii'
GPGPU-Sim uArch: core:  0, cta: 0 initialized @(1,0)
GPGPU-Sim uArch: core:  1, cta: 1 initialized @(2,0)
GPGPU-Sim uArch: core:  2, cta: 1 initialized @(2,0)
GPGPU-Sim uArch: core:  3, cta: 1 initialized @(2,0)
GPGPU-Sim uArch: core:  4, cta: 1 initialized @(2,0)
GPGPU-Sim uArch: core:  5, cta: 1 initialized @(2,0)
GPGPU-Sim uArch: core:  6, cta: 1 initialized @(2,0)
GPGPU-Sim uArch: core:  7, cta: 1 initialized @(2,0)
GPGPU-Sim uArch: core:  8, cta: 1 initialized @(2,0)
GPGPU-Sim uArch: core:  9, cta: 1 initialized @(2,0)
GPGPU-Sim uArch: core: 10, cta: 1 initialized @(2,0)
GPGPU-Sim uArch: core: 11, cta: 1 initialized @(2,0)
GPGPU-Sim uArch: core: 12, cta: 1 initialized @(2,0)
GPGPU-Sim uArch: core: 13, cta: 1 initialized @(2,0)
GPGPU-Sim uArch: core: 14, cta: 1 initialized @(2,0)
GPGPU-Sim uArch: core:  0, cta: 1 initialized @(2,0)
GPGPU-Sim uArch: core:  1, cta: 2 initialized @(3,0)
GPGPU-Sim uArch: core:  2, cta: 2 initialized @(3,0)
GPGPU-Sim uArch: core:  3, cta: 2 initialized @(3,0)
GPGPU-Sim uArch: core:  4, cta: 2 initialized @(3,0)
GPGPU-Sim uArch: core:  5, cta: 2 initialized @(3,0)
GPGPU-Sim uArch: core:  6, cta: 2 initialized @(3,0)
GPGPU-Sim uArch: core:  7, cta: 2 initialized @(3,0)
GPGPU-Sim uArch: core:  8, cta: 2 initialized @(3,0)
GPGPU-Sim uArch: core:  9, cta: 2 initialized @(3,0)
GPGPU-Sim uArch: core: 10, cta: 2 initialized @(3,0)
GPGPU-Sim uArch: core: 11, cta: 2 initialized @(3,0)
GPGPU-Sim uArch: core: 12, cta: 2 initialized @(3,0)
GPGPU-Sim uArch: core: 13, cta: 2 initialized @(3,0)
GPGPU-Sim uArch: core: 14, cta: 2 initialized @(3,0)
GPGPU-Sim uArch: core:  0, cta: 2 initialized @(3,0)
GPGPU-Sim uArch: core:  1, cta: 3 initialized @(4,0)
GPGPU-Sim uArch: core:  2, cta: 3 initialized @(4,0)
GPGPU-Sim uArch: core:  3, cta: 3 initialized @(4,0)
GPGPU-Sim uArch: core:  4, cta: 3 initialized @(4,0)
GPGPU-Sim uArch: core:  5, cta: 3 initialized @(4,0)
GPGPU-Sim uArch: core:  6, cta: 3 initialized @(4,0)
GPGPU-Sim uArch: core:  7, cta: 3 initialized @(4,0)
GPGPU-Sim uArch: core:  8, cta: 3 initialized @(4,0)
GPGPU-Sim uArch: core:  9, cta: 3 initialized @(4,0)
GPGPU-Sim uArch: core: 10, cta: 3 initialized @(4,0)
GPGPU-Sim uArch: core: 11, cta: 3 initialized @(4,0)
GPGPU-Sim uArch: core: 12, cta: 3 initialized @(4,0)
GPGPU-Sim uArch: core: 13, cta: 3 initialized @(4,0)
GPGPU-Sim uArch: core: 14, cta: 3 initialized @(4,0)
GPGPU-Sim uArch: core:  0, cta: 3 initialized @(4,0)
GPGPU-Sim uArch: core:  1, cta: 4 initialized @(5,0)
GPGPU-Sim uArch: core:  2, cta: 4 initialized @(5,0)
GPGPU-Sim uArch: core:  3, cta: 4 initialized @(5,0)
GPGPU-Sim uArch: core:  4, cta: 4 initialized @(5,0)
GPGPU-Sim uArch: core:  5, cta: 4 initialized @(5,0)
GPGPU-Sim uArch: core:  6, cta: 4 initialized @(5,0)
GPGPU-Sim uArch: core:  7, cta: 4 initialized @(5,0)
GPGPU-Sim uArch: core:  8, cta: 4 initialized @(5,0)
GPGPU-Sim uArch: core:  9, cta: 4 initialized @(5,0)
GPGPU-Sim uArch: core: 10, cta: 4 initialized @(5,0)
GPGPU-Sim uArch: core: 11, cta: 4 initialized @(5,0)
GPGPU-Sim uArch: core: 12, cta: 4 initialized @(5,0)
GPGPU-Sim uArch: core: 13, cta: 4 initialized @(5,0)
GPGPU-Sim uArch: core: 14, cta: 4 initialized @(5,0)
GPGPU-Sim uArch: core:  0, cta: 4 initialized @(5,0)
GPGPU-Sim uArch: core:  1, cta: 5 initialized @(6,0)
GPGPU-Sim uArch: core:  2, cta: 5 initialized @(6,0)
GPGPU-Sim uArch: core:  3, cta: 5 initialized @(6,0)
GPGPU-Sim uArch: core:  4, cta: 5 initialized @(6,0)
GPGPU-Sim uArch: core:  5, cta: 5 initialized @(6,0)
GPGPU-Sim uArch: core:  6, cta: 5 initialized @(6,0)
GPGPU-Sim uArch: core:  7, cta: 5 initialized @(6,0)
GPGPU-Sim uArch: core:  8, cta: 5 initialized @(6,0)
GPGPU-Sim uArch: core:  9, cta: 5 initialized @(6,0)
GPGPU-Sim uArch: core: 10, cta: 5 initialized @(6,0)
GPGPU-Sim uArch: core: 11, cta: 5 initialized @(6,0)
GPGPU-Sim uArch: core: 12, cta: 5 initialized @(6,0)
GPGPU-Sim uArch: core: 13, cta: 5 initialized @(6,0)
GPGPU-Sim uArch: core: 14, cta: 5 initialized @(6,0)
GPGPU-Sim uArch: core:  0, cta: 5 initialized @(6,0)
GPGPU-Sim uArch: cycles simulated: 500  inst.: 23040 (ipc=46.1) sim_rate=3840 (inst/sec) elapsed = 0:0:00:06 / Tue Mar 22 07:36:54 2016
GPGPU-Sim PTX: 100000 instructions simulated : ctaid=(29,0,0) tid=(95,0,0)
GPGPU-Sim PTX: 200000 instructions simulated : ctaid=(63,0,0) tid=(95,0,0)
GPGPU-Sim PTX: 300000 instructions simulated : ctaid=(75,0,0) tid=(63,0,0)
GPGPU-Sim uArch: cycles simulated: 1000  inst.: 346432 (ipc=346.4) sim_rate=49490 (inst/sec) elapsed = 0:0:00:07 / Tue Mar 22 07:36:55 2016
GPGPU-Sim PTX: 400000 instructions simulated : ctaid=(4,0,0) tid=(127,0,0)
GPGPU-Sim PTX: 500000 instructions simulated : ctaid=(28,0,0) tid=(31,0,0)
GPGPU-Sim uArch: cycles simulated: 1500  inst.: 483520 (ipc=322.3) sim_rate=32234 (inst/sec) elapsed = 0:0:00:15 / Tue Mar 22 07:37:03 2016
GPGPU-Sim PTX: 600000 instructions simulated : ctaid=(21,0,0) tid=(159,0,0)
GPGPU-Sim uArch: cycles simulated: 2000  inst.: 640416 (ipc=320.2) sim_rate=40026 (inst/sec) elapsed = 0:0:00:16 / Tue Mar 22 07:37:04 2016
GPGPU-Sim PTX: 700000 instructions simulated : ctaid=(68,0,0) tid=(159,0,0)
GPGPU-Sim PTX: 800000 instructions simulated : ctaid=(80,0,0) tid=(255,0,0)
GPGPU-Sim uArch: cycles simulated: 2500  inst.: 809088 (ipc=323.6) sim_rate=47593 (inst/sec) elapsed = 0:0:00:17 / Tue Mar 22 07:37:05 2016
GPGPU-Sim PTX: 900000 instructions simulated : ctaid=(77,0,0) tid=(191,0,0)
GPGPU-Sim PTX: 1000000 instructions simulated : ctaid=(26,0,0) tid=(159,0,0)
GPGPU-Sim PTX: 1100000 instructions simulated : ctaid=(21,0,0) tid=(31,0,0)
GPGPU-Sim PTX: 1200000 instructions simulated : ctaid=(76,0,0) tid=(31,0,0)
GPGPU-Sim PTX: 1300000 instructions simulated : ctaid=(79,0,0) tid=(63,0,0)
GPGPU-Sim PTX: 1400000 instructions simulated : ctaid=(20,0,0) tid=(223,0,0)
GPGPU-Sim PTX: 1500000 instructions simulated : ctaid=(14,0,0) tid=(63,0,0)
GPGPU-Sim uArch: cycles simulated: 3500  inst.: 1492608 (ipc=426.5) sim_rate=82922 (inst/sec) elapsed = 0:0:00:18 / Tue Mar 22 07:37:06 2016
GPGPU-Sim PTX: 1600000 instructions simulated : ctaid=(67,0,0) tid=(159,0,0)
GPGPU-Sim PTX: 1700000 instructions simulated : ctaid=(55,0,0) tid=(255,0,0)
GPGPU-Sim PTX: 1800000 instructions simulated : ctaid=(23,0,0) tid=(31,0,0)
GPGPU-Sim PTX: 1900000 instructions simulated : ctaid=(21,0,0) tid=(255,0,0)
GPGPU-Sim PTX: 2000000 instructions simulated : ctaid=(63,0,0) tid=(191,0,0)
GPGPU-Sim uArch: cycles simulated: 4000  inst.: 1920192 (ipc=480.0) sim_rate=101062 (inst/sec) elapsed = 0:0:00:19 / Tue Mar 22 07:37:07 2016
GPGPU-Sim PTX: 2100000 instructions simulated : ctaid=(12,0,0) tid=(63,0,0)
GPGPU-Sim PTX: 2200000 instructions simulated : ctaid=(84,0,0) tid=(63,0,0)
GPGPU-Sim PTX: 2300000 instructions simulated : ctaid=(32,0,0) tid=(255,0,0)
GPGPU-Sim PTX: 2400000 instructions simulated : ctaid=(3,0,0) tid=(111,0,0)
GPGPU-Sim uArch: cycles simulated: 4500  inst.: 2328560 (ipc=517.5) sim_rate=116428 (inst/sec) elapsed = 0:0:00:20 / Tue Mar 22 07:37:08 2016
GPGPU-Sim PTX: 2500000 instructions simulated : ctaid=(58,0,0) tid=(63,0,0)
GPGPU-Sim PTX: 2600000 instructions simulated : ctaid=(31,0,0) tid=(255,0,0)
GPGPU-Sim PTX: 2700000 instructions simulated : ctaid=(20,0,0) tid=(215,0,0)
GPGPU-Sim uArch: cycles simulated: 5000  inst.: 2690728 (ipc=538.1) sim_rate=128129 (inst/sec) elapsed = 0:0:00:21 / Tue Mar 22 07:37:09 2016
GPGPU-Sim PTX: 2800000 instructions simulated : ctaid=(52,0,0) tid=(71,0,0)
GPGPU-Sim PTX: 2900000 instructions simulated : ctaid=(66,0,0) tid=(151,0,0)
GPGPU-Sim PTX: 3000000 instructions simulated : ctaid=(81,0,0) tid=(33,0,0)
GPGPU-Sim uArch: cycles simulated: 5500  inst.: 3001047 (ipc=545.6) sim_rate=136411 (inst/sec) elapsed = 0:0:00:22 / Tue Mar 22 07:37:10 2016
GPGPU-Sim PTX: 3100000 instructions simulated : ctaid=(9,0,0) tid=(171,0,0)
GPGPU-Sim PTX: 3200000 instructions simulated : ctaid=(61,0,0) tid=(209,0,0)
GPGPU-Sim PTX: 3300000 instructions simulated : ctaid=(4,0,0) tid=(148,0,0)
GPGPU-Sim PTX: 3400000 instructions simulated : ctaid=(48,0,0) tid=(30,0,0)
GPGPU-Sim PTX: 3500000 instructions simulated : ctaid=(86,0,0) tid=(127,0,0)
GPGPU-Sim PTX: 3600000 instructions simulated : ctaid=(71,0,0) tid=(118,0,0)
GPGPU-Sim uArch: cycles simulated: 6500  inst.: 3538814 (ipc=544.4) sim_rate=153861 (inst/sec) elapsed = 0:0:00:23 / Tue Mar 22 07:37:11 2016
GPGPU-Sim PTX: 3700000 instructions simulated : ctaid=(54,0,0) tid=(133,0,0)
GPGPU-Sim PTX: 3800000 instructions simulated : ctaid=(16,0,0) tid=(43,0,0)
GPGPU-Sim PTX: 3900000 instructions simulated : ctaid=(75,0,0) tid=(190,0,0)
GPGPU-Sim uArch: cycles simulated: 7000  inst.: 3783584 (ipc=540.5) sim_rate=157649 (inst/sec) elapsed = 0:0:00:24 / Tue Mar 22 07:37:12 2016
GPGPU-Sim PTX: 4000000 instructions simulated : ctaid=(34,0,0) tid=(213,0,0)
GPGPU-Sim PTX: 4100000 instructions simulated : ctaid=(9,0,0) tid=(195,0,0)
GPGPU-Sim PTX: 4200000 instructions simulated : ctaid=(82,0,0) tid=(238,0,0)
GPGPU-Sim PTX: 4300000 instructions simulated : ctaid=(41,0,0) tid=(121,0,0)
GPGPU-Sim PTX: 4400000 instructions simulated : ctaid=(27,0,0) tid=(77,0,0)
GPGPU-Sim uArch: cycles simulated: 8000  inst.: 4320701 (ipc=540.1) sim_rate=172828 (inst/sec) elapsed = 0:0:00:25 / Tue Mar 22 07:37:13 2016
GPGPU-Sim PTX: 4500000 instructions simulated : ctaid=(61,0,0) tid=(135,0,0)
GPGPU-Sim PTX: 4600000 instructions simulated : ctaid=(8,0,0) tid=(62,0,0)
GPGPU-Sim PTX: 4700000 instructions simulated : ctaid=(75,0,0) tid=(35,0,0)
GPGPU-Sim PTX: 4800000 instructions simulated : ctaid=(5,0,0) tid=(46,0,0)
GPGPU-Sim uArch: cycles simulated: 8500  inst.: 4658218 (ipc=548.0) sim_rate=179162 (inst/sec) elapsed = 0:0:00:26 / Tue Mar 22 07:37:14 2016
GPGPU-Sim PTX: 4900000 instructions simulated : ctaid=(19,0,0) tid=(47,0,0)
GPGPU-Sim PTX: 5000000 instructions simulated : ctaid=(11,0,0) tid=(244,0,0)
GPGPU-Sim PTX: 5100000 instructions simulated : ctaid=(31,0,0) tid=(10,0,0)
GPGPU-Sim PTX: 5200000 instructions simulated : ctaid=(25,0,0) tid=(95,0,0)
GPGPU-Sim uArch: cycles simulated: 9000  inst.: 5046008 (ipc=560.7) sim_rate=186889 (inst/sec) elapsed = 0:0:00:27 / Tue Mar 22 07:37:15 2016
GPGPU-Sim PTX: 5300000 instructions simulated : ctaid=(51,0,0) tid=(224,0,0)
GPGPU-Sim PTX: 5400000 instructions simulated : ctaid=(26,0,0) tid=(194,0,0)
GPGPU-Sim PTX: 5500000 instructions simulated : ctaid=(34,0,0) tid=(97,0,0)
GPGPU-Sim uArch: Shader 4 finished CTA #0 (9372,0), 5 CTAs running
GPGPU-Sim uArch: core:  4, cta: 0 initialized @(9373,0)
GPGPU-Sim uArch: Shader 7 finished CTA #0 (9427,0), 5 CTAs running
GPGPU-Sim uArch: core:  7, cta: 0 initialized @(9428,0)
GPGPU-Sim PTX: 5600000 instructions simulated : ctaid=(32,0,0) tid=(115,0,0)
GPGPU-Sim uArch: cycles simulated: 9500  inst.: 5445010 (ipc=573.2) sim_rate=194464 (inst/sec) elapsed = 0:0:00:28 / Tue Mar 22 07:37:16 2016
GPGPU-Sim uArch: Shader 8 finished CTA #0 (9526,0), 5 CTAs running
GPGPU-Sim uArch: core:  8, cta: 0 initialized @(9527,0)
GPGPU-Sim PTX: 5700000 instructions simulated : ctaid=(55,0,0) tid=(14,0,0)
GPGPU-Sim uArch: Shader 3 finished CTA #0 (9652,0), 5 CTAs running
GPGPU-Sim uArch: core:  3, cta: 0 initialized @(9653,0)
GPGPU-Sim PTX: 5800000 instructions simulated : ctaid=(52,0,0) tid=(173,0,0)
GPGPU-Sim uArch: Shader 5 finished CTA #1 (9810,0), 5 CTAs running
GPGPU-Sim uArch: core:  5, cta: 1 initialized @(9811,0)
GPGPU-Sim uArch: Shader 4 finished CTA #1 (9822,0), 5 CTAs running
GPGPU-Sim uArch: core:  4, cta: 1 initialized @(9823,0)
GPGPU-Sim uArch: Shader 9 finished CTA #0 (9874,0), 5 CTAs running
GPGPU-Sim uArch: core:  9, cta: 0 initialized @(9875,0)
GPGPU-Sim uArch: Shader 10 finished CTA #0 (9908,0), 5 CTAs running
GPGPU-Sim uArch: core: 10, cta: 0 initialized @(9909,0)
GPGPU-Sim PTX: 5900000 instructions simulated : ctaid=(60,0,0) tid=(61,0,0)
GPGPU-Sim uArch: Shader 11 finished CTA #0 (9939,0), 5 CTAs running
GPGPU-Sim uArch: core: 11, cta: 0 initialized @(9940,0)
GPGPU-Sim uArch: Shader 6 finished CTA #0 (9968,0), 5 CTAs running
GPGPU-Sim uArch: core:  6, cta: 0 initialized @(9969,0)
GPGPU-Sim uArch: cycles simulated: 10000  inst.: 5722293 (ipc=572.2) sim_rate=197320 (inst/sec) elapsed = 0:0:00:29 / Tue Mar 22 07:37:17 2016
GPGPU-Sim uArch: Shader 5 finished CTA #0 (10051,0), 5 CTAs running
GPGPU-Sim uArch: core:  5, cta: 0 initialized @(10052,0)
GPGPU-Sim uArch: Shader 0 finished CTA #0 (10061,0), 5 CTAs running
GPGPU-Sim uArch: core:  0, cta: 0 initialized @(10062,0)
GPGPU-Sim uArch: Shader 7 finished CTA #1 (10095,0), 5 CTAs running
GPGPU-Sim uArch: core:  7, cta: 1 initialized @(10096,0)
GPGPU-Sim uArch: Shader 1 finished CTA #0 (10097,0), 5 CTAs running
GPGPU-Sim uArch: core:  1, cta: 0 initialized @(10098,0)
GPGPU-Sim uArch: Shader 9 finished CTA #1 (10136,0), 5 CTAs running
GPGPU-Sim uArch: core:  9, cta: 1 initialized @(10137,0)
GPGPU-Sim uArch: Shader 1 finished CTA #1 (10193,0), 5 CTAs running
GPGPU-Sim uArch: core:  1, cta: 1 initialized @(10194,0)
GPGPU-Sim uArch: Shader 2 finished CTA #0 (10205,0), 5 CTAs running
GPGPU-Sim uArch: core:  2, cta: 0 initialized @(10206,0)
GPGPU-Sim PTX: 6000000 instructions simulated : ctaid=(102,0,0) tid=(101,0,0)
GPGPU-Sim uArch: Shader 14 finished CTA #0 (10283,0), 5 CTAs running
GPGPU-Sim uArch: core: 14, cta: 0 initialized @(10284,0)
GPGPU-Sim uArch: Shader 10 finished CTA #1 (10333,0), 5 CTAs running
GPGPU-Sim uArch: core: 10, cta: 1 initialized @(10334,0)
GPGPU-Sim uArch: Shader 12 finished CTA #0 (10347,0), 5 CTAs running
GPGPU-Sim uArch: core: 12, cta: 0 initialized @(10348,0)
GPGPU-Sim uArch: Shader 13 finished CTA #0 (10365,0), 5 CTAs running
GPGPU-Sim uArch: core: 13, cta: 0 initialized @(10366,0)
GPGPU-Sim uArch: Shader 8 finished CTA #1 (10379,0), 5 CTAs running
GPGPU-Sim uArch: core:  8, cta: 1 initialized @(10380,0)
GPGPU-Sim PTX: 6100000 instructions simulated : ctaid=(105,0,0) tid=(193,0,0)
GPGPU-Sim uArch: Shader 2 finished CTA #1 (10429,0), 5 CTAs running
GPGPU-Sim uArch: core:  2, cta: 1 initialized @(10430,0)
GPGPU-Sim uArch: Shader 3 finished CTA #1 (10432,0), 5 CTAs running
GPGPU-Sim uArch: core:  3, cta: 1 initialized @(10433,0)
GPGPU-Sim uArch: Shader 7 finished CTA #2 (10462,0), 5 CTAs running
GPGPU-Sim uArch: core:  7, cta: 2 initialized @(10463,0)
GPGPU-Sim uArch: Shader 6 finished CTA #1 (10472,0), 5 CTAs running
GPGPU-Sim uArch: core:  6, cta: 1 initialized @(10473,0)
GPGPU-Sim uArch: cycles simulated: 10500  inst.: 5959028 (ipc=567.5) sim_rate=198634 (inst/sec) elapsed = 0:0:00:30 / Tue Mar 22 07:37:18 2016
GPGPU-Sim uArch: Shader 13 finished CTA #1 (10536,0), 5 CTAs running
GPGPU-Sim uArch: core: 13, cta: 1 initialized @(10537,0)
GPGPU-Sim uArch: Shader 0 finished CTA #1 (10554,0), 5 CTAs running
GPGPU-Sim uArch: core:  0, cta: 1 initialized @(10555,0)
GPGPU-Sim uArch: Shader 4 finished CTA #2 (10565,0), 5 CTAs running
GPGPU-Sim PTX: 6200000 instructions simulated : ctaid=(111,0,0) tid=(197,0,0)
GPGPU-Sim uArch: core:  4, cta: 2 initialized @(10566,0)
GPGPU-Sim uArch: Shader 5 finished CTA #2 (10659,0), 5 CTAs running
GPGPU-Sim uArch: core:  5, cta: 2 initialized @(10660,0)
GPGPU-Sim uArch: Shader 9 finished CTA #2 (10725,0), 5 CTAs running
GPGPU-Sim uArch: core:  9, cta: 2 initialized @(10726,0)
GPGPU-Sim uArch: Shader 11 finished CTA #1 (10742,0), 5 CTAs running
GPGPU-Sim uArch: core: 11, cta: 1 initialized @(10743,0)
GPGPU-Sim uArch: Shader 14 finished CTA #1 (10772,0), 5 CTAs running
GPGPU-Sim uArch: core: 14, cta: 1 initialized @(10773,0)
GPGPU-Sim PTX: 6300000 instructions simulated : ctaid=(75,0,0) tid=(135,0,0)
GPGPU-Sim uArch: Shader 8 finished CTA #2 (10881,0), 5 CTAs running
GPGPU-Sim uArch: core:  8, cta: 2 initialized @(10882,0)
GPGPU-Sim uArch: Shader 12 finished CTA #1 (10923,0), 5 CTAs running
GPGPU-Sim uArch: core: 12, cta: 1 initialized @(10924,0)
GPGPU-Sim uArch: Shader 1 finished CTA #2 (10932,0), 5 CTAs running
GPGPU-Sim uArch: core:  1, cta: 2 initialized @(10933,0)
GPGPU-Sim uArch: Shader 3 finished CTA #2 (10981,0), 5 CTAs running
GPGPU-Sim uArch: core:  3, cta: 2 initialized @(10982,0)
GPGPU-Sim uArch: Shader 2 finished CTA #2 (10991,0), 5 CTAs running
GPGPU-Sim uArch: core:  2, cta: 2 initialized @(10992,0)
GPGPU-Sim uArch: Shader 5 finished CTA #3 (11000,0), 5 CTAs running
GPGPU-Sim uArch: core:  5, cta: 3 initialized @(11001,0)
GPGPU-Sim PTX: 6400000 instructions simulated : ctaid=(126,0,0) tid=(87,0,0)
GPGPU-Sim uArch: Shader 10 finished CTA #2 (11072,0), 5 CTAs running
GPGPU-Sim uArch: core: 10, cta: 2 initialized @(11073,0)
GPGPU-Sim uArch: Shader 11 finished CTA #2 (11078,0), 5 CTAs running
GPGPU-Sim uArch: core: 11, cta: 2 initialized @(11079,0)
GPGPU-Sim uArch: Shader 13 finished CTA #2 (11165,0), 5 CTAs running
GPGPU-Sim uArch: core: 13, cta: 2 initialized @(11166,0)
GPGPU-Sim uArch: Shader 6 finished CTA #2 (11209,0), 5 CTAs running
GPGPU-Sim uArch: core:  6, cta: 2 initialized @(11210,0)
GPGPU-Sim uArch: Shader 8 finished CTA #3 (11235,0), 5 CTAs running
GPGPU-Sim uArch: core:  8, cta: 3 initialized @(11236,0)
GPGPU-Sim uArch: Shader 9 finished CTA #3 (11252,0), 5 CTAs running
GPGPU-Sim uArch: core:  9, cta: 3 initialized @(11253,0)
GPGPU-Sim PTX: 6500000 instructions simulated : ctaid=(129,0,0) tid=(95,0,0)
GPGPU-Sim uArch: Shader 0 finished CTA #2 (11349,0), 5 CTAs running
GPGPU-Sim uArch: core:  0, cta: 2 initialized @(11350,0)
GPGPU-Sim uArch: Shader 4 finished CTA #3 (11354,0), 5 CTAs running
GPGPU-Sim uArch: core:  4, cta: 3 initialized @(11355,0)
GPGPU-Sim uArch: Shader 1 finished CTA #3 (11394,0), 5 CTAs running
GPGPU-Sim uArch: core:  1, cta: 3 initialized @(11395,0)
GPGPU-Sim uArch: Shader 14 finished CTA #2 (11420,0), 5 CTAs running
GPGPU-Sim uArch: core: 14, cta: 2 initialized @(11421,0)
GPGPU-Sim uArch: Shader 11 finished CTA #3 (11428,0), 5 CTAs running
GPGPU-Sim uArch: core: 11, cta: 3 initialized @(11429,0)
GPGPU-Sim uArch: Shader 2 finished CTA #3 (11429,0), 5 CTAs running
GPGPU-Sim uArch: core:  2, cta: 3 initialized @(11430,0)
GPGPU-Sim uArch: Shader 12 finished CTA #2 (11454,0), 5 CTAs running
GPGPU-Sim uArch: core: 12, cta: 2 initialized @(11455,0)
GPGPU-Sim PTX: 6600000 instructions simulated : ctaid=(79,0,0) tid=(159,0,0)
GPGPU-Sim uArch: cycles simulated: 11500  inst.: 6384618 (ipc=555.2) sim_rate=205955 (inst/sec) elapsed = 0:0:00:31 / Tue Mar 22 07:37:19 2016
GPGPU-Sim uArch: Shader 3 finished CTA #3 (11554,0), 5 CTAs running
GPGPU-Sim uArch: core:  3, cta: 3 initialized @(11555,0)
GPGPU-Sim uArch: Shader 6 finished CTA #3 (11592,0), 5 CTAs running
GPGPU-Sim uArch: core:  6, cta: 3 initialized @(11593,0)
GPGPU-Sim uArch: Shader 10 finished CTA #3 (11625,0), 5 CTAs running
GPGPU-Sim uArch: core: 10, cta: 3 initialized @(11626,0)
GPGPU-Sim PTX: 6700000 instructions simulated : ctaid=(76,0,0) tid=(79,0,0)
GPGPU-Sim uArch: Shader 7 finished CTA #3 (11751,0), 5 CTAs running
GPGPU-Sim uArch: core:  7, cta: 3 initialized @(11752,0)
GPGPU-Sim uArch: Shader 13 finished CTA #3 (11791,0), 5 CTAs running
GPGPU-Sim uArch: core: 13, cta: 3 initialized @(11792,0)
GPGPU-Sim uArch: Shader 14 finished CTA #3 (11805,0), 5 CTAs running
GPGPU-Sim uArch: core: 14, cta: 3 initialized @(11806,0)
GPGPU-Sim uArch: Shader 5 finished CTA #4 (11835,0), 5 CTAs running
GPGPU-Sim uArch: core:  5, cta: 4 initialized @(11836,0)
GPGPU-Sim PTX: 6800000 instructions simulated : ctaid=(81,0,0) tid=(15,0,0)
GPGPU-Sim uArch: Shader 12 finished CTA #3 (11976,0), 5 CTAs running
GPGPU-Sim uArch: core: 12, cta: 3 initialized @(11977,0)
GPGPU-Sim uArch: Shader 1 finished CTA #4 (11993,0), 5 CTAs running
GPGPU-Sim uArch: core:  1, cta: 4 initialized @(11994,0)
GPGPU-Sim uArch: cycles simulated: 12000  inst.: 6628458 (ipc=552.4) sim_rate=207139 (inst/sec) elapsed = 0:0:00:32 / Tue Mar 22 07:37:20 2016
GPGPU-Sim uArch: Shader 0 finished CTA #3 (12016,0), 5 CTAs running
GPGPU-Sim uArch: core:  0, cta: 3 initialized @(12017,0)
GPGPU-Sim PTX: 6900000 instructions simulated : ctaid=(84,0,0) tid=(143,0,0)
GPGPU-Sim uArch: Shader 11 finished CTA #4 (12094,0), 5 CTAs running
GPGPU-Sim uArch: core: 11, cta: 4 initialized @(12095,0)
GPGPU-Sim uArch: Shader 2 finished CTA #4 (12120,0), 5 CTAs running
GPGPU-Sim uArch: core:  2, cta: 4 initialized @(12121,0)
GPGPU-Sim uArch: Shader 9 finished CTA #4 (12317,0), 5 CTAs running
GPGPU-Sim uArch: core:  9, cta: 4 initialized @(12318,0)
GPGPU-Sim PTX: 7000000 instructions simulated : ctaid=(127,0,0) tid=(239,0,0)
GPGPU-Sim uArch: Shader 3 finished CTA #4 (12359,0), 5 CTAs running
GPGPU-Sim uArch: core:  3, cta: 4 initialized @(12360,0)
GPGPU-Sim uArch: Shader 4 finished CTA #4 (12415,0), 5 CTAs running
GPGPU-Sim uArch: Shader 13 finished CTA #4 (12415,0), 5 CTAs running
GPGPU-Sim uArch: core:  4, cta: 4 initialized @(12416,0)
GPGPU-Sim uArch: core: 13, cta: 4 initialized @(12416,0)
GPGPU-Sim uArch: Shader 8 finished CTA #4 (12428,0), 5 CTAs running
GPGPU-Sim uArch: core:  8, cta: 4 initialized @(12429,0)
GPGPU-Sim uArch: Shader 14 finished CTA #4 (12490,0), 5 CTAs running
GPGPU-Sim uArch: core: 14, cta: 4 initialized @(12491,0)
GPGPU-Sim uArch: Shader 10 finished CTA #4 (12495,0), 5 CTAs running
GPGPU-Sim uArch: core: 10, cta: 4 initialized @(12496,0)
GPGPU-Sim uArch: cycles simulated: 12500  inst.: 6825418 (ipc=546.0) sim_rate=206830 (inst/sec) elapsed = 0:0:00:33 / Tue Mar 22 07:37:21 2016
GPGPU-Sim uArch: Shader 6 finished CTA #4 (12527,0), 5 CTAs running
GPGPU-Sim uArch: core:  6, cta: 4 initialized @(12528,0)
GPGPU-Sim PTX: 7100000 instructions simulated : ctaid=(120,0,0) tid=(47,0,0)
GPGPU-Sim uArch: Shader 7 finished CTA #4 (12599,0), 5 CTAs running
GPGPU-Sim uArch: core:  7, cta: 4 initialized @(12600,0)
GPGPU-Sim uArch: Shader 0 finished CTA #4 (12649,0), 5 CTAs running
GPGPU-Sim uArch: core:  0, cta: 4 initialized @(12650,0)
GPGPU-Sim uArch: Shader 12 finished CTA #4 (12661,0), 5 CTAs running
GPGPU-Sim uArch: core: 12, cta: 4 initialized @(12662,0)
GPGPU-Sim PTX: 7200000 instructions simulated : ctaid=(106,0,0) tid=(207,0,0)
GPGPU-Sim uArch: Shader 2 finished CTA #5 (12772,0), 5 CTAs running
GPGPU-Sim uArch: core:  2, cta: 5 initialized @(12773,0)
GPGPU-Sim uArch: Shader 4 finished CTA #5 (12783,0), 5 CTAs running
GPGPU-Sim uArch: core:  4, cta: 5 initialized @(12784,0)
GPGPU-Sim PTX: 7300000 instructions simulated : ctaid=(166,0,0) tid=(15,0,0)
GPGPU-Sim uArch: cycles simulated: 13000  inst.: 7077482 (ipc=544.4) sim_rate=202213 (inst/sec) elapsed = 0:0:00:35 / Tue Mar 22 07:37:23 2016
GPGPU-Sim uArch: Shader 1 finished CTA #5 (13009,0), 5 CTAs running
GPGPU-Sim uArch: core:  1, cta: 5 initialized @(13010,0)
[...]
gpgpu_stall_shd_mem[l_mem_st][mshr_rc] = 0
gpgpu_stall_shd_mem[l_mem_st][icnt_rc] = 0
gpgpu_stall_shd_mem[l_mem_ld][wb_icnt_rc] = 0
gpgpu_stall_shd_mem[l_mem_ld][wb_rsrv_fail] = 0
gpu_reg_bank_conflict_stalls = 0
Warp Occupancy Distribution:
Stall:255030	W0_Idle:114356	W0_Scoreboard:649761	W1:125056	W2:85976	W3:0	W4:85976	W5:0	W6:0	W7:0	W8:85976	W9:0	W10:0	W11:0	W12:0	W13:0	W14:0	W15:0	W16:85976	W17:0	W18:0	W19:0	W20:0	W21:0	W22:0	W23:0	W24:0	W25:0	W26:0	W27:0	W28:0	W29:0	W30:0	W31:0	W32:4335859
traffic_breakdown_coretomem[CONST_ACC_R] = 120 {8:15,}
traffic_breakdown_coretomem[GLOBAL_ACC_R] = 250000 {8:31250,}
traffic_breakdown_coretomem[GLOBAL_ACC_W] = 4328160 {40:1954,136:31250,}
traffic_breakdown_coretomem[INST_ACC_R] = 1280 {8:160,}
traffic_breakdown_memtocore[CONST_ACC_R] = 1080 {72:15,}
traffic_breakdown_memtocore[GLOBAL_ACC_R] = 4250000 {136:31250,}
traffic_breakdown_memtocore[GLOBAL_ACC_W] = 265632 {8:33204,}
traffic_breakdown_memtocore[INST_ACC_R] = 21760 {136:160,}
maxmrqlatency = 1144 
maxdqlatency = 0 
maxmflatency = 2400 
averagemflatency = 312 
max_icnt2mem_latency = 1000 
max_icnt2sh_latency = 200367 
mrq_lat_table:42531 	8383 	4403 	7343 	10660 	10183 	7417 	2729 	293 	64 	3 	0 	0 	0 	0 	0 	0 	0 	0 	0 	0 	0 	0 	0 	0 	0 	0 	0 	0 	0 	0 	0 	
dq_lat_table:0 	0 	0 	0 	0 	0 	0 	0 	0 	0 	0 	0 	0 	0 	0 	0 	0 	0 	0 	0 	0 	0 	0 	0 	0 	0 	0 	0 	0 	0 	0 	0 	
mf_lat_table:0 	0 	0 	0 	0 	0 	0 	3068 	58580 	1935 	877 	9 	0 	0 	0 	0 	0 	0 	0 	0 	0 	0 	0 	0 	0 	0 	0 	0 	0 	0 	0 	0 	
icnt2mem_lat_table:0 	0 	0 	30822 	13174 	17843 	1611 	549 	566 	64 	0 	0 	0 	0 	0 	0 	0 	0 	0 	0 	0 	0 	0 	0 	
icnt2sh_lat_table:0 	0 	0 	26216 	4293 	739 	17 	0 	0 	0 	0 	0 	75 	1479 	2902 	5792 	11577 	11379 	0 	0 	0 	0 	0 	0 	
mf_lat_pw_table:0 	0 	0 	0 	0 	0 	0 	21 	355 	4 	4 	0 	0 	0 	0 	0 	0 	0 	0 	0 	0 	0 	0 	0 	0 	0 	0 	0 	0 	0 	0 	0 	
maximum concurrent accesses to same row:
dram[0]:        64        64        64        64        64        64        64        64        64        64        64        64        64        64        64        64 
dram[1]:        64        64        64        64        64        64        64        64        64        64        64        64        64        64        64        64 
dram[2]:        64        64        64        64        64        64        64        64        64        64        64        64        64        64        64        64 
dram[3]:        64        64        64        64        64        64        64        64        64        64        64        64        64        64        64        64 
dram[4]:        64        64        64        64        64        64        64        64        64        64        64        64        64        64        64        64 
dram[5]:        64        64        64        64        64        64        64        64        64        64        64        64        64        64        64        64 
maximum service time to same row:
dram[0]:     13929     14412     14159     14293     14663     14986     18734     18705     14162     14259     13852     17544     14594     14733     14159     14222 
dram[1]:     14066     14453     14204     14301     14035     14514     18619     18658     14204     14309     17483     17544     14639     14703     14084     14222 
dram[2]:     14134     14224     14240     14205     14032     14513     18673     18574     14274     17719     14252     17562     14716     14544     15334     14029 
dram[3]:     14155     14109     14338     14202     14105     14684     18745     18630     14314     18061     14281     17298     14475     14790     14247     14080 
dram[4]:     14381     14163     14221     14203     15049     14055     18707     18676     14115     18054     14257     17298     14705     14887     14125     14077 
dram[5]:     14372     14269     14284     14234     14943     14608     18616     18641     14241     18059     17537     14052     14799     14743     15449     14072 
average row accesses per activate:
dram[0]: 45.857143 45.809525 48.000000 48.000000 42.173912 38.799999 47.238094 47.238094 46.454544 46.454544 38.961540 40.279999 41.739132 35.555557 30.000000 34.285713 
dram[1]: 45.809525 45.809525 48.000000 48.000000 42.173912 38.799999 47.238094 47.238094 46.454544 46.454544 25.200001 28.571428 41.739132 33.103447 36.923077 36.923077 
dram[2]: 45.809525 45.809525 48.000000 48.000000 42.173912 42.260868 47.238094 47.238094 46.454544 46.454544 27.378378 30.333334 45.714287 35.555557 34.285713 34.285713 
dram[3]: 48.000000 45.809525 48.000000 48.000000 42.173912 42.260868 47.238094 47.238094 46.454544 48.761906 40.480000 40.040001 45.714287 41.739132 34.285713 34.285713 
dram[4]: 48.000000 45.809525 48.000000 48.000000 46.190475 38.880001 47.238094 47.238094 46.454544 48.761906 29.617647 24.047619 38.400002 41.739132 30.000000 34.285713 
dram[5]: 45.809525 45.809525 48.000000 48.000000 42.173912 42.260868 47.238094 47.238094 46.454544 48.761906 30.424242 28.857143 41.739132 41.739132 36.923077 32.000000 
average row locality = 94009/2301 = 40.855717
number of total memory accesses made:
dram[0]:         0         0         0         0         0         0         0         0         0         0         0         0         0         0         0         0 
dram[1]:         0         0         0         0         0         0         0         0         0         0         0         0         0         0         0         0 
dram[2]:         0         0         0         0         0         0         0         0         0         0         0         0         0         0         0         0 
dram[3]:         0         0         0         0         0         0         0         0         0         0         0         0         0         0         0         0 
dram[4]:         0         0         0         0         0         0         0         0         0         0         0         0         0         0         0         0 
dram[5]:         0         0         0         0         0         0         0         0         0         0         0         0         0         0         0         0 
total accesses: 0
min_bank_accesses = 0!
min_chip_accesses = 0!
number of total read accesses:
dram[0]:       643       642       640       640       650       650       672       672       672       672       660       658       640       640       640       640 
dram[1]:       642       642       640       640       650       650       672       672       672       672       660       658       640       640       640       640 
dram[2]:       642       642       640       640       650       652       672       672       672       672       660       658       640       640       640       640 
dram[3]:       640       642       640       640       650       652       672       672       672       672       660       658       640       640       640       640 
dram[4]:       640       642       640       640       650       652       672       672       672       672       660       658       640       640       640       640 
dram[5]:       642       642       640       640       650       652       672       672       672       672       658       658       640       640       640       640 
total reads: 62583
bank skew: 672/640 = 1.05
chip skew: 10432/10430 = 1.00
number of total write accesses:
dram[0]:       320       320       320       320       320       320       320       320       350       350       353       349       320       320       320       320 
dram[1]:       320       320       320       320       320       320       320       320       350       350       348       342       320       320       320       320 
dram[2]:       320       320       320       320       320       320       320       320       350       350       353       343       320       320       320       320 
dram[3]:       320       320       320       320       320       320       320       320       350       352       352       343       320       320       320       320 
dram[4]:       320       320       320       320       320       320       320       320       350       352       347       352       320       320       320       320 
dram[5]:       320       320       320       320       320       320       320       320       350       352       346       352       320       320       320       320 
total reads: 31426
bank skew: 353/320 = 1.10
chip skew: 5242/5230 = 1.00
average mf latency per bank:
dram[0]:        210       203       205       199       196       195       202       201       204       199       247       235       241       232       232       230
dram[1]:        203       205       198       199       191       196       197       202       196       202       241       238       237       233       227       230
dram[2]:        205       211       200       203       193       199       199       206       198       204       241       240       235       242       226       235
dram[3]:        212       200       202       200       198       192       201       198       200       199       245       232       246       229       238       221
dram[4]:        207       199       201       201       197       195       203       199       202       202       244       246       244       232       232       223
dram[5]:        201       206       197       206       192       196       198       201       198       203       232       245       235       237       226       233
maximum mf latency per bank:
dram[0]:       1144       940       883       889       500       711       569       626       957       979      1472      1571      1854      1779      1274      1477
dram[1]:       1126       959       775       788       849       844       604       574       982       986      1405      1555      2062      1563      1359      1372
dram[2]:       1004      1062       818       876       849       746       590       648       919       973      1413      1561      2041      1790      1335      1486
dram[3]:       1120       900       786       749       822       534       594       597       915      1059      1646      1426      2322      1481      1424      1321
dram[4]:       1016       852       776       771       681       858       533       583       938      1044      1492      1335      2400      1861      1272      1306
dram[5]:        997       939       812       873       711       488       592       569       956      1029      1586      1482      2023      1477      1397      1392

Number of Memory Banks Accessed per Memory Operation per Warp (from 0):
0	0	0	0	0	0	0	0	0	0	0	0	0	0	0	0	0	0	0	0	0	0	0	0	0	0	0	0	0	0	0	0	0	0	0	0	0	0	0	0	0	0	0	0	0	0	0	0	0	0	0	0	0	0	0	0	0	0	0	0	0	0	0	0	0	0	0	0	0	0	0	0	0	0	0	0	0	0	0	0	0	0	0	0	0	0	0	0	0	0	0	0	0	0	0	0	
Average # of Memory Banks Accessed per Memory Operation per Warp=-nan

position of mrq chosen
0	0	0	0	0	0	0	0	0	0	0	0	0	0	0	0	

average position of mrq chosen = -nan
Memory Partition 0: 
Cache L2_bank_000:
MSHR contents

Cache L2_bank_001:
MSHR contents

In Dram Latency Queue (total = 0): 
DRAM[0]: 16 bks, busW=4 BL=8 CL=12, tRRD=2 tCCD=6, tRCD=12 tRAS=28 tRP=12 tRC=40
n_cmd=264492 n_nop=232430 n_act=378 n_pre=362 n_req=15673 n_rd=20862 n_write=10460 bw_util=0.2368
n_activity=173227 dram_eff=0.3616
bk0: 1286a 250226i bk1: 1284a 249597i bk2: 1280a 249180i bk3: 1280a 249019i bk4: 1300a 249633i bk5: 1300a 249271i bk6: 1344a 250154i bk7: 1344a 249211i bk8: 1344a 248348i bk9: 1344a 248157i bk10: 1320a 247966i bk11: 1316a 247579i bk12: 1280a 249615i bk13: 1280a 249293i bk14: 1280a 248880i bk15: 1280a 248740i 
dram_util_bins: 0 0 0 0 0 0 0 0 0 0
dram_eff_bins: 0 0 0 0 0 0 0 0 0 0
mrqq: max=16 avg=1.663
Memory Partition 1: 
Cache L2_bank_002:
MSHR contents

Cache L2_bank_003:
MSHR contents

In Dram Latency Queue (total = 0): 
DRAM[1]: 16 bks, busW=4 BL=8 CL=12, tRRD=2 tCCD=6, tRCD=12 tRAS=28 tRP=12 tRC=40
n_cmd=264492 n_nop=232412 n_act=395 n_pre=379 n_req=15660 n_rd=20860 n_write=10446 bw_util=0.2367
n_activity=173057 dram_eff=0.3618
bk0: 1284a 249921i bk1: 1284a 249088i bk2: 1280a 248836i bk3: 1280a 248440i bk4: 1300a 249615i bk5: 1300a 249232i bk6: 1344a 250021i bk7: 1344a 249295i bk8: 1344a 249034i bk9: 1344a 247955i bk10: 1320a 247525i bk11: 1316a 247501i bk12: 1280a 248792i bk13: 1280a 248844i bk14: 1280a 249254i bk15: 1280a 248759i 
dram_util_bins: 0 0 0 0 0 0 0 0 0 0
dram_eff_bins: 0 0 0 0 0 0 0 0 0 0
mrqq: max=16 avg=1.69405
Memory Partition 2: 
Cache L2_bank_004:
MSHR contents

Cache L2_bank_005:
MSHR contents

In Dram Latency Queue (total = 0): 
DRAM[2]: 16 bks, busW=4 BL=8 CL=12, tRRD=2 tCCD=6, tRCD=12 tRAS=28 tRP=12 tRC=40
n_cmd=264492 n_nop=232416 n_act=388 n_pre=372 n_req=15668 n_rd=20864 n_write=10452 bw_util=0.2368
n_activity=173035 dram_eff=0.362
bk0: 1284a 249598i bk1: 1284a 249248i bk2: 1280a 248838i bk3: 1280a 248401i bk4: 1300a 249745i bk5: 1304a 248946i bk6: 1344a 250182i bk7: 1344a 249367i bk8: 1344a 249207i bk9: 1344a 247637i bk10: 1320a 247727i bk11: 1316a 247605i bk12: 1280a 249364i bk13: 1280a 249138i bk14: 1280a 249529i bk15: 1280a 248874i 
dram_util_bins: 0 0 0 0 0 0 0 0 0 0
dram_eff_bins: 0 0 0 0 0 0 0 0 0 0
mrqq: max=16 avg=1.69714
Memory Partition 3: 
Cache L2_bank_006:
MSHR contents

Cache L2_bank_007:
MSHR contents

In Dram Latency Queue (total = 0): 
DRAM[3]: 16 bks, busW=4 BL=8 CL=12, tRRD=2 tCCD=6, tRCD=12 tRAS=28 tRP=12 tRC=40
n_cmd=264492 n_nop=232469 n_act=362 n_pre=346 n_req=15667 n_rd=20860 n_write=10455 bw_util=0.2368
n_activity=172639 dram_eff=0.3628
bk0: 1280a 249602i bk1: 1284a 249464i bk2: 1280a 248888i bk3: 1280a 248232i bk4: 1300a 249141i bk5: 1304a 248911i bk6: 1344a 249649i bk7: 1344a 249287i bk8: 1344a 248986i bk9: 1344a 247985i bk10: 1320a 247882i bk11: 1316a 247674i bk12: 1280a 249415i bk13: 1280a 249081i bk14: 1280a 249167i bk15: 1280a 248937i 
dram_util_bins: 0 0 0 0 0 0 0 0 0 0
dram_eff_bins: 0 0 0 0 0 0 0 0 0 0
mrqq: max=16 avg=1.79179
Memory Partition 4: 
Cache L2_bank_008:
MSHR contents

Cache L2_bank_009:
MSHR contents

In Dram Latency Queue (total = 0): 
DRAM[4]: 16 bks, busW=4 BL=8 CL=12, tRRD=2 tCCD=6, tRCD=12 tRAS=28 tRP=12 tRC=40
n_cmd=264492 n_nop=232397 n_act=396 n_pre=380 n_req=15671 n_rd=20860 n_write=10459 bw_util=0.2368
n_activity=172973 dram_eff=0.3621
bk0: 1280a 249849i bk1: 1284a 250248i bk2: 1280a 249518i bk3: 1280a 248384i bk4: 1300a 249608i bk5: 1304a 248493i bk6: 1344a 250124i bk7: 1344a 249411i bk8: 1344a 248917i bk9: 1344a 248244i bk10: 1320a 247993i bk11: 1316a 247267i bk12: 1280a 249281i bk13: 1280a 249153i bk14: 1280a 249396i bk15: 1280a 248902i 
dram_util_bins: 0 0 0 0 0 0 0 0 0 0
dram_eff_bins: 0 0 0 0 0 0 0 0 0 0
mrqq: max=16 avg=1.69652
Memory Partition 5: 
Cache L2_bank_010:
MSHR contents

Cache L2_bank_011:
MSHR contents

In Dram Latency Queue (total = 0): 
DRAM[5]: 16 bks, busW=4 BL=8 CL=12, tRRD=2 tCCD=6, tRCD=12 tRAS=28 tRP=12 tRC=40
n_cmd=264492 n_nop=232424 n_act=383 n_pre=367 n_req=15670 n_rd=20860 n_write=10458 bw_util=0.2368
n_activity=173092 dram_eff=0.3619
bk0: 1284a 250330i bk1: 1284a 249759i bk2: 1280a 248942i bk3: 1280a 248522i bk4: 1300a 249927i bk5: 1304a 249075i bk6: 1344a 249947i bk7: 1344a 249224i bk8: 1344a 248688i bk9: 1344a 247928i bk10: 1316a 248089i bk11: 1316a 246940i bk12: 1280a 249626i bk13: 1280a 248728i bk14: 1280a 249213i bk15: 1280a 248465i 
dram_util_bins: 0 0 0 0 0 0 0 0 0 0
dram_eff_bins: 0 0 0 0 0 0 0 0 0 0
mrqq: max=16 avg=1.71556

========= L2 cache stats =========
L2_cache_bank[0]: Access = 5417, Miss = 5217, Miss_rate = 0.963, Pending_hits = 10, Reservation_fails = 576
L2_cache_bank[1]: Access = 5366, Miss = 5214, Miss_rate = 0.972, Pending_hits = 10, Reservation_fails = 717
L2_cache_bank[2]: Access = 5402, Miss = 5216, Miss_rate = 0.966, Pending_hits = 4, Reservation_fails = 945
L2_cache_bank[3]: Access = 5366, Miss = 5214, Miss_rate = 0.972, Pending_hits = 6, Reservation_fails = 467
L2_cache_bank[4]: Access = 5402, Miss = 5216, Miss_rate = 0.966, Pending_hits = 9, Reservation_fails = 685
L2_cache_bank[5]: Access = 5368, Miss = 5216, Miss_rate = 0.972, Pending_hits = 7, Reservation_fails = 649
L2_cache_bank[6]: Access = 5400, Miss = 5214, Miss_rate = 0.966, Pending_hits = 8, Reservation_fails = 505
L2_cache_bank[7]: Access = 5368, Miss = 5216, Miss_rate = 0.972, Pending_hits = 7, Reservation_fails = 613
L2_cache_bank[8]: Access = 5370, Miss = 5214, Miss_rate = 0.971, Pending_hits = 3, Reservation_fails = 358
L2_cache_bank[9]: Access = 5402, Miss = 5216, Miss_rate = 0.966, Pending_hits = 8, Reservation_fails = 754
L2_cache_bank[10]: Access = 5366, Miss = 5214, Miss_rate = 0.972, Pending_hits = 10, Reservation_fails = 977
L2_cache_bank[11]: Access = 5402, Miss = 5216, Miss_rate = 0.966, Pending_hits = 8, Reservation_fails = 738
L2_total_cache_accesses = 64629
L2_total_cache_misses = 62583
L2_total_cache_miss_rate = 0.9683
L2_total_cache_pending_hits = 90
L2_total_cache_reservation_fails = 7984
L2_total_cache_breakdown:
	L2_cache_stats_breakdown[GLOBAL_ACC_R][MISS] = 31250
	L2_cache_stats_breakdown[GLOBAL_ACC_R][RESERVATION_FAIL] = 5641
	L2_cache_stats_breakdown[CONST_ACC_R][HIT] = 11
	L2_cache_stats_breakdown[CONST_ACC_R][HIT_RESERVED] = 3
	L2_cache_stats_breakdown[CONST_ACC_R][MISS] = 1
	L2_cache_stats_breakdown[CONST_ACC_R][RESERVATION_FAIL] = 100
	L2_cache_stats_breakdown[GLOBAL_ACC_W][HIT] = 1832
	L2_cache_stats_breakdown[GLOBAL_ACC_W][HIT_RESERVED] = 60
	L2_cache_stats_breakdown[GLOBAL_ACC_W][MISS] = 31312
	L2_cache_stats_breakdown[GLOBAL_ACC_W][RESERVATION_FAIL] = 1461
	L2_cache_stats_breakdown[INST_ACC_R][HIT] = 113
	L2_cache_stats_breakdown[INST_ACC_R][HIT_RESERVED] = 27
	L2_cache_stats_breakdown[INST_ACC_R][MISS] = 20
	L2_cache_stats_breakdown[INST_ACC_R][RESERVATION_FAIL] = 782
L2_cache_data_port_util = 0.001
L2_cache_fill_port_util = 0.104

icnt_total_pkts_mem_to_simt=190299
icnt_total_pkts_simt_to_mem=191583
LD_mem_lat_dist  0 0 0 0 0 0 0 0 0 0 0 0 0 0 0 0 0 0 0 0 0 0 0 0 0 0 0
ST_mem_lat_dist  0 0 0 0 0 0 0 0 0 0 0 0 0 0 0 0 0 0 0 0 0 0 0 0 0 0 0
----------------------------Interconnect-DETAILS--------------------------------
Class 0:
Packet latency average = 8
	minimum = 6
	maximum = 10
Network latency average = 8
	minimum = 6
	maximum = 10
Slowest packet = 129229
Flit latency average = 6.03448
	minimum = 6
	maximum = 9
Slowest flit = 381881
Fragmentation average = 0
	minimum = 0
	maximum = 0
Injected packet rate average = 0.000191472
	minimum = 0 (at node 0)
	maximum = 0.00258487 (at node 6)
Accepted packet rate average = 0.000191472
	minimum = 0 (at node 0)
	maximum = 0.00258487 (at node 6)
Injected flit rate average = 0.000555268
	minimum = 0 (at node 0)
	maximum = 0.00413579 (at node 6)
Accepted flit rate average= 0.000555268
	minimum = 0 (at node 0)
	maximum = 0.0108565 (at node 6)
Injected packet length average = 2.9
Accepted packet length average = 2.9
Total in-flight flits = 0 (0 measured)
====== Overall Traffic Statistics ======
====== Traffic class 0 ======
Packet latency average = 10.289 (2 samples)
	minimum = 6 (2 samples)
	maximum = 246.5 (2 samples)
Network latency average = 9.40617 (2 samples)
	minimum = 6 (2 samples)
	maximum = 233.5 (2 samples)
Flit latency average = 7.61399 (2 samples)
	minimum = 6 (2 samples)
	maximum = 231 (2 samples)
Fragmentation average = 0.0235204 (2 samples)
	minimum = 0 (2 samples)
	maximum = 204.5 (2 samples)
Injected packet rate average = 0.0123952 (2 samples)
	minimum = 0.0110525 (2 samples)
	maximum = 0.0152077 (2 samples)
Accepted packet rate average = 0.0123952 (2 samples)
	minimum = 0.0110525 (2 samples)
	maximum = 0.0152077 (2 samples)
Injected flit rate average = 0.0366154 (2 samples)
	minimum = 0.032767 (2 samples)
	maximum = 0.0429322 (2 samples)
Accepted flit rate average = 0.0366154 (2 samples)
	minimum = 0.0325408 (2 samples)
	maximum = 0.0466034 (2 samples)
Injected packet size average = 2.95401 (2 samples)
Accepted packet size average = 2.95401 (2 samples)
Hops average = 1 (2 samples)
