

        *** GPGPU-Sim Simulator Version 3.2.2  [build 0] ***


GPGPU-Sim PTX: simulation mode 0 (can change with PTX_SIM_MODE_FUNC environment variable:
               1=functional simulation only, 0=detailed performance simulator)
GPGPU-Sim: Configuration options:

-network_mode                           1 # Interconnection network mode
-inter_config_file   config_fermi_islip.icnt # Interconnection network config file
-gpgpu_ptx_use_cuobjdump                    1 # Use cuobjdump to extract ptx and sass from binaries
-gpgpu_experimental_lib_support                    0 # Try to extract code from cuda libraries [Broken because of unknown cudaGetExportTable]
-gpgpu_ptx_convert_to_ptxplus                    0 # Convert SASS (native ISA) to ptxplus and run ptxplus
-gpgpu_ptx_force_max_capability                   20 # Force maximum compute capability
-gpgpu_ptx_inst_debug_to_file                    0 # Dump executed instructions' debug information to file
-gpgpu_ptx_inst_debug_file       inst_debug.txt # Executed instructions' debug output file
-gpgpu_ptx_inst_debug_thread_uid                    1 # Thread UID for executed instructions' debug output
-gpgpu_simd_model                       1 # 1 = post-dominator
-gpgpu_shader_core_pipeline              1536:32 # shader core pipeline config, i.e., {<nthread>:<warpsize>}
-gpgpu_tex_cache:l1  4:128:24,L:R:m:N:L,F:128:4,128:2 # per-shader L1 texture cache  (READ-ONLY) config  {<nsets>:<bsize>:<assoc>,<rep>:<wr>:<alloc>:<wr_alloc>,<mshr>:<N>:<merge>,<mq>:<rf>}
-gpgpu_const_cache:l1 64:64:2,L:R:f:N:L,A:2:32,4 # per-shader L1 constant memory cache  (READ-ONLY) config  {<nsets>:<bsize>:<assoc>,<rep>:<wr>:<alloc>:<wr_alloc>,<mshr>:<N>:<merge>,<mq>} 
-gpgpu_cache:il1     4:128:4,L:R:f:N:L,A:2:32,4 # shader L1 instruction cache config  {<nsets>:<bsize>:<assoc>,<rep>:<wr>:<alloc>:<wr_alloc>,<mshr>:<N>:<merge>,<mq>} 
-gpgpu_cache:dl1     32:128:4,L:L:m:N:H,A:32:8,8:2,0,0:0:1:1:0:1,1:4:8:16:32:64,/sciclone/data10/hwang07/GPU_RESEARCH/swl/swl_outputs/RESULTS/ # per-shader L1 data cache config  {<nsets>:<bsize>:<assoc>,<rep>:<wr>:<alloc>:<wr_alloc>,<mshr>:<N>:<merge>,<mq> | none}
-gpgpu_cache:dl1PrefL1                 none # per-shader L1 data cache config  {<nsets>:<bsize>:<assoc>,<rep>:<wr>:<alloc>:<wr_alloc>,<mshr>:<N>:<merge>,<mq> | none}
-gpgpu_cache:dl1PreShared                 none # per-shader L1 data cache config  {<nsets>:<bsize>:<assoc>,<rep>:<wr>:<alloc>:<wr_alloc>,<mshr>:<N>:<merge>,<mq> | none}
-gmem_skip_L1D                          0 # global memory access skip L1D cache (implements -Xptxas -dlcm=cg, default=no skip)
-gpgpu_perfect_mem                      0 # enable perfect memory mode (no cache miss)
-n_regfile_gating_group                    4 # group of lanes that should be read/written together)
-gpgpu_clock_gated_reg_file                    0 # enable clock gated reg file for power calculations
-gpgpu_clock_gated_lanes                    0 # enable clock gated lanes for power calculations
-gpgpu_shader_registers                32768 # Number of registers per shader core. Limits number of concurrent CTAs. (default 8192)
-gpgpu_shader_cta                       8 # Maximum number of concurrent CTAs in shader (default 8)
-gpgpu_num_cta_barriers                   16 # Maximum number of named barriers per CTA (default 16)
-gpgpu_n_clusters                      15 # number of processing clusters
-gpgpu_n_cores_per_cluster                    1 # number of simd cores per cluster
-gpgpu_n_cluster_ejection_buffer_size                    8 # number of packets in ejection buffer
-gpgpu_n_ldst_response_buffer_size                    2 # number of response packets in ld/st unit ejection buffer
-gpgpu_shmem_size                   16384 # Size of shared memory per shader core (default 16kB)
-gpgpu_shmem_size                   49152 # Size of shared memory per shader core (default 16kB)
-gpgpu_shmem_size_PrefL1                16384 # Size of shared memory per shader core (default 16kB)
-gpgpu_shmem_size_PrefShared                16384 # Size of shared memory per shader core (default 16kB)
-gpgpu_shmem_num_banks                   32 # Number of banks in the shared memory in each shader core (default 16)
-gpgpu_shmem_limited_broadcast                    0 # Limit shared memory to do one broadcast per cycle (default on)
-gpgpu_shmem_warp_parts                    1 # Number of portions a warp is divided into for shared memory bank conflict check 
-gpgpu_warpdistro_shader                   -1 # Specify which shader core to collect the warp size distribution from
-gpgpu_warp_issue_shader                    0 # Specify which shader core to collect the warp issue distribution from
-gpgpu_local_mem_map                    1 # Mapping from local memory space address to simulated GPU physical address space (default = enabled)
-gpgpu_num_reg_banks                   16 # Number of register banks (default = 8)
-gpgpu_reg_bank_use_warp_id                    0 # Use warp ID in mapping registers to banks (default = off)
-gpgpu_operand_collector_num_units_sp                    6 # number of collector units (default = 4)
-gpgpu_operand_collector_num_units_sfu                    8 # number of collector units (default = 4)
-gpgpu_operand_collector_num_units_mem                    2 # number of collector units (default = 2)
-gpgpu_operand_collector_num_units_gen                    0 # number of collector units (default = 0)
-gpgpu_operand_collector_num_in_ports_sp                    2 # number of collector unit in ports (default = 1)
-gpgpu_operand_collector_num_in_ports_sfu                    1 # number of collector unit in ports (default = 1)
-gpgpu_operand_collector_num_in_ports_mem                    1 # number of collector unit in ports (default = 1)
-gpgpu_operand_collector_num_in_ports_gen                    0 # number of collector unit in ports (default = 0)
-gpgpu_operand_collector_num_out_ports_sp                    2 # number of collector unit in ports (default = 1)
-gpgpu_operand_collector_num_out_ports_sfu                    1 # number of collector unit in ports (default = 1)
-gpgpu_operand_collector_num_out_ports_mem                    1 # number of collector unit in ports (default = 1)
-gpgpu_operand_collector_num_out_ports_gen                    0 # number of collector unit in ports (default = 0)
-gpgpu_coalesce_arch                   13 # Coalescing arch (default = 13, anything else is off for now)
-gpgpu_num_sched_per_core                    2 # Number of warp schedulers per core
-gpgpu_max_insn_issue_per_warp                    1 # Max number of instructions that can be issued per warp in one cycle by scheduler
-gpgpu_simt_core_sim_order                    1 # Select the simulation order of cores in a cluster (0=Fix, 1=Round-Robin)
-gpgpu_pipeline_widths        2,1,1,2,1,1,2 # Pipeline widths ID_OC_SP,ID_OC_SFU,ID_OC_MEM,OC_EX_SP,OC_EX_SFU,OC_EX_MEM,EX_WB
-gpgpu_num_sp_units                     2 # Number of SP units (default=1)
-gpgpu_num_sfu_units                    1 # Number of SF units (default=1)
-gpgpu_num_mem_units                    1 # Number if ldst units (default=1) WARNING: not hooked up to anything
-gpgpu_scheduler      warp_limiting:2:1:0 # Scheduler configuration: < lrr | gto | two_level_active > If two_level_active:<num_active_warps>:<inner_prioritization>:<outer_prioritization>For complete list of prioritization values see shader.h enum scheduler_prioritization_typeDefault: gto
-gpgpu_dram_scheduler                    1 # 0 = fifo, 1 = FR-FCFS (defaul)
-gpgpu_dram_partition_queues              8:8:8:8 # i2$:$2d:d2$:$2i
-l2_ideal                               0 # Use a ideal L2 cache that always hit
-gpgpu_cache:dl2     64:128:8,L:B:m:W:L,A:32:4,4:0,32 # unified banked L2 data cache config  {<nsets>:<bsize>:<assoc>,<rep>:<wr>:<alloc>:<wr_alloc>,<mshr>:<N>:<merge>,<mq>}
-gpgpu_cache:dl2_texture_only                    0 # L2 cache used for texture only
-gpgpu_n_mem                            6 # number of memory modules (e.g. memory controllers) in gpu
-gpgpu_n_sub_partition_per_mchannel                    2 # number of memory subpartition in each memory module
-gpgpu_n_mem_per_ctrlr                    2 # number of memory chips per memory controller
-gpgpu_memlatency_stat                   14 # track and display latency statistics 0x2 enables MC, 0x4 enables queue logs
-gpgpu_frfcfs_dram_sched_queue_size                   16 # 0 = unlimited (default); # entries per chip
-gpgpu_dram_return_queue_size                  116 # 0 = unlimited (default); # entries per chip
-gpgpu_dram_buswidth                    4 # default = 4 bytes (8 bytes per cycle at DDR)
-gpgpu_dram_burst_length                    8 # Burst length of each DRAM request (default = 4 data bus cycle)
-dram_data_command_freq_ratio                    4 # Frequency ratio between DRAM data bus and command bus (default = 2 times, i.e. DDR)
-gpgpu_dram_timing_opt nbk=16:CCD=2:RRD=6:RCD=12:RAS=28:RP=12:RC=40: CL=12:WL=4:CDLR=5:WR=12:nbkgrp=4:CCDL=3:RTPL=2 # DRAM timing parameters = {nbk:tCCD:tRRD:tRCD:tRAS:tRP:tRC:CL:WL:tCDLR:tWR:nbkgrp:tCCDL:tRTPL}
-rop_latency                          120 # ROP queue latency (default 85)
-dram_latency                         100 # DRAM latency (default 30)
-gpgpu_mem_addr_mapping dramid@8;00000000.00000000.00000000.00000000.0000RRRR.RRRRRRRR.BBBCCCCB.CCSSSSSS # mapping memory address to dram model {dramid@<start bit>;<memory address map>}
-gpgpu_mem_addr_test                    0 # run sweep test to check address mapping for aliased address
-gpgpu_mem_address_mask                    1 # 0 = old addressing mask, 1 = new addressing mask, 2 = new add. mask + flipped bank sel and chip sel bits
-gpuwattch_xml_file  gpuwattch_gtx480.xml # GPUWattch XML file
-power_simulation_enabled                    0 # Turn on power simulator (1=On, 0=Off)
-power_per_cycle_dump                    0 # Dump detailed power output each cycle
-power_trace_enabled                    0 # produce a file for the power trace (1=On, 0=Off)
-power_trace_zlevel                     6 # Compression level of the power trace output log (0=no comp, 9=highest)
-steady_power_levels_enabled                    0 # produce a file for the steady power levels (1=On, 0=Off)
-steady_state_definition                  8:4 # allowed deviation:number of samples
-gpgpu_max_cycle                        0 # terminates gpu simulation early (0 = no limit)
-gpgpu_max_insn                         0 # terminates gpu simulation early (0 = no limit)
-gpgpu_max_cta                          0 # terminates gpu simulation early (0 = no limit)
-gpgpu_runtime_stat                   500 # display runtime statistics such as dram utilization {<freq>:<flag>}
-liveness_message_freq                    1 # Minimum number of seconds between simulation liveness messages (0 = always print)
-gpgpu_flush_l1_cache                    0 # Flush L1 cache at the end of each kernel call
-gpgpu_flush_l2_cache                    0 # Flush L2 cache at the end of each kernel call
-gpgpu_deadlock_detect                    1 # Stop the simulation at deadlock (1=on (default), 0=off)
-gpgpu_ptx_instruction_classification                    0 # if enabled will classify ptx instruction types per kernel (Max 255 kernels now)
-gpgpu_ptx_sim_mode                     0 # Select between Performance (default) or Functional simulation (1)
-gpgpu_clock_domains 700.0:700.0:700.0:924.0 # Clock Domain Frequencies in MhZ {<Core Clock>:<ICNT Clock>:<L2 Clock>:<DRAM Clock>}
-gpgpu_max_concurrent_kernel                    8 # maximum kernels that can run concurrently on GPU
-gpgpu_cflog_interval                    0 # Interval between each snapshot in control flow logger
-visualizer_enabled                     0 # Turn on visualizer output (1=On, 0=Off)
-visualizer_outputfile                 NULL # Specifies the output log file for visualizer
-visualizer_zlevel                      6 # Compression level of the visualizer output log (0=no comp, 9=highest)
-trace_enabled                          0 # Turn on traces
-trace_components                    none # comma seperated list of traces to enable. Complete list found in trace_streams.tup. Default none
-trace_sampling_core                    0 # The core which is printed using CORE_DPRINTF. Default 0
-trace_sampling_memory_partition                   -1 # The memory partition which is printed using MEMPART_DPRINTF. Default -1 (i.e. all)
-enable_ptx_file_line_stats                    1 # Turn on PTX source line statistic profiling. (1 = On)
-ptx_line_stats_filename gpgpu_inst_stats.txt # Output file for PTX source line statistics.
-save_embedded_ptx                      0 # saves ptx files embedded in binary as <n>.ptx
-keep                                   0 # keep intermediate files created by GPGPU-Sim when interfacing with external programs
-gpgpu_ptx_save_converted_ptxplus                    0 # Saved converted ptxplus to a file
-ptx_opcode_latency_int         4,13,4,5,145 # Opcode latencies for integers <ADD,MAX,MUL,MAD,DIV>Default 1,1,19,25,145
-ptx_opcode_latency_fp          4,13,4,5,39 # Opcode latencies for single precision floating points <ADD,MAX,MUL,MAD,DIV>Default 1,1,1,1,30
-ptx_opcode_latency_dp         8,19,8,8,330 # Opcode latencies for double precision floating points <ADD,MAX,MUL,MAD,DIV>Default 8,8,8,8,335
-ptx_opcode_initiation_int            1,2,2,1,8 # Opcode initiation intervals for integers <ADD,MAX,MUL,MAD,DIV>Default 1,1,4,4,32
-ptx_opcode_initiation_fp            1,2,1,1,4 # Opcode initiation intervals for single precision floating points <ADD,MAX,MUL,MAD,DIV>Default 1,1,1,1,5
-ptx_opcode_initiation_dp         8,16,8,8,130 # Opcode initiation intervals for double precision floating points <ADD,MAX,MUL,MAD,DIV>Default 8,8,8,8,130
DRAM Timing Options:
nbk                                    16 # number of banks
CCD                                     2 # column to column delay
RRD                                     6 # minimal delay between activation of rows in different banks
RCD                                    12 # row to column delay
RAS                                    28 # time needed to activate row
RP                                     12 # time needed to precharge (deactivate) row
RC                                     40 # row cycle time
CDLR                                    5 # switching from write to read (changes tWTR)
WR                                     12 # last data-in to row precharge
CL                                     12 # CAS latency
WL                                      4 # Write latency
nbkgrp                                  4 # number of bank groups
CCDL                                    3 # column to column delay between accesses to different bank groups
RTPL                                    2 # read to precharge delay between accesses to different bank groups
Total number of memory sub partition = 12
addr_dec_mask[CHIP]  = 0000000000000000 	high:64 low:0
addr_dec_mask[BK]    = 000000000000e100 	high:16 low:8
addr_dec_mask[ROW]   = 000000000fff0000 	high:28 low:16
addr_dec_mask[COL]   = 0000000000001eff 	high:13 low:0
addr_dec_mask[BURST] = 000000000000003f 	high:6 low:0
sub_partition_id_mask = 0000000000000100
GPGPU-Sim uArch: clock freqs: 700000000.000000:700000000.000000:700000000.000000:924000000.000000
GPGPU-Sim uArch: clock periods: 0.00000000142857142857:0.00000000142857142857:0.00000000142857142857:0.00000000108225108225
*** Initializing Memory Statistics ***
GPGPU-Sim uArch: interconnect node map (shaderID+MemID to icntID)
GPGPU-Sim uArch: Memory nodes ID start from index: 15
GPGPU-Sim uArch:    0   1   2   3   4
GPGPU-Sim uArch:    5   6   7   8   9
GPGPU-Sim uArch:   10  11  12  13  14
GPGPU-Sim uArch:   15  16  17  18  19
GPGPU-Sim uArch:   20  21  22  23  24
GPGPU-Sim uArch:   25  26
GPGPU-Sim uArch: interconnect node reverse map (icntID to shaderID+MemID)
GPGPU-Sim uArch: Memory nodes start from ID: 15
GPGPU-Sim uArch:    0   1   2   3   4
GPGPU-Sim uArch:    5   6   7   8   9
GPGPU-Sim uArch:   10  11  12  13  14
GPGPU-Sim uArch:   15  16  17  18  19
GPGPU-Sim uArch:   20  21  22  23  24
GPGPU-Sim uArch:   25  26
316bcbff5f8f022bb22b20bb4721e93e  /sciclone/data10/hwang07/adwait/applications/benchmarks/CUDA/RAY/gpgpu_ptx_sim__RAY
GPGPU-Sim uArch: performance model initialization complete.
GPGPU-Sim PTX: __cudaRegisterFatBinary, fat_cubin_handle = 1, filename=rayTracing.cu
self exe links to: /sciclone/data10/hwang07/adwait/applications/benchmarks/CUDA/RAY/gpgpu_ptx_sim__RAY
Running md5sum using "md5sum /sciclone/data10/hwang07/adwait/applications/benchmarks/CUDA/RAY/gpgpu_ptx_sim__RAY "
Parsing file _cuobjdump_complete_output_cLj5nL
######### cuobjdump parser ########
## Adding new section ELF
Adding arch: sm_20
Adding identifier: rayTracing.cu
## Adding new section PTX
Adding ptx filename: _cuobjdump_1.ptx
Adding arch: sm_20
Adding identifier: rayTracing.cu
Done parsing!!!
GPGPU-Sim PTX: __cudaRegisterFunction _Z6renderPjP4Nodejjff : hostFun 0x0x40ce13, fat_cubin_handle = 1
GPGPU-Sim PTX: allocating stack frame region for .param "__cudaretf__Zmi6float3S_" from 0x0 to 0xc
GPGPU-Sim PTX: allocating stack frame region for .param "__cudaparmf1__Zmi6float3S_" from 0xc to 0x18
GPGPU-Sim PTX: allocating stack frame region for .param "__cudaparmf2__Zmi6float3S_" from 0x18 to 0x24
GPGPU-Sim PTX: allocating stack frame region for .param "__cudaretf__Z9normalize6float3" from 0x0 to 0xc
GPGPU-Sim PTX: allocating stack frame region for .param "__cudaparmf1__Z9normalize6float3" from 0xc to 0x18
GPGPU-Sim PTX: allocating stack frame region for .param "__cudaretf__Z18intersectionSphere5Rayon6float3f" from 0x0 to 0x4
GPGPU-Sim PTX: allocating stack frame region for .param "__cudaparmf1__Z18intersectionSphere5Rayon6float3f" from 0x4 to 0x1c
GPGPU-Sim PTX: allocating stack frame region for .param "__cudaparmf2__Z18intersectionSphere5Rayon6float3f" from 0x1c to 0x28
GPGPU-Sim PTX: allocating stack frame region for .param "__cudaparmf3__Z18intersectionSphere5Rayon6float3f" from 0x28 to 0x2c
GPGPU-Sim PTX: allocating stack frame region for .param "__cudaretf__Z16intersectionPlan5Rayon6float3S0_" from 0x0 to 0x4
GPGPU-Sim PTX: allocating stack frame region for .param "__cudaparmf1__Z16intersectionPlan5Rayon6float3S0_" from 0x4 to 0x1c
GPGPU-Sim PTX: allocating stack frame region for .param "__cudaparmf2__Z16intersectionPlan5Rayon6float3S0_" from 0x1c to 0x28
GPGPU-Sim PTX: allocating stack frame region for .param "__cudaparmf3__Z16intersectionPlan5Rayon6float3S0_" from 0x28 to 0x34
GPGPU-Sim PTX: allocating stack frame region for .param "__cudaretf__Z10getNormale6float3S_" from 0x0 to 0xc
GPGPU-Sim PTX: allocating stack frame region for .param "__cudaparmf1__Z10getNormale6float3S_" from 0xc to 0x18
GPGPU-Sim PTX: allocating stack frame region for .param "__cudaparmf2__Z10getNormale6float3S_" from 0x18 to 0x24
GPGPU-Sim PTX: allocating stack frame region for .param "__cudaretf__Z11getNormaleP6float3" from 0x0 to 0xc
GPGPU-Sim PTX: allocating stack frame region for .param "__cudaparmf1__Z11getNormaleP6float3" from 0xc to 0x18
GPGPU-Sim PTX: allocating stack frame region for .param "__cudaretf__Z14rgbaFloatToInt6float4" from 0x0 to 0x4
GPGPU-Sim PTX: allocating stack frame region for .param "__cudaparmf1__Z14rgbaFloatToInt6float4" from 0x4 to 0x14
GPGPU-Sim PTX: allocating stack frame region for .param "__cudaretf__Z12notShadowRayP4Node6float3S1_f" from 0x0 to 0x4
GPGPU-Sim PTX: allocating stack frame region for .param "__cudaparmf1__Z12notShadowRayP4Node6float3S1_f" from 0x4 to 0xc
GPGPU-Sim PTX: allocating stack frame region for .param "__cudaparmf2__Z12notShadowRayP4Node6float3S1_f" from 0xc to 0x18
GPGPU-Sim PTX: allocating stack frame region for .param "__cudaparmf3__Z12notShadowRayP4Node6float3S1_f" from 0x18 to 0x24
GPGPU-Sim PTX: allocating stack frame region for .param "__cudaparmf4__Z12notShadowRayP4Node6float3S1_f" from 0x24 to 0x28
GPGPU-Sim PTX: allocating stack frame region for .param "__cudaretf__Z15float2int_pow20f" from 0x0 to 0x4
GPGPU-Sim PTX: allocating stack frame region for .param "__cudaparmf1__Z15float2int_pow20f" from 0x4 to 0x8
GPGPU-Sim PTX: allocating stack frame region for .param "__cudaretf__Z15float2int_pow50f" from 0x0 to 0x4
GPGPU-Sim PTX: allocating stack frame region for .param "__cudaparmf1__Z15float2int_pow50f" from 0x4 to 0x8
GPGPU-Sim PTX: allocating stack frame region for .param "__cudaparmf1__ZN4dim3C1Ejjj" from 0x0 to 0x8
GPGPU-Sim PTX: allocating stack frame region for .param "__cudaparmf2__ZN4dim3C1Ejjj" from 0x8 to 0xc
GPGPU-Sim PTX: allocating stack frame region for .param "__cudaparmf3__ZN4dim3C1Ejjj" from 0xc to 0x10
GPGPU-Sim PTX: allocating stack frame region for .param "__cudaparmf4__ZN4dim3C1Ejjj" from 0x10 to 0x14
GPGPU-Sim PTX: instruction assembly for function '_Zmi6float3S_'...   done.
GPGPU-Sim PTX: finding reconvergence points for '_Zmi6float3S_'...
GPGPU-Sim PTX: Finding dominators for '_Zmi6float3S_'...
GPGPU-Sim PTX: Finding immediate dominators for '_Zmi6float3S_'...
GPGPU-Sim PTX: Finding postdominators for '_Zmi6float3S_'...
GPGPU-Sim PTX: Finding immediate postdominators for '_Zmi6float3S_'...
GPGPU-Sim PTX: pre-decoding instructions for '_Zmi6float3S_'...
GPGPU-Sim PTX: reconvergence points for _Zmi6float3S_...
GPGPU-Sim PTX: ... end of reconvergence points for _Zmi6float3S_
GPGPU-Sim PTX: ... done pre-decoding instructions for '_Zmi6float3S_'.
GPGPU-Sim PTX: instruction assembly for function '_Z9normalize6float3'...   done.
GPGPU-Sim PTX: finding reconvergence points for '_Z9normalize6float3'...
GPGPU-Sim PTX: Finding dominators for '_Z9normalize6float3'...
GPGPU-Sim PTX: Finding immediate dominators for '_Z9normalize6float3'...
GPGPU-Sim PTX: Finding postdominators for '_Z9normalize6float3'...
GPGPU-Sim PTX: Finding immediate postdominators for '_Z9normalize6float3'...
GPGPU-Sim PTX: pre-decoding instructions for '_Z9normalize6float3'...
GPGPU-Sim PTX: reconvergence points for _Z9normalize6float3...
GPGPU-Sim PTX: ... end of reconvergence points for _Z9normalize6float3
GPGPU-Sim PTX: ... done pre-decoding instructions for '_Z9normalize6float3'.
GPGPU-Sim PTX: instruction assembly for function '_Z18intersectionSphere5Rayon6float3f'...   done.
GPGPU-Sim PTX: finding reconvergence points for '_Z18intersectionSphere5Rayon6float3f'...
GPGPU-Sim PTX: Finding dominators for '_Z18intersectionSphere5Rayon6float3f'...
GPGPU-Sim PTX: Finding immediate dominators for '_Z18intersectionSphere5Rayon6float3f'...
GPGPU-Sim PTX: Finding postdominators for '_Z18intersectionSphere5Rayon6float3f'...
GPGPU-Sim PTX: Finding immediate postdominators for '_Z18intersectionSphere5Rayon6float3f'...
GPGPU-Sim PTX: pre-decoding instructions for '_Z18intersectionSphere5Rayon6float3f'...
GPGPU-Sim PTX: reconvergence points for _Z18intersectionSphere5Rayon6float3f...
GPGPU-Sim PTX:  1 (potential) branch divergence @  PC=0x250 (_1.ptx:173) @%p2 bra $Lt_2_3074;
GPGPU-Sim PTX:    immediate post dominator      @  PC=0x2c0 (_1.ptx:193) mov.f32 %f39, %f32;
GPGPU-Sim PTX:  2 (potential) branch divergence @  PC=0x260 (_1.ptx:175) bra.uni $Lt_2_2818;
GPGPU-Sim PTX:    immediate post dominator      @  PC=0x2c0 (_1.ptx:193) mov.f32 %f39, %f32;
GPGPU-Sim PTX:  3 (potential) branch divergence @  PC=0x280 (_1.ptx:180) @!%p3 bra $Lt_2_3586;
GPGPU-Sim PTX:    immediate post dominator      @  PC=0x2c0 (_1.ptx:193) mov.f32 %f39, %f32;
GPGPU-Sim PTX:  4 (potential) branch divergence @  PC=0x290 (_1.ptx:182) bra.uni $Lt_2_3330;
GPGPU-Sim PTX:    immediate post dominator      @  PC=0x2c0 (_1.ptx:193) mov.f32 %f39, %f32;
GPGPU-Sim PTX: ... end of reconvergence points for _Z18intersectionSphere5Rayon6float3f
GPGPU-Sim PTX: ... done pre-decoding instructions for '_Z18intersectionSphere5Rayon6float3f'.
GPGPU-Sim PTX: instruction assembly for function '_Z16intersectionPlan5Rayon6float3S0_'...   done.
GPGPU-Sim PTX: finding reconvergence points for '_Z16intersectionPlan5Rayon6float3S0_'...
GPGPU-Sim PTX: Finding dominators for '_Z16intersectionPlan5Rayon6float3S0_'...
GPGPU-Sim PTX: Finding immediate dominators for '_Z16intersectionPlan5Rayon6float3S0_'...
GPGPU-Sim PTX: Finding postdominators for '_Z16intersectionPlan5Rayon6float3S0_'...
GPGPU-Sim PTX: Finding immediate postdominators for '_Z16intersectionPlan5Rayon6float3S0_'...
GPGPU-Sim PTX: pre-decoding instructions for '_Z16intersectionPlan5Rayon6float3S0_'...
GPGPU-Sim PTX: reconvergence points for _Z16intersectionPlan5Rayon6float3S0_...
GPGPU-Sim PTX:  1 (potential) branch divergence @  PC=0x320 (_1.ptx:214) @!%p1 bra $Lt_3_2050;
GPGPU-Sim PTX:    immediate post dominator      @  PC=0x368 (_1.ptx:227) mov.f32 %f14, %f9;
GPGPU-Sim PTX:  2 (potential) branch divergence @  PC=0x330 (_1.ptx:216) bra.uni $Lt_3_1794;
GPGPU-Sim PTX:    immediate post dominator      @  PC=0x368 (_1.ptx:227) mov.f32 %f14, %f9;
GPGPU-Sim PTX: ... end of reconvergence points for _Z16intersectionPlan5Rayon6float3S0_
GPGPU-Sim PTX: ... done pre-decoding instructions for '_Z16intersectionPlan5Rayon6float3S0_'.
GPGPU-Sim PTX: instruction assembly for function '_Z10getNormale6float3S_'...   done.
GPGPU-Sim PTX: finding reconvergence points for '_Z10getNormale6float3S_'...
GPGPU-Sim PTX: Finding dominators for '_Z10getNormale6float3S_'...
GPGPU-Sim PTX: Finding immediate dominators for '_Z10getNormale6float3S_'...
GPGPU-Sim PTX: Finding postdominators for '_Z10getNormale6float3S_'...
GPGPU-Sim PTX: Finding immediate postdominators for '_Z10getNormale6float3S_'...
GPGPU-Sim PTX: pre-decoding instructions for '_Z10getNormale6float3S_'...
GPGPU-Sim PTX: reconvergence points for _Z10getNormale6float3S_...
GPGPU-Sim PTX: ... end of reconvergence points for _Z10getNormale6float3S_
GPGPU-Sim PTX: ... done pre-decoding instructions for '_Z10getNormale6float3S_'.
GPGPU-Sim PTX: instruction assembly for function '_Z11getNormaleP6float3'...   done.
GPGPU-Sim PTX: finding reconvergence points for '_Z11getNormaleP6float3'...
GPGPU-Sim PTX: Finding dominators for '_Z11getNormaleP6float3'...
GPGPU-Sim PTX: Finding immediate dominators for '_Z11getNormaleP6float3'...
GPGPU-Sim PTX: Finding postdominators for '_Z11getNormaleP6float3'...
GPGPU-Sim PTX: Finding immediate postdominators for '_Z11getNormaleP6float3'...
GPGPU-Sim PTX: pre-decoding instructions for '_Z11getNormaleP6float3'...
GPGPU-Sim PTX: reconvergence points for _Z11getNormaleP6float3...
GPGPU-Sim PTX: ... end of reconvergence points for _Z11getNormaleP6float3
GPGPU-Sim PTX: ... done pre-decoding instructions for '_Z11getNormaleP6float3'.
GPGPU-Sim PTX: instruction assembly for function '_Z14rgbaFloatToInt6float4'...   done.
GPGPU-Sim PTX: finding reconvergence points for '_Z14rgbaFloatToInt6float4'...
GPGPU-Sim PTX: Finding dominators for '_Z14rgbaFloatToInt6float4'...
GPGPU-Sim PTX: Finding immediate dominators for '_Z14rgbaFloatToInt6float4'...
GPGPU-Sim PTX: Finding postdominators for '_Z14rgbaFloatToInt6float4'...
GPGPU-Sim PTX: Finding immediate postdominators for '_Z14rgbaFloatToInt6float4'...
GPGPU-Sim PTX: pre-decoding instructions for '_Z14rgbaFloatToInt6float4'...
GPGPU-Sim PTX: reconvergence points for _Z14rgbaFloatToInt6float4...
GPGPU-Sim PTX: ... end of reconvergence points for _Z14rgbaFloatToInt6float4
GPGPU-Sim PTX: ... done pre-decoding instructions for '_Z14rgbaFloatToInt6float4'.
GPGPU-Sim PTX: allocating global region for "cnode" from 0x100 to 0x1a0 (global memory space)
GPGPU-Sim PTX: instruction assembly for function '_Z12notShadowRayP4Node6float3S1_f'...   done.
GPGPU-Sim PTX: finding reconvergence points for '_Z12notShadowRayP4Node6float3S1_f'...
GPGPU-Sim PTX: Finding dominators for '_Z12notShadowRayP4Node6float3S1_f'...
GPGPU-Sim PTX: Finding immediate dominators for '_Z12notShadowRayP4Node6float3S1_f'...
GPGPU-Sim PTX: Finding postdominators for '_Z12notShadowRayP4Node6float3S1_f'...
GPGPU-Sim PTX: Finding immediate postdominators for '_Z12notShadowRayP4Node6float3S1_f'...
GPGPU-Sim PTX: pre-decoding instructions for '_Z12notShadowRayP4Node6float3S1_f'...
GPGPU-Sim PTX: reconvergence points for _Z12notShadowRayP4Node6float3S1_f...
GPGPU-Sim PTX:  1 (potential) branch divergence @  PC=0x638 (_1.ptx:364) @%p1 bra $Lt_7_8450;
GPGPU-Sim PTX:    immediate post dominator      @  PC=0x828 (_1.ptx:441) mov.f32 %f58, 0f00000000;    // 0
GPGPU-Sim PTX:  2 (potential) branch divergence @  PC=0x658 (_1.ptx:369) @!%p2 bra $Lt_7_8962;
GPGPU-Sim PTX:    immediate post dominator      @  PC=0x6b8 (_1.ptx:385) mov.f32 %f28, %f20;
GPGPU-Sim PTX:  3 (potential) branch divergence @  PC=0x668 (_1.ptx:371) bra.uni $Lt_7_8706;
GPGPU-Sim PTX:    immediate post dominator      @  PC=0x6b8 (_1.ptx:385) mov.f32 %f28, %f20;
GPGPU-Sim PTX:  4 (potential) branch divergence @  PC=0x6c0 (_1.ptx:386) bra.uni $Lt_7_8194;
GPGPU-Sim PTX:    immediate post dominator      @  PC=0x828 (_1.ptx:441) mov.f32 %f58, 0f00000000;    // 0
GPGPU-Sim PTX:  5 (potential) branch divergence @  PC=0x7b0 (_1.ptx:418) @%p5 bra $Lt_7_9474;
GPGPU-Sim PTX:    immediate post dominator      @  PC=0x820 (_1.ptx:438) mov.f32 %f28, %f51;
GPGPU-Sim PTX:  6 (potential) branch divergence @  PC=0x7c0 (_1.ptx:420) bra.uni $Lt_7_9730;
GPGPU-Sim PTX:    immediate post dominator      @  PC=0x820 (_1.ptx:438) mov.f32 %f28, %f51;
GPGPU-Sim PTX:  7 (potential) branch divergence @  PC=0x7e0 (_1.ptx:425) @!%p6 bra $Lt_7_9986;
GPGPU-Sim PTX:    immediate post dominator      @  PC=0x820 (_1.ptx:438) mov.f32 %f28, %f51;
GPGPU-Sim PTX:  8 (potential) branch divergence @  PC=0x7f0 (_1.ptx:427) bra.uni $Lt_7_9730;
GPGPU-Sim PTX:    immediate post dominator      @  PC=0x820 (_1.ptx:438) mov.f32 %f28, %f51;
GPGPU-Sim PTX:  9 (potential) branch divergence @  PC=0x838 (_1.ptx:443) @!%p7 bra $Lt_7_10242;
GPGPU-Sim PTX:    immediate post dominator      @  PC=0x8e8 (_1.ptx:468) add.s32 %r1, %r1, 1;
GPGPU-Sim PTX: 10 (potential) branch divergence @  PC=0x8d8 (_1.ptx:463) @!%p8 bra $Lt_7_10242;
GPGPU-Sim PTX:    immediate post dominator      @  PC=0x8e8 (_1.ptx:468) add.s32 %r1, %r1, 1;
GPGPU-Sim PTX: 11 (potential) branch divergence @  PC=0x908 (_1.ptx:472) @%p9 bra $Lt_7_10754;
GPGPU-Sim PTX:    immediate post dominator      @  PC=0x960 (_1.ptx:486) selp.s32 %r10, 1, 0, %p11;
GPGPU-Sim PTX: 12 (potential) branch divergence @  PC=0x930 (_1.ptx:477) @%p10 bra $L_7_7170;
GPGPU-Sim PTX:    immediate post dominator      @  PC=0x960 (_1.ptx:486) selp.s32 %r10, 1, 0, %p11;
GPGPU-Sim PTX: 13 (potential) branch divergence @  PC=0x938 (_1.ptx:478) bra.uni $L_7_7938;
GPGPU-Sim PTX:    immediate post dominator      @  PC=0x960 (_1.ptx:486) selp.s32 %r10, 1, 0, %p11;
GPGPU-Sim PTX: ... end of reconvergence points for _Z12notShadowRayP4Node6float3S1_f
GPGPU-Sim PTX: ... done pre-decoding instructions for '_Z12notShadowRayP4Node6float3S1_f'.
GPGPU-Sim PTX: instruction assembly for function '_Z15float2int_pow20f'...   done.
GPGPU-Sim PTX: finding reconvergence points for '_Z15float2int_pow20f'...
GPGPU-Sim PTX: Finding dominators for '_Z15float2int_pow20f'...
GPGPU-Sim PTX: Finding immediate dominators for '_Z15float2int_pow20f'...
GPGPU-Sim PTX: Finding postdominators for '_Z15float2int_pow20f'...
GPGPU-Sim PTX: Finding immediate postdominators for '_Z15float2int_pow20f'...
GPGPU-Sim PTX: pre-decoding instructions for '_Z15float2int_pow20f'...
GPGPU-Sim PTX: reconvergence points for _Z15float2int_pow20f...
GPGPU-Sim PTX: ... end of reconvergence points for _Z15float2int_pow20f
GPGPU-Sim PTX: ... done pre-decoding instructions for '_Z15float2int_pow20f'.
GPGPU-Sim PTX: instruction assembly for function '_Z15float2int_pow50f'...   done.
GPGPU-Sim PTX: finding reconvergence points for '_Z15float2int_pow50f'...
GPGPU-Sim PTX: Finding dominators for '_Z15float2int_pow50f'...
GPGPU-Sim PTX: Finding immediate dominators for '_Z15float2int_pow50f'...
GPGPU-Sim PTX: Finding postdominators for '_Z15float2int_pow50f'...
GPGPU-Sim PTX: Finding immediate postdominators for '_Z15float2int_pow50f'...
GPGPU-Sim PTX: pre-decoding instructions for '_Z15float2int_pow50f'...
GPGPU-Sim PTX: reconvergence points for _Z15float2int_pow50f...
GPGPU-Sim PTX: ... end of reconvergence points for _Z15float2int_pow50f
GPGPU-Sim PTX: ... done pre-decoding instructions for '_Z15float2int_pow50f'.
GPGPU-Sim PTX: allocating constant region for "MView" from 0x200 to 0x230 (global memory space) 1
GPGPU-Sim PTX: allocating stack frame region for .local "__cuda___cuda_local_var_35463_9_non_const_pile_32240" from 0x0 to 0x50
GPGPU-Sim PTX: instruction assembly for function '_Z6renderPjP4Nodejjff'...   done.
GPGPU-Sim PTX: finding reconvergence points for '_Z6renderPjP4Nodejjff'...
GPGPU-Sim PTX: Finding dominators for '_Z6renderPjP4Nodejjff'...
GPGPU-Sim PTX: Finding immediate dominators for '_Z6renderPjP4Nodejjff'...
GPGPU-Sim PTX: Finding postdominators for '_Z6renderPjP4Nodejjff'...
GPGPU-Sim PTX: Finding immediate postdominators for '_Z6renderPjP4Nodejjff'...
GPGPU-Sim PTX: pre-decoding instructions for '_Z6renderPjP4Nodejjff'...
GPGPU-Sim PTX: reconvergence points for _Z6renderPjP4Nodejjff...
GPGPU-Sim PTX:  1 (potential) branch divergence @  PC=0xdb0 (_1.ptx:663) @%p1 bra $Lt_10_44034;
GPGPU-Sim PTX:    immediate post dominator      @  PC=0x2370 (_1.ptx:1495) exit;
GPGPU-Sim PTX:  2 (potential) branch divergence @  PC=0x1028 (_1.ptx:751) @%p2 bra $Lt_10_45570;
GPGPU-Sim PTX:    immediate post dominator      @  PC=0x11b8 (_1.ptx:815) mov.f32 %f108, 0f00000000;   // 0
GPGPU-Sim PTX:  3 (potential) branch divergence @  PC=0x1048 (_1.ptx:756) @!%p3 bra $Lt_10_46082;
GPGPU-Sim PTX:    immediate post dominator      @  PC=0x1090 (_1.ptx:769) mov.f32 %f87, %f82;
GPGPU-Sim PTX:  4 (potential) branch divergence @  PC=0x1058 (_1.ptx:758) bra.uni $Lt_10_45826;
GPGPU-Sim PTX:    immediate post dominator      @  PC=0x1090 (_1.ptx:769) mov.f32 %f87, %f82;
GPGPU-Sim PTX:  5 (potential) branch divergence @  PC=0x1098 (_1.ptx:770) bra.uni $Lt_10_45314;
GPGPU-Sim PTX:    immediate post dominator      @  PC=0x11b8 (_1.ptx:815) mov.f32 %f108, 0f00000000;   // 0
GPGPU-Sim PTX:  6 (potential) branch divergence @  PC=0x1140 (_1.ptx:793) @%p6 bra $Lt_10_46594;
GPGPU-Sim PTX:    immediate post dominator      @  PC=0x11b0 (_1.ptx:813) mov.f32 %f87, %f101;
GPGPU-Sim PTX:  7 (potential) branch divergence @  PC=0x1150 (_1.ptx:795) bra.uni $Lt_10_46850;
GPGPU-Sim PTX:    immediate post dominator      @  PC=0x11b0 (_1.ptx:813) mov.f32 %f87, %f101;
GPGPU-Sim PTX:  8 (potential) branch divergence @  PC=0x1170 (_1.ptx:800) @!%p7 bra $Lt_10_47106;
GPGPU-Sim PTX:    immediate post dominator      @  PC=0x11b0 (_1.ptx:813) mov.f32 %f87, %f101;
GPGPU-Sim PTX:  9 (potential) branch divergence @  PC=0x1180 (_1.ptx:802) bra.uni $Lt_10_46850;
GPGPU-Sim PTX:    immediate post dominator      @  PC=0x11b0 (_1.ptx:813) mov.f32 %f87, %f101;
GPGPU-Sim PTX: 10 (potential) branch divergence @  PC=0x11f8 (_1.ptx:823) @%p8 bra $Lt_10_47362;
GPGPU-Sim PTX:    immediate post dominator      @  PC=0x1210 (_1.ptx:829) add.s32 %r25, %r25, 1;
GPGPU-Sim PTX: 11 (potential) branch divergence @  PC=0x1230 (_1.ptx:833) @%p9 bra $Lt_10_45058;
GPGPU-Sim PTX:    immediate post dominator      @  PC=0x1238 (_1.ptx:834) mov.f32 %f109, 0f00000000;   // 0
GPGPU-Sim PTX: 12 (potential) branch divergence @  PC=0x1280 (_1.ptx:843) @%p10 bra $Lt_10_48130;
GPGPU-Sim PTX:    immediate post dominator      @  PC=0x2140 (_1.ptx:1416) add.s32 %r23, %r23, 1;
GPGPU-Sim PTX: 13 (potential) branch divergence @  PC=0x1330 (_1.ptx:868) @%p11 bra $Lt_10_48898;
GPGPU-Sim PTX:    immediate post dominator      @  PC=0x13b8 (_1.ptx:888) sub.f32 %f136, %f21, %f119;
GPGPU-Sim PTX: 14 (potential) branch divergence @  PC=0x1350 (_1.ptx:873) bra.uni $Lt_10_48642;
GPGPU-Sim PTX:    immediate post dominator      @  PC=0x13b8 (_1.ptx:888) sub.f32 %f136, %f21, %f119;
GPGPU-Sim PTX: 15 (potential) branch divergence @  PC=0x1430 (_1.ptx:903) @!%p12 bra $Lt_10_49410;
GPGPU-Sim PTX:    immediate post dominator      @  PC=0x1470 (_1.ptx:915) mov.f32 %f153, 0f3d4ccccd;   // 0.05
GPGPU-Sim PTX: 16 (potential) branch divergence @  PC=0x1450 (_1.ptx:908) bra.uni $Lt_10_49154;
GPGPU-Sim PTX:    immediate post dominator      @  PC=0x1470 (_1.ptx:915) mov.f32 %f153, 0f3d4ccccd;   // 0.05
GPGPU-Sim PTX: 17 (potential) branch divergence @  PC=0x1578 (_1.ptx:949) @!%p13 bra $Lt_10_58114;
GPGPU-Sim PTX:    immediate post dominator      @  PC=0x2080 (_1.ptx:1388) add.f32 %f399, %f126, %f126;
GPGPU-Sim PTX: 18 (potential) branch divergence @  PC=0x15c0 (_1.ptx:961) @%p14 bra $Lt_10_49922;
GPGPU-Sim PTX:    immediate post dominator      @  PC=0x17b0 (_1.ptx:1039) mov.f32 %f221, 0f00000000;   // 0
GPGPU-Sim PTX: 19 (potential) branch divergence @  PC=0x15e0 (_1.ptx:966) @!%p15 bra $Lt_10_50434;
GPGPU-Sim PTX:    immediate post dominator      @  PC=0x1638 (_1.ptx:982) mov.f32 %f190, %f183;
GPGPU-Sim PTX: 20 (potential) branch divergence @  PC=0x15f0 (_1.ptx:968) bra.uni $Lt_10_50178;
GPGPU-Sim PTX:    immediate post dominator      @  PC=0x1638 (_1.ptx:982) mov.f32 %f190, %f183;
GPGPU-Sim PTX: 21 (potential) branch divergence @  PC=0x1640 (_1.ptx:983) bra.uni $Lt_10_49666;
GPGPU-Sim PTX:    immediate post dominator      @  PC=0x17b0 (_1.ptx:1039) mov.f32 %f221, 0f00000000;   // 0
GPGPU-Sim PTX: 22 (potential) branch divergence @  PC=0x1738 (_1.ptx:1016) @%p18 bra $Lt_10_50946;
GPGPU-Sim PTX:    immediate post dominator      @  PC=0x17a8 (_1.ptx:1036) mov.f32 %f190, %f214;
GPGPU-Sim PTX: 23 (potential) branch divergence @  PC=0x1748 (_1.ptx:1018) bra.uni $Lt_10_51202;
GPGPU-Sim PTX:    immediate post dominator      @  PC=0x17a8 (_1.ptx:1036) mov.f32 %f190, %f214;
GPGPU-Sim PTX: 24 (potential) branch divergence @  PC=0x1768 (_1.ptx:1023) @!%p19 bra $Lt_10_51458;
GPGPU-Sim PTX:    immediate post dominator      @  PC=0x17a8 (_1.ptx:1036) mov.f32 %f190, %f214;
GPGPU-Sim PTX: 25 (potential) branch divergence @  PC=0x1778 (_1.ptx:1025) bra.uni $Lt_10_51202;
GPGPU-Sim PTX:    immediate post dominator      @  PC=0x17a8 (_1.ptx:1036) mov.f32 %f190, %f214;
GPGPU-Sim PTX: 26 (potential) branch divergence @  PC=0x17c0 (_1.ptx:1041) @!%p20 bra $Lt_10_58370;
GPGPU-Sim PTX:    immediate post dominator      @  PC=0x1828 (_1.ptx:1057) add.s32 %r50, %r50, 1;
GPGPU-Sim PTX: 27 (potential) branch divergence @  PC=0x1818 (_1.ptx:1052) @!%p21 bra $Lt_10_58370;
GPGPU-Sim PTX:    immediate post dominator      @  PC=0x1828 (_1.ptx:1057) add.s32 %r50, %r50, 1;
GPGPU-Sim PTX: 28 (potential) branch divergence @  PC=0x1848 (_1.ptx:1061) @%p22 bra $Lt_10_58882;
GPGPU-Sim PTX:    immediate post dominator      @  PC=0x1880 (_1.ptx:1071) @!%p23 bra $Lt_10_58114;
GPGPU-Sim PTX: 29 (potential) branch divergence @  PC=0x1860 (_1.ptx:1064) @%p23 bra $L_10_42498;
GPGPU-Sim PTX:    immediate post dominator      @  PC=0x1880 (_1.ptx:1071) @!%p23 bra $Lt_10_58114;
GPGPU-Sim PTX: 30 (potential) branch divergence @  PC=0x1868 (_1.ptx:1065) bra.uni $L_10_43266;
GPGPU-Sim PTX:    immediate post dominator      @  PC=0x1880 (_1.ptx:1071) @!%p23 bra $Lt_10_58114;
GPGPU-Sim PTX: 31 (potential) branch divergence @  PC=0x1880 (_1.ptx:1071) @!%p23 bra $Lt_10_58114;
GPGPU-Sim PTX:    immediate post dominator      @  PC=0x2080 (_1.ptx:1388) add.f32 %f399, %f126, %f126;
GPGPU-Sim PTX: 32 (potential) branch divergence @  PC=0x19c8 (_1.ptx:1115) @!%p24 bra $Lt_10_51714;
GPGPU-Sim PTX:    immediate post dominator      @  PC=0x2040 (_1.ptx:1375) mov.f32 %f394, 0f3f4ccccd;   // 0.8
GPGPU-Sim PTX: 33 (potential) branch divergence @  PC=0x19d8 (_1.ptx:1118) bra.uni $LDWendi___isnanf_192_1;
GPGPU-Sim PTX:    immediate post dominator      @  PC=0x2040 (_1.ptx:1375) mov.f32 %f394, 0f3f4ccccd;   // 0.8
GPGPU-Sim PTX: 34 (potential) branch divergence @  PC=0x19f8 (_1.ptx:1124) @!%p25 bra $Lt_10_7682;
GPGPU-Sim PTX:    immediate post dominator      @  PC=0x2040 (_1.ptx:1375) mov.f32 %f394, 0f3f4ccccd;   // 0.8
GPGPU-Sim PTX: 35 (potential) branch divergence @  PC=0x1a00 (_1.ptx:1125) bra.uni $Lt_10_7938;
GPGPU-Sim PTX:    immediate post dominator      @  PC=0x1a20 (_1.ptx:1133) mov.f32 %f272, 0f7f800000;   // ((1.0F)/(0.0F))
GPGPU-Sim PTX: 36 (potential) branch divergence @  PC=0x1a18 (_1.ptx:1130) bra.uni $LDWendi___isnanf_192_1;
GPGPU-Sim PTX:    immediate post dominator      @  PC=0x2040 (_1.ptx:1375) mov.f32 %f394, 0f3f4ccccd;   // 0.8
GPGPU-Sim PTX: 37 (potential) branch divergence @  PC=0x1a30 (_1.ptx:1135) @!%p26 bra $Lt_10_52226;
GPGPU-Sim PTX:    immediate post dominator      @  PC=0x2040 (_1.ptx:1375) mov.f32 %f394, 0f3f4ccccd;   // 0.8
GPGPU-Sim PTX: 38 (potential) branch divergence @  PC=0x1a40 (_1.ptx:1138) bra.uni $LDWendi___isnanf_192_1;
GPGPU-Sim PTX:    immediate post dominator      @  PC=0x2040 (_1.ptx:1375) mov.f32 %f394, 0f3f4ccccd;   // 0.8
GPGPU-Sim PTX: 39 (potential) branch divergence @  PC=0x1a58 (_1.ptx:1142) @!%p27 bra $Lt_10_52738;
GPGPU-Sim PTX:    immediate post dominator      @  PC=0x2040 (_1.ptx:1375) mov.f32 %f394, 0f3f4ccccd;   // 0.8
GPGPU-Sim PTX: 40 (potential) branch divergence @  PC=0x1ab8 (_1.ptx:1155) bra.uni $LDWendi___isnanf_192_1;
GPGPU-Sim PTX:    immediate post dominator      @  PC=0x2040 (_1.ptx:1375) mov.f32 %f394, 0f3f4ccccd;   // 0.8
GPGPU-Sim PTX: 41 (potential) branch divergence @  PC=0x1ad0 (_1.ptx:1159) @!%p29 bra $Lt_10_53250;
GPGPU-Sim PTX:    immediate post dominator      @  PC=0x2040 (_1.ptx:1375) mov.f32 %f394, 0f3f4ccccd;   // 0.8
GPGPU-Sim PTX: 42 (potential) branch divergence @  PC=0x1b20 (_1.ptx:1170) @!%p30 bra $Lt_10_53762;
GPGPU-Sim PTX:    immediate post dominator      @  PC=0x1b40 (_1.ptx:1177) mov.f32 %f268, %f284;
GPGPU-Sim PTX: 43 (potential) branch divergence @  PC=0x1b48 (_1.ptx:1178) bra.uni $LDWendi___isnanf_192_1;
GPGPU-Sim PTX:    immediate post dominator      @  PC=0x2040 (_1.ptx:1375) mov.f32 %f394, 0f3f4ccccd;   // 0.8
GPGPU-Sim PTX: 44 (potential) branch divergence @  PC=0x1b60 (_1.ptx:1183) @!%p31 bra $Lt_10_59394;
GPGPU-Sim PTX:    immediate post dominator      @  PC=0x2040 (_1.ptx:1375) mov.f32 %f394, 0f3f4ccccd;   // 0.8
GPGPU-Sim PTX: 45 (potential) branch divergence @  PC=0x1b88 (_1.ptx:1188) @!%p32 bra $Lt_10_59394;
GPGPU-Sim PTX:    immediate post dominator      @  PC=0x2040 (_1.ptx:1375) mov.f32 %f394, 0f3f4ccccd;   // 0.8
GPGPU-Sim PTX: 46 (potential) branch divergence @  PC=0x1ba0 (_1.ptx:1192) bra.uni $LDWendi___isnanf_192_1;
GPGPU-Sim PTX:    immediate post dominator      @  PC=0x2040 (_1.ptx:1375) mov.f32 %f394, 0f3f4ccccd;   // 0.8
GPGPU-Sim PTX: 47 (potential) branch divergence @  PC=0x1bd8 (_1.ptx:1202) @%p33 bra $Lt_10_54530;
GPGPU-Sim PTX:    immediate post dominator      @  PC=0x1c20 (_1.ptx:1216) sub.s32 %r64, %r64, 127;
GPGPU-Sim PTX: 48 (potential) branch divergence @  PC=0x1c10 (_1.ptx:1211) bra.uni $Lt_10_54274;
GPGPU-Sim PTX:    immediate post dominator      @  PC=0x1c20 (_1.ptx:1216) sub.s32 %r64, %r64, 127;
GPGPU-Sim PTX: 49 (potential) branch divergence @  PC=0x1c58 (_1.ptx:1224) @!%p34 bra $Lt_10_54786;
GPGPU-Sim PTX:    immediate post dominator      @  PC=0x1c78 (_1.ptx:1232) mov.f32 %f302, 0fbf800000;   // -1
GPGPU-Sim PTX: 50 (potential) branch divergence @  PC=0x1eb0 (_1.ptx:1312) @%p35 bra $Lt_10_55298;
GPGPU-Sim PTX:    immediate post dominator      @  PC=0x1ed8 (_1.ptx:1321) mov.f32 %f367, %f365;
GPGPU-Sim PTX: 51 (potential) branch divergence @  PC=0x1f98 (_1.ptx:1346) @!%p38 bra $Lt_10_55810;
GPGPU-Sim PTX:    immediate post dominator      @  PC=0x1fa8 (_1.ptx:1351) mov.f32 %f284, %f386;
GPGPU-Sim PTX: 52 (potential) branch divergence @  PC=0x2018 (_1.ptx:1365) @%p39 bra $Lt_10_56322;
GPGPU-Sim PTX:    immediate post dominator      @  PC=0x2038 (_1.ptx:1372) mov.f32 %f268, %f284;
GPGPU-Sim PTX: 53 (potential) branch divergence @  PC=0x2158 (_1.ptx:1419) @%p40 bra $L_10_42242;
GPGPU-Sim PTX:    immediate post dominator      @  PC=0x2170 (_1.ptx:1424) sub.s32 %r86, %r24, 1;
GPGPU-Sim PTX: 54 (potential) branch divergence @  PC=0x2168 (_1.ptx:1421) @%p41 bra $L_10_41474;
GPGPU-Sim PTX:    immediate post dominator      @  PC=0x2170 (_1.ptx:1424) sub.s32 %r86, %r24, 1;
GPGPU-Sim PTX: 55 (potential) branch divergence @  PC=0x2190 (_1.ptx:1428) @%p42 bra $Lt_10_56834;
GPGPU-Sim PTX:    immediate post dominator      @  PC=0x2288 (_1.ptx:1464) ld.global.u32 %r92, [%rd4+0];
GPGPU-Sim PTX: 56 (potential) branch divergence @  PC=0x2280 (_1.ptx:1461) @%p43 bra $Lt_10_57346;
GPGPU-Sim PTX:    immediate post dominator      @  PC=0x2288 (_1.ptx:1464) ld.global.u32 %r92, [%rd4+0];
GPGPU-Sim PTX: ... end of reconvergence points for _Z6renderPjP4Nodejjff
GPGPU-Sim PTX: ... done pre-decoding instructions for '_Z6renderPjP4Nodejjff'.
GPGPU-Sim PTX: instruction assembly for function '_ZN4dim3C1Ejjj'...   done.
GPGPU-Sim PTX: finding reconvergence points for '_ZN4dim3C1Ejjj'...
GPGPU-Sim PTX: Finding dominators for '_ZN4dim3C1Ejjj'...
GPGPU-Sim PTX: Finding immediate dominators for '_ZN4dim3C1Ejjj'...
GPGPU-Sim PTX: Finding postdominators for '_ZN4dim3C1Ejjj'...
GPGPU-Sim PTX: Finding immediate postdominators for '_ZN4dim3C1Ejjj'...
GPGPU-Sim PTX: pre-decoding instructions for '_ZN4dim3C1Ejjj'...
GPGPU-Sim PTX: reconvergence points for _ZN4dim3C1Ejjj...
GPGPU-Sim PTX: ... end of reconvergence points for _ZN4dim3C1Ejjj
GPGPU-Sim PTX: ... done pre-decoding instructions for '_ZN4dim3C1Ejjj'.
GPGPU-Sim PTX: finished parsing EMBEDDED .ptx file _1.ptx
Adding _cuobjdump_1.ptx with cubin handle 1
GPGPU-Sim PTX: extracting embedded .ptx to temporary file "_ptx_ROUs5X"
Running: cat _ptx_ROUs5X | sed 's/.version 1.5/.version 1.4/' | sed 's/, texmode_independent//' | sed 's/\(\.extern \.const\[1\] .b8 \w\+\)\[\]/\1\[1\]/' | sed 's/const\[.\]/const\[0\]/g' > _ptx2_aZT7wc
GPGPU-Sim PTX: generating ptxinfo using "$CUDA_INSTALL_PATH/bin/ptxas --gpu-name=sm_20 -v _ptx2_aZT7wc --output-file  /dev/null 2> _ptx_ROUs5Xinfo"
GPGPU-Sim PTX: Kernel '_Z6renderPjP4Nodejjff' : regs=45, lmem=4, smem=0, cmem=180
GPGPU-Sim PTX: removing ptxinfo using "rm -f _ptx_ROUs5X _ptx2_aZT7wc _ptx_ROUs5Xinfo"
GPGPU-Sim PTX: loading globals with explicit initializers... 
GPGPU-Sim PTX: finished loading globals (0 bytes total).
GPGPU-Sim PTX: loading constants with explicit initializers...  done.
GPGPU-Sim PTX: __cudaRegisterVar: hostVar = 0x62fda0; deviceAddress = MView; deviceName = MView
GPGPU-Sim PTX: __cudaRegisterVar: Registering const memory space of 48 bytes
GPGPU-Sim PTX registering constant MView (48 bytes) to name mapping
GPGPU-Sim PTX: __cudaRegisterVar: hostVar = 0x62fde0; deviceAddress = cnode; deviceName = cnode
GPGPU-Sim PTX: __cudaRegisterVar: Registering const memory space of 160 bytes
GPGPU-Sim PTX registering constant cnode (160 bytes) to name mapping
GPGPU-Sim PTX: cudaMemcpyToSymbol: symbol = 0x62fde0
GPGPU-Sim PTX: starting gpgpu_ptx_sim_memcpy_symbol with hostVar 0x0x62fde0
GPGPU-Sim PTX: gpgpu_ptx_sim_memcpy_symbol: Found PTX symbol w/ hostVar=0x62fde0
GPGPU-Sim PTX: gpgpu_ptx_sim_memcpy_symbol: copying const memory 160 bytes  to  symbol cnode+0 @0x100 ...
GPGPU-Sim PTX: cudaMemcpyToSymbol: symbol = 0x62fda0
GPGPU-Sim PTX: starting gpgpu_ptx_sim_memcpy_symbol with hostVar 0x0x62fda0
GPGPU-Sim PTX: gpgpu_ptx_sim_memcpy_symbol: Found PTX symbol w/ hostVar=0x62fda0
GPGPU-Sim PTX: gpgpu_ptx_sim_memcpy_symbol: copying const memory 48 bytes  to  symbol MView+0 @0x200 ...

GPGPU-Sim PTX: cudaLaunch for 0x0x40ce13 (mode=performance simulation) on stream 0
GPGPU-Sim PTX: pushing kernel '_Z6renderPjP4Nodejjff' to stream 0, gridDim= (16,32,1) blockDim = (16,8,1) 
kernel '_Z6renderPjP4Nodejjff' transfer to GPU hardware scheduler
GPGPU-Sim uArch: Shader 1 bind to kernel 1 '_Z6renderPjP4Nodejjff'
GPGPU-Sim uArch: CTA/core = 5, limited by: regs
GPGPU-Sim uArch: core:  1, cta: 0 initialized @(1,0)
GPGPU-Sim uArch: Shader 2 bind to kernel 1 '_Z6renderPjP4Nodejjff'
GPGPU-Sim uArch: core:  2, cta: 0 initialized @(1,0)
GPGPU-Sim uArch: Shader 3 bind to kernel 1 '_Z6renderPjP4Nodejjff'
GPGPU-Sim uArch: core:  3, cta: 0 initialized @(1,0)
GPGPU-Sim uArch: Shader 4 bind to kernel 1 '_Z6renderPjP4Nodejjff'
GPGPU-Sim uArch: core:  4, cta: 0 initialized @(1,0)
GPGPU-Sim uArch: Shader 5 bind to kernel 1 '_Z6renderPjP4Nodejjff'
GPGPU-Sim uArch: core:  5, cta: 0 initialized @(1,0)
GPGPU-Sim uArch: Shader 6 bind to kernel 1 '_Z6renderPjP4Nodejjff'
GPGPU-Sim uArch: core:  6, cta: 0 initialized @(1,0)
GPGPU-Sim uArch: Shader 7 bind to kernel 1 '_Z6renderPjP4Nodejjff'
GPGPU-Sim uArch: core:  7, cta: 0 initialized @(1,0)
GPGPU-Sim uArch: Shader 8 bind to kernel 1 '_Z6renderPjP4Nodejjff'
GPGPU-Sim uArch: core:  8, cta: 0 initialized @(1,0)
GPGPU-Sim uArch: Shader 9 bind to kernel 1 '_Z6renderPjP4Nodejjff'
GPGPU-Sim uArch: core:  9, cta: 0 initialized @(1,0)
GPGPU-Sim uArch: Shader 10 bind to kernel 1 '_Z6renderPjP4Nodejjff'
GPGPU-Sim uArch: core: 10, cta: 0 initialized @(1,0)
GPGPU-Sim uArch: Shader 11 bind to kernel 1 '_Z6renderPjP4Nodejjff'
GPGPU-Sim uArch: core: 11, cta: 0 initialized @(1,0)
GPGPU-Sim uArch: Shader 12 bind to kernel 1 '_Z6renderPjP4Nodejjff'
GPGPU-Sim uArch: core: 12, cta: 0 initialized @(1,0)
GPGPU-Sim uArch: Shader 13 bind to kernel 1 '_Z6renderPjP4Nodejjff'
GPGPU-Sim uArch: core: 13, cta: 0 initialized @(1,0)
GPGPU-Sim uArch: Shader 14 bind to kernel 1 '_Z6renderPjP4Nodejjff'
GPGPU-Sim uArch: core: 14, cta: 0 initialized @(1,0)
GPGPU-Sim uArch: Shader 0 bind to kernel 1 '_Z6renderPjP4Nodejjff'
GPGPU-Sim uArch: core:  0, cta: 0 initialized @(1,0)
GPGPU-Sim uArch: core:  1, cta: 1 initialized @(2,0)
GPGPU-Sim uArch: core:  2, cta: 1 initialized @(2,0)
GPGPU-Sim uArch: core:  3, cta: 1 initialized @(2,0)
GPGPU-Sim uArch: core:  4, cta: 1 initialized @(2,0)
GPGPU-Sim uArch: core:  5, cta: 1 initialized @(2,0)
GPGPU-Sim uArch: core:  6, cta: 1 initialized @(2,0)
GPGPU-Sim uArch: core:  7, cta: 1 initialized @(2,0)
GPGPU-Sim uArch: core:  8, cta: 1 initialized @(2,0)
GPGPU-Sim uArch: core:  9, cta: 1 initialized @(2,0)
GPGPU-Sim uArch: core: 10, cta: 1 initialized @(2,0)
GPGPU-Sim uArch: core: 11, cta: 1 initialized @(2,0)
GPGPU-Sim uArch: core: 12, cta: 1 initialized @(2,0)
GPGPU-Sim uArch: core: 13, cta: 1 initialized @(2,0)
GPGPU-Sim uArch: core: 14, cta: 1 initialized @(2,0)
GPGPU-Sim uArch: core:  0, cta: 1 initialized @(2,0)
GPGPU-Sim uArch: core:  1, cta: 2 initialized @(3,0)
GPGPU-Sim uArch: core:  2, cta: 2 initialized @(3,0)
GPGPU-Sim uArch: core:  3, cta: 2 initialized @(3,0)
GPGPU-Sim uArch: core:  4, cta: 2 initialized @(3,0)
GPGPU-Sim uArch: core:  5, cta: 2 initialized @(3,0)
GPGPU-Sim uArch: core:  6, cta: 2 initialized @(3,0)
GPGPU-Sim uArch: core:  7, cta: 2 initialized @(3,0)
GPGPU-Sim uArch: core:  8, cta: 2 initialized @(3,0)
GPGPU-Sim uArch: core:  9, cta: 2 initialized @(3,0)
GPGPU-Sim uArch: core: 10, cta: 2 initialized @(3,0)
GPGPU-Sim uArch: core: 11, cta: 2 initialized @(3,0)
GPGPU-Sim uArch: core: 12, cta: 2 initialized @(3,0)
GPGPU-Sim uArch: core: 13, cta: 2 initialized @(3,0)
GPGPU-Sim uArch: core: 14, cta: 2 initialized @(3,0)
GPGPU-Sim uArch: core:  0, cta: 2 initialized @(3,0)
GPGPU-Sim uArch: core:  1, cta: 3 initialized @(4,0)
GPGPU-Sim uArch: core:  2, cta: 3 initialized @(4,0)
GPGPU-Sim uArch: core:  3, cta: 3 initialized @(4,0)
GPGPU-Sim uArch: core:  4, cta: 3 initialized @(4,0)
GPGPU-Sim uArch: core:  5, cta: 3 initialized @(4,0)
GPGPU-Sim uArch: core:  6, cta: 3 initialized @(4,0)
GPGPU-Sim uArch: core:  7, cta: 3 initialized @(4,0)
GPGPU-Sim uArch: core:  8, cta: 3 initialized @(4,0)
GPGPU-Sim uArch: core:  9, cta: 3 initialized @(4,0)
GPGPU-Sim uArch: core: 10, cta: 3 initialized @(4,0)
GPGPU-Sim uArch: core: 11, cta: 3 initialized @(4,0)
GPGPU-Sim uArch: core: 12, cta: 3 initialized @(4,0)
GPGPU-Sim uArch: core: 13, cta: 3 initialized @(4,0)
GPGPU-Sim uArch: core: 14, cta: 3 initialized @(4,0)
GPGPU-Sim uArch: core:  0, cta: 3 initialized @(4,0)
GPGPU-Sim uArch: core:  1, cta: 4 initialized @(5,0)
GPGPU-Sim uArch: core:  2, cta: 4 initialized @(5,0)
GPGPU-Sim uArch: core:  3, cta: 4 initialized @(5,0)
GPGPU-Sim uArch: core:  4, cta: 4 initialized @(5,0)
GPGPU-Sim uArch: core:  5, cta: 4 initialized @(5,0)
GPGPU-Sim uArch: core:  6, cta: 4 initialized @(5,0)
GPGPU-Sim uArch: core:  7, cta: 4 initialized @(5,0)
GPGPU-Sim uArch: core:  8, cta: 4 initialized @(5,0)
GPGPU-Sim uArch: core:  9, cta: 4 initialized @(5,0)
GPGPU-Sim uArch: core: 10, cta: 4 initialized @(5,0)
GPGPU-Sim uArch: core: 11, cta: 4 initialized @(5,0)
GPGPU-Sim uArch: core: 12, cta: 4 initialized @(5,0)
GPGPU-Sim uArch: core: 13, cta: 4 initialized @(5,0)
GPGPU-Sim uArch: core: 14, cta: 4 initialized @(5,0)
GPGPU-Sim uArch: core:  0, cta: 4 initialized @(5,0)
GPGPU-Sim uArch: cycles simulated: 500  inst.: 5760 (ipc=11.5) sim_rate=2880 (inst/sec) elapsed = 0:0:00:02 / Tue Mar 22 06:59:43 2016
GPGPU-Sim PTX: 100000 instructions simulated : ctaid=(7,0,0) tid=(15,3,0)
GPGPU-Sim uArch: cycles simulated: 4000  inst.: 112320 (ipc=28.1) sim_rate=37440 (inst/sec) elapsed = 0:0:00:03 / Tue Mar 22 06:59:44 2016
GPGPU-Sim PTX: 200000 instructions simulated : ctaid=(12,0,0) tid=(15,5,0)
GPGPU-Sim PTX: 300000 instructions simulated : ctaid=(1,0,0) tid=(15,1,0)
GPGPU-Sim uArch: cycles simulated: 7500  inst.: 324320 (ipc=43.2) sim_rate=81080 (inst/sec) elapsed = 0:0:00:04 / Tue Mar 22 06:59:45 2016
GPGPU-Sim PTX: 400000 instructions simulated : ctaid=(11,0,0) tid=(15,1,0)
GPGPU-Sim PTX: 500000 instructions simulated : ctaid=(7,0,0) tid=(15,3,0)
GPGPU-Sim uArch: cycles simulated: 11000  inst.: 525248 (ipc=47.7) sim_rate=105049 (inst/sec) elapsed = 0:0:00:05 / Tue Mar 22 06:59:46 2016
GPGPU-Sim PTX: 600000 instructions simulated : ctaid=(4,0,0) tid=(7,1,0)
GPGPU-Sim PTX: 700000 instructions simulated : ctaid=(6,0,0) tid=(10,1,0)
GPGPU-Sim uArch: cycles simulated: 14500  inst.: 736560 (ipc=50.8) sim_rate=122760 (inst/sec) elapsed = 0:0:00:06 / Tue Mar 22 06:59:47 2016
GPGPU-Sim PTX: 800000 instructions simulated : ctaid=(2,0,0) tid=(2,1,0)
GPGPU-Sim PTX: 900000 instructions simulated : ctaid=(3,0,0) tid=(2,1,0)
GPGPU-Sim uArch: cycles simulated: 18500  inst.: 880942 (ipc=47.6) sim_rate=125848 (inst/sec) elapsed = 0:0:00:07 / Tue Mar 22 06:59:48 2016
GPGPU-Sim PTX: 1000000 instructions simulated : ctaid=(14,0,0) tid=(7,0,0)
GPGPU-Sim PTX: 1100000 instructions simulated : ctaid=(5,0,0) tid=(2,1,0)
GPGPU-Sim uArch: cycles simulated: 21500  inst.: 1123616 (ipc=52.3) sim_rate=140452 (inst/sec) elapsed = 0:0:00:08 / Tue Mar 22 06:59:49 2016
GPGPU-Sim PTX: 1200000 instructions simulated : ctaid=(1,0,0) tid=(1,5,0)
GPGPU-Sim PTX: 1300000 instructions simulated : ctaid=(2,0,0) tid=(14,5,0)
GPGPU-Sim PTX: 1400000 instructions simulated : ctaid=(7,0,0) tid=(13,3,0)
GPGPU-Sim uArch: cycles simulated: 25000  inst.: 1408147 (ipc=56.3) sim_rate=156460 (inst/sec) elapsed = 0:0:00:09 / Tue Mar 22 06:59:50 2016
GPGPU-Sim PTX: 1500000 instructions simulated : ctaid=(2,0,0) tid=(3,7,0)
GPGPU-Sim PTX: 1600000 instructions simulated : ctaid=(9,0,0) tid=(2,3,0)
GPGPU-Sim uArch: cycles simulated: 28500  inst.: 1597004 (ipc=56.0) sim_rate=159700 (inst/sec) elapsed = 0:0:00:10 / Tue Mar 22 06:59:51 2016
GPGPU-Sim PTX: 1700000 instructions simulated : ctaid=(5,0,0) tid=(10,1,0)
GPGPU-Sim PTX: 1800000 instructions simulated : ctaid=(12,0,0) tid=(2,1,0)
GPGPU-Sim uArch: cycles simulated: 32000  inst.: 1844681 (ipc=57.6) sim_rate=167698 (inst/sec) elapsed = 0:0:00:11 / Tue Mar 22 06:59:52 2016
GPGPU-Sim PTX: 1900000 instructions simulated : ctaid=(8,0,0) tid=(13,5,0)
GPGPU-Sim uArch: Shader 14 finished CTA #0 (33282,0), 4 CTAs running
GPGPU-Sim uArch: core: 14, cta: 0 initialized @(33283,0)
GPGPU-Sim uArch: Shader 0 finished CTA #0 (33314,0), 4 CTAs running
GPGPU-Sim uArch: core:  0, cta: 0 initialized @(33315,0)
GPGPU-Sim uArch: Shader 2 finished CTA #0 (33362,0), 4 CTAs running
GPGPU-Sim uArch: core:  2, cta: 0 initialized @(33363,0)
GPGPU-Sim uArch: Shader 1 finished CTA #0 (33370,0), 4 CTAs running
GPGPU-Sim uArch: core:  1, cta: 0 initialized @(33371,0)
GPGPU-Sim uArch: Shader 3 finished CTA #0 (33382,0), 4 CTAs running
GPGPU-Sim uArch: core:  3, cta: 0 initialized @(33383,0)
GPGPU-Sim PTX: 2000000 instructions simulated : ctaid=(8,0,0) tid=(10,7,0)
GPGPU-Sim PTX: 2100000 instructions simulated : ctaid=(12,1,0) tid=(2,0,0)
GPGPU-Sim uArch: cycles simulated: 35500  inst.: 2058019 (ipc=58.0) sim_rate=171501 (inst/sec) elapsed = 0:0:00:12 / Tue Mar 22 06:59:53 2016
GPGPU-Sim PTX: 2200000 instructions simulated : ctaid=(15,0,0) tid=(3,0,0)
GPGPU-Sim uArch: cycles simulated: 38500  inst.: 2236365 (ipc=58.1) sim_rate=172028 (inst/sec) elapsed = 0:0:00:13 / Tue Mar 22 06:59:54 2016
GPGPU-Sim PTX: 2300000 instructions simulated : ctaid=(15,0,0) tid=(3,0,0)
GPGPU-Sim PTX: 2400000 instructions simulated : ctaid=(12,1,0) tid=(4,3,0)
GPGPU-Sim PTX: 2500000 instructions simulated : ctaid=(13,1,0) tid=(10,3,0)
GPGPU-Sim uArch: cycles simulated: 42000  inst.: 2446037 (ipc=58.2) sim_rate=174716 (inst/sec) elapsed = 0:0:00:14 / Tue Mar 22 06:59:55 2016
GPGPU-Sim PTX: 2600000 instructions simulated : ctaid=(13,1,0) tid=(9,0,0)
GPGPU-Sim PTX: 2700000 instructions simulated : ctaid=(1,1,0) tid=(0,3,0)
GPGPU-Sim uArch: cycles simulated: 45500  inst.: 2638430 (ipc=58.0) sim_rate=175895 (inst/sec) elapsed = 0:0:00:15 / Tue Mar 22 06:59:56 2016
GPGPU-Sim PTX: 2800000 instructions simulated : ctaid=(1,1,0) tid=(4,4,0)
GPGPU-Sim PTX: 2900000 instructions simulated : ctaid=(7,0,0) tid=(4,5,0)
GPGPU-Sim uArch: cycles simulated: 49000  inst.: 2845591 (ipc=58.1) sim_rate=177849 (inst/sec) elapsed = 0:0:00:16 / Tue Mar 22 06:59:57 2016
GPGPU-Sim PTX: 3000000 instructions simulated : ctaid=(1,1,0) tid=(3,4,0)
GPGPU-Sim PTX: 3100000 instructions simulated : ctaid=(11,0,0) tid=(6,4,0)
GPGPU-Sim uArch: cycles simulated: 52000  inst.: 3020135 (ipc=58.1) sim_rate=177655 (inst/sec) elapsed = 0:0:00:17 / Tue Mar 22 06:59:58 2016
GPGPU-Sim uArch: Shader 13 finished CTA #0 (53222,0), 4 CTAs running
GPGPU-Sim uArch: core: 13, cta: 0 initialized @(53223,0)
GPGPU-Sim uArch: Shader 4 finished CTA #0 (53357,0), 4 CTAs running
GPGPU-Sim uArch: core:  4, cta: 0 initialized @(53358,0)
GPGPU-Sim PTX: 3200000 instructions simulated : ctaid=(0,1,0) tid=(7,5,0)
GPGPU-Sim PTX: 3300000 instructions simulated : ctaid=(13,1,0) tid=(14,4,0)
GPGPU-Sim uArch: cycles simulated: 55500  inst.: 3235811 (ipc=58.3) sim_rate=179767 (inst/sec) elapsed = 0:0:00:18 / Tue Mar 22 06:59:59 2016
GPGPU-Sim PTX: 3400000 instructions simulated : ctaid=(11,0,0) tid=(9,7,0)
GPGPU-Sim uArch: Shader 0 finished CTA #1 (57598,0), 4 CTAs running
GPGPU-Sim uArch: core:  0, cta: 1 initialized @(57599,0)
GPGPU-Sim PTX: 3500000 instructions simulated : ctaid=(0,1,0) tid=(13,7,0)
GPGPU-Sim uArch: Shader 1 finished CTA #1 (57620,0), 4 CTAs running
GPGPU-Sim uArch: core:  1, cta: 1 initialized @(57621,0)
GPGPU-Sim uArch: Shader 2 finished CTA #1 (57770,0), 4 CTAs running
GPGPU-Sim uArch: core:  2, cta: 1 initialized @(57771,0)
GPGPU-Sim uArch: Shader 3 finished CTA #1 (57789,0), 4 CTAs running
GPGPU-Sim uArch: core:  3, cta: 1 initialized @(57790,0)
GPGPU-Sim uArch: cycles simulated: 58500  inst.: 3470982 (ipc=59.3) sim_rate=182683 (inst/sec) elapsed = 0:0:00:19 / Tue Mar 22 07:00:00 2016
GPGPU-Sim PTX: 3600000 instructions simulated : ctaid=(4,0,0) tid=(9,7,0)
GPGPU-Sim PTX: 3700000 instructions simulated : ctaid=(5,0,0) tid=(15,6,0)
GPGPU-Sim PTX: 3800000 instructions simulated : ctaid=(0,2,0) tid=(3,0,0)
GPGPU-Sim uArch: cycles simulated: 61500  inst.: 3747937 (ipc=60.9) sim_rate=187396 (inst/sec) elapsed = 0:0:00:20 / Tue Mar 22 07:00:01 2016
GPGPU-Sim PTX: 3900000 instructions simulated : ctaid=(2,1,0) tid=(3,2,0)
GPGPU-Sim PTX: 4000000 instructions simulated : ctaid=(14,1,0) tid=(5,1,0)
GPGPU-Sim uArch: cycles simulated: 64500  inst.: 3959562 (ipc=61.4) sim_rate=188550 (inst/sec) elapsed = 0:0:00:21 / Tue Mar 22 07:00:02 2016
GPGPU-Sim PTX: 4100000 instructions simulated : ctaid=(6,0,0) tid=(12,5,0)
GPGPU-Sim uArch: Shader 9 finished CTA #0 (65390,0), 4 CTAs running
GPGPU-Sim uArch: core:  9, cta: 0 initialized @(65391,0)
GPGPU-Sim PTX: 4200000 instructions simulated : ctaid=(11,1,0) tid=(6,2,0)
GPGPU-Sim PTX: 4300000 instructions simulated : ctaid=(0,2,0) tid=(12,1,0)
GPGPU-Sim uArch: cycles simulated: 68000  inst.: 4190771 (ipc=61.6) sim_rate=190489 (inst/sec) elapsed = 0:0:00:22 / Tue Mar 22 07:00:03 2016
GPGPU-Sim uArch: Shader 14 finished CTA #1 (68465,0), 4 CTAs running
GPGPU-Sim uArch: core: 14, cta: 1 initialized @(68466,0)
GPGPU-Sim PTX: 4400000 instructions simulated : ctaid=(10,0,0) tid=(14,6,0)
GPGPU-Sim PTX: 4500000 instructions simulated : ctaid=(2,1,0) tid=(0,5,0)
GPGPU-Sim uArch: cycles simulated: 71000  inst.: 4387269 (ipc=61.8) sim_rate=190750 (inst/sec) elapsed = 0:0:00:23 / Tue Mar 22 07:00:04 2016
GPGPU-Sim PTX: 4600000 instructions simulated : ctaid=(12,2,0) tid=(3,5,0)
GPGPU-Sim uArch: Shader 10 finished CTA #0 (73610,0), 4 CTAs running
GPGPU-Sim uArch: core: 10, cta: 0 initialized @(73611,0)
GPGPU-Sim PTX: 4700000 instructions simulated : ctaid=(0,2,0) tid=(0,6,0)
GPGPU-Sim uArch: Shader 8 finished CTA #0 (74433,0), 4 CTAs running
GPGPU-Sim uArch: core:  8, cta: 0 initialized @(74434,0)
GPGPU-Sim uArch: cycles simulated: 74500  inst.: 4596897 (ipc=61.7) sim_rate=191537 (inst/sec) elapsed = 0:0:00:24 / Tue Mar 22 07:00:05 2016
GPGPU-Sim uArch: Shader 5 finished CTA #0 (74985,0), 4 CTAs running
GPGPU-Sim uArch: core:  5, cta: 0 initialized @(74986,0)
GPGPU-Sim PTX: 4800000 instructions simulated : ctaid=(8,1,0) tid=(0,4,0)
GPGPU-Sim PTX: 4900000 instructions simulated : ctaid=(3,1,0) tid=(14,5,0)
GPGPU-Sim uArch: cycles simulated: 77500  inst.: 4814670 (ipc=62.1) sim_rate=192586 (inst/sec) elapsed = 0:0:00:25 / Tue Mar 22 07:00:06 2016
GPGPU-Sim uArch: Shader 4 finished CTA #1 (78066,0), 4 CTAs running
GPGPU-Sim uArch: core:  4, cta: 1 initialized @(78067,0)
GPGPU-Sim PTX: 5000000 instructions simulated : ctaid=(1,2,0) tid=(0,1,0)
GPGPU-Sim PTX: 5100000 instructions simulated : ctaid=(12,2,0) tid=(6,7,0)
GPGPU-Sim uArch: cycles simulated: 80500  inst.: 5017059 (ipc=62.3) sim_rate=192963 (inst/sec) elapsed = 0:0:00:26 / Tue Mar 22 07:00:07 2016
GPGPU-Sim PTX: 5200000 instructions simulated : ctaid=(11,1,0) tid=(8,5,0)
GPGPU-Sim uArch: Shader 0 finished CTA #2 (82105,0), 4 CTAs running
GPGPU-Sim uArch: core:  0, cta: 2 initialized @(82106,0)
GPGPU-Sim uArch: Shader 1 finished CTA #2 (82137,0), 4 CTAs running
GPGPU-Sim uArch: core:  1, cta: 2 initialized @(82138,0)
GPGPU-Sim uArch: Shader 2 finished CTA #2 (82254,0), 4 CTAs running
GPGPU-Sim uArch: core:  2, cta: 2 initialized @(82255,0)
GPGPU-Sim uArch: Shader 3 finished CTA #2 (82403,0), 4 CTAs running
GPGPU-Sim uArch: core:  3, cta: 2 initialized @(82404,0)
GPGPU-Sim uArch: Shader 12 finished CTA #0 (82634,0), 4 CTAs running
GPGPU-Sim uArch: core: 12, cta: 0 initialized @(82635,0)
GPGPU-Sim PTX: 5300000 instructions simulated : ctaid=(11,2,0) tid=(6,7,0)
GPGPU-Sim uArch: cycles simulated: 84000  inst.: 5215117 (ipc=62.1) sim_rate=193152 (inst/sec) elapsed = 0:0:00:27 / Tue Mar 22 07:00:08 2016
GPGPU-Sim PTX: 5400000 instructions simulated : ctaid=(7,1,0) tid=(11,1,0)
GPGPU-Sim PTX: 5500000 instructions simulated : ctaid=(8,1,0) tid=(0,1,0)
GPGPU-Sim PTX: 5600000 instructions simulated : ctaid=(6,1,0) tid=(8,3,0)
GPGPU-Sim uArch: cycles simulated: 87000  inst.: 5467866 (ipc=62.8) sim_rate=195280 (inst/sec) elapsed = 0:0:00:28 / Tue Mar 22 07:00:09 2016
GPGPU-Sim uArch: Shader 11 finished CTA #0 (87551,0), 4 CTAs running
GPGPU-Sim uArch: core: 11, cta: 0 initialized @(87552,0)
GPGPU-Sim PTX: 5700000 instructions simulated : ctaid=(11,3,0) tid=(1,0,0)
GPGPU-Sim PTX: 5800000 instructions simulated : ctaid=(6,1,0) tid=(15,0,0)
GPGPU-Sim uArch: cycles simulated: 90000  inst.: 5655334 (ipc=62.8) sim_rate=195011 (inst/sec) elapsed = 0:0:00:29 / Tue Mar 22 07:00:10 2016
GPGPU-Sim PTX: 5900000 instructions simulated : ctaid=(6,0,0) tid=(14,6,0)
GPGPU-Sim uArch: Shader 14 finished CTA #2 (92777,0), 4 CTAs running
GPGPU-Sim uArch: core: 14, cta: 2 initialized @(92778,0)
GPGPU-Sim uArch: cycles simulated: 93500  inst.: 5842921 (ipc=62.5) sim_rate=194764 (inst/sec) elapsed = 0:0:00:30 / Tue Mar 22 07:00:11 2016
GPGPU-Sim PTX: 6000000 instructions simulated : ctaid=(9,1,0) tid=(6,2,0)
GPGPU-Sim uArch: Shader 7 finished CTA #0 (93672,0), 4 CTAs running
GPGPU-Sim uArch: core:  7, cta: 0 initialized @(93673,0)
GPGPU-Sim uArch: Shader 6 finished CTA #0 (94400,0), 4 CTAs running
GPGPU-Sim uArch: core:  6, cta: 0 initialized @(94401,0)
GPGPU-Sim PTX: 6100000 instructions simulated : ctaid=(2,6,0) tid=(8,6,0)
GPGPU-Sim PTX: 6200000 instructions simulated : ctaid=(6,1,0) tid=(10,1,0)
GPGPU-Sim uArch: cycles simulated: 96500  inst.: 6109595 (ipc=63.3) sim_rate=197083 (inst/sec) elapsed = 0:0:00:31 / Tue Mar 22 07:00:12 2016
GPGPU-Sim PTX: 6300000 instructions simulated : ctaid=(5,1,0) tid=(0,0,0)
GPGPU-Sim uArch: Shader 13 finished CTA #1 (97875,0), 4 CTAs running
GPGPU-Sim uArch: core: 13, cta: 1 initialized @(97876,0)
GPGPU-Sim PTX: 6400000 instructions simulated : ctaid=(10,3,0) tid=(4,0,0)
GPGPU-Sim uArch: cycles simulated: 99500  inst.: 6311701 (ipc=63.4) sim_rate=197240 (inst/sec) elapsed = 0:0:00:32 / Tue Mar 22 07:00:13 2016
GPGPU-Sim PTX: 6500000 instructions simulated : ctaid=(5,1,0) tid=(3,0,0)
GPGPU-Sim PTX: 6600000 instructions simulated : ctaid=(14,2,0) tid=(12,7,0)
GPGPU-Sim uArch: Shader 4 finished CTA #2 (102646,0), 4 CTAs running
GPGPU-Sim uArch: core:  4, cta: 2 initialized @(102647,0)
GPGPU-Sim uArch: cycles simulated: 103000  inst.: 6500146 (ipc=63.1) sim_rate=196974 (inst/sec) elapsed = 0:0:00:33 / Tue Mar 22 07:00:14 2016
GPGPU-Sim PTX: 6700000 instructions simulated : ctaid=(0,3,0) tid=(12,2,0)
GPGPU-Sim PTX: 6800000 instructions simulated : ctaid=(9,1,0) tid=(6,3,0)
GPGPU-Sim uArch: cycles simulated: 106000  inst.: 6689363 (ipc=63.1) sim_rate=196745 (inst/sec) elapsed = 0:0:00:34 / Tue Mar 22 07:00:15 2016
GPGPU-Sim uArch: Shader 0 finished CTA #3 (106537,0), 4 CTAs running
GPGPU-Sim uArch: core:  0, cta: 3 initialized @(106538,0)
GPGPU-Sim uArch: Shader 1 finished CTA #3 (106580,0), 4 CTAs running
GPGPU-Sim uArch: core:  1, cta: 3 initialized @(106581,0)
GPGPU-Sim PTX: 6900000 instructions simulated : ctaid=(4,1,0) tid=(2,2,0)
GPGPU-Sim uArch: Shader 2 finished CTA #3 (106750,0), 4 CTAs running
GPGPU-Sim uArch: core:  2, cta: 3 initialized @(106751,0)
GPGPU-Sim uArch: Shader 3 finished CTA #3 (106973,0), 4 CTAs running
GPGPU-Sim uArch: core:  3, cta: 3 initialized @(106974,0)
GPGPU-Sim PTX: 7000000 instructions simulated : ctaid=(0,3,0) tid=(15,0,0)
GPGPU-Sim uArch: cycles simulated: 109000  inst.: 6881418 (ipc=63.1) sim_rate=196611 (inst/sec) elapsed = 0:0:00:35 / Tue Mar 22 07:00:16 2016
GPGPU-Sim PTX: 7100000 instructions simulated : ctaid=(10,4,0) tid=(12,3,0)
GPGPU-Sim uArch: Shader 5 finished CTA #1 (110669,0), 4 CTAs running
GPGPU-Sim uArch: core:  5, cta: 1 initialized @(110670,0)
GPGPU-Sim PTX: 7200000 instructions simulated : ctaid=(12,3,0) tid=(15,0,0)
GPGPU-Sim uArch: cycles simulated: 112000  inst.: 7043427 (ipc=62.9) sim_rate=195650 (inst/sec) elapsed = 0:0:00:36 / Tue Mar 22 07:00:17 2016
GPGPU-Sim PTX: 7300000 instructions simulated : ctaid=(14,3,0) tid=(7,1,0)
GPGPU-Sim PTX: 7400000 instructions simulated : ctaid=(8,1,0) tid=(3,4,0)
GPGPU-Sim uArch: cycles simulated: 115500  inst.: 7281561 (ipc=63.0) sim_rate=196798 (inst/sec) elapsed = 0:0:00:37 / Tue Mar 22 07:00:18 2016
GPGPU-Sim PTX: 7500000 instructions simulated : ctaid=(8,1,0) tid=(4,4,0)
GPGPU-Sim PTX: 7600000 instructions simulated : ctaid=(4,1,0) tid=(0,0,0)
GPGPU-Sim uArch: cycles simulated: 118500  inst.: 7484845 (ipc=63.2) sim_rate=196969 (inst/sec) elapsed = 0:0:00:38 / Tue Mar 22 07:00:19 2016
GPGPU-Sim PTX: 7700000 instructions simulated : ctaid=(8,1,0) tid=(9,5,0)
GPGPU-Sim PTX: 7800000 instructions simulated : ctaid=(12,3,0) tid=(10,5,0)
GPGPU-Sim PTX: 7900000 instructions simulated : ctaid=(10,2,0) tid=(15,6,0)
GPGPU-Sim uArch: cycles simulated: 122000  inst.: 7716530 (ipc=63.3) sim_rate=197859 (inst/sec) elapsed = 0:0:00:39 / Tue Mar 22 07:00:20 2016
GPGPU-Sim uArch: Shader 14 finished CTA #3 (122857,0), 4 CTAs running
GPGPU-Sim uArch: core: 14, cta: 3 initialized @(122858,0)
GPGPU-Sim PTX: 8000000 instructions simulated : ctaid=(8,1,0) tid=(6,6,0)
GPGPU-Sim PTX: 8100000 instructions simulated : ctaid=(8,1,0) tid=(2,5,0)
GPGPU-Sim uArch: cycles simulated: 125000  inst.: 7937681 (ipc=63.5) sim_rate=198442 (inst/sec) elapsed = 0:0:00:40 / Tue Mar 22 07:00:21 2016
GPGPU-Sim PTX: 8200000 instructions simulated : ctaid=(9,4,0) tid=(9,1,0)
GPGPU-Sim PTX: 8300000 instructions simulated : ctaid=(9,1,0) tid=(10,5,0)
GPGPU-Sim uArch: Shader 4 finished CTA #3 (127251,0), 4 CTAs running
GPGPU-Sim uArch: core:  4, cta: 3 initialized @(127252,0)
GPGPU-Sim PTX: 8400000 instructions simulated : ctaid=(8,4,0) tid=(9,4,0)
GPGPU-Sim uArch: cycles simulated: 128500  inst.: 8192847 (ipc=63.8) sim_rate=199825 (inst/sec) elapsed = 0:0:00:41 / Tue Mar 22 07:00:22 2016
GPGPU-Sim PTX: 8500000 instructions simulated : ctaid=(12,3,0) tid=(8,4,0)
GPGPU-Sim PTX: 8600000 instructions simulated : ctaid=(10,4,0) tid=(15,7,0)
GPGPU-Sim uArch: Shader 0 finished CTA #4 (130981,0), 4 CTAs running
GPGPU-Sim uArch: core:  0, cta: 4 initialized @(130982,0)
GPGPU-Sim uArch: Shader 1 finished CTA #4 (131019,0), 4 CTAs running
GPGPU-Sim uArch: core:  1, cta: 4 initialized @(131020,0)
GPGPU-Sim uArch: Shader 2 finished CTA #4 (131180,0), 4 CTAs running
GPGPU-Sim uArch: core:  2, cta: 4 initialized @(131181,0)
GPGPU-Sim uArch: Shader 3 finished CTA #4 (131247,0), 4 CTAs running
GPGPU-Sim uArch: core:  3, cta: 4 initialized @(131248,0)
GPGPU-Sim uArch: cycles simulated: 131500  inst.: 8408909 (ipc=63.9) sim_rate=200212 (inst/sec) elapsed = 0:0:00:42 / Tue Mar 22 07:00:23 2016
GPGPU-Sim PTX: 8700000 instructions simulated : ctaid=(12,4,0) tid=(13,1,0)
GPGPU-Sim PTX: 8800000 instructions simulated : ctaid=(13,4,0) tid=(7,3,0)
GPGPU-Sim uArch: cycles simulated: 134500  inst.: 8632370 (ipc=64.2) sim_rate=200752 (inst/sec) elapsed = 0:0:00:43 / Tue Mar 22 07:00:24 2016
GPGPU-Sim uArch: Shader 13 finished CTA #2 (134793,0), 4 CTAs running
GPGPU-Sim uArch: core: 13, cta: 2 initialized @(134794,0)
GPGPU-Sim PTX: 8900000 instructions simulated : ctaid=(15,4,0) tid=(11,3,0)
GPGPU-Sim uArch: Shader 5 finished CTA #2 (135263,0), 4 CTAs running
GPGPU-Sim uArch: core:  5, cta: 2 initialized @(135264,0)
GPGPU-Sim PTX: 9000000 instructions simulated : ctaid=(9,3,0) tid=(13,6,0)
GPGPU-Sim uArch: Shader 12 finished CTA #1 (136859,0), 4 CTAs running
GPGPU-Sim uArch: core: 12, cta: 1 initialized @(136860,0)
GPGPU-Sim uArch: cycles simulated: 138000  inst.: 8860611 (ipc=64.2) sim_rate=201377 (inst/sec) elapsed = 0:0:00:44 / Tue Mar 22 07:00:25 2016
GPGPU-Sim PTX: 9100000 instructions simulated : ctaid=(9,3,0) tid=(7,2,0)
GPGPU-Sim uArch: Shader 6 finished CTA #1 (139414,0), 4 CTAs running
GPGPU-Sim uArch: core:  6, cta: 1 initialized @(139415,0)
GPGPU-Sim PTX: 9200000 instructions simulated : ctaid=(1,3,0) tid=(13,2,0)
GPGPU-Sim uArch: cycles simulated: 141000  inst.: 9055968 (ipc=64.2) sim_rate=201243 (inst/sec) elapsed = 0:0:00:45 / Tue Mar 22 07:00:26 2016
GPGPU-Sim PTX: 9300000 instructions simulated : ctaid=(13,4,0) tid=(6,0,0)
GPGPU-Sim PTX: 9400000 instructions simulated : ctaid=(9,3,0) tid=(6,0,0)
GPGPU-Sim PTX: 9500000 instructions simulated : ctaid=(4,2,0) tid=(3,2,0)
GPGPU-Sim uArch: cycles simulated: 144000  inst.: 9268365 (ipc=64.4) sim_rate=201486 (inst/sec) elapsed = 0:0:00:46 / Tue Mar 22 07:00:27 2016
GPGPU-Sim PTX: 9600000 instructions simulated : ctaid=(9,1,0) tid=(0,5,0)
GPGPU-Sim PTX: 9700000 instructions simulated : ctaid=(15,3,0) tid=(2,6,0)
GPGPU-Sim uArch: Shader 7 finished CTA #1 (146828,0), 4 CTAs running
GPGPU-Sim uArch: core:  7, cta: 1 initialized @(146829,0)
GPGPU-Sim uArch: cycles simulated: 147500  inst.: 9527293 (ipc=64.6) sim_rate=202708 (inst/sec) elapsed = 0:0:00:47 / Tue Mar 22 07:00:28 2016
GPGPU-Sim PTX: 9800000 instructions simulated : ctaid=(4,2,0) tid=(14,3,0)
GPGPU-Sim PTX: 9900000 instructions simulated : ctaid=(4,2,0) tid=(4,1,0)
GPGPU-Sim uArch: cycles simulated: 150500  inst.: 9714514 (ipc=64.5) sim_rate=202385 (inst/sec) elapsed = 0:0:00:48 / Tue Mar 22 07:00:29 2016
GPGPU-Sim PTX: 10000000 instructions simulated : ctaid=(4,2,0) tid=(1,2,0)
GPGPU-Sim uArch: Shader 10 finished CTA #1 (151238,0), 4 CTAs running
GPGPU-Sim uArch: core: 10, cta: 1 initialized @(151239,0)
GPGPU-Sim uArch: Shader 4 finished CTA #4 (151668,0), 4 CTAs running
GPGPU-Sim uArch: core:  4, cta: 4 initialized @(151669,0)
GPGPU-Sim uArch: Shader 9 finished CTA #1 (151697,0), 4 CTAs running
GPGPU-Sim uArch: core:  9, cta: 1 initialized @(151698,0)
GPGPU-Sim PTX: 10100000 instructions simulated : ctaid=(14,4,0) tid=(6,4,0)
GPGPU-Sim PTX: 10200000 instructions simulated : ctaid=(3,2,0) tid=(0,6,0)
GPGPU-Sim uArch: cycles simulated: 153500  inst.: 9938056 (ipc=64.7) sim_rate=202817 (inst/sec) elapsed = 0:0:00:49 / Tue Mar 22 07:00:30 2016
GPGPU-Sim uArch: Shader 0 finished CTA #0 (154277,0), 4 CTAs running
GPGPU-Sim uArch: core:  0, cta: 0 initialized @(154278,0)
GPGPU-Sim uArch: Shader 3 finished CTA #0 (154491,0), 4 CTAs running
GPGPU-Sim uArch: core:  3, cta: 0 initialized @(154492,0)
GPGPU-Sim uArch: Shader 2 finished CTA #0 (154510,0), 4 CTAs running
GPGPU-Sim uArch: core:  2, cta: 0 initialized @(154511,0)
GPGPU-Sim uArch: Shader 1 finished CTA #0 (154669,0), 4 CTAs running
GPGPU-Sim PTX: 10300000 instructions simulated : ctaid=(4,5,0) tid=(5,3,0)
GPGPU-Sim uArch: core:  1, cta: 0 initialized @(154670,0)
GPGPU-Sim PTX: 10400000 instructions simulated : ctaid=(5,5,0) tid=(1,5,0)
GPGPU-Sim uArch: cycles simulated: 156500  inst.: 10163048 (ipc=64.9) sim_rate=203260 (inst/sec) elapsed = 0:0:00:50 / Tue Mar 22 07:00:31 2016
GPGPU-Sim PTX: 10500000 instructions simulated : ctaid=(4,5,0) tid=(11,0,0)
GPGPU-Sim PTX: 10600000 instructions simulated : ctaid=(6,2,0) tid=(12,1,0)
GPGPU-Sim uArch: Shader 5 finished CTA #3 (159733,0), 4 CTAs running
GPGPU-Sim uArch: core:  5, cta: 3 initialized @(159734,0)
GPGPU-Sim uArch: cycles simulated: 160000  inst.: 10400790 (ipc=65.0) sim_rate=203937 (inst/sec) elapsed = 0:0:00:51 / Tue Mar 22 07:00:32 2016
GPGPU-Sim PTX: 10700000 instructions simulated : ctaid=(1,5,0) tid=(8,2,0)
GPGPU-Sim uArch: Shader 11 finished CTA #1 (161405,0), 4 CTAs running
GPGPU-Sim uArch: core: 11, cta: 1 initialized @(161406,0)
GPGPU-Sim PTX: 10800000 instructions simulated : ctaid=(9,4,0) tid=(8,5,0)
GPGPU-Sim PTX: 10900000 instructions simulated : ctaid=(2,5,0) tid=(11,3,0)
GPGPU-Sim uArch: cycles simulated: 163000  inst.: 10625156 (ipc=65.2) sim_rate=204329 (inst/sec) elapsed = 0:0:00:52 / Tue Mar 22 07:00:33 2016
GPGPU-Sim PTX: 11000000 instructions simulated : ctaid=(6,2,0) tid=(1,0,0)
GPGPU-Sim uArch: Shader 6 finished CTA #2 (164271,0), 4 CTAs running
GPGPU-Sim uArch: core:  6, cta: 2 initialized @(164272,0)
GPGPU-Sim PTX: 11100000 instructions simulated : ctaid=(5,2,0) tid=(11,3,0)
GPGPU-Sim uArch: cycles simulated: 166000  inst.: 10850645 (ipc=65.4) sim_rate=204729 (inst/sec) elapsed = 0:0:00:53 / Tue Mar 22 07:00:34 2016
GPGPU-Sim PTX: 11200000 instructions simulated : ctaid=(3,5,0) tid=(6,3,0)
GPGPU-Sim uArch: Shader 8 finished CTA #1 (167091,0), 4 CTAs running
GPGPU-Sim uArch: core:  8, cta: 1 initialized @(167092,0)
GPGPU-Sim PTX: 11300000 instructions simulated : ctaid=(2,3,0) tid=(2,3,0)
GPGPU-Sim PTX: 11400000 instructions simulated : ctaid=(5,2,0) tid=(2,2,0)
GPGPU-Sim uArch: cycles simulated: 169000  inst.: 11101888 (ipc=65.7) sim_rate=205590 (inst/sec) elapsed = 0:0:00:54 / Tue Mar 22 07:00:35 2016
GPGPU-Sim PTX: 11500000 instructions simulated : ctaid=(8,2,0) tid=(8,2,0)
GPGPU-Sim PTX: 11600000 instructions simulated : ctaid=(1,5,0) tid=(10,7,0)
GPGPU-Sim uArch: cycles simulated: 172000  inst.: 11311562 (ipc=65.8) sim_rate=205664 (inst/sec) elapsed = 0:0:00:55 / Tue Mar 22 07:00:36 2016
GPGPU-Sim uArch: Shader 7 finished CTA #2 (172931,0), 4 CTAs running
GPGPU-Sim uArch: core:  7, cta: 2 initialized @(172932,0)
GPGPU-Sim PTX: 11700000 instructions simulated : ctaid=(0,4,0) tid=(8,7,0)
GPGPU-Sim PTX: 11800000 instructions simulated : ctaid=(8,2,0) tid=(8,2,0)
GPGPU-Sim uArch: Shader 4 finished CTA #0 (175052,0), 4 CTAs running
GPGPU-Sim uArch: core:  4, cta: 0 initialized @(175053,0)
GPGPU-Sim uArch: cycles simulated: 175500  inst.: 11547879 (ipc=65.8) sim_rate=206212 (inst/sec) elapsed = 0:0:00:56 / Tue Mar 22 07:00:37 2016
GPGPU-Sim PTX: 11900000 instructions simulated : ctaid=(11,5,0) tid=(6,0,0)
GPGPU-Sim PTX: 12000000 instructions simulated : ctaid=(11,5,0) tid=(6,6,0)
GPGPU-Sim uArch: Shader 0 finished CTA #1 (177697,0), 4 CTAs running
GPGPU-Sim uArch: core:  0, cta: 1 initialized @(177698,0)
GPGPU-Sim uArch: Shader 2 finished CTA #1 (177980,0), 4 CTAs running
GPGPU-Sim uArch: core:  2, cta: 1 initialized @(177981,0)
GPGPU-Sim uArch: Shader 1 finished CTA #1 (178219,0), 4 CTAs running
GPGPU-Sim uArch: core:  1, cta: 1 initialized @(178220,0)
GPGPU-Sim uArch: Shader 3 finished CTA #1 (178256,0), 4 CTAs running
GPGPU-Sim uArch: core:  3, cta: 1 initialized @(178257,0)
GPGPU-Sim PTX: 12100000 instructions simulated : ctaid=(11,5,0) tid=(9,1,0)
GPGPU-Sim uArch: cycles simulated: 178500  inst.: 11789361 (ipc=66.0) sim_rate=206830 (inst/sec) elapsed = 0:0:00:57 / Tue Mar 22 07:00:38 2016
GPGPU-Sim uArch: Shader 14 finished CTA #4 (178958,0), 4 CTAs running
GPGPU-Sim uArch: core: 14, cta: 4 initialized @(178959,0)
GPGPU-Sim PTX: 12200000 instructions simulated : ctaid=(5,2,0) tid=(9,7,0)
GPGPU-Sim PTX: 12300000 instructions simulated : ctaid=(12,5,0) tid=(15,1,0)
GPGPU-Sim uArch: cycles simulated: 181500  inst.: 12043511 (ipc=66.4) sim_rate=207646 (inst/sec) elapsed = 0:0:00:58 / Tue Mar 22 07:00:39 2016
GPGPU-Sim PTX: 12400000 instructions simulated : ctaid=(11,5,0) tid=(10,1,0)
GPGPU-Sim PTX: 12500000 instructions simulated : ctaid=(14,5,0) tid=(8,3,0)
GPGPU-Sim uArch: Shader 5 finished CTA #4 (184158,0), 4 CTAs running
GPGPU-Sim uArch: core:  5, cta: 4 initialized @(184159,0)
GPGPU-Sim uArch: cycles simulated: 184500  inst.: 12243853 (ipc=66.4) sim_rate=207522 (inst/sec) elapsed = 0:0:00:59 / Tue Mar 22 07:00:40 2016
GPGPU-Sim PTX: 12600000 instructions simulated : ctaid=(2,3,0) tid=(15,4,0)
GPGPU-Sim PTX: 12700000 instructions simulated : ctaid=(9,2,0) tid=(7,4,0)
GPGPU-Sim uArch: Shader 13 finished CTA #3 (187125,0), 4 CTAs running
GPGPU-Sim uArch: core: 13, cta: 3 initialized @(187126,0)
GPGPU-Sim uArch: cycles simulated: 187500  inst.: 12450864 (ipc=66.4) sim_rate=207514 (inst/sec) elapsed = 0:0:01:00 / Tue Mar 22 07:00:41 2016
GPGPU-Sim PTX: 12800000 instructions simulated : ctaid=(3,3,0) tid=(4,5,0)
GPGPU-Sim uArch: Shader 6 finished CTA #3 (188860,0), 4 CTAs running
GPGPU-Sim uArch: core:  6, cta: 3 initialized @(188861,0)
GPGPU-Sim PTX: 12900000 instructions simulated : ctaid=(6,2,0) tid=(0,7,0)
GPGPU-Sim PTX: 13000000 instructions simulated : ctaid=(8,2,0) tid=(6,1,0)
GPGPU-Sim uArch: Shader 8 finished CTA #2 (190345,0), 4 CTAs running
GPGPU-Sim uArch: core:  8, cta: 2 initialized @(190346,0)
GPGPU-Sim uArch: cycles simulated: 190500  inst.: 12684822 (ipc=66.6) sim_rate=207947 (inst/sec) elapsed = 0:0:01:01 / Tue Mar 22 07:00:42 2016
GPGPU-Sim PTX: 13100000 instructions simulated : ctaid=(6,2,0) tid=(6,7,0)
GPGPU-Sim PTX: 13200000 instructions simulated : ctaid=(11,5,0) tid=(14,4,0)
GPGPU-Sim PTX: 13300000 instructions simulated : ctaid=(13,5,0) tid=(14,7,0)
GPGPU-Sim uArch: cycles simulated: 193500  inst.: 12950574 (ipc=66.9) sim_rate=208880 (inst/sec) elapsed = 0:0:01:02 / Tue Mar 22 07:00:43 2016
GPGPU-Sim PTX: 13400000 instructions simulated : ctaid=(1,4,0) tid=(14,1,0)
GPGPU-Sim uArch: Shader 7 finished CTA #3 (196213,0), 4 CTAs running
GPGPU-Sim uArch: core:  7, cta: 3 initialized @(196214,0)
GPGPU-Sim PTX: 13500000 instructions simulated : ctaid=(4,3,0) tid=(10,6,0)
GPGPU-Sim uArch: cycles simulated: 197000  inst.: 13165989 (ipc=66.8) sim_rate=208983 (inst/sec) elapsed = 0:0:01:03 / Tue Mar 22 07:00:44 2016
GPGPU-Sim PTX: 13600000 instructions simulated : ctaid=(4,3,0) tid=(11,0,0)
[...]
traffic_breakdown_memtocore[LOCAL_ACC_R] = 969136 {136:7126,}
traffic_breakdown_memtocore[LOCAL_ACC_W] = 390216 {8:48777,}
maxmrqlatency = 367 
maxdqlatency = 0 
maxmflatency = 1637 
averagemflatency = 186 
max_icnt2mem_latency = 977 
max_icnt2sh_latency = 869817 
mrq_lat_table:14073 	1313 	668 	1443 	5002 	2685 	2126 	645 	42 	0 	0 	0 	0 	0 	0 	0 	0 	0 	0 	0 	0 	0 	0 	0 	0 	0 	0 	0 	0 	0 	0 	0 	
dq_lat_table:0 	0 	0 	0 	0 	0 	0 	0 	0 	0 	0 	0 	0 	0 	0 	0 	0 	0 	0 	0 	0 	0 	0 	0 	0 	0 	0 	0 	0 	0 	0 	0 	
mf_lat_table:0 	0 	0 	0 	0 	0 	0 	59092 	7984 	737 	438 	0 	0 	0 	0 	0 	0 	0 	0 	0 	0 	0 	0 	0 	0 	0 	0 	0 	0 	0 	0 	0 	
icnt2mem_lat_table:0 	0 	0 	87770 	23180 	12479 	2247 	321 	160 	257 	0 	0 	0 	0 	0 	0 	0 	0 	0 	0 	0 	0 	0 	0 	
icnt2sh_lat_table:0 	0 	0 	5871 	4287 	1124 	0 	0 	0 	92 	305 	263 	762 	240 	556 	2727 	4613 	7764 	15185 	24462 	0 	0 	0 	0 	
mf_lat_pw_table:0 	0 	0 	0 	0 	0 	0 	1652 	36 	6 	2 	0 	0 	0 	0 	0 	0 	0 	0 	0 	0 	0 	0 	0 	0 	0 	0 	0 	0 	0 	0 	0 	
maximum concurrent accesses to same row:
dram[0]:        10        20        12        12        12        23        16        16        16        12        14        18        20        20        26        28 
dram[1]:        20        20        13         8        13        16        21        17        16        18        18        28        20        20        24        28 
dram[2]:        20        20        20        10        15        24        18        16        32        12        12        16        20        20        34        28 
dram[3]:        20        20        17        14        13        16        20        16        16        12        16        18        20        20        24        28 
dram[4]:        20        20        14        16        22        17        16        16        16        14        16        14        20        20        28        28 
dram[5]:        20        20        15        13        14        20        27        19        18        12        18        12        20        20        28        28 
maximum service time to same row:
dram[0]:     84340     77313    145936    100523     73332     96181     51024     66475     60093     80056     42023     41561    151471     69625     59724    120503 
dram[1]:     70715     92031     99485    111243     58346    120091     50826    101633     60752     80917     66811    100663    135731    163399    104668    112206 
dram[2]:     73797     84769    155969    113729    113911    124447     66494     76210     76240     32701     58053     67955    128319     91656    150928    170229 
dram[3]:    150575    111603    117922    113988    106401     67007     67467     84721     66288     39979     61528     94047    116784     52986    187616     56710 
dram[4]:     83031     72252     65374     98675     73919     49797     48850     68334     37462     49753     55534     52390     97955     77215     71064    117362 
dram[5]:     97629     93476    120967     91444     66771    104566     50599     89247     61669     47860     57445    100700    120207     78969     82296    173820 
average row accesses per activate:
dram[0]:  3.111111  3.535211  3.854839  3.587301  3.586207  3.423077  2.936364  3.174312  3.036036  2.808696  2.870690  3.296703  3.448276  3.164948  3.917808  3.724638 
dram[1]:  3.784615  3.467742  3.606557  3.545455  3.188889  3.166667  3.170000  3.393258  3.158879  3.032258  3.402299  3.285714  3.134021  3.376623  3.628572  3.701754 
dram[2]:  3.212500  3.873240  3.645161  3.387500  3.202381  3.568182  3.173077  2.973913  3.275510  2.760563  2.990566  2.952830  3.438202  3.205607  4.112903  3.532468 
dram[3]:  3.707692  3.984848  3.211268  3.373333  3.034483  3.066038  3.039216  3.008850  3.122449  2.740741  3.010309  3.127451  3.228916  3.026316  3.822581  3.136364 
dram[4]:  3.475610  3.284091  3.380282  3.809524  3.066038  3.322917  2.750000  2.893805  2.878049  3.098214  2.942308  3.115385  3.057143  3.061224  3.630137  3.531646 
dram[5]:  3.679487  3.000000  3.315789  3.123288  2.783784  3.564706  2.872000  3.118812  2.752000  2.661538  3.089109  3.029412  3.027273  2.917526  3.882353  3.506849 
average row locality = 27997/8718 = 3.211402
number of total memory accesses made:
dram[0]:         0         0         0         0         0         0         0         0         0         0         0         0         0         0         0         0 
dram[1]:         0         0         0         0         0         0         0         0         0         0         0         0         0         0         0         0 
dram[2]:         0         0         0         0         0         0         0         0         0         0         0         0         0         0         0         0 
dram[3]:         0         0         0         0         0         0         0         0         0         0         0         0         0         0         0         0 
dram[4]:         0         0         0         0         0         0         0         0         0         0         0         0         0         0         0         0 
dram[5]:         0         0         0         0         0         0         0         0         0         0         0         0         0         0         0         0 
total accesses: 0
min_bank_accesses = 0!
min_chip_accesses = 0!
number of total read accesses:
dram[0]:       107       101        98        94       120       107       129       140       135       131       139       125       134       138       127       116 
dram[1]:       106        89        93        82       111       104       125       119       136       118       124       118       135       120       114        99 
dram[2]:       106       115        95       110       108       122       132       137       130       154       131       130       133       147       116       122 
dram[3]:       101       111        95       104       106       127       124       135       125       148       123       134       122       150       109       124 
dram[4]:       116       115        99        97       128       123       135       131       142       140       126       132       141       134       117       123 
dram[5]:       118       107       102        93       122       118       142       125       140       139       131       127       146       127       117       114 
total reads: 11627
bank skew: 154/82 = 1.88
chip skew: 1999/1793 = 1.11
number of total write accesses:
dram[0]:       145       150       141       132       192       160       194       206       202       192       194       175       166       169       159       141 
dram[1]:       140       126       127       113       176       162       192       183       202       164       172       158       169       140       140       112 
dram[2]:       151       160       131       161       161       192       198       205       191       238       186       183       173       196       139       150 
dram[3]:       140       152       133       149       158       198       186       205       181       222       169       185       146       195       128       152 
dram[4]:       169       174       141       143       197       196       206       196       212       207       180       192       180       166       148       156 
dram[5]:       169       160       150       135       187       185       217       190       204       207       181       182       187       156       147       142 
total reads: 16370
bank skew: 238/112 = 2.12
chip skew: 2863/2476 = 1.16
average mf latency per bank:
dram[0]:        576       406       519       511       373       472       452       414       434       423       408       472       485       458       403       442
dram[1]:        551       493       551       602       427       445       452       479       431       492       446       512       489       547       475       578
dram[2]:        461       505       576       412       456       415       424       414       418       348       417       429       448       406       448       414
dram[3]:        491       522       557       452       465       413       462       417       456       384       469       437       534       409       508       442
dram[4]:        445       401       500       538       384       402       417       434       401       424       458       424       445       489       449       423
dram[5]:        449       420       491       541       418       445       419       469       432       424       454       466       450       522       466       490
maximum mf latency per bank:
dram[0]:        993       682       874       773      1050      1019      1249      1093      1235      1034      1331      1140      1370      1287      1204       867
dram[1]:       1233      1221      1271      1343      1325      1343      1397      1308      1280      1298      1298      1365      1544      1411      1428      1321
dram[2]:        691       837       901       775       911      1085      1158      1211      1140      1080      1149      1197      1245      1193       969      1064
dram[3]:       1084      1286      1370      1108      1232      1420      1420      1414      1382      1388      1387      1427      1637      1510      1295      1454
dram[4]:        819       894       961       827       969      1094      1278      1272      1148      1098      1158      1203      1269      1312      1178      1118
dram[5]:       1212      1382      1460      1316      1413      1542      1554      1496      1462      1357      1420      1444      1610      1568      1473      1519

Number of Memory Banks Accessed per Memory Operation per Warp (from 0):
0	0	0	0	0	0	0	0	0	0	0	0	0	0	0	0	0	0	0	0	0	0	0	0	0	0	0	0	0	0	0	0	0	0	0	0	0	0	0	0	0	0	0	0	0	0	0	0	0	0	0	0	0	0	0	0	0	0	0	0	0	0	0	0	0	0	0	0	0	0	0	0	0	0	0	0	0	0	0	0	0	0	0	0	0	0	0	0	0	0	0	0	0	0	0	0	
Average # of Memory Banks Accessed per Memory Operation per Warp=-nan

position of mrq chosen
0	0	0	0	0	0	0	0	0	0	0	0	0	0	0	0	

average position of mrq chosen = -nan
Memory Partition 0: 
Cache L2_bank_000:
MSHR contents

Cache L2_bank_001:
MSHR contents

In Dram Latency Queue (total = 0): 
DRAM[0]: 16 bks, busW=4 BL=8 CL=12, tRRD=2 tCCD=6, tRCD=12 tRAS=28 tRP=12 tRC=40
n_cmd=1148159 n_nop=1136371 n_act=1420 n_pre=1404 n_req=4659 n_rd=3882 n_write=5082 bw_util=0.01561
n_activity=57509 dram_eff=0.3117
bk0: 214a 1141440i bk1: 202a 1142080i bk2: 196a 1142432i bk3: 188a 1141980i bk4: 240a 1140302i bk5: 214a 1140931i bk6: 258a 1139530i bk7: 280a 1138865i bk8: 270a 1139406i bk9: 262a 1139358i bk10: 278a 1139047i bk11: 250a 1139675i bk12: 268a 1140230i bk13: 276a 1139591i bk14: 254a 1141555i bk15: 232a 1141881i 
dram_util_bins: 0 0 0 0 0 0 0 0 0 0
dram_eff_bins: 0 0 0 0 0 0 0 0 0 0
mrqq: max=16 avg=0.10693
Memory Partition 1: 
Cache L2_bank_002:
MSHR contents

Cache L2_bank_003:
MSHR contents

In Dram Latency Queue (total = 0): 
DRAM[1]: 16 bks, busW=4 BL=8 CL=12, tRRD=2 tCCD=6, tRCD=12 tRAS=28 tRP=12 tRC=40
n_cmd=1148159 n_nop=1137444 n_act=1278 n_pre=1262 n_req=4269 n_rd=3586 n_write=4589 bw_util=0.01424
n_activity=46858 dram_eff=0.3489
bk0: 212a 1140466i bk1: 178a 1141179i bk2: 186a 1140979i bk3: 164a 1140834i bk4: 222a 1139062i bk5: 208a 1139495i bk6: 250a 1138424i bk7: 238a 1138166i bk8: 272a 1138840i bk9: 236a 1139317i bk10: 248a 1139364i bk11: 236a 1139722i bk12: 270a 1138979i bk13: 240a 1139983i bk14: 228a 1140605i bk15: 198a 1141601i 
dram_util_bins: 0 0 0 0 0 0 0 0 0 0
dram_eff_bins: 0 0 0 0 0 0 0 0 0 0
mrqq: max=16 avg=0.119193
Memory Partition 2: 
Cache L2_bank_004:
MSHR contents

Cache L2_bank_005:
MSHR contents

In Dram Latency Queue (total = 0): 
DRAM[2]: 16 bks, busW=4 BL=8 CL=12, tRRD=2 tCCD=6, tRCD=12 tRAS=28 tRP=12 tRC=40
n_cmd=1148159 n_nop=1135985 n_act=1471 n_pre=1455 n_req=4803 n_rd=3976 n_write=5272 bw_util=0.01611
n_activity=59155 dram_eff=0.3127
bk0: 212a 1141743i bk1: 230a 1141896i bk2: 190a 1142444i bk3: 220a 1141568i bk4: 216a 1141120i bk5: 244a 1140370i bk6: 264a 1139569i bk7: 274a 1139184i bk8: 260a 1139780i bk9: 308a 1138375i bk10: 262a 1139806i bk11: 260a 1139389i bk12: 266a 1139987i bk13: 294a 1139196i bk14: 232a 1142326i bk15: 244a 1141745i 
dram_util_bins: 0 0 0 0 0 0 0 0 0 0
dram_eff_bins: 0 0 0 0 0 0 0 0 0 0
mrqq: max=16 avg=0.0950583
Memory Partition 3: 
Cache L2_bank_006:
MSHR contents

Cache L2_bank_007:
MSHR contents

In Dram Latency Queue (total = 0): 
DRAM[3]: 16 bks, busW=4 BL=8 CL=12, tRRD=2 tCCD=6, tRCD=12 tRAS=28 tRP=12 tRC=40
n_cmd=1148159 n_nop=1136336 n_act=1464 n_pre=1448 n_req=4637 n_rd=3876 n_write=5035 bw_util=0.01552
n_activity=51779 dram_eff=0.3442
bk0: 202a 1140804i bk1: 222a 1140834i bk2: 190a 1140814i bk3: 208a 1140640i bk4: 212a 1139726i bk5: 254a 1138610i bk6: 248a 1138836i bk7: 270a 1138271i bk8: 250a 1139280i bk9: 296a 1137162i bk10: 246a 1139094i bk11: 268a 1138716i bk12: 244a 1139821i bk13: 300a 1138258i bk14: 218a 1141360i bk15: 248a 1139656i 
dram_util_bins: 0 0 0 0 0 0 0 0 0 0
dram_eff_bins: 0 0 0 0 0 0 0 0 0 0
mrqq: max=16 avg=0.112703
Memory Partition 4: 
Cache L2_bank_008:
MSHR contents

Cache L2_bank_009:
MSHR contents

In Dram Latency Queue (total = 0): 
DRAM[4]: 16 bks, busW=4 BL=8 CL=12, tRRD=2 tCCD=6, tRCD=12 tRAS=28 tRP=12 tRC=40
n_cmd=1148159 n_nop=1135732 n_act=1541 n_pre=1525 n_req=4862 n_rd=3998 n_write=5363 bw_util=0.01631
n_activity=59979 dram_eff=0.3121
bk0: 232a 1141284i bk1: 230a 1141311i bk2: 198a 1142099i bk3: 194a 1142146i bk4: 256a 1139893i bk5: 246a 1140071i bk6: 270a 1139433i bk7: 262a 1139045i bk8: 284a 1139306i bk9: 280a 1139825i bk10: 252a 1140123i bk11: 264a 1139752i bk12: 282a 1139845i bk13: 268a 1140076i bk14: 234a 1141811i bk15: 246a 1141569i 
dram_util_bins: 0 0 0 0 0 0 0 0 0 0
dram_eff_bins: 0 0 0 0 0 0 0 0 0 0
mrqq: max=16 avg=0.0907975
Memory Partition 5: 
Cache L2_bank_010:
MSHR contents

Cache L2_bank_011:
MSHR contents

In Dram Latency Queue (total = 0): 
DRAM[5]: 16 bks, busW=4 BL=8 CL=12, tRRD=2 tCCD=6, tRCD=12 tRAS=28 tRP=12 tRC=40
n_cmd=1148159 n_nop=1135919 n_act=1544 n_pre=1528 n_req=4767 n_rd=3936 n_write=5232 bw_util=0.01597
n_activity=54557 dram_eff=0.3361
bk0: 236a 1140939i bk1: 214a 1140287i bk2: 204a 1140426i bk3: 186a 1141240i bk4: 244a 1138866i bk5: 236a 1138738i bk6: 284a 1138231i bk7: 250a 1138088i bk8: 280a 1138561i bk9: 278a 1138332i bk10: 262a 1139104i bk11: 254a 1139183i bk12: 292a 1138647i bk13: 254a 1139653i bk14: 234a 1141031i bk15: 228a 1140739i 
dram_util_bins: 0 0 0 0 0 0 0 0 0 0
dram_eff_bins: 0 0 0 0 0 0 0 0 0 0
mrqq: max=16 avg=0.107137

========= L2 cache stats =========
L2_cache_bank[0]: Access = 9524, Miss = 989, Miss_rate = 0.104, Pending_hits = 23, Reservation_fails = 902
L2_cache_bank[1]: Access = 11440, Miss = 952, Miss_rate = 0.083, Pending_hits = 16, Reservation_fails = 380
L2_cache_bank[2]: Access = 9271, Miss = 944, Miss_rate = 0.102, Pending_hits = 28, Reservation_fails = 733
L2_cache_bank[3]: Access = 10559, Miss = 849, Miss_rate = 0.080, Pending_hits = 24, Reservation_fails = 381
L2_cache_bank[4]: Access = 9416, Miss = 951, Miss_rate = 0.101, Pending_hits = 19, Reservation_fails = 449
L2_cache_bank[5]: Access = 11207, Miss = 1037, Miss_rate = 0.093, Pending_hits = 21, Reservation_fails = 386
L2_cache_bank[6]: Access = 10352, Miss = 905, Miss_rate = 0.087, Pending_hits = 22, Reservation_fails = 391
L2_cache_bank[7]: Access = 10912, Miss = 1033, Miss_rate = 0.095, Pending_hits = 21, Reservation_fails = 344
L2_cache_bank[8]: Access = 11629, Miss = 1004, Miss_rate = 0.086, Pending_hits = 20, Reservation_fails = 283
L2_cache_bank[9]: Access = 10019, Miss = 995, Miss_rate = 0.099, Pending_hits = 17, Reservation_fails = 291
L2_cache_bank[10]: Access = 11973, Miss = 1018, Miss_rate = 0.085, Pending_hits = 21, Reservation_fails = 381
L2_cache_bank[11]: Access = 10112, Miss = 950, Miss_rate = 0.094, Pending_hits = 23, Reservation_fails = 387
L2_total_cache_accesses = 126414
L2_total_cache_misses = 11627
L2_total_cache_miss_rate = 0.0920
L2_total_cache_pending_hits = 255
L2_total_cache_reservation_fails = 5308
L2_total_cache_breakdown:
	L2_cache_stats_breakdown[GLOBAL_ACC_R][HIT] = 4095
	L2_cache_stats_breakdown[GLOBAL_ACC_R][HIT_RESERVED] = 6
	L2_cache_stats_breakdown[GLOBAL_ACC_R][MISS] = 25
	L2_cache_stats_breakdown[GLOBAL_ACC_R][RESERVATION_FAIL] = 372
	L2_cache_stats_breakdown[LOCAL_ACC_R][HIT] = 7120
	L2_cache_stats_breakdown[LOCAL_ACC_R][HIT_RESERVED] = 6
	L2_cache_stats_breakdown[CONST_ACC_R][HIT] = 22
	L2_cache_stats_breakdown[CONST_ACC_R][HIT_RESERVED] = 6
	L2_cache_stats_breakdown[CONST_ACC_R][MISS] = 2
	L2_cache_stats_breakdown[CONST_ACC_R][RESERVATION_FAIL] = 314
	L2_cache_stats_breakdown[GLOBAL_ACC_W][HIT] = 6030
	L2_cache_stats_breakdown[GLOBAL_ACC_W][HIT_RESERVED] = 98
	L2_cache_stats_breakdown[GLOBAL_ACC_W][MISS] = 2064
	L2_cache_stats_breakdown[LOCAL_ACC_W][HIT] = 40361
	L2_cache_stats_breakdown[LOCAL_ACC_W][MISS] = 8416
	L2_cache_stats_breakdown[LOCAL_ACC_W][RESERVATION_FAIL] = 13
	L2_cache_stats_breakdown[L1_WRBK_ACC][HIT] = 3099
	L2_cache_stats_breakdown[L1_WRBK_ACC][MISS] = 1072
	L2_cache_stats_breakdown[INST_ACC_R][HIT] = 53805
	L2_cache_stats_breakdown[INST_ACC_R][HIT_RESERVED] = 139
	L2_cache_stats_breakdown[INST_ACC_R][MISS] = 48
	L2_cache_stats_breakdown[INST_ACC_R][RESERVATION_FAIL] = 4609
L2_cache_data_port_util = 0.042
L2_cache_fill_port_util = 0.004

icnt_total_pkts_mem_to_simt=383279
icnt_total_pkts_simt_to_mem=351380
LD_mem_lat_dist  0 0 0 0 0 0 0 0 0 0 0 0 0 0 0 0 0 0 0 0 0 0 0 0 0 0 0
ST_mem_lat_dist  0 0 0 0 0 0 0 0 0 0 0 0 0 0 0 0 0 0 0 0 0 0 0 0 0 0 0
----------------------------Interconnect-DETAILS--------------------------------
Class 0:
Packet latency average = 10.2969
	minimum = 6
	maximum = 467
Network latency average = 9.30898
	minimum = 6
	maximum = 456
Slowest packet = 848
Flit latency average = 7.71081
	minimum = 6
	maximum = 452
Slowest flit = 6572
Fragmentation average = 0.0259675
	minimum = 0
	maximum = 412
Injected packet rate average = 0.0105879
	minimum = 0.00873171 (at node 0)
	maximum = 0.013366 (at node 25)
Accepted packet rate average = 0.0105879
	minimum = 0.0085949 (at node 0)
	maximum = 0.0137649 (at node 25)
Injected flit rate average = 0.0312819
	minimum = 0.024389 (at node 0)
	maximum = 0.0446829 (at node 25)
Accepted flit rate average= 0.0312819
	minimum = 0.0263825 (at node 0)
	maximum = 0.0357098 (at node 23)
Injected packet length average = 2.95451
Accepted packet length average = 2.95451
Total in-flight flits = 0 (0 measured)
====== Overall Traffic Statistics ======
====== Traffic class 0 ======
Packet latency average = 10.2969 (1 samples)
	minimum = 6 (1 samples)
	maximum = 467 (1 samples)
Network latency average = 9.30898 (1 samples)
	minimum = 6 (1 samples)
	maximum = 456 (1 samples)
Flit latency average = 7.71081 (1 samples)
	minimum = 6 (1 samples)
	maximum = 452 (1 samples)
Fragmentation average = 0.0259675 (1 samples)
	minimum = 0 (1 samples)
	maximum = 412 (1 samples)
Injected packet rate average = 0.0105879 (1 samples)
	minimum = 0.00873171 (1 samples)
	maximum = 0.013366 (1 samples)
Accepted packet rate average = 0.0105879 (1 samples)
	minimum = 0.0085949 (1 samples)
	maximum = 0.0137649 (1 samples)
Injected flit rate average = 0.0312819 (1 samples)
	minimum = 0.024389 (1 samples)
	maximum = 0.0446829 (1 samples)
Accepted flit rate average = 0.0312819 (1 samples)
	minimum = 0.0263825 (1 samples)
	maximum = 0.0357098 (1 samples)
Injected packet size average = 2.95451 (1 samples)
Accepted packet size average = 2.95451 (1 samples)
Hops average = 1 (1 samples)
----------------------------END-of-Interconnect-DETAILS-------------------------


gpgpu_simulation_time = 0 days, 0 hrs, 4 min, 39 sec (279 sec)
gpgpu_simulation_rate = 224668 (inst/sec)
gpgpu_simulation_rate = 3117 (cycle/sec)
GPGPU-Sim API: Stream Manager State
GPGPU-Sim: detected inactive GPU simulation thread

checksum=75ef40cb5b8e
Kernel Time: 277942.718750 
