

        *** GPGPU-Sim Simulator Version 3.2.2  [build 0] ***


GPGPU-Sim PTX: simulation mode 0 (can change with PTX_SIM_MODE_FUNC environment variable:
               1=functional simulation only, 0=detailed performance simulator)
GPGPU-Sim: Configuration options:

-network_mode                           1 # Interconnection network mode
-inter_config_file   config_fermi_islip.icnt # Interconnection network config file
-gpgpu_ptx_use_cuobjdump                    1 # Use cuobjdump to extract ptx and sass from binaries
-gpgpu_experimental_lib_support                    0 # Try to extract code from cuda libraries [Broken because of unknown cudaGetExportTable]
-gpgpu_ptx_convert_to_ptxplus                    0 # Convert SASS (native ISA) to ptxplus and run ptxplus
-gpgpu_ptx_force_max_capability                   20 # Force maximum compute capability
-gpgpu_ptx_inst_debug_to_file                    0 # Dump executed instructions' debug information to file
-gpgpu_ptx_inst_debug_file       inst_debug.txt # Executed instructions' debug output file
-gpgpu_ptx_inst_debug_thread_uid                    1 # Thread UID for executed instructions' debug output
-gpgpu_simd_model                       1 # 1 = post-dominator
-gpgpu_shader_core_pipeline              1536:32 # shader core pipeline config, i.e., {<nthread>:<warpsize>}
-gpgpu_tex_cache:l1  4:128:24,L:R:m:N:L,F:128:4,128:2 # per-shader L1 texture cache  (READ-ONLY) config  {<nsets>:<bsize>:<assoc>,<rep>:<wr>:<alloc>:<wr_alloc>,<mshr>:<N>:<merge>,<mq>:<rf>}
-gpgpu_const_cache:l1 64:64:2,L:R:f:N:L,A:2:32,4 # per-shader L1 constant memory cache  (READ-ONLY) config  {<nsets>:<bsize>:<assoc>,<rep>:<wr>:<alloc>:<wr_alloc>,<mshr>:<N>:<merge>,<mq>} 
-gpgpu_cache:il1     4:128:4,L:R:f:N:L,A:2:32,4 # shader L1 instruction cache config  {<nsets>:<bsize>:<assoc>,<rep>:<wr>:<alloc>:<wr_alloc>,<mshr>:<N>:<merge>,<mq>} 
-gpgpu_cache:dl1     32:128:4,L:L:m:N:H,A:32:8,8:2,0,1:0:1:1:0:1,1:4:8:16:32:64,/sciclone/data10/hwang07/GPU_RESEARCH/swl/swl_outputs/RESULTS/twolevel601/ # per-shader L1 data cache config  {<nsets>:<bsize>:<assoc>,<rep>:<wr>:<alloc>:<wr_alloc>,<mshr>:<N>:<merge>,<mq> | none}
-gpgpu_cache:dl1PrefL1                 none # per-shader L1 data cache config  {<nsets>:<bsize>:<assoc>,<rep>:<wr>:<alloc>:<wr_alloc>,<mshr>:<N>:<merge>,<mq> | none}
-gpgpu_cache:dl1PreShared                 none # per-shader L1 data cache config  {<nsets>:<bsize>:<assoc>,<rep>:<wr>:<alloc>:<wr_alloc>,<mshr>:<N>:<merge>,<mq> | none}
-gmem_skip_L1D                          0 # global memory access skip L1D cache (implements -Xptxas -dlcm=cg, default=no skip)
-gpgpu_perfect_mem                      0 # enable perfect memory mode (no cache miss)
-n_regfile_gating_group                    4 # group of lanes that should be read/written together)
-gpgpu_clock_gated_reg_file                    0 # enable clock gated reg file for power calculations
-gpgpu_clock_gated_lanes                    0 # enable clock gated lanes for power calculations
-gpgpu_shader_registers                32768 # Number of registers per shader core. Limits number of concurrent CTAs. (default 8192)
-gpgpu_shader_cta                       8 # Maximum number of concurrent CTAs in shader (default 8)
-gpgpu_num_cta_barriers                   16 # Maximum number of named barriers per CTA (default 16)
-gpgpu_n_clusters                      15 # number of processing clusters
-gpgpu_n_cores_per_cluster                    1 # number of simd cores per cluster
-gpgpu_n_cluster_ejection_buffer_size                    8 # number of packets in ejection buffer
-gpgpu_n_ldst_response_buffer_size                    2 # number of response packets in ld/st unit ejection buffer
-gpgpu_shmem_size                   16384 # Size of shared memory per shader core (default 16kB)
-gpgpu_shmem_size                   49152 # Size of shared memory per shader core (default 16kB)
-gpgpu_shmem_size_PrefL1                16384 # Size of shared memory per shader core (default 16kB)
-gpgpu_shmem_size_PrefShared                16384 # Size of shared memory per shader core (default 16kB)
-gpgpu_shmem_num_banks                   32 # Number of banks in the shared memory in each shader core (default 16)
-gpgpu_shmem_limited_broadcast                    0 # Limit shared memory to do one broadcast per cycle (default on)
-gpgpu_shmem_warp_parts                    1 # Number of portions a warp is divided into for shared memory bank conflict check 
-gpgpu_warpdistro_shader                   -1 # Specify which shader core to collect the warp size distribution from
-gpgpu_warp_issue_shader                    0 # Specify which shader core to collect the warp issue distribution from
-gpgpu_local_mem_map                    1 # Mapping from local memory space address to simulated GPU physical address space (default = enabled)
-gpgpu_num_reg_banks                   16 # Number of register banks (default = 8)
-gpgpu_reg_bank_use_warp_id                    0 # Use warp ID in mapping registers to banks (default = off)
-gpgpu_operand_collector_num_units_sp                    6 # number of collector units (default = 4)
-gpgpu_operand_collector_num_units_sfu                    8 # number of collector units (default = 4)
-gpgpu_operand_collector_num_units_mem                    2 # number of collector units (default = 2)
-gpgpu_operand_collector_num_units_gen                    0 # number of collector units (default = 0)
-gpgpu_operand_collector_num_in_ports_sp                    2 # number of collector unit in ports (default = 1)
-gpgpu_operand_collector_num_in_ports_sfu                    1 # number of collector unit in ports (default = 1)
-gpgpu_operand_collector_num_in_ports_mem                    1 # number of collector unit in ports (default = 1)
-gpgpu_operand_collector_num_in_ports_gen                    0 # number of collector unit in ports (default = 0)
-gpgpu_operand_collector_num_out_ports_sp                    2 # number of collector unit in ports (default = 1)
-gpgpu_operand_collector_num_out_ports_sfu                    1 # number of collector unit in ports (default = 1)
-gpgpu_operand_collector_num_out_ports_mem                    1 # number of collector unit in ports (default = 1)
-gpgpu_operand_collector_num_out_ports_gen                    0 # number of collector unit in ports (default = 0)
-gpgpu_coalesce_arch                   13 # Coalescing arch (default = 13, anything else is off for now)
-gpgpu_num_sched_per_core                    2 # Number of warp schedulers per core
-gpgpu_max_insn_issue_per_warp                    1 # Max number of instructions that can be issued per warp in one cycle by scheduler
-gpgpu_simt_core_sim_order                    1 # Select the simulation order of cores in a cluster (0=Fix, 1=Round-Robin)
-gpgpu_pipeline_widths        2,1,1,2,1,1,2 # Pipeline widths ID_OC_SP,ID_OC_SFU,ID_OC_MEM,OC_EX_SP,OC_EX_SFU,OC_EX_MEM,EX_WB
-gpgpu_num_sp_units                     2 # Number of SP units (default=1)
-gpgpu_num_sfu_units                    1 # Number of SF units (default=1)
-gpgpu_num_mem_units                    1 # Number if ldst units (default=1) WARNING: not hooked up to anything
-gpgpu_scheduler     two_level_active:6:0:1 # Scheduler configuration: < lrr | gto | two_level_active > If two_level_active:<num_active_warps>:<inner_prioritization>:<outer_prioritization>For complete list of prioritization values see shader.h enum scheduler_prioritization_typeDefault: gto
-gpgpu_dram_scheduler                    1 # 0 = fifo, 1 = FR-FCFS (defaul)
-gpgpu_dram_partition_queues              8:8:8:8 # i2$:$2d:d2$:$2i
-l2_ideal                               0 # Use a ideal L2 cache that always hit
-gpgpu_cache:dl2     64:128:8,L:B:m:W:L,A:32:4,4:0,32 # unified banked L2 data cache config  {<nsets>:<bsize>:<assoc>,<rep>:<wr>:<alloc>:<wr_alloc>,<mshr>:<N>:<merge>,<mq>}
-gpgpu_cache:dl2_texture_only                    0 # L2 cache used for texture only
-gpgpu_n_mem                            6 # number of memory modules (e.g. memory controllers) in gpu
-gpgpu_n_sub_partition_per_mchannel                    2 # number of memory subpartition in each memory module
-gpgpu_n_mem_per_ctrlr                    2 # number of memory chips per memory controller
-gpgpu_memlatency_stat                   14 # track and display latency statistics 0x2 enables MC, 0x4 enables queue logs
-gpgpu_frfcfs_dram_sched_queue_size                   16 # 0 = unlimited (default); # entries per chip
-gpgpu_dram_return_queue_size                  116 # 0 = unlimited (default); # entries per chip
-gpgpu_dram_buswidth                    4 # default = 4 bytes (8 bytes per cycle at DDR)
-gpgpu_dram_burst_length                    8 # Burst length of each DRAM request (default = 4 data bus cycle)
-dram_data_command_freq_ratio                    4 # Frequency ratio between DRAM data bus and command bus (default = 2 times, i.e. DDR)
-gpgpu_dram_timing_opt nbk=16:CCD=2:RRD=6:RCD=12:RAS=28:RP=12:RC=40: CL=12:WL=4:CDLR=5:WR=12:nbkgrp=4:CCDL=3:RTPL=2 # DRAM timing parameters = {nbk:tCCD:tRRD:tRCD:tRAS:tRP:tRC:CL:WL:tCDLR:tWR:nbkgrp:tCCDL:tRTPL}
-rop_latency                          120 # ROP queue latency (default 85)
-dram_latency                         100 # DRAM latency (default 30)
-gpgpu_mem_addr_mapping dramid@8;00000000.00000000.00000000.00000000.0000RRRR.RRRRRRRR.BBBCCCCB.CCSSSSSS # mapping memory address to dram model {dramid@<start bit>;<memory address map>}
-gpgpu_mem_addr_test                    0 # run sweep test to check address mapping for aliased address
-gpgpu_mem_address_mask                    1 # 0 = old addressing mask, 1 = new addressing mask, 2 = new add. mask + flipped bank sel and chip sel bits
-gpuwattch_xml_file  gpuwattch_gtx480.xml # GPUWattch XML file
-power_simulation_enabled                    0 # Turn on power simulator (1=On, 0=Off)
-power_per_cycle_dump                    0 # Dump detailed power output each cycle
-power_trace_enabled                    0 # produce a file for the power trace (1=On, 0=Off)
-power_trace_zlevel                     6 # Compression level of the power trace output log (0=no comp, 9=highest)
-steady_power_levels_enabled                    0 # produce a file for the steady power levels (1=On, 0=Off)
-steady_state_definition                  8:4 # allowed deviation:number of samples
-gpgpu_max_cycle                        0 # terminates gpu simulation early (0 = no limit)
-gpgpu_max_insn                         0 # terminates gpu simulation early (0 = no limit)
-gpgpu_max_cta                          0 # terminates gpu simulation early (0 = no limit)
-gpgpu_runtime_stat                   500 # display runtime statistics such as dram utilization {<freq>:<flag>}
-liveness_message_freq                    1 # Minimum number of seconds between simulation liveness messages (0 = always print)
-gpgpu_flush_l1_cache                    0 # Flush L1 cache at the end of each kernel call
-gpgpu_flush_l2_cache                    0 # Flush L2 cache at the end of each kernel call
-gpgpu_deadlock_detect                    1 # Stop the simulation at deadlock (1=on (default), 0=off)
-gpgpu_ptx_instruction_classification                    0 # if enabled will classify ptx instruction types per kernel (Max 255 kernels now)
-gpgpu_ptx_sim_mode                     0 # Select between Performance (default) or Functional simulation (1)
-gpgpu_clock_domains 700.0:700.0:700.0:924.0 # Clock Domain Frequencies in MhZ {<Core Clock>:<ICNT Clock>:<L2 Clock>:<DRAM Clock>}
-gpgpu_max_concurrent_kernel                    8 # maximum kernels that can run concurrently on GPU
-gpgpu_cflog_interval                    0 # Interval between each snapshot in control flow logger
-visualizer_enabled                     0 # Turn on visualizer output (1=On, 0=Off)
-visualizer_outputfile                 NULL # Specifies the output log file for visualizer
-visualizer_zlevel                      6 # Compression level of the visualizer output log (0=no comp, 9=highest)
-trace_enabled                          0 # Turn on traces
-trace_components                    none # comma seperated list of traces to enable. Complete list found in trace_streams.tup. Default none
-trace_sampling_core                    0 # The core which is printed using CORE_DPRINTF. Default 0
-trace_sampling_memory_partition                   -1 # The memory partition which is printed using MEMPART_DPRINTF. Default -1 (i.e. all)
-enable_ptx_file_line_stats                    1 # Turn on PTX source line statistic profiling. (1 = On)
-ptx_line_stats_filename gpgpu_inst_stats.txt # Output file for PTX source line statistics.
-save_embedded_ptx                      0 # saves ptx files embedded in binary as <n>.ptx
-keep                                   0 # keep intermediate files created by GPGPU-Sim when interfacing with external programs
-gpgpu_ptx_save_converted_ptxplus                    0 # Saved converted ptxplus to a file
-ptx_opcode_latency_int         4,13,4,5,145 # Opcode latencies for integers <ADD,MAX,MUL,MAD,DIV>Default 1,1,19,25,145
-ptx_opcode_latency_fp          4,13,4,5,39 # Opcode latencies for single precision floating points <ADD,MAX,MUL,MAD,DIV>Default 1,1,1,1,30
-ptx_opcode_latency_dp         8,19,8,8,330 # Opcode latencies for double precision floating points <ADD,MAX,MUL,MAD,DIV>Default 8,8,8,8,335
-ptx_opcode_initiation_int            1,2,2,1,8 # Opcode initiation intervals for integers <ADD,MAX,MUL,MAD,DIV>Default 1,1,4,4,32
-ptx_opcode_initiation_fp            1,2,1,1,4 # Opcode initiation intervals for single precision floating points <ADD,MAX,MUL,MAD,DIV>Default 1,1,1,1,5
-ptx_opcode_initiation_dp         8,16,8,8,130 # Opcode initiation intervals for double precision floating points <ADD,MAX,MUL,MAD,DIV>Default 8,8,8,8,130
DRAM Timing Options:
nbk                                    16 # number of banks
CCD                                     2 # column to column delay
RRD                                     6 # minimal delay between activation of rows in different banks
RCD                                    12 # row to column delay
RAS                                    28 # time needed to activate row
RP                                     12 # time needed to precharge (deactivate) row
RC                                     40 # row cycle time
CDLR                                    5 # switching from write to read (changes tWTR)
WR                                     12 # last data-in to row precharge
CL                                     12 # CAS latency
WL                                      4 # Write latency
nbkgrp                                  4 # number of bank groups
CCDL                                    3 # column to column delay between accesses to different bank groups
RTPL                                    2 # read to precharge delay between accesses to different bank groups
Total number of memory sub partition = 12
addr_dec_mask[CHIP]  = 0000000000000000 	high:64 low:0
addr_dec_mask[BK]    = 000000000000e100 	high:16 low:8
addr_dec_mask[ROW]   = 000000000fff0000 	high:28 low:16
addr_dec_mask[COL]   = 0000000000001eff 	high:13 low:0
addr_dec_mask[BURST] = 000000000000003f 	high:6 low:0
sub_partition_id_mask = 0000000000000100
GPGPU-Sim uArch: clock freqs: 700000000.000000:700000000.000000:700000000.000000:924000000.000000
GPGPU-Sim uArch: clock periods: 0.00000000142857142857:0.00000000142857142857:0.00000000142857142857:0.00000000108225108225
*** Initializing Memory Statistics ***
GPGPU-Sim uArch: interconnect node map (shaderID+MemID to icntID)
GPGPU-Sim uArch: Memory nodes ID start from index: 15
GPGPU-Sim uArch:    0   1   2   3   4
GPGPU-Sim uArch:    5   6   7   8   9
GPGPU-Sim uArch:   10  11  12  13  14
GPGPU-Sim uArch:   15  16  17  18  19
GPGPU-Sim uArch:   20  21  22  23  24
GPGPU-Sim uArch:   25  26
GPGPU-Sim uArch: interconnect node reverse map (icntID to shaderID+MemID)
GPGPU-Sim uArch: Memory nodes start from ID: 15
GPGPU-Sim uArch:    0   1   2   3   4
GPGPU-Sim uArch:    5   6   7   8   9
GPGPU-Sim uArch:   10  11  12  13  14
GPGPU-Sim uArch:   15  16  17  18  19
GPGPU-Sim uArch:   20  21  22  23  24
GPGPU-Sim uArch:   25  26
63bd3ec3b64f8e638c2c8523e2878dda  /sciclone/data10/hwang07/adwait/applications/benchmarks/rodinia/cuda/particlefilter/gpgpu_ptx_sim__particlefilter_float
GPGPU-Sim uArch: performance model initialization complete.
GPGPU-Sim PTX: __cudaRegisterFatBinary, fat_cubin_handle = 1, filename=ex_particle_CUDA_float_seq.cu
self exe links to: /sciclone/data10/hwang07/adwait/applications/benchmarks/rodinia/cuda/particlefilter/gpgpu_ptx_sim__particlefilter_float
Running md5sum using "md5sum /sciclone/data10/hwang07/adwait/applications/benchmarks/rodinia/cuda/particlefilter/gpgpu_ptx_sim__particlefilter_float "
Parsing file _cuobjdump_complete_output_RRVEKe
######### cuobjdump parser ########
## Adding new section PTX
Adding ptx filename: _cuobjdump_1.ptx
Adding arch: sm_13
Adding identifier: ex_particle_CUDA_float_seq.cu
## Adding new section ELF
Adding arch: sm_13
Adding identifier: ex_particle_CUDA_float_seq.cu
Done parsing!!!
GPGPU-Sim PTX: __cudaRegisterFunction _Z17likelihood_kernelPfS_S_PiS0_S_PhS_S_iiiiiiS0_S_ : hostFun 0x0x4014b0, fat_cubin_handle = 1
GPGPU-Sim PTX: encountered texture directive tex_CDF.
GPGPU-Sim PTX: instruction assembly for function '_Z17find_index_kernelPfS_S_S_S_S_S_i'...   done.
GPGPU-Sim PTX: finding reconvergence points for '_Z17find_index_kernelPfS_S_S_S_S_S_i'...
GPGPU-Sim PTX: Finding dominators for '_Z17find_index_kernelPfS_S_S_S_S_S_i'...
GPGPU-Sim PTX: Finding immediate dominators for '_Z17find_index_kernelPfS_S_S_S_S_S_i'...
GPGPU-Sim PTX: Finding postdominators for '_Z17find_index_kernelPfS_S_S_S_S_S_i'...
GPGPU-Sim PTX: Finding immediate postdominators for '_Z17find_index_kernelPfS_S_S_S_S_S_i'...
GPGPU-Sim PTX: pre-decoding instructions for '_Z17find_index_kernelPfS_S_S_S_S_S_i'...
GPGPU-Sim PTX: reconvergence points for _Z17find_index_kernelPfS_S_S_S_S_S_i...
GPGPU-Sim PTX:  1 (potential) branch divergence @  PC=0x040 (_1.ptx:76) @%p1 bra $Lt_0_3842;
GPGPU-Sim PTX:    immediate post dominator      @  PC=0x218 (_1.ptx:153) exit;
GPGPU-Sim PTX:  2 (potential) branch divergence @  PC=0x060 (_1.ptx:80) @%p2 bra $Lt_0_5890;
GPGPU-Sim PTX:    immediate post dominator      @  PC=0x158 (_1.ptx:124) ld.param.s32 %r5, [__cudaparm__Z17find_index_kernelPfS_S_S_S_S_S_i_Nparticles];
GPGPU-Sim PTX:  3 (potential) branch divergence @  PC=0x100 (_1.ptx:103) @!%p3 bra $Lt_0_5122;
GPGPU-Sim PTX:    immediate post dominator      @  PC=0x158 (_1.ptx:124) ld.param.s32 %r5, [__cudaparm__Z17find_index_kernelPfS_S_S_S_S_S_i_Nparticles];
GPGPU-Sim PTX:  4 (potential) branch divergence @  PC=0x110 (_1.ptx:107) bra.uni $Lt_0_258;
GPGPU-Sim PTX:    immediate post dominator      @  PC=0x158 (_1.ptx:124) ld.param.s32 %r5, [__cudaparm__Z17find_index_kernelPfS_S_S_S_S_S_i_Nparticles];
GPGPU-Sim PTX:  5 (potential) branch divergence @  PC=0x130 (_1.ptx:115) @%p4 bra $Lt_0_4866;
GPGPU-Sim PTX:    immediate post dominator      @  PC=0x158 (_1.ptx:124) ld.param.s32 %r5, [__cudaparm__Z17find_index_kernelPfS_S_S_S_S_S_i_Nparticles];
GPGPU-Sim PTX:  6 (potential) branch divergence @  PC=0x138 (_1.ptx:116) bra.uni $Lt_0_4354;
GPGPU-Sim PTX:    immediate post dominator      @  PC=0x150 (_1.ptx:121) mov.s32 %r17, -1;
GPGPU-Sim PTX: ... end of reconvergence points for _Z17find_index_kernelPfS_S_S_S_S_S_i
GPGPU-Sim PTX: ... done pre-decoding instructions for '_Z17find_index_kernelPfS_S_S_S_S_S_i'.
GPGPU-Sim PTX: allocating shared region for "__cuda_local_var_35012_36_non_const_sumWeights" from 0x0 to 0x4 (shared memory space)
GPGPU-Sim PTX: allocating shared region for "__cuda_local_var_35012_32_non_const_u1" from 0x4 to 0x8 (shared memory space)
GPGPU-Sim PTX: instruction assembly for function '_Z24normalize_weights_kernelPfiS_S_S_Pi'...   done.
GPGPU-Sim PTX: finding reconvergence points for '_Z24normalize_weights_kernelPfiS_S_S_Pi'...
GPGPU-Sim PTX: Finding dominators for '_Z24normalize_weights_kernelPfiS_S_S_Pi'...
GPGPU-Sim PTX: Finding immediate dominators for '_Z24normalize_weights_kernelPfiS_S_S_Pi'...
GPGPU-Sim PTX: Finding postdominators for '_Z24normalize_weights_kernelPfiS_S_S_Pi'...
GPGPU-Sim PTX: Finding immediate postdominators for '_Z24normalize_weights_kernelPfiS_S_S_Pi'...
GPGPU-Sim PTX: pre-decoding instructions for '_Z24normalize_weights_kernelPfiS_S_S_Pi'...
GPGPU-Sim PTX: reconvergence points for _Z24normalize_weights_kernelPfiS_S_S_Pi...
GPGPU-Sim PTX:  1 (potential) branch divergence @  PC=0x278 (_1.ptx:186) @!%p1 bra $Lt_1_3586;
GPGPU-Sim PTX:    immediate post dominator      @  PC=0x2b8 (_1.ptx:196) mov.u32 %r6, 0;
GPGPU-Sim PTX:  2 (potential) branch divergence @  PC=0x2c8 (_1.ptx:198) @%p2 bra $Lt_1_4098;
GPGPU-Sim PTX:    immediate post dominator      @  PC=0x490 (_1.ptx:272) @!%p1 bra $Lt_1_5634;
GPGPU-Sim PTX:  3 (potential) branch divergence @  PC=0x308 (_1.ptx:209) @%p3 bra $Lt_1_4610;
GPGPU-Sim PTX:    immediate post dominator      @  PC=0x3a0 (_1.ptx:237) ld.param.u64 %rd10, [__cudaparm__Z24normalize_weights_kernelPfiS_S_S_Pi_seed];
GPGPU-Sim PTX:  4 (potential) branch divergence @  PC=0x398 (_1.ptx:234) @%p4 bra $Lt_1_5122;
GPGPU-Sim PTX:    immediate post dominator      @  PC=0x3a0 (_1.ptx:237) ld.param.u64 %rd10, [__cudaparm__Z24normalize_weights_kernelPfiS_S_S_Pi_seed];
GPGPU-Sim PTX:  5 (potential) branch divergence @  PC=0x490 (_1.ptx:272) @!%p1 bra $Lt_1_5634;
GPGPU-Sim PTX:    immediate post dominator      @  PC=0x4f0 (_1.ptx:288) exit;
GPGPU-Sim PTX: ... end of reconvergence points for _Z24normalize_weights_kernelPfiS_S_S_Pi
GPGPU-Sim PTX: ... done pre-decoding instructions for '_Z24normalize_weights_kernelPfiS_S_S_Pi'.
GPGPU-Sim PTX: encountered texture directive tex_sums.
GPGPU-Sim PTX: instruction assembly for function '_Z10sum_kernelPfi'...   done.
GPGPU-Sim PTX: finding reconvergence points for '_Z10sum_kernelPfi'...
GPGPU-Sim PTX: Finding dominators for '_Z10sum_kernelPfi'...
GPGPU-Sim PTX: Finding immediate dominators for '_Z10sum_kernelPfi'...
GPGPU-Sim PTX: Finding postdominators for '_Z10sum_kernelPfi'...
GPGPU-Sim PTX: Finding immediate postdominators for '_Z10sum_kernelPfi'...
GPGPU-Sim PTX: pre-decoding instructions for '_Z10sum_kernelPfi'...
GPGPU-Sim PTX: reconvergence points for _Z10sum_kernelPfi...
GPGPU-Sim PTX:  1 (potential) branch divergence @  PC=0x538 (_1.ptx:312) @%p1 bra $Lt_2_2050;
GPGPU-Sim PTX:    immediate post dominator      @  PC=0x630 (_1.ptx:351) exit;
GPGPU-Sim PTX:  2 (potential) branch divergence @  PC=0x580 (_1.ptx:321) @%p2 bra $Lt_2_3586;
GPGPU-Sim PTX:    immediate post dominator      @  PC=0x620 (_1.ptx:347) ld.param.u64 %rd1, [__cudaparm__Z10sum_kernelPfi_partial_sums];
GPGPU-Sim PTX:  3 (potential) branch divergence @  PC=0x608 (_1.ptx:341) @%p3 bra $Lt_2_3074;
GPGPU-Sim PTX:    immediate post dominator      @  PC=0x610 (_1.ptx:342) bra.uni $Lt_2_2562;
GPGPU-Sim PTX:  4 (potential) branch divergence @  PC=0x610 (_1.ptx:342) bra.uni $Lt_2_2562;
GPGPU-Sim PTX:    immediate post dominator      @  PC=0x620 (_1.ptx:347) ld.param.u64 %rd1, [__cudaparm__Z10sum_kernelPfi_partial_sums];
GPGPU-Sim PTX: ... end of reconvergence points for _Z10sum_kernelPfi
GPGPU-Sim PTX: ... done pre-decoding instructions for '_Z10sum_kernelPfi'.
GPGPU-Sim PTX: allocating shared region for "__cuda___cuda_local_var_35086_32_non_const_buffer240" from 0x0 to 0x800 (shared memory space)
GPGPU-Sim PTX: instruction assembly for function '_Z17likelihood_kernelPfS_S_PiS0_S_PhS_S_iiiiiiS0_S_'...   done.
GPGPU-Sim PTX: finding reconvergence points for '_Z17likelihood_kernelPfS_S_PiS0_S_PhS_S_iiiiiiS0_S_'...
GPGPU-Sim PTX: Finding dominators for '_Z17likelihood_kernelPfS_S_PiS0_S_PhS_S_iiiiiiS0_S_'...
GPGPU-Sim PTX: Finding immediate dominators for '_Z17likelihood_kernelPfS_S_PiS0_S_PhS_S_iiiiiiS0_S_'...
GPGPU-Sim PTX: Finding postdominators for '_Z17likelihood_kernelPfS_S_PiS0_S_PhS_S_iiiiiiS0_S_'...
GPGPU-Sim PTX: Finding immediate postdominators for '_Z17likelihood_kernelPfS_S_PiS0_S_PhS_S_iiiiiiS0_S_'...
GPGPU-Sim PTX: pre-decoding instructions for '_Z17likelihood_kernelPfS_S_PiS0_S_PhS_S_iiiiiiS0_S_'...
GPGPU-Sim PTX: reconvergence points for _Z17likelihood_kernelPfS_S_PiS0_S_PhS_S_iiiiiiS0_S_...
GPGPU-Sim PTX:  1 (potential) branch divergence @  PC=0x670 (_1.ptx:389) @!%p1 bra $Lt_3_18690;
GPGPU-Sim PTX:    immediate post dominator      @  PC=0xa80 (_1.ptx:527) @!%p1 bra $Lt_3_27394;
GPGPU-Sim PTX:  2 (potential) branch divergence @  PC=0xa80 (_1.ptx:527) @!%p1 bra $Lt_3_27394;
GPGPU-Sim PTX:    immediate post dominator      @  PC=0x1100 (_1.ptx:803) exit;
GPGPU-Sim PTX:  3 (potential) branch divergence @  PC=0xaa0 (_1.ptx:531) @!%p6 bra $Lt_3_27906;
GPGPU-Sim PTX:    immediate post dominator      @  PC=0xd28 (_1.ptx:631) @!%p6 bra $Lt_3_28162;
GPGPU-Sim PTX:  4 (potential) branch divergence @  PC=0xbd0 (_1.ptx:572) @!%p8 bra $Lt_3_20482;
GPGPU-Sim PTX:    immediate post dominator      @  PC=0xbe0 (_1.ptx:577) ld.global.s32 %r75, [%rd10+4];
GPGPU-Sim PTX:  5 (potential) branch divergence @  PC=0xc60 (_1.ptx:595) @!%p10 bra $Lt_3_20994;
GPGPU-Sim PTX:    immediate post dominator      @  PC=0xc70 (_1.ptx:600) ld.global.s32 %r79, [%rd10+0];
GPGPU-Sim PTX:  6 (potential) branch divergence @  PC=0xcd0 (_1.ptx:615) @%p11 bra $Lt_3_21506;
GPGPU-Sim PTX:    immediate post dominator      @  PC=0xce8 (_1.ptx:620) add.u64 %rd16, %rd16, 4;
GPGPU-Sim PTX:  7 (potential) branch divergence @  PC=0xd08 (_1.ptx:624) @%p12 bra $Lt_3_20226;
GPGPU-Sim PTX:    immediate post dominator      @  PC=0xd10 (_1.ptx:625) bra.uni $Lt_3_19714;
GPGPU-Sim PTX:  8 (potential) branch divergence @  PC=0xd10 (_1.ptx:625) bra.uni $Lt_3_19714;
GPGPU-Sim PTX:    immediate post dominator      @  PC=0xd28 (_1.ptx:631) @!%p6 bra $Lt_3_28162;
GPGPU-Sim PTX:  9 (potential) branch divergence @  PC=0xd28 (_1.ptx:631) @!%p6 bra $Lt_3_28162;
GPGPU-Sim PTX:    immediate post dominator      @  PC=0xf48 (_1.ptx:730) ld.param.s32 %r61, [__cudaparm__Z17likelihood_kernelPfS_S_PiS0_S_PhS_S_iiiiiiS0_S__countOnes];
GPGPU-Sim PTX: 10 (potential) branch divergence @  PC=0xe08 (_1.ptx:669) @%p13 bra $Lt_3_23042;
GPGPU-Sim PTX:    immediate post dominator      @  PC=0xe18 (_1.ptx:674) shr.u32 %r91, %r91, 1;
GPGPU-Sim PTX: 11 (potential) branch divergence @  PC=0xe30 (_1.ptx:677) @%p14 bra $Lt_3_23554;
GPGPU-Sim PTX:    immediate post dominator      @  PC=0xe38 (_1.ptx:679) mov.f32 %f73, %f72;
GPGPU-Sim PTX: 12 (potential) branch divergence @  PC=0xe40 (_1.ptx:680) bra.uni $LDWendi_powif_216_3;
GPGPU-Sim PTX:    immediate post dominator      @  PC=0xe60 (_1.ptx:688) mov.f32 %f75, %f70;
GPGPU-Sim PTX: 13 (potential) branch divergence @  PC=0xe58 (_1.ptx:685) bra.uni $Lt_3_14850;
GPGPU-Sim PTX:    immediate post dominator      @  PC=0xdf0 (_1.ptx:666) and.b32 %r92, %r91, 1;
GPGPU-Sim PTX: 14 (potential) branch divergence @  PC=0xe90 (_1.ptx:697) @%p15 bra $Lt_3_24066;
GPGPU-Sim PTX:    immediate post dominator      @  PC=0xea0 (_1.ptx:702) shr.u32 %r91, %r91, 1;
GPGPU-Sim PTX: 15 (potential) branch divergence @  PC=0xeb8 (_1.ptx:705) @%p16 bra $Lt_3_24578;
GPGPU-Sim PTX:    immediate post dominator      @  PC=0xec0 (_1.ptx:706) bra.uni $LDWendi_powif_216_1;
GPGPU-Sim PTX: 16 (potential) branch divergence @  PC=0xec0 (_1.ptx:706) bra.uni $LDWendi_powif_216_1;
GPGPU-Sim PTX:    immediate post dominator      @  PC=0xee0 (_1.ptx:714) cvt.f64.f32 %fd13, %f68;
GPGPU-Sim PTX: 17 (potential) branch divergence @  PC=0xed8 (_1.ptx:711) bra.uni $Lt_3_16130;
GPGPU-Sim PTX:    immediate post dominator      @  PC=0xe78 (_1.ptx:694) and.b32 %r95, %r91, 1;
GPGPU-Sim PTX: 18 (potential) branch divergence @  PC=0xf30 (_1.ptx:724) @%p17 bra $Lt_3_22786;
GPGPU-Sim PTX:    immediate post dominator      @  PC=0xf38 (_1.ptx:725) bra.uni $Lt_3_22274;
GPGPU-Sim PTX: 19 (potential) branch divergence @  PC=0xf38 (_1.ptx:725) bra.uni $Lt_3_22274;
GPGPU-Sim PTX:    immediate post dominator      @  PC=0xf48 (_1.ptx:730) ld.param.s32 %r61, [__cudaparm__Z17likelihood_kernelPfS_S_PiS0_S_PhS_S_iiiiiiS0_S__countOnes];
GPGPU-Sim PTX: 20 (potential) branch divergence @  PC=0xf80 (_1.ptx:740) @!%p1 bra $Lt_3_27394;
GPGPU-Sim PTX:    immediate post dominator      @  PC=0x1100 (_1.ptx:803) exit;
GPGPU-Sim PTX: 21 (potential) branch divergence @  PC=0x1038 (_1.ptx:768) @%p18 bra $Lt_3_25858;
GPGPU-Sim PTX:    immediate post dominator      @  PC=0x10b8 (_1.ptx:790) mov.u32 %r103, 0;
GPGPU-Sim PTX: 22 (potential) branch divergence @  PC=0x1048 (_1.ptx:771) @%p19 bra $Lt_3_26626;
GPGPU-Sim PTX:    immediate post dominator      @  PC=0x1090 (_1.ptx:783) bar.sync 0;
GPGPU-Sim PTX: 23 (potential) branch divergence @  PC=0x10b0 (_1.ptx:788) @%p20 bra $Lt_3_26370;
GPGPU-Sim PTX:    immediate post dominator      @  PC=0x10b8 (_1.ptx:790) mov.u32 %r103, 0;
GPGPU-Sim PTX: 24 (potential) branch divergence @  PC=0x10c8 (_1.ptx:792) @%p21 bra $Lt_3_27394;
GPGPU-Sim PTX:    immediate post dominator      @  PC=0x1100 (_1.ptx:803) exit;
GPGPU-Sim PTX: ... end of reconvergence points for _Z17likelihood_kernelPfS_S_PiS0_S_PhS_S_iiiiiiS0_S_
GPGPU-Sim PTX: ... done pre-decoding instructions for '_Z17likelihood_kernelPfS_S_PiS0_S_PhS_S_iiiiiiS0_S_'.
GPGPU-Sim PTX: finished parsing EMBEDDED .ptx file _1.ptx
Adding _cuobjdump_1.ptx with cubin handle 1
GPGPU-Sim PTX: extracting embedded .ptx to temporary file "_ptx_VyxaxO"
Running: cat _ptx_VyxaxO | sed 's/.version 1.5/.version 1.4/' | sed 's/, texmode_independent//' | sed 's/\(\.extern \.const\[1\] .b8 \w\+\)\[\]/\1\[1\]/' | sed 's/const\[.\]/const\[0\]/g' > _ptx2_sPZ6so
GPGPU-Sim PTX: generating ptxinfo using "$CUDA_INSTALL_PATH/bin/ptxas --gpu-name=sm_20 -v _ptx2_sPZ6so --output-file  /dev/null 2> _ptx_VyxaxOinfo"
GPGPU-Sim PTX: Kernel '_Z17likelihood_kernelPfS_S_PiS0_S_PhS_S_iiiiiiS0_S_' : regs=27, lmem=0, smem=2048, cmem=156
GPGPU-Sim PTX: Kernel '_Z10sum_kernelPfi' : regs=6, lmem=0, smem=0, cmem=44
GPGPU-Sim PTX: Kernel '_Z24normalize_weights_kernelPfiS_S_S_Pi' : regs=10, lmem=0, smem=8, cmem=88
GPGPU-Sim PTX: Kernel '_Z17find_index_kernelPfS_S_S_S_S_S_i' : regs=12, lmem=0, smem=0, cmem=92
GPGPU-Sim PTX: removing ptxinfo using "rm -f _ptx_VyxaxO _ptx2_sPZ6so _ptx_VyxaxOinfo"
GPGPU-Sim PTX: loading globals with explicit initializers... 
GPGPU-Sim PTX: finished loading globals (0 bytes total).
GPGPU-Sim PTX: loading constants with explicit initializers...  done.
GPGPU-Sim PTX: __cudaRegisterFunction _Z10sum_kernelPfi : hostFun 0x0x4026b0, fat_cubin_handle = 1
GPGPU-Sim PTX: __cudaRegisterFunction _Z24normalize_weights_kernelPfiS_S_S_Pi : hostFun 0x0x401610, fat_cubin_handle = 1
GPGPU-Sim PTX: __cudaRegisterFunction _Z17find_index_kernelPfS_S_S_S_S_S_i : hostFun 0x0x401730, fat_cubin_handle = 1
GPGPU-Sim PTX: in __cudaRegisterTexture:
GPGPU-Sim PTX:   int dim = 1
GPGPU-Sim PTX:   int norm = 0
GPGPU-Sim PTX:   int ext = 0
GPGPU-Sim PTX:   Execution warning: Not finished implementing "void __cudaRegisterTexture(void**, const textureReference*, const void**, const char*, int, int, int)"
GPGPU-Sim PTX: in __cudaRegisterTexture:
GPGPU-Sim PTX:   int dim = 1
GPGPU-Sim PTX:   int norm = 0
GPGPU-Sim PTX:   int ext = 0
GPGPU-Sim PTX:   Execution warning: Not finished implementing "void __cudaRegisterTexture(void**, const textureReference*, const void**, const char*, int, int, int)"
VIDEO SEQUENCE TOOK 0.031586
TIME TO SEND TO GPU: 0.014098

GPGPU-Sim PTX: cudaLaunch for 0x0x4014b0 (mode=performance simulation) on stream 0
GPGPU-Sim PTX: pushing kernel '_Z17likelihood_kernelPfS_S_PiS0_S_PhS_S_iiiiiiS0_S_' to stream 0, gridDim= (20,1,1) blockDim = (512,1,1) 
kernel '_Z17likelihood_kernelPfS_S_PiS0_S_PhS_S_iiiiiiS0_S_' transfer to GPU hardware scheduler
GPGPU-Sim uArch: Shader 1 bind to kernel 1 '_Z17likelihood_kernelPfS_S_PiS0_S_PhS_S_iiiiiiS0_S_'
GPGPU-Sim uArch: CTA/core = 2, limited by: regs
GPGPU-Sim uArch: core:  1, cta: 0 initialized @(1,0)
GPGPU-Sim uArch: Shader 2 bind to kernel 1 '_Z17likelihood_kernelPfS_S_PiS0_S_PhS_S_iiiiiiS0_S_'
GPGPU-Sim uArch: core:  2, cta: 0 initialized @(1,0)
GPGPU-Sim uArch: Shader 3 bind to kernel 1 '_Z17likelihood_kernelPfS_S_PiS0_S_PhS_S_iiiiiiS0_S_'
GPGPU-Sim uArch: core:  3, cta: 0 initialized @(1,0)
GPGPU-Sim uArch: Shader 4 bind to kernel 1 '_Z17likelihood_kernelPfS_S_PiS0_S_PhS_S_iiiiiiS0_S_'
GPGPU-Sim uArch: core:  4, cta: 0 initialized @(1,0)
GPGPU-Sim uArch: Shader 5 bind to kernel 1 '_Z17likelihood_kernelPfS_S_PiS0_S_PhS_S_iiiiiiS0_S_'
GPGPU-Sim uArch: core:  5, cta: 0 initialized @(1,0)
GPGPU-Sim uArch: Shader 6 bind to kernel 1 '_Z17likelihood_kernelPfS_S_PiS0_S_PhS_S_iiiiiiS0_S_'
GPGPU-Sim uArch: core:  6, cta: 0 initialized @(1,0)
GPGPU-Sim uArch: Shader 7 bind to kernel 1 '_Z17likelihood_kernelPfS_S_PiS0_S_PhS_S_iiiiiiS0_S_'
GPGPU-Sim uArch: core:  7, cta: 0 initialized @(1,0)
GPGPU-Sim uArch: Shader 8 bind to kernel 1 '_Z17likelihood_kernelPfS_S_PiS0_S_PhS_S_iiiiiiS0_S_'
GPGPU-Sim uArch: core:  8, cta: 0 initialized @(1,0)
GPGPU-Sim uArch: Shader 9 bind to kernel 1 '_Z17likelihood_kernelPfS_S_PiS0_S_PhS_S_iiiiiiS0_S_'
GPGPU-Sim uArch: core:  9, cta: 0 initialized @(1,0)
GPGPU-Sim uArch: Shader 10 bind to kernel 1 '_Z17likelihood_kernelPfS_S_PiS0_S_PhS_S_iiiiiiS0_S_'
GPGPU-Sim uArch: core: 10, cta: 0 initialized @(1,0)
GPGPU-Sim uArch: Shader 11 bind to kernel 1 '_Z17likelihood_kernelPfS_S_PiS0_S_PhS_S_iiiiiiS0_S_'
GPGPU-Sim uArch: core: 11, cta: 0 initialized @(1,0)
GPGPU-Sim uArch: Shader 12 bind to kernel 1 '_Z17likelihood_kernelPfS_S_PiS0_S_PhS_S_iiiiiiS0_S_'
GPGPU-Sim uArch: core: 12, cta: 0 initialized @(1,0)
GPGPU-Sim uArch: Shader 13 bind to kernel 1 '_Z17likelihood_kernelPfS_S_PiS0_S_PhS_S_iiiiiiS0_S_'
GPGPU-Sim uArch: core: 13, cta: 0 initialized @(1,0)
GPGPU-Sim uArch: Shader 14 bind to kernel 1 '_Z17likelihood_kernelPfS_S_PiS0_S_PhS_S_iiiiiiS0_S_'
GPGPU-Sim uArch: core: 14, cta: 0 initialized @(1,0)
GPGPU-Sim uArch: Shader 0 bind to kernel 1 '_Z17likelihood_kernelPfS_S_PiS0_S_PhS_S_iiiiiiS0_S_'
GPGPU-Sim uArch: core:  0, cta: 0 initialized @(1,0)
GPGPU-Sim uArch: core:  1, cta: 1 initialized @(2,0)
GPGPU-Sim uArch: core:  2, cta: 1 initialized @(2,0)
GPGPU-Sim uArch: core:  3, cta: 1 initialized @(2,0)
GPGPU-Sim uArch: core:  4, cta: 1 initialized @(2,0)
GPGPU-Sim uArch: core:  5, cta: 1 initialized @(2,0)
GPGPU-Sim uArch: cycles simulated: 500  inst.: 51200 (ipc=102.4) sim_rate=51200 (inst/sec) elapsed = 0:0:00:01 / Tue Mar 22 13:07:00 2016
GPGPU-Sim PTX: 100000 instructions simulated : ctaid=(7,0,0) tid=(159,0,0)
GPGPU-Sim PTX: 200000 instructions simulated : ctaid=(9,0,0) tid=(319,0,0)
GPGPU-Sim uArch: cycles simulated: 1500  inst.: 189553 (ipc=126.4) sim_rate=94776 (inst/sec) elapsed = 0:0:00:02 / Tue Mar 22 13:07:01 2016
GPGPU-Sim PTX: 300000 instructions simulated : ctaid=(5,0,0) tid=(63,0,0)
GPGPU-Sim PTX: 400000 instructions simulated : ctaid=(4,0,0) tid=(383,0,0)
GPGPU-Sim uArch: cycles simulated: 2500  inst.: 460852 (ipc=184.3) sim_rate=153617 (inst/sec) elapsed = 0:0:00:03 / Tue Mar 22 13:07:02 2016
GPGPU-Sim PTX: 500000 instructions simulated : ctaid=(5,0,0) tid=(351,0,0)
GPGPU-Sim PTX: 600000 instructions simulated : ctaid=(6,0,0) tid=(95,0,0)
GPGPU-Sim PTX: 700000 instructions simulated : ctaid=(14,0,0) tid=(335,0,0)
GPGPU-Sim PTX: 800000 instructions simulated : ctaid=(4,0,0) tid=(159,0,0)
GPGPU-Sim uArch: cycles simulated: 4000  inst.: 853168 (ipc=213.3) sim_rate=213292 (inst/sec) elapsed = 0:0:00:04 / Tue Mar 22 13:07:03 2016
GPGPU-Sim PTX: 900000 instructions simulated : ctaid=(17,0,0) tid=(511,0,0)
GPGPU-Sim PTX: 1000000 instructions simulated : ctaid=(5,0,0) tid=(447,0,0)
GPGPU-Sim uArch: cycles simulated: 4500  inst.: 997720 (ipc=221.7) sim_rate=199544 (inst/sec) elapsed = 0:0:00:05 / Tue Mar 22 13:07:04 2016
GPGPU-Sim PTX: 1100000 instructions simulated : ctaid=(10,0,0) tid=(175,0,0)
GPGPU-Sim PTX: 1200000 instructions simulated : ctaid=(2,0,0) tid=(495,0,0)
GPGPU-Sim PTX: 1300000 instructions simulated : ctaid=(4,0,0) tid=(47,0,0)
GPGPU-Sim uArch: cycles simulated: 5500  inst.: 1267484 (ipc=230.5) sim_rate=211247 (inst/sec) elapsed = 0:0:00:06 / Tue Mar 22 13:07:05 2016
GPGPU-Sim PTX: 1400000 instructions simulated : ctaid=(7,0,0) tid=(111,0,0)
GPGPU-Sim PTX: 1500000 instructions simulated : ctaid=(9,0,0) tid=(143,0,0)
GPGPU-Sim PTX: 1600000 instructions simulated : ctaid=(9,0,0) tid=(271,0,0)
GPGPU-Sim PTX: 1700000 instructions simulated : ctaid=(1,0,0) tid=(159,0,0)
GPGPU-Sim uArch: cycles simulated: 7000  inst.: 1671881 (ipc=238.8) sim_rate=238840 (inst/sec) elapsed = 0:0:00:07 / Tue Mar 22 13:07:06 2016
GPGPU-Sim PTX: 1800000 instructions simulated : ctaid=(8,0,0) tid=(63,0,0)
GPGPU-Sim PTX: 1900000 instructions simulated : ctaid=(10,0,0) tid=(111,0,0)
GPGPU-Sim uArch: cycles simulated: 8000  inst.: 1921305 (ipc=240.2) sim_rate=240163 (inst/sec) elapsed = 0:0:00:08 / Tue Mar 22 13:07:07 2016
GPGPU-Sim uArch: cycles simulated: 9000  inst.: 1947305 (ipc=216.4) sim_rate=216367 (inst/sec) elapsed = 0:0:00:09 / Tue Mar 22 13:07:08 2016
GPGPU-Sim PTX: 2000000 instructions simulated : ctaid=(2,0,0) tid=(31,0,0)
GPGPU-Sim uArch: cycles simulated: 10500  inst.: 1974617 (ipc=188.1) sim_rate=197461 (inst/sec) elapsed = 0:0:00:10 / Tue Mar 22 13:07:09 2016
GPGPU-Sim uArch: cycles simulated: 12000  inst.: 2005369 (ipc=167.1) sim_rate=182306 (inst/sec) elapsed = 0:0:00:11 / Tue Mar 22 13:07:10 2016
GPGPU-Sim uArch: cycles simulated: 13500  inst.: 2026105 (ipc=150.1) sim_rate=168842 (inst/sec) elapsed = 0:0:00:12 / Tue Mar 22 13:07:11 2016
GPGPU-Sim PTX: 2100000 instructions simulated : ctaid=(6,0,0) tid=(335,0,0)
GPGPU-Sim uArch: cycles simulated: 14500  inst.: 2083097 (ipc=143.7) sim_rate=160238 (inst/sec) elapsed = 0:0:00:13 / Tue Mar 22 13:07:12 2016
GPGPU-Sim PTX: 2200000 instructions simulated : ctaid=(8,0,0) tid=(47,0,0)
GPGPU-Sim uArch: cycles simulated: 16000  inst.: 2152377 (ipc=134.5) sim_rate=153741 (inst/sec) elapsed = 0:0:00:14 / Tue Mar 22 13:07:13 2016
GPGPU-Sim uArch: cycles simulated: 17500  inst.: 2207817 (ipc=126.2) sim_rate=147187 (inst/sec) elapsed = 0:0:00:15 / Tue Mar 22 13:07:14 2016
GPGPU-Sim PTX: 2300000 instructions simulated : ctaid=(11,0,0) tid=(255,0,0)
GPGPU-Sim uArch: cycles simulated: 18500  inst.: 2252345 (ipc=121.7) sim_rate=140771 (inst/sec) elapsed = 0:0:00:16 / Tue Mar 22 13:07:15 2016
GPGPU-Sim uArch: cycles simulated: 19500  inst.: 2326329 (ipc=119.3) sim_rate=136842 (inst/sec) elapsed = 0:0:00:17 / Tue Mar 22 13:07:16 2016
GPGPU-Sim PTX: 2400000 instructions simulated : ctaid=(6,0,0) tid=(223,0,0)
GPGPU-Sim uArch: cycles simulated: 20500  inst.: 2414505 (ipc=117.8) sim_rate=134139 (inst/sec) elapsed = 0:0:00:18 / Tue Mar 22 13:07:17 2016
GPGPU-Sim PTX: 2500000 instructions simulated : ctaid=(9,0,0) tid=(319,0,0)
GPGPU-Sim uArch: cycles simulated: 21500  inst.: 2469449 (ipc=114.9) sim_rate=129971 (inst/sec) elapsed = 0:0:00:19 / Tue Mar 22 13:07:18 2016
GPGPU-Sim uArch: cycles simulated: 23000  inst.: 2527769 (ipc=109.9) sim_rate=126388 (inst/sec) elapsed = 0:0:00:20 / Tue Mar 22 13:07:19 2016
GPGPU-Sim PTX: 2600000 instructions simulated : ctaid=(2,0,0) tid=(95,0,0)
GPGPU-Sim uArch: cycles simulated: 24000  inst.: 2557049 (ipc=106.5) sim_rate=121764 (inst/sec) elapsed = 0:0:00:21 / Tue Mar 22 13:07:20 2016
GPGPU-Sim uArch: cycles simulated: 25000  inst.: 2615225 (ipc=104.6) sim_rate=118873 (inst/sec) elapsed = 0:0:00:22 / Tue Mar 22 13:07:21 2016
GPGPU-Sim PTX: 2700000 instructions simulated : ctaid=(2,0,0) tid=(255,0,0)
GPGPU-Sim uArch: cycles simulated: 26000  inst.: 2670761 (ipc=102.7) sim_rate=116120 (inst/sec) elapsed = 0:0:00:23 / Tue Mar 22 13:07:22 2016
GPGPU-Sim PTX: 2800000 instructions simulated : ctaid=(7,0,0) tid=(335,0,0)
GPGPU-Sim uArch: cycles simulated: 27500  inst.: 2757529 (ipc=100.3) sim_rate=114897 (inst/sec) elapsed = 0:0:00:24 / Tue Mar 22 13:07:23 2016
GPGPU-Sim uArch: cycles simulated: 28500  inst.: 2803241 (ipc=98.4) sim_rate=112129 (inst/sec) elapsed = 0:0:00:25 / Tue Mar 22 13:07:24 2016
GPGPU-Sim PTX: 2900000 instructions simulated : ctaid=(0,0,0) tid=(207,0,0)
GPGPU-Sim uArch: cycles simulated: 30000  inst.: 2861177 (ipc=95.4) sim_rate=110045 (inst/sec) elapsed = 0:0:00:26 / Tue Mar 22 13:07:25 2016
GPGPU-Sim uArch: cycles simulated: 31000  inst.: 2908889 (ipc=93.8) sim_rate=107736 (inst/sec) elapsed = 0:0:00:27 / Tue Mar 22 13:07:26 2016
GPGPU-Sim PTX: 3000000 instructions simulated : ctaid=(8,0,0) tid=(159,0,0)
GPGPU-Sim uArch: cycles simulated: 32000  inst.: 2961049 (ipc=92.5) sim_rate=105751 (inst/sec) elapsed = 0:0:00:28 / Tue Mar 22 13:07:27 2016
GPGPU-Sim uArch: cycles simulated: 33000  inst.: 3011721 (ipc=91.3) sim_rate=103852 (inst/sec) elapsed = 0:0:00:29 / Tue Mar 22 13:07:28 2016
GPGPU-Sim PTX: 3100000 instructions simulated : ctaid=(5,0,0) tid=(399,0,0)
GPGPU-Sim uArch: cycles simulated: 34500  inst.: 3081641 (ipc=89.3) sim_rate=102721 (inst/sec) elapsed = 0:0:00:30 / Tue Mar 22 13:07:29 2016
GPGPU-Sim uArch: cycles simulated: 35500  inst.: 3113001 (ipc=87.7) sim_rate=100419 (inst/sec) elapsed = 0:0:00:31 / Tue Mar 22 13:07:30 2016
GPGPU-Sim PTX: 3200000 instructions simulated : ctaid=(12,0,0) tid=(431,0,0)
GPGPU-Sim uArch: cycles simulated: 36500  inst.: 3171353 (ipc=86.9) sim_rate=99104 (inst/sec) elapsed = 0:0:00:32 / Tue Mar 22 13:07:31 2016
GPGPU-Sim PTX: 3300000 instructions simulated : ctaid=(14,0,0) tid=(63,0,0)
GPGPU-Sim uArch: cycles simulated: 38000  inst.: 3270825 (ipc=86.1) sim_rate=99115 (inst/sec) elapsed = 0:0:00:33 / Tue Mar 22 13:07:32 2016
GPGPU-Sim uArch: cycles simulated: 39000  inst.: 3321609 (ipc=85.2) sim_rate=97694 (inst/sec) elapsed = 0:0:00:34 / Tue Mar 22 13:07:33 2016
GPGPU-Sim PTX: 3400000 instructions simulated : ctaid=(5,0,0) tid=(111,0,0)
GPGPU-Sim uArch: cycles simulated: 40000  inst.: 3364489 (ipc=84.1) sim_rate=96128 (inst/sec) elapsed = 0:0:00:35 / Tue Mar 22 13:07:34 2016
GPGPU-Sim uArch: cycles simulated: 41500  inst.: 3435641 (ipc=82.8) sim_rate=95434 (inst/sec) elapsed = 0:0:00:36 / Tue Mar 22 13:07:35 2016
GPGPU-Sim PTX: 3500000 instructions simulated : ctaid=(17,0,0) tid=(159,0,0)
GPGPU-Sim uArch: cycles simulated: 42500  inst.: 3485337 (ipc=82.0) sim_rate=94198 (inst/sec) elapsed = 0:0:00:37 / Tue Mar 22 13:07:36 2016
GPGPU-Sim PTX: 3600000 instructions simulated : ctaid=(3,0,0) tid=(223,0,0)
GPGPU-Sim uArch: cycles simulated: 43500  inst.: 3546985 (ipc=81.5) sim_rate=93341 (inst/sec) elapsed = 0:0:00:38 / Tue Mar 22 13:07:37 2016
GPGPU-Sim uArch: cycles simulated: 44500  inst.: 3583145 (ipc=80.5) sim_rate=91875 (inst/sec) elapsed = 0:0:00:39 / Tue Mar 22 13:07:38 2016
GPGPU-Sim PTX: 3700000 instructions simulated : ctaid=(6,0,0) tid=(15,0,0)
GPGPU-Sim uArch: cycles simulated: 46000  inst.: 3649497 (ipc=79.3) sim_rate=91237 (inst/sec) elapsed = 0:0:00:40 / Tue Mar 22 13:07:39 2016
GPGPU-Sim uArch: cycles simulated: 47000  inst.: 3702425 (ipc=78.8) sim_rate=90303 (inst/sec) elapsed = 0:0:00:41 / Tue Mar 22 13:07:40 2016
GPGPU-Sim PTX: 3800000 instructions simulated : ctaid=(12,0,0) tid=(143,0,0)
GPGPU-Sim uArch: cycles simulated: 48000  inst.: 3754681 (ipc=78.2) sim_rate=89397 (inst/sec) elapsed = 0:0:00:42 / Tue Mar 22 13:07:41 2016
GPGPU-Sim uArch: cycles simulated: 49000  inst.: 3843161 (ipc=78.4) sim_rate=89375 (inst/sec) elapsed = 0:0:00:43 / Tue Mar 22 13:07:42 2016
GPGPU-Sim PTX: 3900000 instructions simulated : ctaid=(11,0,0) tid=(207,0,0)
GPGPU-Sim uArch: cycles simulated: 50500  inst.: 3911481 (ipc=77.5) sim_rate=88897 (inst/sec) elapsed = 0:0:00:44 / Tue Mar 22 13:07:43 2016
GPGPU-Sim PTX: 4000000 instructions simulated : ctaid=(10,0,0) tid=(15,0,0)
GPGPU-Sim uArch: cycles simulated: 51500  inst.: 3961945 (ipc=76.9) sim_rate=88043 (inst/sec) elapsed = 0:0:00:45 / Tue Mar 22 13:07:44 2016
GPGPU-Sim uArch: cycles simulated: 52500  inst.: 4000761 (ipc=76.2) sim_rate=86973 (inst/sec) elapsed = 0:0:00:46 / Tue Mar 22 13:07:45 2016
GPGPU-Sim uArch: cycles simulated: 53500  inst.: 4039289 (ipc=75.5) sim_rate=85942 (inst/sec) elapsed = 0:0:00:47 / Tue Mar 22 13:07:46 2016
GPGPU-Sim PTX: 4100000 instructions simulated : ctaid=(1,0,0) tid=(111,0,0)
GPGPU-Sim uArch: cycles simulated: 55000  inst.: 4131705 (ipc=75.1) sim_rate=86077 (inst/sec) elapsed = 0:0:00:48 / Tue Mar 22 13:07:47 2016
GPGPU-Sim PTX: 4200000 instructions simulated : ctaid=(4,0,0) tid=(143,0,0)
GPGPU-Sim uArch: cycles simulated: 56000  inst.: 4185577 (ipc=74.7) sim_rate=85419 (inst/sec) elapsed = 0:0:00:49 / Tue Mar 22 13:07:48 2016
GPGPU-Sim uArch: cycles simulated: 57000  inst.: 4234985 (ipc=74.3) sim_rate=84699 (inst/sec) elapsed = 0:0:00:50 / Tue Mar 22 13:07:49 2016
GPGPU-Sim PTX: 4300000 instructions simulated : ctaid=(15,0,0) tid=(15,0,0)
GPGPU-Sim uArch: cycles simulated: 58500  inst.: 4301161 (ipc=73.5) sim_rate=84336 (inst/sec) elapsed = 0:0:00:51 / Tue Mar 22 13:07:50 2016
GPGPU-Sim PTX: 4400000 instructions simulated : ctaid=(8,0,0) tid=(495,0,0)
GPGPU-Sim uArch: cycles simulated: 59500  inst.: 4376793 (ipc=73.6) sim_rate=84169 (inst/sec) elapsed = 0:0:00:52 / Tue Mar 22 13:07:51 2016
GPGPU-Sim uArch: cycles simulated: 60500  inst.: 4444713 (ipc=73.5) sim_rate=83862 (inst/sec) elapsed = 0:0:00:53 / Tue Mar 22 13:07:52 2016
GPGPU-Sim PTX: 4500000 instructions simulated : ctaid=(5,0,0) tid=(79,0,0)
GPGPU-Sim uArch: cycles simulated: 61500  inst.: 4471577 (ipc=72.7) sim_rate=82806 (inst/sec) elapsed = 0:0:00:54 / Tue Mar 22 13:07:53 2016
GPGPU-Sim uArch: cycles simulated: 62500  inst.: 4524217 (ipc=72.4) sim_rate=82258 (inst/sec) elapsed = 0:0:00:55 / Tue Mar 22 13:07:54 2016
GPGPU-Sim PTX: 4600000 instructions simulated : ctaid=(15,0,0) tid=(79,0,0)
GPGPU-Sim uArch: cycles simulated: 64000  inst.: 4607177 (ipc=72.0) sim_rate=82271 (inst/sec) elapsed = 0:0:00:56 / Tue Mar 22 13:07:55 2016
GPGPU-Sim uArch: cycles simulated: 65000  inst.: 4643033 (ipc=71.4) sim_rate=81456 (inst/sec) elapsed = 0:0:00:57 / Tue Mar 22 13:07:56 2016
GPGPU-Sim PTX: 4700000 instructions simulated : ctaid=(6,0,0) tid=(15,0,0)
GPGPU-Sim uArch: cycles simulated: 66000  inst.: 4709369 (ipc=71.4) sim_rate=81196 (inst/sec) elapsed = 0:0:00:58 / Tue Mar 22 13:07:57 2016
GPGPU-Sim PTX: 4800000 instructions simulated : ctaid=(9,0,0) tid=(79,0,0)
GPGPU-Sim uArch: cycles simulated: 67000  inst.: 4759113 (ipc=71.0) sim_rate=80662 (inst/sec) elapsed = 0:0:00:59 / Tue Mar 22 13:07:58 2016
GPGPU-Sim uArch: cycles simulated: 68500  inst.: 4846681 (ipc=70.8) sim_rate=80778 (inst/sec) elapsed = 0:0:01:00 / Tue Mar 22 13:07:59 2016
GPGPU-Sim PTX: 4900000 instructions simulated : ctaid=(16,0,0) tid=(367,0,0)
GPGPU-Sim uArch: cycles simulated: 69500  inst.: 4884265 (ipc=70.3) sim_rate=80069 (inst/sec) elapsed = 0:0:01:01 / Tue Mar 22 13:08:00 2016
GPGPU-Sim uArch: cycles simulated: 70500  inst.: 4937065 (ipc=70.0) sim_rate=79630 (inst/sec) elapsed = 0:0:01:02 / Tue Mar 22 13:08:01 2016
GPGPU-Sim PTX: 5000000 instructions simulated : ctaid=(18,0,0) tid=(463,0,0)
GPGPU-Sim uArch: cycles simulated: 72000  inst.: 5012121 (ipc=69.6) sim_rate=79557 (inst/sec) elapsed = 0:0:01:03 / Tue Mar 22 13:08:02 2016
GPGPU-Sim PTX: 5100000 instructions simulated : ctaid=(18,0,0) tid=(319,0,0)
GPGPU-Sim uArch: cycles simulated: 73000  inst.: 5061785 (ipc=69.3) sim_rate=79090 (inst/sec) elapsed = 0:0:01:04 / Tue Mar 22 13:08:03 2016
GPGPU-Sim uArch: cycles simulated: 74000  inst.: 5118985 (ipc=69.2) sim_rate=78753 (inst/sec) elapsed = 0:0:01:05 / Tue Mar 22 13:08:04 2016
GPGPU-Sim PTX: 5200000 instructions simulated : ctaid=(3,0,0) tid=(79,0,0)
GPGPU-Sim uArch: cycles simulated: 75500  inst.: 5163065 (ipc=68.4) sim_rate=78228 (inst/sec) elapsed = 0:0:01:06 / Tue Mar 22 13:08:05 2016
GPGPU-Sim uArch: cycles simulated: 76500  inst.: 5241545 (ipc=68.5) sim_rate=78232 (inst/sec) elapsed = 0:0:01:07 / Tue Mar 22 13:08:06 2016
GPGPU-Sim PTX: 5300000 instructions simulated : ctaid=(18,0,0) tid=(319,0,0)
GPGPU-Sim uArch: cycles simulated: 77500  inst.: 5286105 (ipc=68.2) sim_rate=77736 (inst/sec) elapsed = 0:0:01:08 / Tue Mar 22 13:08:07 2016
GPGPU-Sim uArch: cycles simulated: 78500  inst.: 5327353 (ipc=67.9) sim_rate=77208 (inst/sec) elapsed = 0:0:01:09 / Tue Mar 22 13:08:08 2016
GPGPU-Sim PTX: 5400000 instructions simulated : ctaid=(8,0,0) tid=(479,0,0)
GPGPU-Sim uArch: cycles simulated: 80000  inst.: 5398537 (ipc=67.5) sim_rate=77121 (inst/sec) elapsed = 0:0:01:10 / Tue Mar 22 13:08:09 2016
GPGPU-Sim PTX: 5500000 instructions simulated : ctaid=(7,0,0) tid=(399,0,0)
GPGPU-Sim uArch: cycles simulated: 81000  inst.: 5459721 (ipc=67.4) sim_rate=76897 (inst/sec) elapsed = 0:0:01:11 / Tue Mar 22 13:08:10 2016
GPGPU-Sim uArch: cycles simulated: 82000  inst.: 5519449 (ipc=67.3) sim_rate=76659 (inst/sec) elapsed = 0:0:01:12 / Tue Mar 22 13:08:11 2016
GPGPU-Sim PTX: 5600000 instructions simulated : ctaid=(8,0,0) tid=(223,0,0)
GPGPU-Sim uArch: cycles simulated: 83500  inst.: 5562713 (ipc=66.6) sim_rate=76201 (inst/sec) elapsed = 0:0:01:13 / Tue Mar 22 13:08:12 2016
GPGPU-Sim uArch: cycles simulated: 84500  inst.: 5623353 (ipc=66.5) sim_rate=75991 (inst/sec) elapsed = 0:0:01:14 / Tue Mar 22 13:08:13 2016
GPGPU-Sim PTX: 5700000 instructions simulated : ctaid=(13,0,0) tid=(271,0,0)
GPGPU-Sim uArch: cycles simulated: 85500  inst.: 5680201 (ipc=66.4) sim_rate=75736 (inst/sec) elapsed = 0:0:01:15 / Tue Mar 22 13:08:14 2016
GPGPU-Sim uArch: cycles simulated: 86500  inst.: 5734201 (ipc=66.3) sim_rate=75450 (inst/sec) elapsed = 0:0:01:16 / Tue Mar 22 13:08:15 2016
GPGPU-Sim PTX: 5800000 instructions simulated : ctaid=(1,0,0) tid=(303,0,0)
GPGPU-Sim uArch: cycles simulated: 88000  inst.: 5828313 (ipc=66.2) sim_rate=75692 (inst/sec) elapsed = 0:0:01:17 / Tue Mar 22 13:08:16 2016
GPGPU-Sim PTX: 5900000 instructions simulated : ctaid=(9,0,0) tid=(191,0,0)
GPGPU-Sim uArch: cycles simulated: 89000  inst.: 5877593 (ipc=66.0) sim_rate=75353 (inst/sec) elapsed = 0:0:01:18 / Tue Mar 22 13:08:17 2016
GPGPU-Sim uArch: cycles simulated: 90000  inst.: 5944009 (ipc=66.0) sim_rate=75240 (inst/sec) elapsed = 0:0:01:19 / Tue Mar 22 13:08:18 2016
GPGPU-Sim PTX: 6000000 instructions simulated : ctaid=(11,0,0) tid=(63,0,0)
GPGPU-Sim uArch: cycles simulated: 91000  inst.: 6000297 (ipc=65.9) sim_rate=75003 (inst/sec) elapsed = 0:0:01:20 / Tue Mar 22 13:08:19 2016
GPGPU-Sim PTX: 6100000 instructions simulated : ctaid=(4,0,0) tid=(79,0,0)
GPGPU-Sim uArch: cycles simulated: 92500  inst.: 6086185 (ipc=65.8) sim_rate=75138 (inst/sec) elapsed = 0:0:01:21 / Tue Mar 22 13:08:20 2016
GPGPU-Sim uArch: cycles simulated: 93500  inst.: 6125401 (ipc=65.5) sim_rate=74700 (inst/sec) elapsed = 0:0:01:22 / Tue Mar 22 13:08:21 2016
GPGPU-Sim PTX: 6200000 instructions simulated : ctaid=(9,0,0) tid=(351,0,0)
GPGPU-Sim uArch: cycles simulated: 94500  inst.: 6183129 (ipc=65.4) sim_rate=74495 (inst/sec) elapsed = 0:0:01:23 / Tue Mar 22 13:08:22 2016
GPGPU-Sim uArch: cycles simulated: 96000  inst.: 6234073 (ipc=64.9) sim_rate=74215 (inst/sec) elapsed = 0:0:01:24 / Tue Mar 22 13:08:23 2016
GPGPU-Sim PTX: 6300000 instructions simulated : ctaid=(11,0,0) tid=(383,0,0)
GPGPU-Sim uArch: cycles simulated: 97000  inst.: 6320745 (ipc=65.2) sim_rate=74361 (inst/sec) elapsed = 0:0:01:25 / Tue Mar 22 13:08:24 2016
GPGPU-Sim PTX: 6400000 instructions simulated : ctaid=(4,0,0) tid=(79,0,0)
GPGPU-Sim uArch: cycles simulated: 98000  inst.: 6376281 (ipc=65.1) sim_rate=74142 (inst/sec) elapsed = 0:0:01:26 / Tue Mar 22 13:08:25 2016
GPGPU-Sim uArch: cycles simulated: 99000  inst.: 6424729 (ipc=64.9) sim_rate=73847 (inst/sec) elapsed = 0:0:01:27 / Tue Mar 22 13:08:26 2016
GPGPU-Sim PTX: 6500000 instructions simulated : ctaid=(16,0,0) tid=(351,0,0)
GPGPU-Sim uArch: cycles simulated: 100500  inst.: 6495849 (ipc=64.6) sim_rate=73816 (inst/sec) elapsed = 0:0:01:28 / Tue Mar 22 13:08:27 2016
GPGPU-Sim PTX: 6600000 instructions simulated : ctaid=(10,0,0) tid=(383,0,0)
GPGPU-Sim uArch: cycles simulated: 101500  inst.: 6551017 (ipc=64.5) sim_rate=73606 (inst/sec) elapsed = 0:0:01:29 / Tue Mar 22 13:08:28 2016
GPGPU-Sim uArch: cycles simulated: 102500  inst.: 6588393 (ipc=64.3) sim_rate=73204 (inst/sec) elapsed = 0:0:01:30 / Tue Mar 22 13:08:29 2016
GPGPU-Sim uArch: cycles simulated: 103500  inst.: 6644393 (ipc=64.2) sim_rate=73015 (inst/sec) elapsed = 0:0:01:31 / Tue Mar 22 13:08:30 2016
GPGPU-Sim PTX: 6700000 instructions simulated : ctaid=(6,0,0) tid=(95,0,0)
GPGPU-Sim uArch: cycles simulated: 105000  inst.: 6713369 (ipc=63.9) sim_rate=72971 (inst/sec) elapsed = 0:0:01:32 / Tue Mar 22 13:08:31 2016
GPGPU-Sim PTX: 6800000 instructions simulated : ctaid=(15,0,0) tid=(271,0,0)
GPGPU-Sim uArch: cycles simulated: 106000  inst.: 6755929 (ipc=63.7) sim_rate=72644 (inst/sec) elapsed = 0:0:01:33 / Tue Mar 22 13:08:32 2016
GPGPU-Sim uArch: cycles simulated: 107000  inst.: 6846761 (ipc=64.0) sim_rate=72837 (inst/sec) elapsed = 0:0:01:34 / Tue Mar 22 13:08:33 2016
GPGPU-Sim PTX: 6900000 instructions simulated : ctaid=(0,0,0) tid=(223,0,0)
GPGPU-Sim uArch: cycles simulated: 108500  inst.: 6910713 (ipc=63.7) sim_rate=72744 (inst/sec) elapsed = 0:0:01:35 / Tue Mar 22 13:08:34 2016
GPGPU-Sim PTX: 7000000 instructions simulated : ctaid=(7,0,0) tid=(351,0,0)
GPGPU-Sim uArch: cycles simulated: 109500  inst.: 6983913 (ipc=63.8) sim_rate=72749 (inst/sec) elapsed = 0:0:01:36 / Tue Mar 22 13:08:35 2016
GPGPU-Sim uArch: cycles simulated: 110500  inst.: 7031289 (ipc=63.6) sim_rate=72487 (inst/sec) elapsed = 0:0:01:37 / Tue Mar 22 13:08:36 2016
GPGPU-Sim PTX: 7100000 instructions simulated : ctaid=(5,0,0) tid=(239,0,0)
GPGPU-Sim uArch: cycles simulated: 111500  inst.: 7088921 (ipc=63.6) sim_rate=72335 (inst/sec) elapsed = 0:0:01:38 / Tue Mar 22 13:08:37 2016
GPGPU-Sim PTX: 7200000 instructions simulated : ctaid=(8,0,0) tid=(159,0,0)
GPGPU-Sim uArch: cycles simulated: 113000  inst.: 7152265 (ipc=63.3) sim_rate=72245 (inst/sec) elapsed = 0:0:01:39 / Tue Mar 22 13:08:38 2016
GPGPU-Sim uArch: cycles simulated: 114000  inst.: 7201129 (ipc=63.2) sim_rate=72011 (inst/sec) elapsed = 0:0:01:40 / Tue Mar 22 13:08:39 2016
GPGPU-Sim uArch: cycles simulated: 115000  inst.: 7242473 (ipc=63.0) sim_rate=71707 (inst/sec) elapsed = 0:0:01:41 / Tue Mar 22 13:08:40 2016
GPGPU-Sim PTX: 7300000 instructions simulated : ctaid=(10,0,0) tid=(207,0,0)
GPGPU-Sim uArch: cycles simulated: 116500  inst.: 7341929 (ipc=63.0) sim_rate=71979 (inst/sec) elapsed = 0:0:01:42 / Tue Mar 22 13:08:41 2016
GPGPU-Sim PTX: 7400000 instructions simulated : ctaid=(10,0,0) tid=(351,0,0)
GPGPU-Sim uArch: cycles simulated: 117500  inst.: 7395129 (ipc=62.9) sim_rate=71797 (inst/sec) elapsed = 0:0:01:43 / Tue Mar 22 13:08:42 2016
GPGPU-Sim PTX: 7500000 instructions simulated : ctaid=(13,0,0) tid=(319,0,0)
GPGPU-Sim uArch: cycles simulated: 118500  inst.: 7451881 (ipc=62.9) sim_rate=71652 (inst/sec) elapsed = 0:0:01:44 / Tue Mar 22 13:08:43 2016
GPGPU-Sim uArch: cycles simulated: 119500  inst.: 7496137 (ipc=62.7) sim_rate=71391 (inst/sec) elapsed = 0:0:01:45 / Tue Mar 22 13:08:44 2016
GPGPU-Sim PTX: 7600000 instructions simulated : ctaid=(10,0,0) tid=(271,0,0)
GPGPU-Sim uArch: cycles simulated: 121000  inst.: 7589753 (ipc=62.7) sim_rate=71601 (inst/sec) elapsed = 0:0:01:46 / Tue Mar 22 13:08:45 2016
GPGPU-Sim PTX: 7700000 instructions simulated : ctaid=(4,0,0) tid=(15,0,0)
GPGPU-Sim uArch: cycles simulated: 122000  inst.: 7650073 (ipc=62.7) sim_rate=71496 (inst/sec) elapsed = 0:0:01:47 / Tue Mar 22 13:08:46 2016
GPGPU-Sim uArch: cycles simulated: 123000  inst.: 7687657 (ipc=62.5) sim_rate=71182 (inst/sec) elapsed = 0:0:01:48 / Tue Mar 22 13:08:47 2016
GPGPU-Sim uArch: cycles simulated: 124000  inst.: 7736841 (ipc=62.4) sim_rate=70980 (inst/sec) elapsed = 0:0:01:49 / Tue Mar 22 13:08:48 2016
GPGPU-Sim PTX: 7800000 instructions simulated : ctaid=(7,0,0) tid=(143,0,0)
GPGPU-Sim uArch: cycles simulated: 125000  inst.: 7807417 (ipc=62.5) sim_rate=70976 (inst/sec) elapsed = 0:0:01:50 / Tue Mar 22 13:08:49 2016
GPGPU-Sim PTX: 7900000 instructions simulated : ctaid=(10,0,0) tid=(287,0,0)
GPGPU-Sim uArch: cycles simulated: 126500  inst.: 7881321 (ipc=62.3) sim_rate=71002 (inst/sec) elapsed = 0:0:01:51 / Tue Mar 22 13:08:50 2016
GPGPU-Sim uArch: cycles simulated: 127500  inst.: 7941865 (ipc=62.3) sim_rate=70909 (inst/sec) elapsed = 0:0:01:52 / Tue Mar 22 13:08:51 2016
GPGPU-Sim PTX: 8000000 instructions simulated : ctaid=(4,0,0) tid=(287,0,0)
GPGPU-Sim uArch: cycles simulated: 128500  inst.: 7982649 (ipc=62.1) sim_rate=70642 (inst/sec) elapsed = 0:0:01:53 / Tue Mar 22 13:08:52 2016
GPGPU-Sim uArch: cycles simulated: 129500  inst.: 8039849 (ipc=62.1) sim_rate=70524 (inst/sec) elapsed = 0:0:01:54 / Tue Mar 22 13:08:53 2016
GPGPU-Sim PTX: 8100000 instructions simulated : ctaid=(8,0,0) tid=(207,0,0)
GPGPU-Sim uArch: cycles simulated: 131000  inst.: 8119289 (ipc=62.0) sim_rate=70602 (inst/sec) elapsed = 0:0:01:55 / Tue Mar 22 13:08:54 2016
GPGPU-Sim PTX: 8200000 instructions simulated : ctaid=(12,0,0) tid=(463,0,0)
GPGPU-Sim uArch: cycles simulated: 132000  inst.: 8169465 (ipc=61.9) sim_rate=70426 (inst/sec) elapsed = 0:0:01:56 / Tue Mar 22 13:08:55 2016
GPGPU-Sim uArch: cycles simulated: 133000  inst.: 8221833 (ipc=61.8) sim_rate=70272 (inst/sec) elapsed = 0:0:01:57 / Tue Mar 22 13:08:56 2016
GPGPU-Sim PTX: 8300000 instructions simulated : ctaid=(5,0,0) tid=(335,0,0)
GPGPU-Sim uArch: cycles simulated: 134000  inst.: 8276217 (ipc=61.8) sim_rate=70137 (inst/sec) elapsed = 0:0:01:58 / Tue Mar 22 13:08:57 2016
GPGPU-Sim PTX: 8400000 instructions simulated : ctaid=(10,0,0) tid=(495,0,0)
GPGPU-Sim uArch: cycles simulated: 135500  inst.: 8370505 (ipc=61.8) sim_rate=70340 (inst/sec) elapsed = 0:0:01:59 / Tue Mar 22 13:08:58 2016
GPGPU-Sim uArch: cycles simulated: 136500  inst.: 8428873 (ipc=61.7) sim_rate=70240 (inst/sec) elapsed = 0:0:02:00 / Tue Mar 22 13:08:59 2016
GPGPU-Sim PTX: 8500000 instructions simulated : ctaid=(18,0,0) tid=(111,0,0)
GPGPU-Sim uArch: cycles simulated: 137500  inst.: 8482105 (ipc=61.7) sim_rate=70100 (inst/sec) elapsed = 0:0:02:01 / Tue Mar 22 13:09:00 2016
GPGPU-Sim uArch: cycles simulated: 138500  inst.: 8536281 (ipc=61.6) sim_rate=69969 (inst/sec) elapsed = 0:0:02:02 / Tue Mar 22 13:09:01 2016
GPGPU-Sim PTX: 8600000 instructions simulated : ctaid=(13,0,0) tid=(79,0,0)
GPGPU-Sim uArch: cycles simulated: 139500  inst.: 8607945 (ipc=61.7) sim_rate=69983 (inst/sec) elapsed = 0:0:02:03 / Tue Mar 22 13:09:02 2016
GPGPU-Sim PTX: 8700000 instructions simulated : ctaid=(3,0,0) tid=(463,0,0)
GPGPU-Sim uArch: cycles simulated: 141000  inst.: 8687545 (ipc=61.6) sim_rate=70060 (inst/sec) elapsed = 0:0:02:04 / Tue Mar 22 13:09:03 2016
GPGPU-Sim uArch: cycles simulated: 142000  inst.: 8726041 (ipc=61.5) sim_rate=69808 (inst/sec) elapsed = 0:0:02:05 / Tue Mar 22 13:09:04 2016
GPGPU-Sim PTX: 8800000 instructions simulated : ctaid=(16,0,0) tid=(31,0,0)
GPGPU-Sim uArch: cycles simulated: 143000  inst.: 8766153 (ipc=61.3) sim_rate=69572 (inst/sec) elapsed = 0:0:02:06 / Tue Mar 22 13:09:05 2016
GPGPU-Sim uArch: cycles simulated: 144500  inst.: 8845097 (ipc=61.2) sim_rate=69646 (inst/sec) elapsed = 0:0:02:07 / Tue Mar 22 13:09:06 2016
GPGPU-Sim PTX: 8900000 instructions simulated : ctaid=(7,0,0) tid=(127,0,0)
GPGPU-Sim uArch: cycles simulated: 145500  inst.: 8900281 (ipc=61.2) sim_rate=69533 (inst/sec) elapsed = 0:0:02:08 / Tue Mar 22 13:09:07 2016
GPGPU-Sim PTX: 9000000 instructions simulated : ctaid=(12,0,0) tid=(111,0,0)
GPGPU-Sim uArch: cycles simulated: 146500  inst.: 8961353 (ipc=61.2) sim_rate=69467 (inst/sec) elapsed = 0:0:02:09 / Tue Mar 22 13:09:08 2016
GPGPU-Sim uArch: cycles simulated: 147500  inst.: 9016361 (ipc=61.1) sim_rate=69356 (inst/sec) elapsed = 0:0:02:10 / Tue Mar 22 13:09:09 2016
GPGPU-Sim PTX: 9100000 instructions simulated : ctaid=(4,0,0) tid=(367,0,0)
GPGPU-Sim uArch: cycles simulated: 149000  inst.: 9100905 (ipc=61.1) sim_rate=69472 (inst/sec) elapsed = 0:0:02:11 / Tue Mar 22 13:09:10 2016
GPGPU-Sim PTX: 9200000 instructions simulated : ctaid=(10,0,0) tid=(111,0,0)
GPGPU-Sim uArch: cycles simulated: 150000  inst.: 9152761 (ipc=61.0) sim_rate=69339 (inst/sec) elapsed = 0:0:02:12 / Tue Mar 22 13:09:11 2016
GPGPU-Sim uArch: cycles simulated: 151000  inst.: 9189817 (ipc=60.9) sim_rate=69096 (inst/sec) elapsed = 0:0:02:13 / Tue Mar 22 13:09:12 2016
GPGPU-Sim PTX: 9300000 instructions simulated : ctaid=(16,0,0) tid=(95,0,0)
GPGPU-Sim uArch: cycles simulated: 152500  inst.: 9268777 (ipc=60.8) sim_rate=69169 (inst/sec) elapsed = 0:0:02:14 / Tue Mar 22 13:09:13 2016
GPGPU-Sim uArch: cycles simulated: 153500  inst.: 9310729 (ipc=60.7) sim_rate=68968 (inst/sec) elapsed = 0:0:02:15 / Tue Mar 22 13:09:14 2016
GPGPU-Sim PTX: 9400000 instructions simulated : ctaid=(16,0,0) tid=(143,0,0)
GPGPU-Sim uArch: cycles simulated: 154500  inst.: 9351273 (ipc=60.5) sim_rate=68759 (inst/sec) elapsed = 0:0:02:16 / Tue Mar 22 13:09:15 2016
GPGPU-Sim uArch: cycles simulated: 156000  inst.: 9445305 (ipc=60.5) sim_rate=68943 (inst/sec) elapsed = 0:0:02:17 / Tue Mar 22 13:09:16 2016
GPGPU-Sim PTX: 9500000 instructions simulated : ctaid=(0,0,0) tid=(319,0,0)
GPGPU-Sim uArch: cycles simulated: 157000  inst.: 9514809 (ipc=60.6) sim_rate=68947 (inst/sec) elapsed = 0:0:02:18 / Tue Mar 22 13:09:17 2016
GPGPU-Sim PTX: 9600000 instructions simulated : ctaid=(0,0,0) tid=(31,0,0)
GPGPU-Sim uArch: cycles simulated: 158000  inst.: 9565033 (ipc=60.5) sim_rate=68813 (inst/sec) elapsed = 0:0:02:19 / Tue Mar 22 13:09:18 2016
GPGPU-Sim uArch: cycles simulated: 159000  inst.: 9619145 (ipc=60.5) sim_rate=68708 (inst/sec) elapsed = 0:0:02:20 / Tue Mar 22 13:09:19 2016
GPGPU-Sim PTX: 9700000 instructions simulated : ctaid=(13,0,0) tid=(143,0,0)
GPGPU-Sim uArch: cycles simulated: 160000  inst.: 9669833 (ipc=60.4) sim_rate=68580 (inst/sec) elapsed = 0:0:02:21 / Tue Mar 22 13:09:20 2016
GPGPU-Sim uArch: cycles simulated: 161500  inst.: 9745273 (ipc=60.3) sim_rate=68628 (inst/sec) elapsed = 0:0:02:22 / Tue Mar 22 13:09:21 2016
GPGPU-Sim PTX: 9800000 instructions simulated : ctaid=(9,0,0) tid=(463,0,0)
GPGPU-Sim uArch: cycles simulated: 162500  inst.: 9792105 (ipc=60.3) sim_rate=68476 (inst/sec) elapsed = 0:0:02:23 / Tue Mar 22 13:09:22 2016
GPGPU-Sim uArch: cycles simulated: 163500  inst.: 9838905 (ipc=60.2) sim_rate=68325 (inst/sec) elapsed = 0:0:02:24 / Tue Mar 22 13:09:23 2016
GPGPU-Sim PTX: 9900000 instructions simulated : ctaid=(10,0,0) tid=(447,0,0)
GPGPU-Sim uArch: cycles simulated: 164500  inst.: 9889833 (ipc=60.1) sim_rate=68205 (inst/sec) elapsed = 0:0:02:25 / Tue Mar 22 13:09:24 2016
GPGPU-Sim PTX: 10000000 instructions simulated : ctaid=(13,0,0) tid=(127,0,0)
GPGPU-Sim uArch: cycles simulated: 166000  inst.: 9963081 (ipc=60.0) sim_rate=68240 (inst/sec) elapsed = 0:0:02:26 / Tue Mar 22 13:09:25 2016
GPGPU-Sim PTX: 10100000 instructions simulated : ctaid=(11,0,0) tid=(143,0,0)
GPGPU-Sim uArch: cycles simulated: 167000  inst.: 10053417 (ipc=60.2) sim_rate=68390 (inst/sec) elapsed = 0:0:02:27 / Tue Mar 22 13:09:26 2016
GPGPU-Sim uArch: cycles simulated: 168000  inst.: 10109353 (ipc=60.2) sim_rate=68306 (inst/sec) elapsed = 0:0:02:28 / Tue Mar 22 13:09:27 2016
GPGPU-Sim PTX: 10200000 instructions simulated : ctaid=(12,0,0) tid=(479,0,0)
GPGPU-Sim uArch: cycles simulated: 169000  inst.: 10150217 (ipc=60.1) sim_rate=68122 (inst/sec) elapsed = 0:0:02:29 / Tue Mar 22 13:09:28 2016
GPGPU-Sim uArch: cycles simulated: 170000  inst.: 10198921 (ipc=60.0) sim_rate=67992 (inst/sec) elapsed = 0:0:02:30 / Tue Mar 22 13:09:29 2016
GPGPU-Sim PTX: 10300000 instructions simulated : ctaid=(14,0,0) tid=(431,0,0)
GPGPU-Sim uArch: cycles simulated: 171500  inst.: 10280473 (ipc=59.9) sim_rate=68082 (inst/sec) elapsed = 0:0:02:31 / Tue Mar 22 13:09:30 2016
GPGPU-Sim uArch: cycles simulated: 172500  inst.: 10340489 (ipc=59.9) sim_rate=68029 (inst/sec) elapsed = 0:0:02:32 / Tue Mar 22 13:09:31 2016
GPGPU-Sim PTX: 10400000 instructions simulated : ctaid=(9,0,0) tid=(287,0,0)
GPGPU-Sim uArch: cycles simulated: 173500  inst.: 10401113 (ipc=59.9) sim_rate=67981 (inst/sec) elapsed = 0:0:02:33 / Tue Mar 22 13:09:32 2016
GPGPU-Sim PTX: 10500000 instructions simulated : ctaid=(1,0,0) tid=(79,0,0)
GPGPU-Sim uArch: cycles simulated: 174500  inst.: 10447417 (ipc=59.9) sim_rate=67840 (inst/sec) elapsed = 0:0:02:34 / Tue Mar 22 13:09:33 2016
GPGPU-Sim uArch: cycles simulated: 176000  inst.: 10518857 (ipc=59.8) sim_rate=67863 (inst/sec) elapsed = 0:0:02:35 / Tue Mar 22 13:09:34 2016
GPGPU-Sim PTX: 10600000 instructions simulated : ctaid=(3,0,0) tid=(271,0,0)
GPGPU-Sim uArch: cycles simulated: 177000  inst.: 10559257 (ipc=59.7) sim_rate=67687 (inst/sec) elapsed = 0:0:02:36 / Tue Mar 22 13:09:35 2016
GPGPU-Sim uArch: cycles simulated: 178000  inst.: 10628569 (ipc=59.7) sim_rate=67697 (inst/sec) elapsed = 0:0:02:37 / Tue Mar 22 13:09:36 2016
GPGPU-Sim PTX: 10700000 instructions simulated : ctaid=(5,0,0) tid=(15,0,0)
GPGPU-Sim uArch: cycles simulated: 179000  inst.: 10677513 (ipc=59.7) sim_rate=67579 (inst/sec) elapsed = 0:0:02:38 / Tue Mar 22 13:09:37 2016
GPGPU-Sim uArch: cycles simulated: 180500  inst.: 10743305 (ipc=59.5) sim_rate=67567 (inst/sec) elapsed = 0:0:02:39 / Tue Mar 22 13:09:38 2016
GPGPU-Sim PTX: 10800000 instructions simulated : ctaid=(13,0,0) tid=(431,0,0)
GPGPU-Sim uArch: cycles simulated: 181500  inst.: 10805417 (ipc=59.5) sim_rate=67533 (inst/sec) elapsed = 0:0:02:40 / Tue Mar 22 13:09:39 2016
GPGPU-Sim PTX: 10900000 instructions simulated : ctaid=(9,0,0) tid=(207,0,0)
GPGPU-Sim uArch: cycles simulated: 182500  inst.: 10856233 (ipc=59.5) sim_rate=67430 (inst/sec) elapsed = 0:0:02:41 / Tue Mar 22 13:09:40 2016
GPGPU-Sim uArch: cycles simulated: 183500  inst.: 10918121 (ipc=59.5) sim_rate=67395 (inst/sec) elapsed = 0:0:02:42 / Tue Mar 22 13:09:41 2016
GPGPU-Sim PTX: 11000000 instructions simulated : ctaid=(12,0,0) tid=(223,0,0)
GPGPU-Sim uArch: cycles simulated: 185000  inst.: 11002393 (ipc=59.5) sim_rate=67499 (inst/sec) elapsed = 0:0:02:43 / Tue Mar 22 13:09:42 2016
GPGPU-Sim PTX: 11100000 instructions simulated : ctaid=(10,0,0) tid=(511,0,0)
GPGPU-Sim uArch: cycles simulated: 186000  inst.: 11059257 (ipc=59.5) sim_rate=67434 (inst/sec) elapsed = 0:0:02:44 / Tue Mar 22 13:09:43 2016
GPGPU-Sim uArch: cycles simulated: 187000  inst.: 11134985 (ipc=59.5) sim_rate=67484 (inst/sec) elapsed = 0:0:02:45 / Tue Mar 22 13:09:44 2016
GPGPU-Sim PTX: 11200000 instructions simulated : ctaid=(8,0,0) tid=(31,0,0)
GPGPU-Sim uArch: cycles simulated: 188000  inst.: 11184345 (ipc=59.5) sim_rate=67375 (inst/sec) elapsed = 0:0:02:46 / Tue Mar 22 13:09:45 2016
GPGPU-Sim uArch: cycles simulated: 189000  inst.: 11236025 (ipc=59.4) sim_rate=67281 (inst/sec) elapsed = 0:0:02:47 / Tue Mar 22 13:09:46 2016
GPGPU-Sim PTX: 11300000 instructions simulated : ctaid=(14,0,0) tid=(143,0,0)
GPGPU-Sim uArch: cycles simulated: 190500  inst.: 11292393 (ipc=59.3) sim_rate=67216 (inst/sec) elapsed = 0:0:02:48 / Tue Mar 22 13:09:47 2016
GPGPU-Sim uArch: cycles simulated: 191500  inst.: 11335225 (ipc=59.2) sim_rate=67072 (inst/sec) elapsed = 0:0:02:49 / Tue Mar 22 13:09:48 2016
GPGPU-Sim PTX: 11400000 instructions simulated : ctaid=(4,0,0) tid=(271,0,0)
GPGPU-Sim uArch: cycles simulated: 192500  inst.: 11391689 (ipc=59.2) sim_rate=67009 (inst/sec) elapsed = 0:0:02:50 / Tue Mar 22 13:09:49 2016
GPGPU-Sim PTX: 11500000 instructions simulated : ctaid=(16,0,0) tid=(479,0,0)
GPGPU-Sim uArch: cycles simulated: 194000  inst.: 11458665 (ipc=59.1) sim_rate=67009 (inst/sec) elapsed = 0:0:02:51 / Tue Mar 22 13:09:50 2016
GPGPU-Sim uArch: cycles simulated: 195000  inst.: 11516825 (ipc=59.1) sim_rate=66958 (inst/sec) elapsed = 0:0:02:52 / Tue Mar 22 13:09:51 2016
GPGPU-Sim PTX: 11600000 instructions simulated : ctaid=(10,0,0) tid=(447,0,0)
GPGPU-Sim uArch: cycles simulated: 196000  inst.: 11591193 (ipc=59.1) sim_rate=67001 (inst/sec) elapsed = 0:0:02:53 / Tue Mar 22 13:09:52 2016
GPGPU-Sim PTX: 11700000 instructions simulated : ctaid=(18,0,0) tid=(159,0,0)
GPGPU-Sim uArch: cycles simulated: 197500  inst.: 11664137 (ipc=59.1) sim_rate=67035 (inst/sec) elapsed = 0:0:02:54 / Tue Mar 22 13:09:53 2016
GPGPU-Sim uArch: cycles simulated: 198500  inst.: 11731977 (ipc=59.1) sim_rate=67039 (inst/sec) elapsed = 0:0:02:55 / Tue Mar 22 13:09:54 2016
GPGPU-Sim PTX: 11800000 instructions simulated : ctaid=(17,0,0) tid=(479,0,0)
GPGPU-Sim uArch: cycles simulated: 199500  inst.: 11764921 (ipc=59.0) sim_rate=66846 (inst/sec) elapsed = 0:0:02:56 / Tue Mar 22 13:09:55 2016
GPGPU-Sim uArch: cycles simulated: 200500  inst.: 11810649 (ipc=58.9) sim_rate=66726 (inst/sec) elapsed = 0:0:02:57 / Tue Mar 22 13:09:56 2016
GPGPU-Sim PTX: 11900000 instructions simulated : ctaid=(7,0,0) tid=(463,0,0)
GPGPU-Sim uArch: cycles simulated: 202000  inst.: 11889769 (ipc=58.9) sim_rate=66796 (inst/sec) elapsed = 0:0:02:58 / Tue Mar 22 13:09:57 2016
GPGPU-Sim uArch: cycles simulated: 203000  inst.: 11925577 (ipc=58.7) sim_rate=66623 (inst/sec) elapsed = 0:0:02:59 / Tue Mar 22 13:09:58 2016
GPGPU-Sim PTX: 12000000 instructions simulated : ctaid=(14,0,0) tid=(79,0,0)
GPGPU-Sim uArch: cycles simulated: 204000  inst.: 11963129 (ipc=58.6) sim_rate=66461 (inst/sec) elapsed = 0:0:03:00 / Tue Mar 22 13:09:59 2016
GPGPU-Sim PTX: 12100000 instructions simulated : ctaid=(13,0,0) tid=(175,0,0)
GPGPU-Sim uArch: cycles simulated: 205500  inst.: 12047833 (ipc=58.6) sim_rate=66562 (inst/sec) elapsed = 0:0:03:01 / Tue Mar 22 13:10:00 2016
GPGPU-Sim uArch: cycles simulated: 206500  inst.: 12107897 (ipc=58.6) sim_rate=66526 (inst/sec) elapsed = 0:0:03:02 / Tue Mar 22 13:10:01 2016
GPGPU-Sim PTX: 12200000 instructions simulated : ctaid=(11,0,0) tid=(463,0,0)
GPGPU-Sim uArch: cycles simulated: 207500  inst.: 12152009 (ipc=58.6) sim_rate=66404 (inst/sec) elapsed = 0:0:03:03 / Tue Mar 22 13:10:02 2016
GPGPU-Sim uArch: cycles simulated: 208500  inst.: 12215433 (ipc=58.6) sim_rate=66388 (inst/sec) elapsed = 0:0:03:04 / Tue Mar 22 13:10:03 2016
GPGPU-Sim PTX: 12300000 instructions simulated : ctaid=(15,0,0) tid=(207,0,0)
GPGPU-Sim uArch: cycles simulated: 209500  inst.: 12279353 (ipc=58.6) sim_rate=66374 (inst/sec) elapsed = 0:0:03:05 / Tue Mar 22 13:10:04 2016
GPGPU-Sim PTX: 12400000 instructions simulated : ctaid=(12,0,0) tid=(431,0,0)
GPGPU-Sim uArch: cycles simulated: 211000  inst.: 12349561 (ipc=58.5) sim_rate=66395 (inst/sec) elapsed = 0:0:03:06 / Tue Mar 22 13:10:05 2016
GPGPU-Sim uArch: cycles simulated: 212000  inst.: 12401817 (ipc=58.5) sim_rate=66319 (inst/sec) elapsed = 0:0:03:07 / Tue Mar 22 13:10:06 2016
GPGPU-Sim PTX: 12500000 instructions simulated : ctaid=(4,0,0) tid=(351,0,0)
GPGPU-Sim uArch: cycles simulated: 213000  inst.: 12450857 (ipc=58.5) sim_rate=66227 (inst/sec) elapsed = 0:0:03:08 / Tue Mar 22 13:10:07 2016
GPGPU-Sim uArch: cycles simulated: 214500  inst.: 12504265 (ipc=58.3) sim_rate=66160 (inst/sec) elapsed = 0:0:03:09 / Tue Mar 22 13:10:08 2016
GPGPU-Sim PTX: 12600000 instructions simulated : ctaid=(15,0,0) tid=(479,0,0)
GPGPU-Sim uArch: cycles simulated: 215500  inst.: 12561257 (ipc=58.3) sim_rate=66111 (inst/sec) elapsed = 0:0:03:10 / Tue Mar 22 13:10:09 2016
GPGPU-Sim uArch: cycles simulated: 216500  inst.: 12609881 (ipc=58.2) sim_rate=66020 (inst/sec) elapsed = 0:0:03:11 / Tue Mar 22 13:10:10 2016
GPGPU-Sim PTX: 12700000 instructions simulated : ctaid=(17,0,0) tid=(511,0,0)
GPGPU-Sim uArch: cycles simulated: 218000  inst.: 12701129 (ipc=58.3) sim_rate=66151 (inst/sec) elapsed = 0:0:03:12 / Tue Mar 22 13:10:11 2016
GPGPU-Sim PTX: 12800000 instructions simulated : ctaid=(19,0,0) tid=(223,0,0)
GPGPU-Sim uArch: cycles simulated: 219000  inst.: 12761929 (ipc=58.3) sim_rate=66123 (inst/sec) elapsed = 0:0:03:13 / Tue Mar 22 13:10:12 2016
GPGPU-Sim uArch: cycles simulated: 220000  inst.: 12825849 (ipc=58.3) sim_rate=66112 (inst/sec) elapsed = 0:0:03:14 / Tue Mar 22 13:10:13 2016
GPGPU-Sim PTX: 12900000 instructions simulated : ctaid=(7,0,0) tid=(479,0,0)
GPGPU-Sim uArch: cycles simulated: 221000  inst.: 12864361 (ipc=58.2) sim_rate=65971 (inst/sec) elapsed = 0:0:03:15 / Tue Mar 22 13:10:14 2016
GPGPU-Sim uArch: cycles simulated: 222500  inst.: 12940889 (ipc=58.2) sim_rate=66024 (inst/sec) elapsed = 0:0:03:16 / Tue Mar 22 13:10:15 2016
GPGPU-Sim PTX: 13000000 instructions simulated : ctaid=(12,0,0) tid=(399,0,0)
GPGPU-Sim uArch: cycles simulated: 223500  inst.: 12992457 (ipc=58.1) sim_rate=65951 (inst/sec) elapsed = 0:0:03:17 / Tue Mar 22 13:10:16 2016
GPGPU-Sim uArch: cycles simulated: 224500  inst.: 13041177 (ipc=58.1) sim_rate=65864 (inst/sec) elapsed = 0:0:03:18 / Tue Mar 22 13:10:17 2016
GPGPU-Sim PTX: 13100000 instructions simulated : ctaid=(1,0,0) tid=(463,0,0)
GPGPU-Sim uArch: cycles simulated: 226000  inst.: 13113369 (ipc=58.0) sim_rate=65896 (inst/sec) elapsed = 0:0:03:19 / Tue Mar 22 13:10:18 2016
GPGPU-Sim PTX: 13200000 instructions simulated : ctaid=(14,0,0) tid=(95,0,0)
GPGPU-Sim uArch: cycles simulated: 227000  inst.: 13174905 (ipc=58.0) sim_rate=65874 (inst/sec) elapsed = 0:0:03:20 / Tue Mar 22 13:10:19 2016
GPGPU-Sim uArch: cycles simulated: 228000  inst.: 13232521 (ipc=58.0) sim_rate=65833 (inst/sec) elapsed = 0:0:03:21 / Tue Mar 22 13:10:20 2016
GPGPU-Sim PTX: 13300000 instructions simulated : ctaid=(0,0,0) tid=(383,0,0)
GPGPU-Sim uArch: cycles simulated: 229500  inst.: 13301657 (ipc=58.0) sim_rate=65849 (inst/sec) elapsed = 0:0:03:22 / Tue Mar 22 13:10:21 2016
GPGPU-Sim PTX: 13400000 instructions simulated : ctaid=(17,0,0) tid=(351,0,0)
GPGPU-Sim uArch: cycles simulated: 230500  inst.: 13366569 (ipc=58.0) sim_rate=65845 (inst/sec) elapsed = 0:0:03:23 / Tue Mar 22 13:10:22 2016
GPGPU-Sim uArch: cycles simulated: 231500  inst.: 13427465 (ipc=58.0) sim_rate=65820 (inst/sec) elapsed = 0:0:03:24 / Tue Mar 22 13:10:23 2016
GPGPU-Sim PTX: 13500000 instructions simulated : ctaid=(10,0,0) tid=(383,0,0)
GPGPU-Sim uArch: cycles simulated: 232500  inst.: 13479673 (ipc=58.0) sim_rate=65754 (inst/sec) elapsed = 0:0:03:25 / Tue Mar 22 13:10:24 2016
GPGPU-Sim PTX: 13600000 instructions simulated : ctaid=(8,0,0) tid=(95,0,0)
GPGPU-Sim uArch: cycles simulated: 234000  inst.: 13553129 (ipc=57.9) sim_rate=65791 (inst/sec) elapsed = 0:0:03:26 / Tue Mar 22 13:10:25 2016
GPGPU-Sim uArch: cycles simulated: 235000  inst.: 13587241 (ipc=57.8) sim_rate=65638 (inst/sec) elapsed = 0:0:03:27 / Tue Mar 22 13:10:26 2016
GPGPU-Sim PTX: 13700000 instructions simulated : ctaid=(14,0,0) tid=(175,0,0)
GPGPU-Sim uArch: cycles simulated: 236500  inst.: 13677705 (ipc=57.8) sim_rate=65758 (inst/sec) elapsed = 0:0:03:28 / Tue Mar 22 13:10:27 2016
GPGPU-Sim uArch: cycles simulated: 237500  inst.: 13726937 (ipc=57.8) sim_rate=65679 (inst/sec) elapsed = 0:0:03:29 / Tue Mar 22 13:10:28 2016
GPGPU-Sim PTX: 13800000 instructions simulated : ctaid=(7,0,0) tid=(79,0,0)
GPGPU-Sim uArch: cycles simulated: 238500  inst.: 13782745 (ipc=57.8) sim_rate=65632 (inst/sec) elapsed = 0:0:03:30 / Tue Mar 22 13:10:29 2016
GPGPU-Sim PTX: 13900000 instructions simulated : ctaid=(0,0,0) tid=(287,0,0)
GPGPU-Sim uArch: cycles simulated: 240000  inst.: 13855849 (ipc=57.7) sim_rate=65667 (inst/sec) elapsed = 0:0:03:31 / Tue Mar 22 13:10:30 2016
GPGPU-Sim uArch: cycles simulated: 241000  inst.: 13893689 (ipc=57.7) sim_rate=65536 (inst/sec) elapsed = 0:0:03:32 / Tue Mar 22 13:10:31 2016
GPGPU-Sim uArch: cycles simulated: 242000  inst.: 13942761 (ipc=57.6) sim_rate=65458 (inst/sec) elapsed = 0:0:03:33 / Tue Mar 22 13:10:32 2016
GPGPU-Sim PTX: 14000000 instructions simulated : ctaid=(6,0,0) tid=(47,0,0)
GPGPU-Sim uArch: cycles simulated: 243500  inst.: 14023561 (ipc=57.6) sim_rate=65530 (inst/sec) elapsed = 0:0:03:34 / Tue Mar 22 13:10:33 2016
GPGPU-Sim PTX: 14100000 instructions simulated : ctaid=(0,0,0) tid=(287,0,0)
GPGPU-Sim uArch: cycles simulated: 244500  inst.: 14086617 (ipc=57.6) sim_rate=65519 (inst/sec) elapsed = 0:0:03:35 / Tue Mar 22 13:10:34 2016
GPGPU-Sim uArch: cycles simulated: 245500  inst.: 14146665 (ipc=57.6) sim_rate=65493 (inst/sec) elapsed = 0:0:03:36 / Tue Mar 22 13:10:35 2016
GPGPU-Sim PTX: 14200000 instructions simulated : ctaid=(15,0,0) tid=(223,0,0)
GPGPU-Sim uArch: cycles simulated: 247000  inst.: 14245033 (ipc=57.7) sim_rate=65645 (inst/sec) elapsed = 0:0:03:37 / Tue Mar 22 13:10:36 2016
GPGPU-Sim PTX: 14300000 instructions simulated : ctaid=(14,0,0) tid=(175,0,0)
GPGPU-Sim uArch: cycles simulated: 248000  inst.: 14278393 (ipc=57.6) sim_rate=65497 (inst/sec) elapsed = 0:0:03:38 / Tue Mar 22 13:10:37 2016
GPGPU-Sim uArch: cycles simulated: 249000  inst.: 14319113 (ipc=57.5) sim_rate=65384 (inst/sec) elapsed = 0:0:03:39 / Tue Mar 22 13:10:38 2016
GPGPU-Sim PTX: 14400000 instructions simulated : ctaid=(17,0,0) tid=(351,0,0)
GPGPU-Sim uArch: cycles simulated: 250500  inst.: 14419561 (ipc=57.6) sim_rate=65543 (inst/sec) elapsed = 0:0:03:40 / Tue Mar 22 13:10:39 2016
GPGPU-Sim PTX: 14500000 instructions simulated : ctaid=(8,0,0) tid=(63,0,0)
GPGPU-Sim uArch: cycles simulated: 251500  inst.: 14459129 (ipc=57.5) sim_rate=65425 (inst/sec) elapsed = 0:0:03:41 / Tue Mar 22 13:10:40 2016
GPGPU-Sim uArch: cycles simulated: 252500  inst.: 14511817 (ipc=57.5) sim_rate=65368 (inst/sec) elapsed = 0:0:03:42 / Tue Mar 22 13:10:41 2016
GPGPU-Sim PTX: 14600000 instructions simulated : ctaid=(9,0,0) tid=(175,0,0)
GPGPU-Sim uArch: cycles simulated: 254000  inst.: 14571705 (ipc=57.4) sim_rate=65343 (inst/sec) elapsed = 0:0:03:43 / Tue Mar 22 13:10:42 2016
GPGPU-Sim uArch: cycles simulated: 255000  inst.: 14613433 (ipc=57.3) sim_rate=65238 (inst/sec) elapsed = 0:0:03:44 / Tue Mar 22 13:10:43 2016
GPGPU-Sim PTX: 14700000 instructions simulated : ctaid=(7,0,0) tid=(223,0,0)
GPGPU-Sim uArch: cycles simulated: 256500  inst.: 14709817 (ipc=57.3) sim_rate=65376 (inst/sec) elapsed = 0:0:03:45 / Tue Mar 22 13:10:44 2016
GPGPU-Sim PTX: 14800000 instructions simulated : ctaid=(18,0,0) tid=(319,0,0)
GPGPU-Sim uArch: cycles simulated: 257500  inst.: 14773577 (ipc=57.4) sim_rate=65369 (inst/sec) elapsed = 0:0:03:46 / Tue Mar 22 13:10:45 2016
GPGPU-Sim uArch: cycles simulated: 258500  inst.: 14841801 (ipc=57.4) sim_rate=65382 (inst/sec) elapsed = 0:0:03:47 / Tue Mar 22 13:10:46 2016
GPGPU-Sim PTX: 14900000 instructions simulated : ctaid=(1,0,0) tid=(143,0,0)
GPGPU-Sim uArch: cycles simulated: 259500  inst.: 14901289 (ipc=57.4) sim_rate=65356 (inst/sec) elapsed = 0:0:03:48 / Tue Mar 22 13:10:47 2016
GPGPU-Sim PTX: 15000000 instructions simulated : ctaid=(3,0,0) tid=(495,0,0)
GPGPU-Sim uArch: cycles simulated: 261000  inst.: 14989801 (ipc=57.4) sim_rate=65457 (inst/sec) elapsed = 0:0:03:49 / Tue Mar 22 13:10:48 2016
GPGPU-Sim uArch: cycles simulated: 262000  inst.: 15024569 (ipc=57.3) sim_rate=65324 (inst/sec) elapsed = 0:0:03:50 / Tue Mar 22 13:10:49 2016
GPGPU-Sim PTX: 15100000 instructions simulated : ctaid=(1,0,0) tid=(207,0,0)
GPGPU-Sim uArch: cycles simulated: 263000  inst.: 15075369 (ipc=57.3) sim_rate=65261 (inst/sec) elapsed = 0:0:03:51 / Tue Mar 22 13:10:50 2016
GPGPU-Sim PTX: 15200000 instructions simulated : ctaid=(7,0,0) tid=(351,0,0)
GPGPU-Sim uArch: cycles simulated: 264500  inst.: 15159289 (ipc=57.3) sim_rate=65341 (inst/sec) elapsed = 0:0:03:52 / Tue Mar 22 13:10:51 2016
GPGPU-Sim uArch: cycles simulated: 265500  inst.: 15217977 (ipc=57.3) sim_rate=65313 (inst/sec) elapsed = 0:0:03:53 / Tue Mar 22 13:10:52 2016
GPGPU-Sim PTX: 15300000 instructions simulated : ctaid=(11,0,0) tid=(319,0,0)
GPGPU-Sim uArch: cycles simulated: 266500  inst.: 15280889 (ipc=57.3) sim_rate=65302 (inst/sec) elapsed = 0:0:03:54 / Tue Mar 22 13:10:53 2016
GPGPU-Sim PTX: 15400000 instructions simulated : ctaid=(7,0,0) tid=(207,0,0)
GPGPU-Sim uArch: cycles simulated: 268000  inst.: 15371129 (ipc=57.4) sim_rate=65409 (inst/sec) elapsed = 0:0:03:55 / Tue Mar 22 13:10:54 2016
GPGPU-Sim uArch: cycles simulated: 269000  inst.: 15417817 (ipc=57.3) sim_rate=65329 (inst/sec) elapsed = 0:0:03:56 / Tue Mar 22 13:10:55 2016
GPGPU-Sim PTX: 15500000 instructions simulated : ctaid=(8,0,0) tid=(79,0,0)
GPGPU-Sim uArch: cycles simulated: 270000  inst.: 15488217 (ipc=57.4) sim_rate=65351 (inst/sec) elapsed = 0:0:03:57 / Tue Mar 22 13:10:56 2016
GPGPU-Sim uArch: cycles simulated: 271000  inst.: 15546473 (ipc=57.4) sim_rate=65321 (inst/sec) elapsed = 0:0:03:58 / Tue Mar 22 13:10:57 2016
[...]
dram[3]:         0         0         0         0         0         0         0         0         0         0         0         0         0         0         0         0 
dram[4]:         0         0         0         0         0         0         0         0         0         0         0         0         0         0         0         0 
dram[5]:         0         0         0         0         0         0         0         0         0         0         0         0         0         0         0         0 
total accesses: 0
min_bank_accesses = 0!
min_chip_accesses = 0!
number of total read accesses:
dram[0]:      6325      6185      6006      6217      6259      6077      6480      6530      6608      6419      6004      6085      6085      5988      5951      6085 
dram[1]:      6569      6488      6324      6425      6504      6447      6775      6758      6847      6838      6281      6330      6288      6301      6320      6353 
dram[2]:      6471      6424      6270      6295      6377      6373      6666      6639      6786      6756      6258      6179      6300      6249      6285      6165 
dram[3]:      6223      6433      6100      6041      6173      6348      6491      6463      6424      6578      6048      5986      5978      6164      6068      5876 
dram[4]:      6545      6643      6450      6307      6398      6588      6836      6825      6749      6782      6406      6274      6268      6420      6420      6135 
dram[5]:      6390      6539      6389      6274      6318      6411      6744      6737      6649      6661      6250      6220      6208      6311      6244      6135 
total reads: 611565
bank skew: 6847/5876 = 1.17
chip skew: 104046/99304 = 1.05
number of total write accesses:
dram[0]:      5622      5584      5482      5645      5476      5389      5623      5633      5768      5671      5585      5628      5524      5482      5531      5614 
dram[1]:      5766      5689      5621      5730      5622      5572      5699      5667      5874      5929      5703      5714      5656      5644      5729      5722 
dram[2]:      5701      5753      5673      5735      5603      5548      5762      5695      5881      5875      5790      5713      5711      5682      5779      5684 
dram[3]:      5569      5634      5553      5545      5482      5514      5622      5616      5663      5780      5627      5606      5475      5546      5621      5497 
dram[4]:      5737      5801      5696      5617      5524      5610      5818      5858      5813      5734      5785      5758      5596      5659      5741      5560 
dram[5]:      5754      5800      5733      5685      5562      5626      5775      5832      5788      5813      5778      5772      5567      5710      5760      5587 
total reads: 544378
bank skew: 5929/5389 = 1.10
chip skew: 91585/89257 = 1.03
average mf latency per bank:
dram[0]:        505       526       515       523       693       664       546       630       515       536       521       533       521       542       523       532
dram[1]:        535       545       544       548       651       717       654       600       552       553       553       558       554       559       551       552
dram[2]:        536       540       543       542       709       657       607       666       549       552       545       551       552       551       545       553
dram[3]:        516       524       520       536       622       693       639       612       529       557       525       541       531       541       526       548
dram[4]:        537       534       551       548       676       733       615       557       555       564       548       550       559       553       550       559
dram[5]:        528       535       530       545       736       676       561       635       541       556       538       548       548       550       539       557
maximum mf latency per bank:
dram[0]:       1461      1451      1346      1365      1608      1715      1392      1584      1636      1396      1324      1509      1796      1448      1395      1433
dram[1]:       1830      1602      1700      1654      1755      1616      1558      1716      1637      1710      1567      1670      1653      1534      1670      1460
dram[2]:       1635      1373      1462      1387      1495      1305      1590      1446      1694      1435      1578      1280      1438      1552      1485      1447
dram[3]:       1422      1441      1342      1292      1499      1386      1422      1665      1451      1507      1418      1440      1416      1389      1374      1461
dram[4]:       1525      1533      1398      1596      1747      1493      1475      1750      1540      1633      1511      1529      1573      1447      1550      1529
dram[5]:       1510      1521      1526      1430      1461      1462      1432      2029      1559      1632      1469      1543      1429      1550      1520      1537

Number of Memory Banks Accessed per Memory Operation per Warp (from 0):
0	0	0	0	0	0	0	0	0	0	0	0	0	0	0	0	0	0	0	0	0	0	0	0	0	0	0	0	0	0	0	0	0	0	0	0	0	0	0	0	0	0	0	0	0	0	0	0	0	0	0	0	0	0	0	0	0	0	0	0	0	0	0	0	0	0	0	0	0	0	0	0	0	0	0	0	0	0	0	0	0	0	0	0	0	0	0	0	0	0	0	0	0	0	0	0	
Average # of Memory Banks Accessed per Memory Operation per Warp=-nan

position of mrq chosen
0	0	0	0	0	0	0	0	0	0	0	0	0	0	0	0	

average position of mrq chosen = -nan
Memory Partition 0: 
Cache L2_bank_000:
MSHR contents

Cache L2_bank_001:
MSHR contents

In Dram Latency Queue (total = 0): 
DRAM[0]: 16 bks, busW=4 BL=8 CL=12, tRRD=2 tCCD=6, tRCD=12 tRAS=28 tRP=12 tRC=40
n_cmd=1860313 n_nop=1401215 n_act=77964 n_pre=77948 n_req=188561 n_rd=198608 n_write=104578 bw_util=0.326
n_activity=1217976 dram_eff=0.4979
bk0: 12650a 1423939i bk1: 12370a 1420185i bk2: 12012a 1423701i bk3: 12434a 1405521i bk4: 12518a 1403860i bk5: 12154a 1407693i bk6: 12960a 1366747i bk7: 13060a 1354743i bk8: 13216a 1394434i bk9: 12838a 1395346i bk10: 12008a 1409970i bk11: 12170a 1398095i bk12: 12170a 1401454i bk13: 11976a 1399501i bk14: 11902a 1396808i bk15: 12170a 1380979i 
dram_util_bins: 0 0 0 0 0 0 0 0 0 0
dram_eff_bins: 0 0 0 0 0 0 0 0 0 0
mrqq: max=16 avg=6.35602
Memory Partition 1: 
Cache L2_bank_002:
MSHR contents

Cache L2_bank_003:
MSHR contents

In Dram Latency Queue (total = 0): 
DRAM[1]: 16 bks, busW=4 BL=8 CL=12, tRRD=2 tCCD=6, tRCD=12 tRAS=28 tRP=12 tRC=40
n_cmd=1860313 n_nop=1380502 n_act=82501 n_pre=82485 n_req=195185 n_rd=207696 n_write=107129 bw_util=0.3385
n_activity=1215688 dram_eff=0.5179
bk0: 13138a 1388422i bk1: 12976a 1390227i bk2: 12648a 1385570i bk3: 12850a 1370720i bk4: 13008a 1369231i bk5: 12894a 1368081i bk6: 13550a 1338786i bk7: 13516a 1331788i bk8: 13694a 1362575i bk9: 13676a 1355958i bk10: 12562a 1380478i bk11: 12660a 1368309i bk12: 12576a 1371399i bk13: 12602a 1362631i bk14: 12640a 1353939i bk15: 12706a 1345461i 
dram_util_bins: 0 0 0 0 0 0 0 0 0 0
dram_eff_bins: 0 0 0 0 0 0 0 0 0 0
mrqq: max=16 avg=7.03622
Memory Partition 2: 
Cache L2_bank_004:
MSHR contents

Cache L2_bank_005:
MSHR contents

In Dram Latency Queue (total = 0): 
DRAM[2]: 16 bks, busW=4 BL=8 CL=12, tRRD=2 tCCD=6, tRCD=12 tRAS=28 tRP=12 tRC=40
n_cmd=1860313 n_nop=1386078 n_act=80842 n_pre=80826 n_req=194078 n_rd=204986 n_write=107581 bw_util=0.336
n_activity=1225843 dram_eff=0.51
bk0: 12942a 1406003i bk1: 12848a 1391647i bk2: 12540a 1397509i bk3: 12590a 1386348i bk4: 12754a 1380821i bk5: 12746a 1382157i bk6: 13332a 1349377i bk7: 13278a 1340049i bk8: 13572a 1372761i bk9: 13512a 1364762i bk10: 12516a 1381791i bk11: 12358a 1382210i bk12: 12600a 1373672i bk13: 12498a 1368301i bk14: 12570a 1362984i bk15: 12330a 1360911i 
dram_util_bins: 0 0 0 0 0 0 0 0 0 0
dram_eff_bins: 0 0 0 0 0 0 0 0 0 0
mrqq: max=16 avg=6.8486
Memory Partition 3: 
Cache L2_bank_006:
MSHR contents

Cache L2_bank_007:
MSHR contents

In Dram Latency Queue (total = 0): 
DRAM[3]: 16 bks, busW=4 BL=8 CL=12, tRRD=2 tCCD=6, tRCD=12 tRAS=28 tRP=12 tRC=40
n_cmd=1860313 n_nop=1400699 n_act=78035 n_pre=78019 n_req=188744 n_rd=198788 n_write=104772 bw_util=0.3264
n_activity=1219020 dram_eff=0.498
bk0: 12446a 1426400i bk1: 12866a 1409578i bk2: 12200a 1412109i bk3: 12082a 1415632i bk4: 12346a 1407978i bk5: 12696a 1395312i bk6: 12982a 1369919i bk7: 12926a 1364951i bk8: 12848a 1404251i bk9: 13156a 1389617i bk10: 12096a 1410431i bk11: 11972a 1403215i bk12: 11956a 1406688i bk13: 12328a 1388378i bk14: 12136a 1388421i bk15: 11752a 1391431i 
dram_util_bins: 0 0 0 0 0 0 0 0 0 0
dram_eff_bins: 0 0 0 0 0 0 0 0 0 0
mrqq: max=16 avg=6.38713
Memory Partition 4: 
Cache L2_bank_008:
MSHR contents

Cache L2_bank_009:
MSHR contents

In Dram Latency Queue (total = 0): 
DRAM[4]: 16 bks, busW=4 BL=8 CL=12, tRRD=2 tCCD=6, tRCD=12 tRAS=28 tRP=12 tRC=40
n_cmd=1860313 n_nop=1379804 n_act=82638 n_pre=82622 n_req=195353 n_rd=208092 n_write=107157 bw_util=0.3389
n_activity=1220892 dram_eff=0.5164
bk0: 13090a 1390574i bk1: 13286a 1380659i bk2: 12900a 1378814i bk3: 12614a 1383736i bk4: 12796a 1378964i bk5: 13176a 1362092i bk6: 13672a 1328252i bk7: 13650a 1317819i bk8: 13498a 1368811i bk9: 13564a 1363552i bk10: 12812a 1370814i bk11: 12548a 1369246i bk12: 12536a 1372123i bk13: 12840a 1359215i bk14: 12840a 1351121i bk15: 12270a 1362909i 
dram_util_bins: 0 0 0 0 0 0 0 0 0 0
dram_eff_bins: 0 0 0 0 0 0 0 0 0 0
mrqq: max=16 avg=7.04264
Memory Partition 5: 
Cache L2_bank_010:
MSHR contents

Cache L2_bank_011:
MSHR contents

In Dram Latency Queue (total = 0): 
DRAM[5]: 16 bks, busW=4 BL=8 CL=12, tRRD=2 tCCD=6, tRCD=12 tRAS=28 tRP=12 tRC=40
n_cmd=1860313 n_nop=1385581 n_act=81168 n_pre=81152 n_req=194022 n_rd=204960 n_write=107452 bw_util=0.3359
n_activity=1226946 dram_eff=0.5093
bk0: 12780a 1404362i bk1: 13078a 1394070i bk2: 12778a 1387722i bk3: 12548a 1387622i bk4: 12636a 1383422i bk5: 12822a 1377576i bk6: 13488a 1345394i bk7: 13474a 1331344i bk8: 13298a 1384999i bk9: 13322a 1371772i bk10: 12500a 1384509i bk11: 12440a 1381805i bk12: 12416a 1385841i bk13: 12622a 1368336i bk14: 12488a 1362280i bk15: 12270a 1370748i 
dram_util_bins: 0 0 0 0 0 0 0 0 0 0
dram_eff_bins: 0 0 0 0 0 0 0 0 0 0
mrqq: max=16 avg=6.8188

========= L2 cache stats =========
L2_cache_bank[0]: Access = 128414, Miss = 49718, Miss_rate = 0.387, Pending_hits = 42, Reservation_fails = 8988
L2_cache_bank[1]: Access = 128266, Miss = 49586, Miss_rate = 0.387, Pending_hits = 36, Reservation_fails = 10643
L2_cache_bank[2]: Access = 128493, Miss = 51908, Miss_rate = 0.404, Pending_hits = 46, Reservation_fails = 11631
L2_cache_bank[3]: Access = 128302, Miss = 51940, Miss_rate = 0.405, Pending_hits = 48, Reservation_fails = 12847
L2_cache_bank[4]: Access = 128635, Miss = 51413, Miss_rate = 0.400, Pending_hits = 35, Reservation_fails = 11764
L2_cache_bank[5]: Access = 128909, Miss = 51080, Miss_rate = 0.396, Pending_hits = 42, Reservation_fails = 12052
L2_cache_bank[6]: Access = 128399, Miss = 49505, Miss_rate = 0.386, Pending_hits = 31, Reservation_fails = 9823
L2_cache_bank[7]: Access = 129254, Miss = 49889, Miss_rate = 0.386, Pending_hits = 49, Reservation_fails = 12919
L2_cache_bank[8]: Access = 128037, Miss = 52072, Miss_rate = 0.407, Pending_hits = 36, Reservation_fails = 14476
L2_cache_bank[9]: Access = 128523, Miss = 51974, Miss_rate = 0.404, Pending_hits = 43, Reservation_fails = 15480
L2_cache_bank[10]: Access = 128559, Miss = 51192, Miss_rate = 0.398, Pending_hits = 33, Reservation_fails = 10885
L2_cache_bank[11]: Access = 128497, Miss = 51288, Miss_rate = 0.399, Pending_hits = 41, Reservation_fails = 12031
L2_total_cache_accesses = 1542288
L2_total_cache_misses = 611565
L2_total_cache_miss_rate = 0.3965
L2_total_cache_pending_hits = 482
L2_total_cache_reservation_fails = 143539
L2_total_cache_breakdown:
	L2_cache_stats_breakdown[GLOBAL_ACC_R][HIT] = 637826
	L2_cache_stats_breakdown[GLOBAL_ACC_R][HIT_RESERVED] = 54
	L2_cache_stats_breakdown[GLOBAL_ACC_R][MISS] = 161508
	L2_cache_stats_breakdown[GLOBAL_ACC_R][RESERVATION_FAIL] = 17937
	L2_cache_stats_breakdown[CONST_ACC_R][HIT] = 26
	L2_cache_stats_breakdown[CONST_ACC_R][HIT_RESERVED] = 3
	L2_cache_stats_breakdown[CONST_ACC_R][MISS] = 1
	L2_cache_stats_breakdown[CONST_ACC_R][RESERVATION_FAIL] = 94
	L2_cache_stats_breakdown[GLOBAL_ACC_W][HIT] = 292125
	L2_cache_stats_breakdown[GLOBAL_ACC_W][HIT_RESERVED] = 383
	L2_cache_stats_breakdown[GLOBAL_ACC_W][MISS] = 450016
	L2_cache_stats_breakdown[GLOBAL_ACC_W][RESERVATION_FAIL] = 124307
	L2_cache_stats_breakdown[INST_ACC_R][HIT] = 264
	L2_cache_stats_breakdown[INST_ACC_R][HIT_RESERVED] = 42
	L2_cache_stats_breakdown[INST_ACC_R][MISS] = 40
	L2_cache_stats_breakdown[INST_ACC_R][RESERVATION_FAIL] = 1201
L2_cache_data_port_util = 0.172
L2_cache_fill_port_util = 0.145

icnt_total_pkts_mem_to_simt=4741284
icnt_total_pkts_simt_to_mem=2292308
LD_mem_lat_dist  0 0 0 0 0 0 0 0 0 0 0 0 0 0 0 0 0 0 0 0 0 0 0 0 0 0 0
ST_mem_lat_dist  0 0 0 0 0 0 0 0 0 0 0 0 0 0 0 0 0 0 0 0 0 0 0 0 0 0 0
----------------------------Interconnect-DETAILS--------------------------------
Class 0:
Packet latency average = 43.458
	minimum = 6
	maximum = 696
Network latency average = 27.9659
	minimum = 6
	maximum = 612
Slowest packet = 11637
Flit latency average = 24.8989
	minimum = 6
	maximum = 611
Slowest flit = 671817
Fragmentation average = 0.0486806
	minimum = 0
	maximum = 486
Injected packet rate average = 0.0810624
	minimum = 0.0559365 (at node 14)
	maximum = 0.111739 (at node 3)
Accepted packet rate average = 0.0810624
	minimum = 0.0559365 (at node 14)
	maximum = 0.111739 (at node 3)
Injected flit rate average = 0.184842
	minimum = 0.0831843 (at node 14)
	maximum = 0.282996 (at node 22)
Accepted flit rate average= 0.184842
	minimum = 0.135162 (at node 23)
	maximum = 0.34289 (at node 3)
Injected packet length average = 2.28025
Accepted packet length average = 2.28025
Total in-flight flits = 0 (0 measured)
====== Overall Traffic Statistics ======
====== Traffic class 0 ======
Packet latency average = 43.458 (1 samples)
	minimum = 6 (1 samples)
	maximum = 696 (1 samples)
Network latency average = 27.9659 (1 samples)
	minimum = 6 (1 samples)
	maximum = 612 (1 samples)
Flit latency average = 24.8989 (1 samples)
	minimum = 6 (1 samples)
	maximum = 611 (1 samples)
Fragmentation average = 0.0486806 (1 samples)
	minimum = 0 (1 samples)
	maximum = 486 (1 samples)
Injected packet rate average = 0.0810624 (1 samples)
	minimum = 0.0559365 (1 samples)
	maximum = 0.111739 (1 samples)
Accepted packet rate average = 0.0810624 (1 samples)
	minimum = 0.0559365 (1 samples)
	maximum = 0.111739 (1 samples)
Injected flit rate average = 0.184842 (1 samples)
	minimum = 0.0831843 (1 samples)
	maximum = 0.282996 (1 samples)
Accepted flit rate average = 0.184842 (1 samples)
	minimum = 0.135162 (1 samples)
	maximum = 0.34289 (1 samples)
Injected packet size average = 2.28025 (1 samples)
Accepted packet size average = 2.28025 (1 samples)
Hops average = 1 (1 samples)
----------------------------END-of-Interconnect-DETAILS-------------------------


gpgpu_simulation_time = 0 days, 0 hrs, 14 min, 47 sec (887 sec)
gpgpu_simulation_rate = 91842 (inst/sec)
gpgpu_simulation_rate = 1588 (cycle/sec)
kernel '_Z10sum_kernelPfi' transfer to GPU hardware scheduler
GPGPU-Sim uArch: Shader 6 bind to kernel 2 '_Z10sum_kernelPfi'
GPGPU-Sim uArch: CTA/core = 3, limited by: threads
GPGPU-Sim uArch: core:  6, cta: 0 initialized @(1,1409329)
GPGPU-Sim uArch: Shader 7 bind to kernel 2 '_Z10sum_kernelPfi'
GPGPU-Sim uArch: core:  7, cta: 0 initialized @(1,1409329)
GPGPU-Sim uArch: Shader 8 bind to kernel 2 '_Z10sum_kernelPfi'
GPGPU-Sim uArch: core:  8, cta: 0 initialized @(1,1409329)
GPGPU-Sim uArch: Shader 9 bind to kernel 2 '_Z10sum_kernelPfi'
GPGPU-Sim uArch: core:  9, cta: 0 initialized @(1,1409329)
GPGPU-Sim uArch: Shader 10 bind to kernel 2 '_Z10sum_kernelPfi'
GPGPU-Sim uArch: core: 10, cta: 0 initialized @(1,1409329)
GPGPU-Sim uArch: Shader 11 bind to kernel 2 '_Z10sum_kernelPfi'
GPGPU-Sim uArch: core: 11, cta: 0 initialized @(1,1409329)
GPGPU-Sim uArch: Shader 12 bind to kernel 2 '_Z10sum_kernelPfi'
GPGPU-Sim uArch: core: 12, cta: 0 initialized @(1,1409329)
GPGPU-Sim uArch: Shader 13 bind to kernel 2 '_Z10sum_kernelPfi'
GPGPU-Sim uArch: core: 13, cta: 0 initialized @(1,1409329)
GPGPU-Sim uArch: Shader 14 bind to kernel 2 '_Z10sum_kernelPfi'
GPGPU-Sim uArch: core: 14, cta: 0 initialized @(1,1409329)
GPGPU-Sim uArch: Shader 0 bind to kernel 2 '_Z10sum_kernelPfi'
GPGPU-Sim uArch: core:  0, cta: 0 initialized @(1,1409329)
GPGPU-Sim uArch: Shader 1 bind to kernel 2 '_Z10sum_kernelPfi'
GPGPU-Sim uArch: core:  1, cta: 0 initialized @(1,1409329)
GPGPU-Sim uArch: Shader 2 bind to kernel 2 '_Z10sum_kernelPfi'
GPGPU-Sim uArch: core:  2, cta: 0 initialized @(1,1409329)
GPGPU-Sim uArch: Shader 3 bind to kernel 2 '_Z10sum_kernelPfi'
GPGPU-Sim uArch: core:  3, cta: 0 initialized @(1,1409329)
GPGPU-Sim uArch: Shader 4 bind to kernel 2 '_Z10sum_kernelPfi'
GPGPU-Sim uArch: core:  4, cta: 0 initialized @(1,1409329)
GPGPU-Sim uArch: Shader 5 bind to kernel 2 '_Z10sum_kernelPfi'
GPGPU-Sim uArch: core:  5, cta: 0 initialized @(1,1409329)
GPGPU-Sim uArch: core:  6, cta: 1 initialized @(2,1409329)
GPGPU-Sim uArch: core:  7, cta: 1 initialized @(2,1409329)
GPGPU-Sim uArch: core:  8, cta: 1 initialized @(2,1409329)
GPGPU-Sim uArch: core:  9, cta: 1 initialized @(2,1409329)
GPGPU-Sim uArch: core: 10, cta: 1 initialized @(2,1409329)
GPGPU-Sim PTX: 84400000 instructions simulated : ctaid=(19,0,0) tid=(247,0,0)
GPGPU-Sim uArch: cycles simulated: 1409829  inst.: 81475553 (ipc=23.0) sim_rate=91751 (inst/sec) elapsed = 0:0:14:48 / Tue Mar 22 13:21:47 2016
GPGPU-Sim uArch: Shader 4 finished CTA #0 (936,1409329), 0 CTAs running
GPGPU-Sim uArch: Shader 4 empty (release kernel 2 '_Z10sum_kernelPfi').
GPGPU-Sim uArch: Shader 5 finished CTA #0 (943,1409329), 0 CTAs running
GPGPU-Sim uArch: Shader 5 empty (release kernel 2 '_Z10sum_kernelPfi').
GPGPU-Sim uArch: Shader 2 finished CTA #0 (949,1409329), 0 CTAs running
GPGPU-Sim uArch: Shader 2 empty (release kernel 2 '_Z10sum_kernelPfi').
GPGPU-Sim uArch: Shader 3 finished CTA #0 (955,1409329), 0 CTAs running
GPGPU-Sim uArch: Shader 3 empty (release kernel 2 '_Z10sum_kernelPfi').
GPGPU-Sim uArch: Shader 11 finished CTA #0 (972,1409329), 0 CTAs running
GPGPU-Sim uArch: Shader 11 empty (release kernel 2 '_Z10sum_kernelPfi').
GPGPU-Sim uArch: Shader 12 finished CTA #0 (985,1409329), 0 CTAs running
GPGPU-Sim uArch: Shader 12 empty (release kernel 2 '_Z10sum_kernelPfi').
GPGPU-Sim uArch: Shader 13 finished CTA #0 (997,1409329), 0 CTAs running
GPGPU-Sim uArch: Shader 13 empty (release kernel 2 '_Z10sum_kernelPfi').
GPGPU-Sim uArch: Shader 7 finished CTA #1 (1004,1409329), 1 CTAs running
GPGPU-Sim uArch: Shader 6 finished CTA #1 (1008,1409329), 1 CTAs running
GPGPU-Sim uArch: Shader 14 finished CTA #0 (1008,1409329), 0 CTAs running
GPGPU-Sim uArch: Shader 14 empty (release kernel 2 '_Z10sum_kernelPfi').
GPGPU-Sim uArch: Shader 0 finished CTA #0 (1014,1409329), 0 CTAs running
GPGPU-Sim uArch: Shader 0 empty (release kernel 2 '_Z10sum_kernelPfi').
GPGPU-Sim uArch: Shader 1 finished CTA #0 (1021,1409329), 0 CTAs running
GPGPU-Sim uArch: Shader 1 empty (release kernel 2 '_Z10sum_kernelPfi').
GPGPU-Sim uArch: Shader 8 finished CTA #1 (1029,1409329), 1 CTAs running
GPGPU-Sim uArch: Shader 7 finished CTA #0 (1038,1409329), 0 CTAs running
GPGPU-Sim uArch: Shader 7 empty (release kernel 2 '_Z10sum_kernelPfi').
GPGPU-Sim uArch: Shader 10 finished CTA #1 (1039,1409329), 1 CTAs running
GPGPU-Sim uArch: Shader 9 finished CTA #1 (1047,1409329), 1 CTAs running
GPGPU-Sim uArch: Shader 8 finished CTA #0 (1053,1409329), 0 CTAs running
GPGPU-Sim uArch: Shader 8 empty (release kernel 2 '_Z10sum_kernelPfi').
GPGPU-Sim uArch: Shader 10 finished CTA #0 (1064,1409329), 0 CTAs running
GPGPU-Sim uArch: Shader 10 empty (release kernel 2 '_Z10sum_kernelPfi').
GPGPU-Sim uArch: Shader 9 finished CTA #0 (1071,1409329), 0 CTAs running
GPGPU-Sim uArch: Shader 9 empty (release kernel 2 '_Z10sum_kernelPfi').
