

        *** GPGPU-Sim Simulator Version 3.2.2  [build 0] ***


GPGPU-Sim PTX: simulation mode 0 (can change with PTX_SIM_MODE_FUNC environment variable:
               1=functional simulation only, 0=detailed performance simulator)
GPGPU-Sim: Configuration options:

-network_mode                           1 # Interconnection network mode
-inter_config_file   config_fermi_islip.icnt # Interconnection network config file
-gpgpu_ptx_use_cuobjdump                    1 # Use cuobjdump to extract ptx and sass from binaries
-gpgpu_experimental_lib_support                    0 # Try to extract code from cuda libraries [Broken because of unknown cudaGetExportTable]
-gpgpu_ptx_convert_to_ptxplus                    0 # Convert SASS (native ISA) to ptxplus and run ptxplus
-gpgpu_ptx_force_max_capability                   20 # Force maximum compute capability
-gpgpu_ptx_inst_debug_to_file                    0 # Dump executed instructions' debug information to file
-gpgpu_ptx_inst_debug_file       inst_debug.txt # Executed instructions' debug output file
-gpgpu_ptx_inst_debug_thread_uid                    1 # Thread UID for executed instructions' debug output
-gpgpu_simd_model                       1 # 1 = post-dominator
-gpgpu_shader_core_pipeline              1536:32 # shader core pipeline config, i.e., {<nthread>:<warpsize>}
-gpgpu_tex_cache:l1  4:128:24,L:R:m:N:L,F:128:4,128:2 # per-shader L1 texture cache  (READ-ONLY) config  {<nsets>:<bsize>:<assoc>,<rep>:<wr>:<alloc>:<wr_alloc>,<mshr>:<N>:<merge>,<mq>:<rf>}
-gpgpu_const_cache:l1 64:64:2,L:R:f:N:L,A:2:32,4 # per-shader L1 constant memory cache  (READ-ONLY) config  {<nsets>:<bsize>:<assoc>,<rep>:<wr>:<alloc>:<wr_alloc>,<mshr>:<N>:<merge>,<mq>} 
-gpgpu_cache:il1     4:128:4,L:R:f:N:L,A:2:32,4 # shader L1 instruction cache config  {<nsets>:<bsize>:<assoc>,<rep>:<wr>:<alloc>:<wr_alloc>,<mshr>:<N>:<merge>,<mq>} 
-gpgpu_cache:dl1     32:128:4,L:L:m:N:H,A:32:8,8:2,0,1:0:1:1:0:1,1:4:8:16:32:64,/sciclone/data10/hwang07/GPU_RESEARCH/swl/swl_outputs/RESULTS/swl4/ # per-shader L1 data cache config  {<nsets>:<bsize>:<assoc>,<rep>:<wr>:<alloc>:<wr_alloc>,<mshr>:<N>:<merge>,<mq> | none}
-gpgpu_cache:dl1PrefL1                 none # per-shader L1 data cache config  {<nsets>:<bsize>:<assoc>,<rep>:<wr>:<alloc>:<wr_alloc>,<mshr>:<N>:<merge>,<mq> | none}
-gpgpu_cache:dl1PreShared                 none # per-shader L1 data cache config  {<nsets>:<bsize>:<assoc>,<rep>:<wr>:<alloc>:<wr_alloc>,<mshr>:<N>:<merge>,<mq> | none}
-gmem_skip_L1D                          0 # global memory access skip L1D cache (implements -Xptxas -dlcm=cg, default=no skip)
-gpgpu_perfect_mem                      0 # enable perfect memory mode (no cache miss)
-n_regfile_gating_group                    4 # group of lanes that should be read/written together)
-gpgpu_clock_gated_reg_file                    0 # enable clock gated reg file for power calculations
-gpgpu_clock_gated_lanes                    0 # enable clock gated lanes for power calculations
-gpgpu_shader_registers                32768 # Number of registers per shader core. Limits number of concurrent CTAs. (default 8192)
-gpgpu_shader_cta                       8 # Maximum number of concurrent CTAs in shader (default 8)
-gpgpu_num_cta_barriers                   16 # Maximum number of named barriers per CTA (default 16)
-gpgpu_n_clusters                      15 # number of processing clusters
-gpgpu_n_cores_per_cluster                    1 # number of simd cores per cluster
-gpgpu_n_cluster_ejection_buffer_size                    8 # number of packets in ejection buffer
-gpgpu_n_ldst_response_buffer_size                    2 # number of response packets in ld/st unit ejection buffer
-gpgpu_shmem_size                   16384 # Size of shared memory per shader core (default 16kB)
-gpgpu_shmem_size                   49152 # Size of shared memory per shader core (default 16kB)
-gpgpu_shmem_size_PrefL1                16384 # Size of shared memory per shader core (default 16kB)
-gpgpu_shmem_size_PrefShared                16384 # Size of shared memory per shader core (default 16kB)
-gpgpu_shmem_num_banks                   32 # Number of banks in the shared memory in each shader core (default 16)
-gpgpu_shmem_limited_broadcast                    0 # Limit shared memory to do one broadcast per cycle (default on)
-gpgpu_shmem_warp_parts                    1 # Number of portions a warp is divided into for shared memory bank conflict check 
-gpgpu_warpdistro_shader                   -1 # Specify which shader core to collect the warp size distribution from
-gpgpu_warp_issue_shader                    0 # Specify which shader core to collect the warp issue distribution from
-gpgpu_local_mem_map                    1 # Mapping from local memory space address to simulated GPU physical address space (default = enabled)
-gpgpu_num_reg_banks                   16 # Number of register banks (default = 8)
-gpgpu_reg_bank_use_warp_id                    0 # Use warp ID in mapping registers to banks (default = off)
-gpgpu_operand_collector_num_units_sp                    6 # number of collector units (default = 4)
-gpgpu_operand_collector_num_units_sfu                    8 # number of collector units (default = 4)
-gpgpu_operand_collector_num_units_mem                    2 # number of collector units (default = 2)
-gpgpu_operand_collector_num_units_gen                    0 # number of collector units (default = 0)
-gpgpu_operand_collector_num_in_ports_sp                    2 # number of collector unit in ports (default = 1)
-gpgpu_operand_collector_num_in_ports_sfu                    1 # number of collector unit in ports (default = 1)
-gpgpu_operand_collector_num_in_ports_mem                    1 # number of collector unit in ports (default = 1)
-gpgpu_operand_collector_num_in_ports_gen                    0 # number of collector unit in ports (default = 0)
-gpgpu_operand_collector_num_out_ports_sp                    2 # number of collector unit in ports (default = 1)
-gpgpu_operand_collector_num_out_ports_sfu                    1 # number of collector unit in ports (default = 1)
-gpgpu_operand_collector_num_out_ports_mem                    1 # number of collector unit in ports (default = 1)
-gpgpu_operand_collector_num_out_ports_gen                    0 # number of collector unit in ports (default = 0)
-gpgpu_coalesce_arch                   13 # Coalescing arch (default = 13, anything else is off for now)
-gpgpu_num_sched_per_core                    2 # Number of warp schedulers per core
-gpgpu_max_insn_issue_per_warp                    1 # Max number of instructions that can be issued per warp in one cycle by scheduler
-gpgpu_simt_core_sim_order                    1 # Select the simulation order of cores in a cluster (0=Fix, 1=Round-Robin)
-gpgpu_pipeline_widths        2,1,1,2,1,1,2 # Pipeline widths ID_OC_SP,ID_OC_SFU,ID_OC_MEM,OC_EX_SP,OC_EX_SFU,OC_EX_MEM,EX_WB
-gpgpu_num_sp_units                     2 # Number of SP units (default=1)
-gpgpu_num_sfu_units                    1 # Number of SF units (default=1)
-gpgpu_num_mem_units                    1 # Number if ldst units (default=1) WARNING: not hooked up to anything
-gpgpu_scheduler        warp_limiting:2:4 # Scheduler configuration: < lrr | gto | two_level_active > If two_level_active:<num_active_warps>:<inner_prioritization>:<outer_prioritization>For complete list of prioritization values see shader.h enum scheduler_prioritization_typeDefault: gto
-gpgpu_dram_scheduler                    1 # 0 = fifo, 1 = FR-FCFS (defaul)
-gpgpu_dram_partition_queues              8:8:8:8 # i2$:$2d:d2$:$2i
-l2_ideal                               0 # Use a ideal L2 cache that always hit
-gpgpu_cache:dl2     64:128:8,L:B:m:W:L,A:32:4,4:0,32 # unified banked L2 data cache config  {<nsets>:<bsize>:<assoc>,<rep>:<wr>:<alloc>:<wr_alloc>,<mshr>:<N>:<merge>,<mq>}
-gpgpu_cache:dl2_texture_only                    0 # L2 cache used for texture only
-gpgpu_n_mem                            6 # number of memory modules (e.g. memory controllers) in gpu
-gpgpu_n_sub_partition_per_mchannel                    2 # number of memory subpartition in each memory module
-gpgpu_n_mem_per_ctrlr                    2 # number of memory chips per memory controller
-gpgpu_memlatency_stat                   14 # track and display latency statistics 0x2 enables MC, 0x4 enables queue logs
-gpgpu_frfcfs_dram_sched_queue_size                   16 # 0 = unlimited (default); # entries per chip
-gpgpu_dram_return_queue_size                  116 # 0 = unlimited (default); # entries per chip
-gpgpu_dram_buswidth                    4 # default = 4 bytes (8 bytes per cycle at DDR)
-gpgpu_dram_burst_length                    8 # Burst length of each DRAM request (default = 4 data bus cycle)
-dram_data_command_freq_ratio                    4 # Frequency ratio between DRAM data bus and command bus (default = 2 times, i.e. DDR)
-gpgpu_dram_timing_opt nbk=16:CCD=2:RRD=6:RCD=12:RAS=28:RP=12:RC=40: CL=12:WL=4:CDLR=5:WR=12:nbkgrp=4:CCDL=3:RTPL=2 # DRAM timing parameters = {nbk:tCCD:tRRD:tRCD:tRAS:tRP:tRC:CL:WL:tCDLR:tWR:nbkgrp:tCCDL:tRTPL}
-rop_latency                          120 # ROP queue latency (default 85)
-dram_latency                         100 # DRAM latency (default 30)
-gpgpu_mem_addr_mapping dramid@8;00000000.00000000.00000000.00000000.0000RRRR.RRRRRRRR.BBBCCCCB.CCSSSSSS # mapping memory address to dram model {dramid@<start bit>;<memory address map>}
-gpgpu_mem_addr_test                    0 # run sweep test to check address mapping for aliased address
-gpgpu_mem_address_mask                    1 # 0 = old addressing mask, 1 = new addressing mask, 2 = new add. mask + flipped bank sel and chip sel bits
-gpuwattch_xml_file  gpuwattch_gtx480.xml # GPUWattch XML file
-power_simulation_enabled                    0 # Turn on power simulator (1=On, 0=Off)
-power_per_cycle_dump                    0 # Dump detailed power output each cycle
-power_trace_enabled                    0 # produce a file for the power trace (1=On, 0=Off)
-power_trace_zlevel                     6 # Compression level of the power trace output log (0=no comp, 9=highest)
-steady_power_levels_enabled                    0 # produce a file for the steady power levels (1=On, 0=Off)
-steady_state_definition                  8:4 # allowed deviation:number of samples
-gpgpu_max_cycle                        0 # terminates gpu simulation early (0 = no limit)
-gpgpu_max_insn                         0 # terminates gpu simulation early (0 = no limit)
-gpgpu_max_cta                          0 # terminates gpu simulation early (0 = no limit)
-gpgpu_runtime_stat                   500 # display runtime statistics such as dram utilization {<freq>:<flag>}
-liveness_message_freq                    1 # Minimum number of seconds between simulation liveness messages (0 = always print)
-gpgpu_flush_l1_cache                    0 # Flush L1 cache at the end of each kernel call
-gpgpu_flush_l2_cache                    0 # Flush L2 cache at the end of each kernel call
-gpgpu_deadlock_detect                    1 # Stop the simulation at deadlock (1=on (default), 0=off)
-gpgpu_ptx_instruction_classification                    0 # if enabled will classify ptx instruction types per kernel (Max 255 kernels now)
-gpgpu_ptx_sim_mode                     0 # Select between Performance (default) or Functional simulation (1)
-gpgpu_clock_domains 700.0:700.0:700.0:924.0 # Clock Domain Frequencies in MhZ {<Core Clock>:<ICNT Clock>:<L2 Clock>:<DRAM Clock>}
-gpgpu_max_concurrent_kernel                    8 # maximum kernels that can run concurrently on GPU
-gpgpu_cflog_interval                    0 # Interval between each snapshot in control flow logger
-visualizer_enabled                     0 # Turn on visualizer output (1=On, 0=Off)
-visualizer_outputfile                 NULL # Specifies the output log file for visualizer
-visualizer_zlevel                      6 # Compression level of the visualizer output log (0=no comp, 9=highest)
-trace_enabled                          0 # Turn on traces
-trace_components                    none # comma seperated list of traces to enable. Complete list found in trace_streams.tup. Default none
-trace_sampling_core                    0 # The core which is printed using CORE_DPRINTF. Default 0
-trace_sampling_memory_partition                   -1 # The memory partition which is printed using MEMPART_DPRINTF. Default -1 (i.e. all)
-enable_ptx_file_line_stats                    1 # Turn on PTX source line statistic profiling. (1 = On)
-ptx_line_stats_filename gpgpu_inst_stats.txt # Output file for PTX source line statistics.
-save_embedded_ptx                      0 # saves ptx files embedded in binary as <n>.ptx
-keep                                   0 # keep intermediate files created by GPGPU-Sim when interfacing with external programs
-gpgpu_ptx_save_converted_ptxplus                    0 # Saved converted ptxplus to a file
-ptx_opcode_latency_int         4,13,4,5,145 # Opcode latencies for integers <ADD,MAX,MUL,MAD,DIV>Default 1,1,19,25,145
-ptx_opcode_latency_fp          4,13,4,5,39 # Opcode latencies for single precision floating points <ADD,MAX,MUL,MAD,DIV>Default 1,1,1,1,30
-ptx_opcode_latency_dp         8,19,8,8,330 # Opcode latencies for double precision floating points <ADD,MAX,MUL,MAD,DIV>Default 8,8,8,8,335
-ptx_opcode_initiation_int            1,2,2,1,8 # Opcode initiation intervals for integers <ADD,MAX,MUL,MAD,DIV>Default 1,1,4,4,32
-ptx_opcode_initiation_fp            1,2,1,1,4 # Opcode initiation intervals for single precision floating points <ADD,MAX,MUL,MAD,DIV>Default 1,1,1,1,5
-ptx_opcode_initiation_dp         8,16,8,8,130 # Opcode initiation intervals for double precision floating points <ADD,MAX,MUL,MAD,DIV>Default 8,8,8,8,130
DRAM Timing Options:
nbk                                    16 # number of banks
CCD                                     2 # column to column delay
RRD                                     6 # minimal delay between activation of rows in different banks
RCD                                    12 # row to column delay
RAS                                    28 # time needed to activate row
RP                                     12 # time needed to precharge (deactivate) row
RC                                     40 # row cycle time
CDLR                                    5 # switching from write to read (changes tWTR)
WR                                     12 # last data-in to row precharge
CL                                     12 # CAS latency
WL                                      4 # Write latency
nbkgrp                                  4 # number of bank groups
CCDL                                    3 # column to column delay between accesses to different bank groups
RTPL                                    2 # read to precharge delay between accesses to different bank groups
Total number of memory sub partition = 12
addr_dec_mask[CHIP]  = 0000000000000000 	high:64 low:0
addr_dec_mask[BK]    = 000000000000e100 	high:16 low:8
addr_dec_mask[ROW]   = 000000000fff0000 	high:28 low:16
addr_dec_mask[COL]   = 0000000000001eff 	high:13 low:0
addr_dec_mask[BURST] = 000000000000003f 	high:6 low:0
sub_partition_id_mask = 0000000000000100
GPGPU-Sim uArch: clock freqs: 700000000.000000:700000000.000000:700000000.000000:924000000.000000
GPGPU-Sim uArch: clock periods: 0.00000000142857142857:0.00000000142857142857:0.00000000142857142857:0.00000000108225108225
*** Initializing Memory Statistics ***
GPGPU-Sim uArch: interconnect node map (shaderID+MemID to icntID)
GPGPU-Sim uArch: Memory nodes ID start from index: 15
GPGPU-Sim uArch:    0   1   2   3   4
GPGPU-Sim uArch:    5   6   7   8   9
GPGPU-Sim uArch:   10  11  12  13  14
GPGPU-Sim uArch:   15  16  17  18  19
GPGPU-Sim uArch:   20  21  22  23  24
GPGPU-Sim uArch:   25  26
GPGPU-Sim uArch: interconnect node reverse map (icntID to shaderID+MemID)
GPGPU-Sim uArch: Memory nodes start from ID: 15
GPGPU-Sim uArch:    0   1   2   3   4
GPGPU-Sim uArch:    5   6   7   8   9
GPGPU-Sim uArch:   10  11  12  13  14
GPGPU-Sim uArch:   15  16  17  18  19
GPGPU-Sim uArch:   20  21  22  23  24
GPGPU-Sim uArch:   25  26
401c1b8a3e5a334cce6183153c85d25d  /sciclone/data10/hwang07/adwait/applications/benchmarks/rodinia/cuda/cfd/gpgpu_ptx_sim__cfd
GPGPU-Sim uArch: performance model initialization complete.
GPGPU-Sim PTX: __cudaRegisterFatBinary, fat_cubin_handle = 1, filename=euler3d.cu
self exe links to: /sciclone/data10/hwang07/adwait/applications/benchmarks/rodinia/cuda/cfd/gpgpu_ptx_sim__cfd
Running md5sum using "md5sum /sciclone/data10/hwang07/adwait/applications/benchmarks/rodinia/cuda/cfd/gpgpu_ptx_sim__cfd "
Parsing file _cuobjdump_complete_output_9HJYXv
######### cuobjdump parser ########
## Adding new section ELF
Adding arch: sm_20
Adding identifier: euler3d.cu
## Adding new section PTX
Adding ptx filename: _cuobjdump_1.ptx
Adding arch: sm_20
Adding identifier: euler3d.cu
Done parsing!!!
GPGPU-Sim PTX: __cudaRegisterFunction _Z14cuda_time_stepiiPfS_S_S_ : hostFun 0x0x406564, fat_cubin_handle = 1
GPGPU-Sim PTX: allocating constant region for "ff_variable" from 0x100 to 0x114 (global memory space) 1
GPGPU-Sim PTX: instruction assembly for function '_Z25cuda_initialize_variablesiPf'...   done.
GPGPU-Sim PTX: finding reconvergence points for '_Z25cuda_initialize_variablesiPf'...
GPGPU-Sim PTX: Finding dominators for '_Z25cuda_initialize_variablesiPf'...
GPGPU-Sim PTX: Finding immediate dominators for '_Z25cuda_initialize_variablesiPf'...
GPGPU-Sim PTX: Finding postdominators for '_Z25cuda_initialize_variablesiPf'...
GPGPU-Sim PTX: Finding immediate postdominators for '_Z25cuda_initialize_variablesiPf'...
GPGPU-Sim PTX: pre-decoding instructions for '_Z25cuda_initialize_variablesiPf'...
GPGPU-Sim PTX: reconvergence points for _Z25cuda_initialize_variablesiPf...
GPGPU-Sim PTX: ... end of reconvergence points for _Z25cuda_initialize_variablesiPf
GPGPU-Sim PTX: ... done pre-decoding instructions for '_Z25cuda_initialize_variablesiPf'.
GPGPU-Sim PTX: instruction assembly for function '_Z24cuda_compute_step_factoriPfS_S_'...   done.
GPGPU-Sim PTX: finding reconvergence points for '_Z24cuda_compute_step_factoriPfS_S_'...
GPGPU-Sim PTX: Finding dominators for '_Z24cuda_compute_step_factoriPfS_S_'...
GPGPU-Sim PTX: Finding immediate dominators for '_Z24cuda_compute_step_factoriPfS_S_'...
GPGPU-Sim PTX: Finding postdominators for '_Z24cuda_compute_step_factoriPfS_S_'...
GPGPU-Sim PTX: Finding immediate postdominators for '_Z24cuda_compute_step_factoriPfS_S_'...
GPGPU-Sim PTX: pre-decoding instructions for '_Z24cuda_compute_step_factoriPfS_S_'...
GPGPU-Sim PTX: reconvergence points for _Z24cuda_compute_step_factoriPfS_S_...
GPGPU-Sim PTX: ... end of reconvergence points for _Z24cuda_compute_step_factoriPfS_S_
GPGPU-Sim PTX: ... done pre-decoding instructions for '_Z24cuda_compute_step_factoriPfS_S_'.
GPGPU-Sim PTX: allocating constant region for "ff_flux_contribution_momentum_x" from 0x180 to 0x18c (global memory space) 2
GPGPU-Sim PTX: allocating constant region for "ff_flux_contribution_momentum_y" from 0x200 to 0x20c (global memory space) 3
GPGPU-Sim PTX: allocating constant region for "ff_flux_contribution_momentum_z" from 0x280 to 0x28c (global memory space) 4
GPGPU-Sim PTX: allocating constant region for "ff_flux_contribution_density_energy" from 0x300 to 0x30c (global memory space) 5
GPGPU-Sim PTX: instruction assembly for function '_Z17cuda_compute_fluxiPiPfS0_S0_'...   done.
GPGPU-Sim PTX: finding reconvergence points for '_Z17cuda_compute_fluxiPiPfS0_S0_'...
GPGPU-Sim PTX: Finding dominators for '_Z17cuda_compute_fluxiPiPfS0_S0_'...
GPGPU-Sim PTX: Finding immediate dominators for '_Z17cuda_compute_fluxiPiPfS0_S0_'...
GPGPU-Sim PTX: Finding postdominators for '_Z17cuda_compute_fluxiPiPfS0_S0_'...
GPGPU-Sim PTX: Finding immediate postdominators for '_Z17cuda_compute_fluxiPiPfS0_S0_'...
GPGPU-Sim PTX: pre-decoding instructions for '_Z17cuda_compute_fluxiPiPfS0_S0_'...
GPGPU-Sim PTX: reconvergence points for _Z17cuda_compute_fluxiPiPfS0_S0_...
GPGPU-Sim PTX:  1 (potential) branch divergence @  PC=0x4c8 (_1.ptx:266) @%p1 bra $Lt_2_3842;
GPGPU-Sim PTX:    immediate post dominator      @  PC=0xc78 (_1.ptx:538) add.u64 %rd40, %rd6, %rd17;
GPGPU-Sim PTX:  2 (potential) branch divergence @  PC=0x910 (_1.ptx:414) bra.uni $Lt_2_3586;
GPGPU-Sim PTX:    immediate post dominator      @  PC=0xc78 (_1.ptx:538) add.u64 %rd40, %rd6, %rd17;
GPGPU-Sim PTX:  3 (potential) branch divergence @  PC=0x928 (_1.ptx:418) @%p2 bra $Lt_2_4354;
GPGPU-Sim PTX:    immediate post dominator      @  PC=0xc78 (_1.ptx:538) add.u64 %rd40, %rd6, %rd17;
GPGPU-Sim PTX:  4 (potential) branch divergence @  PC=0x9d0 (_1.ptx:442) bra.uni $Lt_2_4098;
GPGPU-Sim PTX:    immediate post dominator      @  PC=0xc78 (_1.ptx:538) add.u64 %rd40, %rd6, %rd17;
GPGPU-Sim PTX:  5 (potential) branch divergence @  PC=0x9e8 (_1.ptx:446) @%p3 bra $Lt_2_4866;
GPGPU-Sim PTX:    immediate post dominator      @  PC=0xc78 (_1.ptx:538) add.u64 %rd40, %rd6, %rd17;
GPGPU-Sim PTX:  6 (potential) branch divergence @  PC=0xc48 (_1.ptx:527) bra.uni $Lt_2_4610;
GPGPU-Sim PTX:    immediate post dominator      @  PC=0xc78 (_1.ptx:538) add.u64 %rd40, %rd6, %rd17;
GPGPU-Sim PTX:  7 (potential) branch divergence @  PC=0xd08 (_1.ptx:559) @%p4 bra $Lt_2_5378;
GPGPU-Sim PTX:    immediate post dominator      @  PC=0x1410 (_1.ptx:834) add.u64 %rd63, %rd9, %rd17;
GPGPU-Sim PTX:  8 (potential) branch divergence @  PC=0x1128 (_1.ptx:717) bra.uni $Lt_2_5122;
GPGPU-Sim PTX:    immediate post dominator      @  PC=0x1410 (_1.ptx:834) add.u64 %rd63, %rd9, %rd17;
GPGPU-Sim PTX:  9 (potential) branch divergence @  PC=0x1140 (_1.ptx:721) @%p5 bra $Lt_2_5890;
GPGPU-Sim PTX:    immediate post dominator      @  PC=0x1410 (_1.ptx:834) add.u64 %rd63, %rd9, %rd17;
GPGPU-Sim PTX: 10 (potential) branch divergence @  PC=0x11c0 (_1.ptx:740) bra.uni $Lt_2_5634;
GPGPU-Sim PTX:    immediate post dominator      @  PC=0x1410 (_1.ptx:834) add.u64 %rd63, %rd9, %rd17;
GPGPU-Sim PTX: 11 (potential) branch divergence @  PC=0x11d8 (_1.ptx:744) @%p6 bra $Lt_2_6146;
GPGPU-Sim PTX:    immediate post dominator      @  PC=0x1410 (_1.ptx:834) add.u64 %rd63, %rd9, %rd17;
GPGPU-Sim PTX: 12 (potential) branch divergence @  PC=0x14a0 (_1.ptx:855) @%p7 bra $Lt_2_6914;
GPGPU-Sim PTX:    immediate post dominator      @  PC=0x1ba8 (_1.ptx:1130) add.u64 %rd86, %rd12, %rd17;
GPGPU-Sim PTX: 13 (potential) branch divergence @  PC=0x18c0 (_1.ptx:1013) bra.uni $Lt_2_6658;
GPGPU-Sim PTX:    immediate post dominator      @  PC=0x1ba8 (_1.ptx:1130) add.u64 %rd86, %rd12, %rd17;
GPGPU-Sim PTX: 14 (potential) branch divergence @  PC=0x18d8 (_1.ptx:1017) @%p8 bra $Lt_2_7426;
GPGPU-Sim PTX:    immediate post dominator      @  PC=0x1ba8 (_1.ptx:1130) add.u64 %rd86, %rd12, %rd17;
GPGPU-Sim PTX: 15 (potential) branch divergence @  PC=0x1958 (_1.ptx:1036) bra.uni $Lt_2_7170;
GPGPU-Sim PTX:    immediate post dominator      @  PC=0x1ba8 (_1.ptx:1130) add.u64 %rd86, %rd12, %rd17;
GPGPU-Sim PTX: 16 (potential) branch divergence @  PC=0x1970 (_1.ptx:1040) @%p9 bra $Lt_2_7682;
GPGPU-Sim PTX:    immediate post dominator      @  PC=0x1ba8 (_1.ptx:1130) add.u64 %rd86, %rd12, %rd17;
GPGPU-Sim PTX: 17 (potential) branch divergence @  PC=0x1c38 (_1.ptx:1151) @%p10 bra $Lt_2_8450;
GPGPU-Sim PTX:    immediate post dominator      @  PC=0x2340 (_1.ptx:1426) ld.param.u64 %rd109, [__cudaparm__Z17cuda_compute_fluxiPiPfS0_S0__fluxes];
GPGPU-Sim PTX: 18 (potential) branch divergence @  PC=0x2058 (_1.ptx:1309) bra.uni $Lt_2_8194;
GPGPU-Sim PTX:    immediate post dominator      @  PC=0x2340 (_1.ptx:1426) ld.param.u64 %rd109, [__cudaparm__Z17cuda_compute_fluxiPiPfS0_S0__fluxes];
GPGPU-Sim PTX: 19 (potential) branch divergence @  PC=0x2070 (_1.ptx:1313) @%p11 bra $Lt_2_8962;
GPGPU-Sim PTX:    immediate post dominator      @  PC=0x2340 (_1.ptx:1426) ld.param.u64 %rd109, [__cudaparm__Z17cuda_compute_fluxiPiPfS0_S0__fluxes];
GPGPU-Sim PTX: 20 (potential) branch divergence @  PC=0x20f0 (_1.ptx:1332) bra.uni $Lt_2_8706;
GPGPU-Sim PTX:    immediate post dominator      @  PC=0x2340 (_1.ptx:1426) ld.param.u64 %rd109, [__cudaparm__Z17cuda_compute_fluxiPiPfS0_S0__fluxes];
GPGPU-Sim PTX: 21 (potential) branch divergence @  PC=0x2108 (_1.ptx:1336) @%p12 bra $Lt_2_9218;
GPGPU-Sim PTX:    immediate post dominator      @  PC=0x2340 (_1.ptx:1426) ld.param.u64 %rd109, [__cudaparm__Z17cuda_compute_fluxiPiPfS0_S0__fluxes];
GPGPU-Sim PTX: ... end of reconvergence points for _Z17cuda_compute_fluxiPiPfS0_S0_
GPGPU-Sim PTX: ... done pre-decoding instructions for '_Z17cuda_compute_fluxiPiPfS0_S0_'.
GPGPU-Sim PTX: instruction assembly for function '_Z14cuda_time_stepiiPfS_S_S_'...   done.
GPGPU-Sim PTX: finding reconvergence points for '_Z14cuda_time_stepiiPfS_S_S_'...
GPGPU-Sim PTX: Finding dominators for '_Z14cuda_time_stepiiPfS_S_S_'...
GPGPU-Sim PTX: Finding immediate dominators for '_Z14cuda_time_stepiiPfS_S_S_'...
GPGPU-Sim PTX: Finding postdominators for '_Z14cuda_time_stepiiPfS_S_S_'...
GPGPU-Sim PTX: Finding immediate postdominators for '_Z14cuda_time_stepiiPfS_S_S_'...
GPGPU-Sim PTX: pre-decoding instructions for '_Z14cuda_time_stepiiPfS_S_S_'...
GPGPU-Sim PTX: reconvergence points for _Z14cuda_time_stepiiPfS_S_S_...
GPGPU-Sim PTX: ... end of reconvergence points for _Z14cuda_time_stepiiPfS_S_S_
GPGPU-Sim PTX: ... done pre-decoding instructions for '_Z14cuda_time_stepiiPfS_S_S_'.
GPGPU-Sim PTX: finished parsing EMBEDDED .ptx file _1.ptx
Adding _cuobjdump_1.ptx with cubin handle 1
GPGPU-Sim PTX: extracting embedded .ptx to temporary file "_ptx_6wGBAd"
Running: cat _ptx_6wGBAd | sed 's/.version 1.5/.version 1.4/' | sed 's/, texmode_independent//' | sed 's/\(\.extern \.const\[1\] .b8 \w\+\)\[\]/\1\[1\]/' | sed 's/const\[.\]/const\[0\]/g' > _ptx2_x40vdY
GPGPU-Sim PTX: generating ptxinfo using "$CUDA_INSTALL_PATH/bin/ptxas --gpu-name=sm_20 -v _ptx2_x40vdY --output-file  /dev/null 2> _ptx_6wGBAdinfo"
GPGPU-Sim PTX: Kernel '_Z14cuda_time_stepiiPfS_S_S_' : regs=17, lmem=0, smem=0, cmem=152
GPGPU-Sim PTX: Kernel '_Z17cuda_compute_fluxiPiPfS0_S0_' : regs=50, lmem=0, smem=0, cmem=160
GPGPU-Sim PTX: Kernel '_Z24cuda_compute_step_factoriPfS_S_' : regs=16, lmem=0, smem=0, cmem=152
GPGPU-Sim PTX: Kernel '_Z25cuda_initialize_variablesiPf' : regs=17, lmem=0, smem=0, cmem=116
GPGPU-Sim PTX: removing ptxinfo using "rm -f _ptx_6wGBAd _ptx2_x40vdY _ptx_6wGBAdinfo"
GPGPU-Sim PTX: loading globals with explicit initializers... 
GPGPU-Sim PTX: finished loading globals (0 bytes total).
GPGPU-Sim PTX: loading constants with explicit initializers...  done.
GPGPU-Sim PTX: __cudaRegisterFunction _Z17cuda_compute_fluxiPiPfS0_S0_ : hostFun 0x0x406414, fat_cubin_handle = 1
GPGPU-Sim PTX: __cudaRegisterFunction _Z24cuda_compute_step_factoriPfS_S_ : hostFun 0x0x4062f8, fat_cubin_handle = 1
GPGPU-Sim PTX: __cudaRegisterFunction _Z25cuda_initialize_variablesiPf : hostFun 0x0x40621c, fat_cubin_handle = 1
GPGPU-Sim PTX: __cudaRegisterVar: hostVar = 0x629a80; deviceAddress = ff_variable; deviceName = ff_variable
GPGPU-Sim PTX: __cudaRegisterVar: Registering const memory space of 20 bytes
GPGPU-Sim PTX registering constant ff_variable (20 bytes) to name mapping
GPGPU-Sim PTX: __cudaRegisterVar: hostVar = 0x629a94; deviceAddress = ff_flux_contribution_momentum_x; deviceName = ff_flux_contribution_momentum_x
GPGPU-Sim PTX: __cudaRegisterVar: Registering const memory space of 12 bytes
GPGPU-Sim PTX registering constant ff_flux_contribution_momentum_x (12 bytes) to name mapping
GPGPU-Sim PTX: __cudaRegisterVar: hostVar = 0x629aa0; deviceAddress = ff_flux_contribution_momentum_y; deviceName = ff_flux_contribution_momentum_y
GPGPU-Sim PTX: __cudaRegisterVar: Registering const memory space of 12 bytes
GPGPU-Sim PTX registering constant ff_flux_contribution_momentum_y (12 bytes) to name mapping
GPGPU-Sim PTX: __cudaRegisterVar: hostVar = 0x629aac; deviceAddress = ff_flux_contribution_momentum_z; deviceName = ff_flux_contribution_momentum_z
GPGPU-Sim PTX: __cudaRegisterVar: Registering const memory space of 12 bytes
GPGPU-Sim PTX registering constant ff_flux_contribution_momentum_z (12 bytes) to name mapping
GPGPU-Sim PTX: __cudaRegisterVar: hostVar = 0x629ab8; deviceAddress = ff_flux_contribution_density_energy; deviceName = ff_flux_contribution_density_energy
GPGPU-Sim PTX: __cudaRegisterVar: Registering const memory space of 12 bytes
GPGPU-Sim PTX registering constant ff_flux_contribution_density_energy (12 bytes) to name mapping
Name:                     GPGPU-Sim_vGPGPU-Sim Simulator Version 3.2.2 
GPGPU-Sim PTX: cudaMemcpyToSymbol: symbol = 0x629a80
GPGPU-Sim PTX: starting gpgpu_ptx_sim_memcpy_symbol with hostVar 0x0x629a80
GPGPU-Sim PTX: gpgpu_ptx_sim_memcpy_symbol: Found PTX symbol w/ hostVar=0x629a80
GPGPU-Sim PTX: gpgpu_ptx_sim_memcpy_symbol: copying const memory 20 bytes  to  symbol ff_variable+0 @0x100 ...
GPGPU-Sim PTX: cudaMemcpyToSymbol: symbol = 0x629a94
GPGPU-Sim PTX: starting gpgpu_ptx_sim_memcpy_symbol with hostVar 0x0x629a94
GPGPU-Sim PTX: gpgpu_ptx_sim_memcpy_symbol: Found PTX symbol w/ hostVar=0x629a94
GPGPU-Sim PTX: gpgpu_ptx_sim_memcpy_symbol: copying const memory 12 bytes  to  symbol ff_flux_contribution_momentum_x+0 @0x180 ...
GPGPU-Sim PTX: cudaMemcpyToSymbol: symbol = 0x629aa0
GPGPU-Sim PTX: starting gpgpu_ptx_sim_memcpy_symbol with hostVar 0x0x629aa0
GPGPU-Sim PTX: gpgpu_ptx_sim_memcpy_symbol: Found PTX symbol w/ hostVar=0x629aa0
GPGPU-Sim PTX: gpgpu_ptx_sim_memcpy_symbol: copying const memory 12 bytes  to  symbol ff_flux_contribution_momentum_y+0 @0x200 ...
GPGPU-Sim PTX: cudaMemcpyToSymbol: symbol = 0x629aac
GPGPU-Sim PTX: starting gpgpu_ptx_sim_memcpy_symbol with hostVar 0x0x629aac
GPGPU-Sim PTX: gpgpu_ptx_sim_memcpy_symbol: Found PTX symbol w/ hostVar=0x629aac
GPGPU-Sim PTX: gpgpu_ptx_sim_memcpy_symbol: copying const memory 12 bytes  to  symbol ff_flux_contribution_momentum_z+0 @0x280 ...
GPGPU-Sim PTX: cudaMemcpyToSymbol: symbol = 0x629ab8
GPGPU-Sim PTX: starting gpgpu_ptx_sim_memcpy_symbol with hostVar 0x0x629ab8
GPGPU-Sim PTX: gpgpu_ptx_sim_memcpy_symbol: Found PTX symbol w/ hostVar=0x629ab8
GPGPU-Sim PTX: gpgpu_ptx_sim_memcpy_symbol: copying const memory 12 bytes  to  symbol ff_flux_contribution_density_energy+0 @0x300 ...

GPGPU-Sim PTX: cudaLaunch for 0x0x40621c (mode=performance simulation) on stream 0
GPGPU-Sim PTX: pushing kernel '_Z25cuda_initialize_variablesiPf' to stream 0, gridDim= (1008,1,1) blockDim = (192,1,1) 
kernel '_Z25cuda_initialize_variablesiPf' transfer to GPU hardware scheduler
GPGPU-Sim uArch: Shader 1 bind to kernel 1 '_Z25cuda_initialize_variablesiPf'
GPGPU-Sim uArch: CTA/core = 8, limited by: threads regs cta_limit
GPGPU-Sim uArch: core:  1, cta: 0 initialized @(1,0)
GPGPU-Sim uArch: Shader 2 bind to kernel 1 '_Z25cuda_initialize_variablesiPf'
GPGPU-Sim uArch: core:  2, cta: 0 initialized @(1,0)
GPGPU-Sim uArch: Shader 3 bind to kernel 1 '_Z25cuda_initialize_variablesiPf'
GPGPU-Sim uArch: core:  3, cta: 0 initialized @(1,0)
GPGPU-Sim uArch: Shader 4 bind to kernel 1 '_Z25cuda_initialize_variablesiPf'
GPGPU-Sim uArch: core:  4, cta: 0 initialized @(1,0)
GPGPU-Sim uArch: Shader 5 bind to kernel 1 '_Z25cuda_initialize_variablesiPf'
GPGPU-Sim uArch: core:  5, cta: 0 initialized @(1,0)
GPGPU-Sim uArch: Shader 6 bind to kernel 1 '_Z25cuda_initialize_variablesiPf'
GPGPU-Sim uArch: core:  6, cta: 0 initialized @(1,0)
GPGPU-Sim uArch: Shader 7 bind to kernel 1 '_Z25cuda_initialize_variablesiPf'
GPGPU-Sim uArch: core:  7, cta: 0 initialized @(1,0)
GPGPU-Sim uArch: Shader 8 bind to kernel 1 '_Z25cuda_initialize_variablesiPf'
GPGPU-Sim uArch: core:  8, cta: 0 initialized @(1,0)
GPGPU-Sim uArch: Shader 9 bind to kernel 1 '_Z25cuda_initialize_variablesiPf'
GPGPU-Sim uArch: core:  9, cta: 0 initialized @(1,0)
GPGPU-Sim uArch: Shader 10 bind to kernel 1 '_Z25cuda_initialize_variablesiPf'
GPGPU-Sim uArch: core: 10, cta: 0 initialized @(1,0)
GPGPU-Sim uArch: Shader 11 bind to kernel 1 '_Z25cuda_initialize_variablesiPf'
GPGPU-Sim uArch: core: 11, cta: 0 initialized @(1,0)
GPGPU-Sim uArch: Shader 12 bind to kernel 1 '_Z25cuda_initialize_variablesiPf'
GPGPU-Sim uArch: core: 12, cta: 0 initialized @(1,0)
GPGPU-Sim uArch: Shader 13 bind to kernel 1 '_Z25cuda_initialize_variablesiPf'
GPGPU-Sim uArch: core: 13, cta: 0 initialized @(1,0)
GPGPU-Sim uArch: Shader 14 bind to kernel 1 '_Z25cuda_initialize_variablesiPf'
GPGPU-Sim uArch: core: 14, cta: 0 initialized @(1,0)
GPGPU-Sim uArch: Shader 0 bind to kernel 1 '_Z25cuda_initialize_variablesiPf'
GPGPU-Sim uArch: core:  0, cta: 0 initialized @(1,0)
GPGPU-Sim uArch: core:  1, cta: 1 initialized @(2,0)
GPGPU-Sim uArch: core:  2, cta: 1 initialized @(2,0)
GPGPU-Sim uArch: core:  3, cta: 1 initialized @(2,0)
GPGPU-Sim uArch: core:  4, cta: 1 initialized @(2,0)
GPGPU-Sim uArch: core:  5, cta: 1 initialized @(2,0)
GPGPU-Sim uArch: core:  6, cta: 1 initialized @(2,0)
GPGPU-Sim uArch: core:  7, cta: 1 initialized @(2,0)
GPGPU-Sim uArch: core:  8, cta: 1 initialized @(2,0)
GPGPU-Sim uArch: core:  9, cta: 1 initialized @(2,0)
GPGPU-Sim uArch: core: 10, cta: 1 initialized @(2,0)
GPGPU-Sim uArch: core: 11, cta: 1 initialized @(2,0)
GPGPU-Sim uArch: core: 12, cta: 1 initialized @(2,0)
GPGPU-Sim uArch: core: 13, cta: 1 initialized @(2,0)
GPGPU-Sim uArch: core: 14, cta: 1 initialized @(2,0)
GPGPU-Sim uArch: core:  0, cta: 1 initialized @(2,0)
GPGPU-Sim uArch: core:  1, cta: 2 initialized @(3,0)
GPGPU-Sim uArch: core:  2, cta: 2 initialized @(3,0)
GPGPU-Sim uArch: core:  3, cta: 2 initialized @(3,0)
GPGPU-Sim uArch: core:  4, cta: 2 initialized @(3,0)
GPGPU-Sim uArch: core:  5, cta: 2 initialized @(3,0)
GPGPU-Sim uArch: core:  6, cta: 2 initialized @(3,0)
GPGPU-Sim uArch: core:  7, cta: 2 initialized @(3,0)
GPGPU-Sim uArch: core:  8, cta: 2 initialized @(3,0)
GPGPU-Sim uArch: core:  9, cta: 2 initialized @(3,0)
GPGPU-Sim uArch: core: 10, cta: 2 initialized @(3,0)
GPGPU-Sim uArch: core: 11, cta: 2 initialized @(3,0)
GPGPU-Sim uArch: core: 12, cta: 2 initialized @(3,0)
GPGPU-Sim uArch: core: 13, cta: 2 initialized @(3,0)
GPGPU-Sim uArch: core: 14, cta: 2 initialized @(3,0)
GPGPU-Sim uArch: core:  0, cta: 2 initialized @(3,0)
GPGPU-Sim uArch: core:  1, cta: 3 initialized @(4,0)
GPGPU-Sim uArch: core:  2, cta: 3 initialized @(4,0)
GPGPU-Sim uArch: core:  3, cta: 3 initialized @(4,0)
GPGPU-Sim uArch: core:  4, cta: 3 initialized @(4,0)
GPGPU-Sim uArch: core:  5, cta: 3 initialized @(4,0)
GPGPU-Sim uArch: core:  6, cta: 3 initialized @(4,0)
GPGPU-Sim uArch: core:  7, cta: 3 initialized @(4,0)
GPGPU-Sim uArch: core:  8, cta: 3 initialized @(4,0)
GPGPU-Sim uArch: core:  9, cta: 3 initialized @(4,0)
GPGPU-Sim uArch: core: 10, cta: 3 initialized @(4,0)
GPGPU-Sim uArch: core: 11, cta: 3 initialized @(4,0)
GPGPU-Sim uArch: core: 12, cta: 3 initialized @(4,0)
GPGPU-Sim uArch: core: 13, cta: 3 initialized @(4,0)
GPGPU-Sim uArch: core: 14, cta: 3 initialized @(4,0)
GPGPU-Sim uArch: core:  0, cta: 3 initialized @(4,0)
GPGPU-Sim uArch: core:  1, cta: 4 initialized @(5,0)
GPGPU-Sim uArch: core:  2, cta: 4 initialized @(5,0)
GPGPU-Sim uArch: core:  3, cta: 4 initialized @(5,0)
GPGPU-Sim uArch: core:  4, cta: 4 initialized @(5,0)
GPGPU-Sim uArch: core:  5, cta: 4 initialized @(5,0)
GPGPU-Sim uArch: core:  6, cta: 4 initialized @(5,0)
GPGPU-Sim uArch: core:  7, cta: 4 initialized @(5,0)
GPGPU-Sim uArch: core:  8, cta: 4 initialized @(5,0)
GPGPU-Sim uArch: core:  9, cta: 4 initialized @(5,0)
GPGPU-Sim uArch: core: 10, cta: 4 initialized @(5,0)
GPGPU-Sim uArch: core: 11, cta: 4 initialized @(5,0)
GPGPU-Sim uArch: core: 12, cta: 4 initialized @(5,0)
GPGPU-Sim uArch: core: 13, cta: 4 initialized @(5,0)
GPGPU-Sim uArch: core: 14, cta: 4 initialized @(5,0)
GPGPU-Sim uArch: core:  0, cta: 4 initialized @(5,0)
GPGPU-Sim uArch: core:  1, cta: 5 initialized @(6,0)
GPGPU-Sim uArch: core:  2, cta: 5 initialized @(6,0)
GPGPU-Sim uArch: core:  3, cta: 5 initialized @(6,0)
GPGPU-Sim uArch: core:  4, cta: 5 initialized @(6,0)
GPGPU-Sim uArch: core:  5, cta: 5 initialized @(6,0)
GPGPU-Sim uArch: core:  6, cta: 5 initialized @(6,0)
GPGPU-Sim uArch: core:  7, cta: 5 initialized @(6,0)
GPGPU-Sim uArch: core:  8, cta: 5 initialized @(6,0)
GPGPU-Sim uArch: core:  9, cta: 5 initialized @(6,0)
GPGPU-Sim uArch: core: 10, cta: 5 initialized @(6,0)
GPGPU-Sim uArch: core: 11, cta: 5 initialized @(6,0)
GPGPU-Sim uArch: core: 12, cta: 5 initialized @(6,0)
GPGPU-Sim uArch: core: 13, cta: 5 initialized @(6,0)
GPGPU-Sim uArch: core: 14, cta: 5 initialized @(6,0)
GPGPU-Sim uArch: core:  0, cta: 5 initialized @(6,0)
GPGPU-Sim uArch: core:  1, cta: 6 initialized @(7,0)
GPGPU-Sim uArch: core:  2, cta: 6 initialized @(7,0)
GPGPU-Sim uArch: core:  3, cta: 6 initialized @(7,0)
GPGPU-Sim uArch: core:  4, cta: 6 initialized @(7,0)
GPGPU-Sim uArch: core:  5, cta: 6 initialized @(7,0)
GPGPU-Sim uArch: core:  6, cta: 6 initialized @(7,0)
GPGPU-Sim uArch: core:  7, cta: 6 initialized @(7,0)
GPGPU-Sim uArch: core:  8, cta: 6 initialized @(7,0)
GPGPU-Sim uArch: core:  9, cta: 6 initialized @(7,0)
GPGPU-Sim uArch: core: 10, cta: 6 initialized @(7,0)
GPGPU-Sim uArch: core: 11, cta: 6 initialized @(7,0)
GPGPU-Sim uArch: core: 12, cta: 6 initialized @(7,0)
GPGPU-Sim uArch: core: 13, cta: 6 initialized @(7,0)
GPGPU-Sim uArch: core: 14, cta: 6 initialized @(7,0)
GPGPU-Sim uArch: core:  0, cta: 6 initialized @(7,0)
GPGPU-Sim uArch: core:  1, cta: 7 initialized @(8,0)
GPGPU-Sim uArch: core:  2, cta: 7 initialized @(8,0)
GPGPU-Sim uArch: core:  3, cta: 7 initialized @(8,0)
GPGPU-Sim uArch: core:  4, cta: 7 initialized @(8,0)
GPGPU-Sim uArch: core:  5, cta: 7 initialized @(8,0)
GPGPU-Sim uArch: core:  6, cta: 7 initialized @(8,0)
GPGPU-Sim uArch: core:  7, cta: 7 initialized @(8,0)
GPGPU-Sim uArch: core:  8, cta: 7 initialized @(8,0)
GPGPU-Sim uArch: core:  9, cta: 7 initialized @(8,0)
GPGPU-Sim uArch: core: 10, cta: 7 initialized @(8,0)
GPGPU-Sim uArch: core: 11, cta: 7 initialized @(8,0)
GPGPU-Sim uArch: core: 12, cta: 7 initialized @(8,0)
GPGPU-Sim uArch: core: 13, cta: 7 initialized @(8,0)
GPGPU-Sim uArch: core: 14, cta: 7 initialized @(8,0)
GPGPU-Sim uArch: core:  0, cta: 7 initialized @(8,0)
GPGPU-Sim uArch: cycles simulated: 500  inst.: 26880 (ipc=53.8) sim_rate=2986 (inst/sec) elapsed = 0:0:00:09 / Tue Mar 22 12:46:22 2016
GPGPU-Sim PTX: 100000 instructions simulated : ctaid=(6,0,0) tid=(127,0,0)
GPGPU-Sim PTX: 200000 instructions simulated : ctaid=(21,0,0) tid=(191,0,0)
GPGPU-Sim PTX: 300000 instructions simulated : ctaid=(42,0,0) tid=(95,0,0)
GPGPU-Sim uArch: cycles simulated: 2500  inst.: 340896 (ipc=136.4) sim_rate=34089 (inst/sec) elapsed = 0:0:00:10 / Tue Mar 22 12:46:23 2016
GPGPU-Sim uArch: Shader 4 finished CTA #0 (2500,0), 7 CTAs running
GPGPU-Sim uArch: core:  4, cta: 0 initialized @(2501,0)
GPGPU-Sim uArch: Shader 3 finished CTA #0 (2516,0), 7 CTAs running
GPGPU-Sim uArch: core:  3, cta: 0 initialized @(2517,0)
GPGPU-Sim uArch: Shader 1 finished CTA #1 (2583,0), 7 CTAs running
GPGPU-Sim uArch: core:  1, cta: 1 initialized @(2584,0)
GPGPU-Sim uArch: Shader 0 finished CTA #0 (2588,0), 7 CTAs running
GPGPU-Sim uArch: core:  0, cta: 0 initialized @(2589,0)
GPGPU-Sim uArch: Shader 1 finished CTA #0 (2592,0), 7 CTAs running
GPGPU-Sim uArch: core:  1, cta: 0 initialized @(2593,0)
GPGPU-Sim uArch: Shader 8 finished CTA #0 (2665,0), 7 CTAs running
GPGPU-Sim uArch: core:  8, cta: 0 initialized @(2666,0)
GPGPU-Sim uArch: Shader 7 finished CTA #0 (2668,0), 7 CTAs running
GPGPU-Sim uArch: core:  7, cta: 0 initialized @(2669,0)
GPGPU-Sim uArch: Shader 2 finished CTA #0 (2697,0), 7 CTAs running
GPGPU-Sim uArch: core:  2, cta: 0 initialized @(2698,0)
GPGPU-Sim uArch: Shader 12 finished CTA #0 (2723,0), 7 CTAs running
GPGPU-Sim uArch: core: 12, cta: 0 initialized @(2724,0)
GPGPU-Sim uArch: Shader 11 finished CTA #0 (2788,0), 7 CTAs running
GPGPU-Sim uArch: core: 11, cta: 0 initialized @(2789,0)
GPGPU-Sim uArch: Shader 9 finished CTA #0 (2793,0), 7 CTAs running
GPGPU-Sim uArch: core:  9, cta: 0 initialized @(2794,0)
GPGPU-Sim uArch: Shader 2 finished CTA #1 (2868,0), 7 CTAs running
GPGPU-Sim uArch: core:  2, cta: 1 initialized @(2869,0)
GPGPU-Sim uArch: Shader 5 finished CTA #0 (2887,0), 7 CTAs running
GPGPU-Sim uArch: core:  5, cta: 0 initialized @(2888,0)
GPGPU-Sim uArch: Shader 6 finished CTA #0 (2906,0), 7 CTAs running
GPGPU-Sim uArch: core:  6, cta: 0 initialized @(2907,0)
GPGPU-Sim uArch: Shader 13 finished CTA #0 (2932,0), 7 CTAs running
GPGPU-Sim uArch: core: 13, cta: 0 initialized @(2933,0)
GPGPU-Sim PTX: 400000 instructions simulated : ctaid=(48,0,0) tid=(191,0,0)
GPGPU-Sim uArch: Shader 10 finished CTA #0 (3242,0), 7 CTAs running
GPGPU-Sim uArch: core: 10, cta: 0 initialized @(3243,0)
GPGPU-Sim uArch: Shader 6 finished CTA #1 (3291,0), 7 CTAs running
GPGPU-Sim uArch: core:  6, cta: 1 initialized @(3292,0)
GPGPU-Sim uArch: Shader 14 finished CTA #0 (3318,0), 7 CTAs running
GPGPU-Sim uArch: core: 14, cta: 0 initialized @(3319,0)
GPGPU-Sim uArch: Shader 4 finished CTA #1 (3402,0), 7 CTAs running
GPGPU-Sim uArch: core:  4, cta: 1 initialized @(3403,0)
GPGPU-Sim uArch: cycles simulated: 3500  inst.: 440032 (ipc=125.7) sim_rate=40002 (inst/sec) elapsed = 0:0:00:11 / Tue Mar 22 12:46:24 2016
GPGPU-Sim uArch: Shader 9 finished CTA #1 (3551,0), 7 CTAs running
GPGPU-Sim uArch: core:  9, cta: 1 initialized @(3552,0)
GPGPU-Sim uArch: Shader 10 finished CTA #1 (3598,0), 7 CTAs running
GPGPU-Sim uArch: core: 10, cta: 1 initialized @(3599,0)
GPGPU-Sim uArch: Shader 14 finished CTA #1 (3665,0), 7 CTAs running
GPGPU-Sim uArch: core: 14, cta: 1 initialized @(3666,0)
GPGPU-Sim uArch: Shader 1 finished CTA #2 (3774,0), 7 CTAs running
GPGPU-Sim uArch: core:  1, cta: 2 initialized @(3775,0)
GPGPU-Sim uArch: Shader 13 finished CTA #1 (3846,0), 7 CTAs running
GPGPU-Sim uArch: core: 13, cta: 1 initialized @(3847,0)
GPGPU-Sim uArch: Shader 6 finished CTA #2 (3950,0), 7 CTAs running
GPGPU-Sim uArch: core:  6, cta: 2 initialized @(3951,0)
GPGPU-Sim PTX: 500000 instructions simulated : ctaid=(64,0,0) tid=(31,0,0)
GPGPU-Sim uArch: Shader 0 finished CTA #1 (3972,0), 7 CTAs running
GPGPU-Sim uArch: core:  0, cta: 1 initialized @(3973,0)
GPGPU-Sim uArch: Shader 5 finished CTA #1 (3980,0), 7 CTAs running
GPGPU-Sim uArch: core:  5, cta: 1 initialized @(3981,0)
GPGPU-Sim uArch: Shader 3 finished CTA #1 (4072,0), 7 CTAs running
GPGPU-Sim uArch: core:  3, cta: 1 initialized @(4073,0)
GPGPU-Sim uArch: Shader 8 finished CTA #1 (4166,0), 7 CTAs running
GPGPU-Sim uArch: core:  8, cta: 1 initialized @(4167,0)
GPGPU-Sim uArch: Shader 2 finished CTA #2 (4191,0), 7 CTAs running
GPGPU-Sim uArch: core:  2, cta: 2 initialized @(4192,0)
GPGPU-Sim uArch: Shader 4 finished CTA #2 (4222,0), 7 CTAs running
GPGPU-Sim uArch: core:  4, cta: 2 initialized @(4223,0)
GPGPU-Sim uArch: Shader 12 finished CTA #1 (4360,0), 7 CTAs running
GPGPU-Sim uArch: core: 12, cta: 1 initialized @(4361,0)
GPGPU-Sim uArch: Shader 11 finished CTA #1 (4496,0), 7 CTAs running
GPGPU-Sim uArch: core: 11, cta: 1 initialized @(4497,0)
GPGPU-Sim uArch: Shader 7 finished CTA #1 (4631,0), 7 CTAs running
GPGPU-Sim uArch: core:  7, cta: 1 initialized @(4632,0)
GPGPU-Sim PTX: 600000 instructions simulated : ctaid=(91,0,0) tid=(159,0,0)
GPGPU-Sim uArch: Shader 14 finished CTA #2 (4855,0), 7 CTAs running
GPGPU-Sim uArch: core: 14, cta: 2 initialized @(4856,0)
GPGPU-Sim uArch: Shader 13 finished CTA #2 (4866,0), 7 CTAs running
GPGPU-Sim uArch: core: 13, cta: 2 initialized @(4867,0)
GPGPU-Sim uArch: Shader 10 finished CTA #2 (4891,0), 7 CTAs running
GPGPU-Sim uArch: core: 10, cta: 2 initialized @(4892,0)
GPGPU-Sim uArch: Shader 3 finished CTA #2 (4933,0), 7 CTAs running
GPGPU-Sim uArch: core:  3, cta: 2 initialized @(4934,0)
GPGPU-Sim uArch: Shader 8 finished CTA #2 (5166,0), 7 CTAs running
GPGPU-Sim uArch: core:  8, cta: 2 initialized @(5167,0)
GPGPU-Sim uArch: Shader 1 finished CTA #3 (5176,0), 7 CTAs running
GPGPU-Sim uArch: core:  1, cta: 3 initialized @(5177,0)
GPGPU-Sim uArch: Shader 4 finished CTA #3 (5195,0), 7 CTAs running
GPGPU-Sim uArch: core:  4, cta: 3 initialized @(5196,0)
GPGPU-Sim uArch: Shader 0 finished CTA #2 (5225,0), 7 CTAs running
GPGPU-Sim uArch: core:  0, cta: 2 initialized @(5226,0)
GPGPU-Sim uArch: Shader 11 finished CTA #2 (5261,0), 7 CTAs running
GPGPU-Sim uArch: core: 11, cta: 2 initialized @(5262,0)
GPGPU-Sim uArch: Shader 12 finished CTA #2 (5343,0), 7 CTAs running
GPGPU-Sim uArch: core: 12, cta: 2 initialized @(5344,0)
GPGPU-Sim uArch: Shader 9 finished CTA #2 (5440,0), 7 CTAs running
GPGPU-Sim uArch: core:  9, cta: 2 initialized @(5441,0)
GPGPU-Sim uArch: Shader 6 finished CTA #3 (5458,0), 7 CTAs running
GPGPU-Sim uArch: core:  6, cta: 3 initialized @(5459,0)
GPGPU-Sim uArch: Shader 2 finished CTA #3 (5475,0), 7 CTAs running
GPGPU-Sim uArch: core:  2, cta: 3 initialized @(5476,0)
GPGPU-Sim uArch: cycles simulated: 5500  inst.: 680096 (ipc=123.7) sim_rate=56674 (inst/sec) elapsed = 0:0:00:12 / Tue Mar 22 12:46:25 2016
GPGPU-Sim uArch: Shader 3 finished CTA #3 (5581,0), 7 CTAs running
GPGPU-Sim uArch: core:  3, cta: 3 initialized @(5582,0)
GPGPU-Sim uArch: Shader 11 finished CTA #3 (5588,0), 7 CTAs running
GPGPU-Sim uArch: core: 11, cta: 3 initialized @(5589,0)
GPGPU-Sim PTX: 700000 instructions simulated : ctaid=(135,0,0) tid=(31,0,0)
GPGPU-Sim uArch: Shader 4 finished CTA #4 (5628,0), 7 CTAs running
GPGPU-Sim uArch: core:  4, cta: 4 initialized @(5629,0)
GPGPU-Sim uArch: Shader 5 finished CTA #2 (5672,0), 7 CTAs running
GPGPU-Sim uArch: core:  5, cta: 2 initialized @(5673,0)
GPGPU-Sim uArch: Shader 10 finished CTA #3 (5941,0), 7 CTAs running
GPGPU-Sim uArch: core: 10, cta: 3 initialized @(5942,0)
GPGPU-Sim uArch: Shader 14 finished CTA #3 (5963,0), 7 CTAs running
GPGPU-Sim uArch: core: 14, cta: 3 initialized @(5964,0)
GPGPU-Sim uArch: Shader 0 finished CTA #3 (5984,0), 7 CTAs running
GPGPU-Sim uArch: core:  0, cta: 3 initialized @(5985,0)
GPGPU-Sim uArch: Shader 7 finished CTA #2 (6047,0), 7 CTAs running
GPGPU-Sim uArch: core:  7, cta: 2 initialized @(6048,0)
GPGPU-Sim uArch: Shader 9 finished CTA #3 (6053,0), 7 CTAs running
GPGPU-Sim uArch: core:  9, cta: 3 initialized @(6054,0)
GPGPU-Sim uArch: Shader 5 finished CTA #3 (6131,0), 7 CTAs running
GPGPU-Sim uArch: core:  5, cta: 3 initialized @(6132,0)
GPGPU-Sim uArch: Shader 8 finished CTA #3 (6234,0), 7 CTAs running
GPGPU-Sim uArch: core:  8, cta: 3 initialized @(6235,0)
GPGPU-Sim PTX: 800000 instructions simulated : ctaid=(84,0,0) tid=(191,0,0)
GPGPU-Sim uArch: Shader 8 finished CTA #4 (6494,0), 7 CTAs running
GPGPU-Sim uArch: core:  8, cta: 4 initialized @(6495,0)
GPGPU-Sim uArch: Shader 3 finished CTA #4 (6500,0), 7 CTAs running
GPGPU-Sim uArch: core:  3, cta: 4 initialized @(6501,0)
GPGPU-Sim uArch: Shader 13 finished CTA #3 (6549,0), 7 CTAs running
GPGPU-Sim uArch: core: 13, cta: 3 initialized @(6550,0)
GPGPU-Sim uArch: Shader 7 finished CTA #3 (6597,0), 7 CTAs running
GPGPU-Sim uArch: core:  7, cta: 3 initialized @(6598,0)
GPGPU-Sim uArch: Shader 12 finished CTA #3 (6715,0), 7 CTAs running
GPGPU-Sim uArch: core: 12, cta: 3 initialized @(6716,0)
GPGPU-Sim uArch: Shader 10 finished CTA #4 (6773,0), 7 CTAs running
GPGPU-Sim uArch: core: 10, cta: 4 initialized @(6774,0)
GPGPU-Sim uArch: Shader 1 finished CTA #4 (6784,0), 7 CTAs running
GPGPU-Sim uArch: core:  1, cta: 4 initialized @(6785,0)
GPGPU-Sim uArch: Shader 2 finished CTA #4 (6933,0), 7 CTAs running
GPGPU-Sim uArch: core:  2, cta: 4 initialized @(6934,0)
GPGPU-Sim uArch: Shader 13 finished CTA #4 (6991,0), 7 CTAs running
GPGPU-Sim uArch: core: 13, cta: 4 initialized @(6992,0)
GPGPU-Sim uArch: cycles simulated: 7000  inst.: 872384 (ipc=124.6) sim_rate=67106 (inst/sec) elapsed = 0:0:00:13 / Tue Mar 22 12:46:26 2016
GPGPU-Sim uArch: Shader 8 finished CTA #5 (7140,0), 7 CTAs running
GPGPU-Sim uArch: core:  8, cta: 5 initialized @(7141,0)
GPGPU-Sim PTX: 900000 instructions simulated : ctaid=(93,0,0) tid=(191,0,0)
GPGPU-Sim uArch: Shader 0 finished CTA #4 (7300,0), 7 CTAs running
GPGPU-Sim uArch: core:  0, cta: 4 initialized @(7301,0)
GPGPU-Sim uArch: Shader 13 finished CTA #5 (7371,0), 7 CTAs running
GPGPU-Sim uArch: core: 13, cta: 5 initialized @(7372,0)
GPGPU-Sim uArch: Shader 3 finished CTA #5 (7533,0), 7 CTAs running
GPGPU-Sim uArch: core:  3, cta: 5 initialized @(7534,0)
GPGPU-Sim uArch: Shader 11 finished CTA #4 (7573,0), 7 CTAs running
GPGPU-Sim uArch: core: 11, cta: 4 initialized @(7574,0)
GPGPU-Sim uArch: Shader 9 finished CTA #4 (7578,0), 7 CTAs running
GPGPU-Sim uArch: core:  9, cta: 4 initialized @(7579,0)
GPGPU-Sim uArch: Shader 7 finished CTA #4 (7627,0), 7 CTAs running
GPGPU-Sim uArch: core:  7, cta: 4 initialized @(7628,0)
GPGPU-Sim uArch: Shader 10 finished CTA #5 (7632,0), 7 CTAs running
GPGPU-Sim uArch: core: 10, cta: 5 initialized @(7633,0)
GPGPU-Sim uArch: Shader 12 finished CTA #4 (7639,0), 7 CTAs running
GPGPU-Sim uArch: core: 12, cta: 4 initialized @(7640,0)
GPGPU-Sim uArch: Shader 1 finished CTA #5 (7675,0), 7 CTAs running
GPGPU-Sim uArch: core:  1, cta: 5 initialized @(7676,0)
GPGPU-Sim PTX: 1000000 instructions simulated : ctaid=(160,0,0) tid=(95,0,0)
GPGPU-Sim uArch: Shader 6 finished CTA #4 (7813,0), 7 CTAs running
GPGPU-Sim uArch: core:  6, cta: 4 initialized @(7814,0)
GPGPU-Sim uArch: Shader 4 finished CTA #5 (7838,0), 7 CTAs running
GPGPU-Sim uArch: core:  4, cta: 5 initialized @(7839,0)
GPGPU-Sim uArch: Shader 2 finished CTA #5 (7940,0), 7 CTAs running
GPGPU-Sim uArch: core:  2, cta: 5 initialized @(7941,0)
GPGPU-Sim uArch: Shader 0 finished CTA #5 (7948,0), 7 CTAs running
GPGPU-Sim uArch: core:  0, cta: 5 initialized @(7949,0)
GPGPU-Sim uArch: Shader 5 finished CTA #4 (7976,0), 7 CTAs running
GPGPU-Sim uArch: core:  5, cta: 4 initialized @(7977,0)
GPGPU-Sim uArch: Shader 14 finished CTA #4 (8250,0), 7 CTAs running
GPGPU-Sim uArch: core: 14, cta: 4 initialized @(8251,0)
GPGPU-Sim uArch: Shader 13 finished CTA #6 (8472,0), 7 CTAs running
GPGPU-Sim uArch: core: 13, cta: 6 initialized @(8473,0)
GPGPU-Sim uArch: cycles simulated: 8500  inst.: 1081472 (ipc=127.2) sim_rate=77248 (inst/sec) elapsed = 0:0:00:14 / Tue Mar 22 12:46:27 2016
GPGPU-Sim uArch: Shader 4 finished CTA #6 (8557,0), 7 CTAs running
GPGPU-Sim uArch: core:  4, cta: 6 initialized @(8558,0)
GPGPU-Sim uArch: Shader 1 finished CTA #6 (8578,0), 7 CTAs running
GPGPU-Sim uArch: core:  1, cta: 6 initialized @(8579,0)
GPGPU-Sim uArch: Shader 7 finished CTA #5 (8589,0), 7 CTAs running
GPGPU-Sim uArch: core:  7, cta: 5 initialized @(8590,0)
GPGPU-Sim PTX: 1100000 instructions simulated : ctaid=(184,0,0) tid=(95,0,0)
GPGPU-Sim uArch: Shader 2 finished CTA #6 (8747,0), 7 CTAs running
GPGPU-Sim uArch: core:  2, cta: 6 initialized @(8748,0)
GPGPU-Sim uArch: Shader 8 finished CTA #6 (8830,0), 7 CTAs running
GPGPU-Sim uArch: core:  8, cta: 6 initialized @(8831,0)
GPGPU-Sim uArch: Shader 14 finished CTA #5 (8896,0), 7 CTAs running
GPGPU-Sim uArch: core: 14, cta: 5 initialized @(8897,0)
GPGPU-Sim uArch: Shader 3 finished CTA #6 (8953,0), 7 CTAs running
GPGPU-Sim uArch: core:  3, cta: 6 initialized @(8954,0)
GPGPU-Sim uArch: Shader 11 finished CTA #5 (9006,0), 7 CTAs running
GPGPU-Sim uArch: core: 11, cta: 5 initialized @(9007,0)
GPGPU-Sim uArch: Shader 9 finished CTA #5 (9064,0), 7 CTAs running
GPGPU-Sim uArch: core:  9, cta: 5 initialized @(9065,0)
GPGPU-Sim uArch: Shader 0 finished CTA #6 (9070,0), 7 CTAs running
GPGPU-Sim uArch: core:  0, cta: 6 initialized @(9071,0)
GPGPU-Sim uArch: Shader 5 finished CTA #5 (9110,0), 7 CTAs running
GPGPU-Sim uArch: core:  5, cta: 5 initialized @(9111,0)
GPGPU-Sim uArch: Shader 1 finished CTA #7 (9393,0), 7 CTAs running
GPGPU-Sim uArch: core:  1, cta: 7 initialized @(9394,0)
GPGPU-Sim PTX: 1200000 instructions simulated : ctaid=(130,0,0) tid=(63,0,0)
GPGPU-Sim uArch: Shader 12 finished CTA #5 (9410,0), 7 CTAs running
GPGPU-Sim uArch: core: 12, cta: 5 initialized @(9411,0)
GPGPU-Sim uArch: Shader 4 finished CTA #7 (9440,0), 7 CTAs running
GPGPU-Sim uArch: core:  4, cta: 7 initialized @(9441,0)
GPGPU-Sim uArch: Shader 0 finished CTA #7 (9520,0), 7 CTAs running
GPGPU-Sim uArch: core:  0, cta: 7 initialized @(9521,0)
GPGPU-Sim uArch: Shader 2 finished CTA #7 (9559,0), 7 CTAs running
GPGPU-Sim uArch: core:  2, cta: 7 initialized @(9560,0)
GPGPU-Sim uArch: Shader 14 finished CTA #6 (9560,0), 7 CTAs running
GPGPU-Sim uArch: core: 14, cta: 6 initialized @(9561,0)
GPGPU-Sim uArch: Shader 8 finished CTA #7 (9613,0), 7 CTAs running
GPGPU-Sim uArch: core:  8, cta: 7 initialized @(9614,0)
GPGPU-Sim uArch: Shader 6 finished CTA #5 (9716,0), 7 CTAs running
GPGPU-Sim uArch: core:  6, cta: 5 initialized @(9717,0)
GPGPU-Sim uArch: Shader 5 finished CTA #6 (9761,0), 7 CTAs running
GPGPU-Sim uArch: core:  5, cta: 6 initialized @(9762,0)
GPGPU-Sim uArch: Shader 3 finished CTA #7 (9764,0), 7 CTAs running
GPGPU-Sim uArch: core:  3, cta: 7 initialized @(9765,0)
GPGPU-Sim uArch: Shader 9 finished CTA #6 (9765,0), 7 CTAs running
GPGPU-Sim uArch: core:  9, cta: 6 initialized @(9766,0)
GPGPU-Sim uArch: Shader 11 finished CTA #6 (9957,0), 7 CTAs running
GPGPU-Sim uArch: core: 11, cta: 6 initialized @(9958,0)
GPGPU-Sim uArch: Shader 7 finished CTA #6 (9983,0), 7 CTAs running
GPGPU-Sim uArch: core:  7, cta: 6 initialized @(9984,0)
GPGPU-Sim uArch: Shader 4 finished CTA #0 (10040,0), 7 CTAs running
GPGPU-Sim uArch: core:  4, cta: 0 initialized @(10041,0)
GPGPU-Sim PTX: 1300000 instructions simulated : ctaid=(148,0,0) tid=(127,0,0)
GPGPU-Sim uArch: Shader 13 finished CTA #7 (10140,0), 7 CTAs running
GPGPU-Sim uArch: core: 13, cta: 7 initialized @(10141,0)
GPGPU-Sim uArch: Shader 9 finished CTA #7 (10171,0), 7 CTAs running
GPGPU-Sim uArch: core:  9, cta: 7 initialized @(10172,0)
GPGPU-Sim uArch: Shader 2 finished CTA #0 (10328,0), 7 CTAs running
GPGPU-Sim uArch: core:  2, cta: 0 initialized @(10329,0)
GPGPU-Sim uArch: Shader 12 finished CTA #6 (10381,0), 7 CTAs running
GPGPU-Sim uArch: core: 12, cta: 6 initialized @(10382,0)
GPGPU-Sim uArch: Shader 3 finished CTA #0 (10430,0), 7 CTAs running
GPGPU-Sim uArch: core:  3, cta: 0 initialized @(10431,0)
GPGPU-Sim uArch: Shader 8 finished CTA #0 (10477,0), 7 CTAs running
GPGPU-Sim uArch: core:  8, cta: 0 initialized @(10478,0)
GPGPU-Sim uArch: Shader 10 finished CTA #6 (10486,0), 7 CTAs running
GPGPU-Sim uArch: core: 10, cta: 6 initialized @(10487,0)
GPGPU-Sim uArch: cycles simulated: 10500  inst.: 1341568 (ipc=127.8) sim_rate=89437 (inst/sec) elapsed = 0:0:00:15 / Tue Mar 22 12:46:28 2016
GPGPU-Sim uArch: Shader 11 finished CTA #7 (10765,0), 7 CTAs running
GPGPU-Sim uArch: core: 11, cta: 7 initialized @(10766,0)
GPGPU-Sim PTX: 1400000 instructions simulated : ctaid=(236,0,0) tid=(31,0,0)
GPGPU-Sim uArch: Shader 0 finished CTA #0 (10851,0), 7 CTAs running
GPGPU-Sim uArch: core:  0, cta: 0 initialized @(10852,0)
GPGPU-Sim uArch: Shader 9 finished CTA #0 (10886,0), 7 CTAs running
GPGPU-Sim uArch: core:  9, cta: 0 initialized @(10887,0)
GPGPU-Sim uArch: Shader 13 finished CTA #0 (10905,0), 7 CTAs running
GPGPU-Sim uArch: core: 13, cta: 0 initialized @(10906,0)
GPGPU-Sim uArch: Shader 14 finished CTA #7 (11213,0), 7 CTAs running
GPGPU-Sim uArch: core: 14, cta: 7 initialized @(11214,0)
GPGPU-Sim uArch: Shader 5 finished CTA #7 (11272,0), 7 CTAs running
GPGPU-Sim uArch: core:  5, cta: 7 initialized @(11273,0)
GPGPU-Sim uArch: Shader 7 finished CTA #7 (11309,0), 7 CTAs running
GPGPU-Sim uArch: core:  7, cta: 7 initialized @(11310,0)
GPGPU-Sim uArch: Shader 3 finished CTA #1 (11350,0), 7 CTAs running
GPGPU-Sim uArch: core:  3, cta: 1 initialized @(11351,0)
GPGPU-Sim uArch: Shader 2 finished CTA #1 (11563,0), 7 CTAs running
GPGPU-Sim uArch: core:  2, cta: 1 initialized @(11564,0)
GPGPU-Sim PTX: 1500000 instructions simulated : ctaid=(223,0,0) tid=(95,0,0)
GPGPU-Sim uArch: Shader 11 finished CTA #0 (11676,0), 7 CTAs running
GPGPU-Sim uArch: core: 11, cta: 0 initialized @(11677,0)
GPGPU-Sim uArch: Shader 10 finished CTA #7 (11692,0), 7 CTAs running
GPGPU-Sim uArch: core: 10, cta: 7 initialized @(11693,0)
GPGPU-Sim uArch: Shader 12 finished CTA #7 (11698,0), 7 CTAs running
GPGPU-Sim uArch: core: 12, cta: 7 initialized @(11699,0)
GPGPU-Sim uArch: Shader 8 finished CTA #1 (11740,0), 7 CTAs running
GPGPU-Sim uArch: core:  8, cta: 1 initialized @(11741,0)
GPGPU-Sim uArch: Shader 14 finished CTA #0 (11742,0), 7 CTAs running
GPGPU-Sim uArch: core: 14, cta: 0 initialized @(11743,0)
GPGPU-Sim uArch: Shader 4 finished CTA #1 (11744,0), 7 CTAs running
GPGPU-Sim uArch: core:  4, cta: 1 initialized @(11745,0)
GPGPU-Sim uArch: Shader 6 finished CTA #6 (11784,0), 7 CTAs running
GPGPU-Sim uArch: core:  6, cta: 6 initialized @(11785,0)
GPGPU-Sim uArch: Shader 1 finished CTA #1 (11813,0), 7 CTAs running
GPGPU-Sim uArch: core:  1, cta: 1 initialized @(11814,0)
GPGPU-Sim uArch: Shader 13 finished CTA #1 (11865,0), 7 CTAs running
GPGPU-Sim uArch: core: 13, cta: 1 initialized @(11866,0)
GPGPU-Sim uArch: cycles simulated: 12000  inst.: 1537920 (ipc=128.2) sim_rate=96120 (inst/sec) elapsed = 0:0:00:16 / Tue Mar 22 12:46:29 2016
GPGPU-Sim uArch: Shader 0 finished CTA #1 (12097,0), 7 CTAs running
GPGPU-Sim uArch: core:  0, cta: 1 initialized @(12098,0)
GPGPU-Sim uArch: Shader 1 finished CTA #0 (12253,0), 7 CTAs running
GPGPU-Sim uArch: core:  1, cta: 0 initialized @(12254,0)
GPGPU-Sim uArch: Shader 7 finished CTA #0 (12294,0), 7 CTAs running
GPGPU-Sim uArch: core:  7, cta: 0 initialized @(12295,0)
GPGPU-Sim uArch: Shader 9 finished CTA #1 (12313,0), 7 CTAs running
GPGPU-Sim uArch: core:  9, cta: 1 initialized @(12314,0)
GPGPU-Sim uArch: Shader 11 finished CTA #1 (12360,0), 7 CTAs running
GPGPU-Sim uArch: core: 11, cta: 1 initialized @(12361,0)
GPGPU-Sim uArch: Shader 3 finished CTA #2 (12371,0), 7 CTAs running
GPGPU-Sim uArch: core:  3, cta: 2 initialized @(12372,0)
GPGPU-Sim PTX: 1600000 instructions simulated : ctaid=(242,0,0) tid=(31,0,0)
GPGPU-Sim uArch: Shader 2 finished CTA #2 (12463,0), 7 CTAs running
GPGPU-Sim uArch: core:  2, cta: 2 initialized @(12464,0)
GPGPU-Sim uArch: Shader 1 finished CTA #2 (12475,0), 7 CTAs running
GPGPU-Sim uArch: core:  1, cta: 2 initialized @(12476,0)
GPGPU-Sim uArch: Shader 12 finished CTA #0 (12622,0), 7 CTAs running
GPGPU-Sim uArch: core: 12, cta: 0 initialized @(12623,0)
GPGPU-Sim uArch: Shader 0 finished CTA #2 (12638,0), 7 CTAs running
GPGPU-Sim uArch: core:  0, cta: 2 initialized @(12639,0)
GPGPU-Sim uArch: Shader 5 finished CTA #0 (12653,0), 7 CTAs running
GPGPU-Sim uArch: core:  5, cta: 0 initialized @(12654,0)
GPGPU-Sim uArch: Shader 10 finished CTA #0 (12858,0), 7 CTAs running
GPGPU-Sim uArch: core: 10, cta: 0 initialized @(12859,0)
GPGPU-Sim uArch: Shader 6 finished CTA #7 (12896,0), 7 CTAs running
GPGPU-Sim uArch: core:  6, cta: 7 initialized @(12897,0)
GPGPU-Sim uArch: Shader 1 finished CTA #3 (12949,0), 7 CTAs running
GPGPU-Sim uArch: core:  1, cta: 3 initialized @(12950,0)
GPGPU-Sim uArch: Shader 2 finished CTA #3 (13104,0), 7 CTAs running
GPGPU-Sim uArch: core:  2, cta: 3 initialized @(13105,0)
GPGPU-Sim PTX: 1700000 instructions simulated : ctaid=(256,0,0) tid=(95,0,0)
GPGPU-Sim uArch: Shader 8 finished CTA #2 (13216,0), 7 CTAs running
GPGPU-Sim uArch: core:  8, cta: 2 initialized @(13217,0)
GPGPU-Sim uArch: Shader 4 finished CTA #2 (13273,0), 7 CTAs running
GPGPU-Sim uArch: core:  4, cta: 2 initialized @(13274,0)
GPGPU-Sim uArch: Shader 11 finished CTA #2 (13282,0), 7 CTAs running
GPGPU-Sim uArch: core: 11, cta: 2 initialized @(13283,0)
GPGPU-Sim uArch: Shader 10 finished CTA #1 (13358,0), 7 CTAs running
GPGPU-Sim uArch: core: 10, cta: 1 initialized @(13359,0)
GPGPU-Sim uArch: Shader 1 finished CTA #4 (13370,0), 7 CTAs running
GPGPU-Sim uArch: core:  1, cta: 4 initialized @(13371,0)
GPGPU-Sim uArch: Shader 13 finished CTA #2 (13403,0), 7 CTAs running
GPGPU-Sim uArch: core: 13, cta: 2 initialized @(13404,0)
GPGPU-Sim uArch: Shader 14 finished CTA #1 (13466,0), 7 CTAs running
GPGPU-Sim uArch: core: 14, cta: 1 initialized @(13467,0)
GPGPU-Sim uArch: cycles simulated: 13500  inst.: 1740352 (ipc=128.9) sim_rate=102373 (inst/sec) elapsed = 0:0:00:17 / Tue Mar 22 12:46:30 2016
GPGPU-Sim uArch: Shader 7 finished CTA #1 (13538,0), 7 CTAs running
GPGPU-Sim uArch: core:  7, cta: 1 initialized @(13539,0)
GPGPU-Sim uArch: Shader 12 finished CTA #1 (13649,0), 7 CTAs running
GPGPU-Sim uArch: core: 12, cta: 1 initialized @(13650,0)
GPGPU-Sim uArch: Shader 6 finished CTA #0 (13690,0), 7 CTAs running
GPGPU-Sim uArch: core:  6, cta: 0 initialized @(13691,0)
GPGPU-Sim uArch: Shader 3 finished CTA #3 (13740,0), 7 CTAs running
GPGPU-Sim uArch: core:  3, cta: 3 initialized @(13741,0)
GPGPU-Sim uArch: Shader 4 finished CTA #3 (13831,0), 7 CTAs running
GPGPU-Sim uArch: core:  4, cta: 3 initialized @(13832,0)
GPGPU-Sim PTX: 1800000 instructions simulated : ctaid=(277,0,0) tid=(31,0,0)
GPGPU-Sim uArch: Shader 9 finished CTA #2 (13918,0), 7 CTAs running
GPGPU-Sim uArch: core:  9, cta: 2 initialized @(13919,0)
GPGPU-Sim uArch: Shader 5 finished CTA #1 (13936,0), 7 CTAs running
GPGPU-Sim uArch: core:  5, cta: 1 initialized @(13937,0)
GPGPU-Sim uArch: Shader 0 finished CTA #3 (13946,0), 7 CTAs running
GPGPU-Sim uArch: core:  0, cta: 3 initialized @(13947,0)
GPGPU-Sim uArch: Shader 13 finished CTA #3 (13984,0), 7 CTAs running
GPGPU-Sim uArch: core: 13, cta: 3 initialized @(13985,0)
GPGPU-Sim uArch: Shader 10 finished CTA #2 (14172,0), 7 CTAs running
GPGPU-Sim uArch: core: 10, cta: 2 initialized @(14173,0)
GPGPU-Sim uArch: Shader 13 finished CTA #4 (14269,0), 7 CTAs running
GPGPU-Sim uArch: core: 13, cta: 4 initialized @(14270,0)
GPGPU-Sim uArch: Shader 4 finished CTA #4 (14333,0), 7 CTAs running
GPGPU-Sim uArch: core:  4, cta: 4 initialized @(14334,0)
GPGPU-Sim uArch: Shader 14 finished CTA #2 (14413,0), 7 CTAs running
GPGPU-Sim uArch: core: 14, cta: 2 initialized @(14414,0)
GPGPU-Sim uArch: Shader 3 finished CTA #4 (14415,0), 7 CTAs running
GPGPU-Sim uArch: core:  3, cta: 4 initialized @(14416,0)
GPGPU-Sim uArch: Shader 13 finished CTA #5 (14563,0), 7 CTAs running
GPGPU-Sim uArch: core: 13, cta: 5 initialized @(14564,0)
GPGPU-Sim uArch: Shader 8 finished CTA #3 (14626,0), 7 CTAs running
GPGPU-Sim uArch: core:  8, cta: 3 initialized @(14627,0)
GPGPU-Sim uArch: Shader 1 finished CTA #5 (14640,0), 7 CTAs running
GPGPU-Sim uArch: core:  1, cta: 5 initialized @(14641,0)
GPGPU-Sim uArch: Shader 9 finished CTA #3 (14656,0), 7 CTAs running
GPGPU-Sim uArch: core:  9, cta: 3 initialized @(14657,0)
GPGPU-Sim PTX: 1900000 instructions simulated : ctaid=(283,0,0) tid=(95,0,0)
GPGPU-Sim uArch: Shader 5 finished CTA #2 (14855,0), 7 CTAs running
GPGPU-Sim uArch: core:  5, cta: 2 initialized @(14856,0)
GPGPU-Sim uArch: Shader 1 finished CTA #6 (14866,0), 7 CTAs running
GPGPU-Sim uArch: core:  1, cta: 6 initialized @(14867,0)
GPGPU-Sim uArch: Shader 2 finished CTA #4 (14915,0), 7 CTAs running
GPGPU-Sim uArch: core:  2, cta: 4 initialized @(14916,0)
GPGPU-Sim uArch: Shader 3 finished CTA #5 (14918,0), 7 CTAs running
GPGPU-Sim uArch: core:  3, cta: 5 initialized @(14919,0)
GPGPU-Sim uArch: Shader 7 finished CTA #2 (14976,0), 7 CTAs running
GPGPU-Sim uArch: core:  7, cta: 2 initialized @(14977,0)
GPGPU-Sim uArch: cycles simulated: 15000  inst.: 1927968 (ipc=128.5) sim_rate=107109 (inst/sec) elapsed = 0:0:00:18 / Tue Mar 22 12:46:31 2016
GPGPU-Sim uArch: Shader 4 finished CTA #5 (15044,0), 7 CTAs running
GPGPU-Sim uArch: Shader 12 finished CTA #2 (15044,0), 7 CTAs running
GPGPU-Sim uArch: core: 12, cta: 2 initialized @(15045,0)
GPGPU-Sim uArch: core:  4, cta: 5 initialized @(15045,0)
GPGPU-Sim uArch: Shader 0 finished CTA #4 (15250,0), 7 CTAs running
GPGPU-Sim uArch: core:  0, cta: 4 initialized @(15251,0)
GPGPU-Sim uArch: Shader 11 finished CTA #3 (15322,0), 7 CTAs running
GPGPU-Sim uArch: core: 11, cta: 3 initialized @(15323,0)
GPGPU-Sim uArch: Shader 5 finished CTA #3 (15469,0), 7 CTAs running
GPGPU-Sim uArch: core:  5, cta: 3 initialized @(15470,0)
GPGPU-Sim PTX: 2000000 instructions simulated : ctaid=(301,0,0) tid=(95,0,0)
GPGPU-Sim uArch: Shader 7 finished CTA #3 (15527,0), 7 CTAs running
GPGPU-Sim uArch: core:  7, cta: 3 initialized @(15528,0)
GPGPU-Sim uArch: Shader 9 finished CTA #4 (15528,0), 7 CTAs running
GPGPU-Sim uArch: core:  9, cta: 4 initialized @(15529,0)
GPGPU-Sim uArch: Shader 8 finished CTA #4 (15542,0), 7 CTAs running
GPGPU-Sim uArch: core:  8, cta: 4 initialized @(15543,0)
GPGPU-Sim uArch: Shader 14 finished CTA #3 (15547,0), 7 CTAs running
GPGPU-Sim uArch: core: 14, cta: 3 initialized @(15548,0)
GPGPU-Sim uArch: Shader 6 finished CTA #1 (15595,0), 7 CTAs running
GPGPU-Sim uArch: core:  6, cta: 1 initialized @(15596,0)
GPGPU-Sim uArch: Shader 3 finished CTA #6 (15663,0), 7 CTAs running
GPGPU-Sim uArch: core:  3, cta: 6 initialized @(15664,0)
GPGPU-Sim uArch: Shader 12 finished CTA #3 (15732,0), 7 CTAs running
GPGPU-Sim uArch: core: 12, cta: 3 initialized @(15733,0)
GPGPU-Sim uArch: Shader 10 finished CTA #3 (15818,0), 7 CTAs running
GPGPU-Sim uArch: core: 10, cta: 3 initialized @(15819,0)
GPGPU-Sim uArch: Shader 7 finished CTA #4 (15820,0), 7 CTAs running
GPGPU-Sim uArch: core:  7, cta: 4 initialized @(15821,0)
GPGPU-Sim uArch: Shader 9 finished CTA #5 (15859,0), 7 CTAs running
GPGPU-Sim uArch: core:  9, cta: 5 initialized @(15860,0)
GPGPU-Sim uArch: Shader 5 finished CTA #4 (16001,0), 7 CTAs running
GPGPU-Sim uArch: core:  5, cta: 4 initialized @(16002,0)
GPGPU-Sim uArch: Shader 12 finished CTA #4 (16025,0), 7 CTAs running
GPGPU-Sim uArch: core: 12, cta: 4 initialized @(16026,0)
GPGPU-Sim uArch: Shader 13 finished CTA #6 (16100,0), 7 CTAs running
GPGPU-Sim uArch: core: 13, cta: 6 initialized @(16101,0)
GPGPU-Sim uArch: Shader 9 finished CTA #6 (16104,0), 7 CTAs running
GPGPU-Sim uArch: core:  9, cta: 6 initialized @(16105,0)
GPGPU-Sim uArch: Shader 11 finished CTA #4 (16150,0), 7 CTAs running
GPGPU-Sim uArch: core: 11, cta: 4 initialized @(16151,0)
GPGPU-Sim uArch: Shader 8 finished CTA #5 (16213,0), 7 CTAs running
GPGPU-Sim uArch: core:  8, cta: 5 initialized @(16214,0)
GPGPU-Sim uArch: Shader 13 finished CTA #7 (16244,0), 7 CTAs running
GPGPU-Sim uArch: core: 13, cta: 7 initialized @(16245,0)
GPGPU-Sim uArch: Shader 0 finished CTA #5 (16312,0), 7 CTAs running
GPGPU-Sim uArch: core:  0, cta: 5 initialized @(16313,0)
GPGPU-Sim PTX: 2100000 instructions simulated : ctaid=(311,0,0) tid=(159,0,0)
GPGPU-Sim uArch: Shader 1 finished CTA #7 (16325,0), 7 CTAs running
GPGPU-Sim uArch: core:  1, cta: 7 initialized @(16326,0)
GPGPU-Sim uArch: Shader 7 finished CTA #5 (16362,0), 7 CTAs running
GPGPU-Sim uArch: core:  7, cta: 5 initialized @(16363,0)
GPGPU-Sim uArch: Shader 2 finished CTA #5 (16367,0), 7 CTAs running
GPGPU-Sim uArch: core:  2, cta: 5 initialized @(16368,0)
GPGPU-Sim uArch: Shader 11 finished CTA #5 (16412,0), 7 CTAs running
GPGPU-Sim uArch: core: 11, cta: 5 initialized @(16413,0)
GPGPU-Sim uArch: cycles simulated: 16500  inst.: 2134368 (ipc=129.4) sim_rate=112335 (inst/sec) elapsed = 0:0:00:19 / Tue Mar 22 12:46:32 2016
GPGPU-Sim uArch: Shader 10 finished CTA #4 (16567,0), 7 CTAs running
GPGPU-Sim uArch: core: 10, cta: 4 initialized @(16568,0)
GPGPU-Sim uArch: Shader 9 finished CTA #7 (16577,0), 7 CTAs running
GPGPU-Sim uArch: core:  9, cta: 7 initialized @(16578,0)
GPGPU-Sim uArch: Shader 2 finished CTA #6 (16691,0), 7 CTAs running
GPGPU-Sim uArch: core:  2, cta: 6 initialized @(16692,0)
GPGPU-Sim uArch: Shader 0 finished CTA #6 (16759,0), 7 CTAs running
GPGPU-Sim uArch: core:  0, cta: 6 initialized @(16760,0)
GPGPU-Sim uArch: Shader 12 finished CTA #5 (16766,0), 7 CTAs running
GPGPU-Sim uArch: core: 12, cta: 5 initialized @(16767,0)
GPGPU-Sim uArch: Shader 3 finished CTA #7 (16817,0), 7 CTAs running
GPGPU-Sim uArch: core:  3, cta: 7 initialized @(16818,0)
GPGPU-Sim uArch: Shader 8 finished CTA #6 (16918,0), 7 CTAs running
GPGPU-Sim uArch: core:  8, cta: 6 initialized @(16919,0)
GPGPU-Sim PTX: 2200000 instructions simulated : ctaid=(325,0,0) tid=(31,0,0)
GPGPU-Sim uArch: Shader 5 finished CTA #5 (16972,0), 7 CTAs running
GPGPU-Sim uArch: core:  5, cta: 5 initialized @(16973,0)
GPGPU-Sim uArch: Shader 14 finished CTA #4 (17044,0), 7 CTAs running
GPGPU-Sim uArch: core: 14, cta: 4 initialized @(17045,0)
GPGPU-Sim uArch: Shader 4 finished CTA #6 (17049,0), 7 CTAs running
GPGPU-Sim uArch: core:  4, cta: 6 initialized @(17050,0)
GPGPU-Sim uArch: Shader 2 finished CTA #7 (17090,0), 7 CTAs running
GPGPU-Sim uArch: core:  2, cta: 7 initialized @(17091,0)
GPGPU-Sim uArch: Shader 6 finished CTA #2 (17096,0), 7 CTAs running
GPGPU-Sim uArch: core:  6, cta: 2 initialized @(17097,0)
GPGPU-Sim uArch: Shader 10 finished CTA #5 (17125,0), 7 CTAs running
GPGPU-Sim uArch: core: 10, cta: 5 initialized @(17126,0)
GPGPU-Sim uArch: Shader 7 finished CTA #6 (17185,0), 7 CTAs running
GPGPU-Sim uArch: core:  7, cta: 6 initialized @(17186,0)
GPGPU-Sim uArch: Shader 3 finished CTA #0 (17225,0), 7 CTAs running
GPGPU-Sim uArch: core:  3, cta: 0 initialized @(17226,0)
GPGPU-Sim uArch: Shader 0 finished CTA #7 (17358,0), 7 CTAs running
GPGPU-Sim uArch: core:  0, cta: 7 initialized @(17359,0)
GPGPU-Sim uArch: Shader 9 finished CTA #0 (17466,0), 7 CTAs running
GPGPU-Sim uArch: core:  9, cta: 0 initialized @(17467,0)
GPGPU-Sim uArch: Shader 11 finished CTA #6 (17471,0), 7 CTAs running
GPGPU-Sim uArch: core: 11, cta: 6 initialized @(17472,0)
GPGPU-Sim uArch: Shader 6 finished CTA #3 (17641,0), 7 CTAs running
GPGPU-Sim uArch: core:  6, cta: 3 initialized @(17642,0)
GPGPU-Sim uArch: Shader 2 finished CTA #0 (17744,0), 7 CTAs running
GPGPU-Sim uArch: core:  2, cta: 0 initialized @(17745,0)
GPGPU-Sim uArch: Shader 2 finished CTA #1 (17755,0), 7 CTAs running
GPGPU-Sim uArch: core:  2, cta: 1 initialized @(17756,0)
GPGPU-Sim uArch: Shader 3 finished CTA #1 (17775,0), 7 CTAs running
GPGPU-Sim uArch: core:  3, cta: 1 initialized @(17776,0)
GPGPU-Sim uArch: Shader 9 finished CTA #1 (17806,0), 7 CTAs running
GPGPU-Sim uArch: core:  9, cta: 1 initialized @(17807,0)
GPGPU-Sim PTX: 2300000 instructions simulated : ctaid=(220,0,0) tid=(127,0,0)
GPGPU-Sim uArch: Shader 8 finished CTA #7 (17907,0), 7 CTAs running
GPGPU-Sim uArch: core:  8, cta: 7 initialized @(17908,0)
GPGPU-Sim uArch: Shader 4 finished CTA #7 (17963,0), 7 CTAs running
GPGPU-Sim uArch: core:  4, cta: 7 initialized @(17964,0)
GPGPU-Sim uArch: Shader 0 finished CTA #0 (17968,0), 7 CTAs running
GPGPU-Sim uArch: core:  0, cta: 0 initialized @(17969,0)
GPGPU-Sim uArch: Shader 12 finished CTA #6 (17991,0), 7 CTAs running
GPGPU-Sim uArch: core: 12, cta: 6 initialized @(17992,0)
GPGPU-Sim uArch: cycles simulated: 18000  inst.: 2322528 (ipc=129.0) sim_rate=116126 (inst/sec) elapsed = 0:0:00:20 / Tue Mar 22 12:46:33 2016
GPGPU-Sim uArch: Shader 1 finished CTA #1 (18314,0), 7 CTAs running
GPGPU-Sim uArch: core:  1, cta: 1 initialized @(18315,0)
GPGPU-Sim uArch: Shader 6 finished CTA #4 (18423,0), 7 CTAs running
GPGPU-Sim uArch: core:  6, cta: 4 initialized @(18424,0)
GPGPU-Sim uArch: Shader 13 finished CTA #0 (18481,0), 7 CTAs running
GPGPU-Sim uArch: core: 13, cta: 0 initialized @(18482,0)
GPGPU-Sim uArch: Shader 11 finished CTA #7 (18489,0), 7 CTAs running
GPGPU-Sim uArch: core: 11, cta: 7 initialized @(18490,0)
GPGPU-Sim uArch: Shader 10 finished CTA #6 (18603,0), 7 CTAs running
GPGPU-Sim uArch: core: 10, cta: 6 initialized @(18604,0)
GPGPU-Sim PTX: 2400000 instructions simulated : ctaid=(282,0,0) tid=(63,0,0)
GPGPU-Sim uArch: Shader 8 finished CTA #0 (18624,0), 7 CTAs running
GPGPU-Sim uArch: core:  8, cta: 0 initialized @(18625,0)
GPGPU-Sim uArch: Shader 14 finished CTA #5 (18652,0), 7 CTAs running
GPGPU-Sim uArch: core: 14, cta: 5 initialized @(18653,0)
GPGPU-Sim uArch: Shader 9 finished CTA #2 (18665,0), 7 CTAs running
GPGPU-Sim uArch: core:  9, cta: 2 initialized @(18666,0)
GPGPU-Sim uArch: Shader 1 finished CTA #0 (18691,0), 7 CTAs running
GPGPU-Sim uArch: core:  1, cta: 0 initialized @(18692,0)
GPGPU-Sim uArch: Shader 3 finished CTA #2 (18705,0), 7 CTAs running
GPGPU-Sim uArch: core:  3, cta: 2 initialized @(18706,0)
GPGPU-Sim uArch: Shader 0 finished CTA #1 (18750,0), 7 CTAs running
GPGPU-Sim uArch: core:  0, cta: 1 initialized @(18751,0)
GPGPU-Sim uArch: Shader 5 finished CTA #6 (18769,0), 7 CTAs running
GPGPU-Sim uArch: core:  5, cta: 6 initialized @(18770,0)
GPGPU-Sim uArch: Shader 2 finished CTA #2 (18866,0), 7 CTAs running
GPGPU-Sim uArch: core:  2, cta: 2 initialized @(18867,0)
GPGPU-Sim uArch: Shader 6 finished CTA #5 (19035,0), 7 CTAs running
GPGPU-Sim uArch: core:  6, cta: 5 initialized @(19036,0)
GPGPU-Sim uArch: Shader 8 finished CTA #1 (19065,0), 7 CTAs running
GPGPU-Sim uArch: core:  8, cta: 1 initialized @(19066,0)
GPGPU-Sim uArch: Shader 1 finished CTA #2 (19087,0), 7 CTAs running
GPGPU-Sim uArch: core:  1, cta: 2 initialized @(19088,0)
GPGPU-Sim uArch: Shader 14 finished CTA #6 (19255,0), 7 CTAs running
GPGPU-Sim uArch: core: 14, cta: 6 initialized @(19256,0)
GPGPU-Sim uArch: Shader 10 finished CTA #7 (19259,0), 7 CTAs running
GPGPU-Sim uArch: core: 10, cta: 7 initialized @(19260,0)
GPGPU-Sim uArch: Shader 4 finished CTA #0 (19324,0), 7 CTAs running
GPGPU-Sim uArch: core:  4, cta: 0 initialized @(19325,0)
GPGPU-Sim uArch: Shader 12 finished CTA #7 (19340,0), 7 CTAs running
GPGPU-Sim uArch: core: 12, cta: 7 initialized @(19341,0)
GPGPU-Sim PTX: 2500000 instructions simulated : ctaid=(308,0,0) tid=(127,0,0)
GPGPU-Sim uArch: Shader 6 finished CTA #6 (19586,0), 7 CTAs running
GPGPU-Sim uArch: core:  6, cta: 6 initialized @(19587,0)
GPGPU-Sim uArch: Shader 5 finished CTA #7 (19598,0), 7 CTAs running
GPGPU-Sim uArch: core:  5, cta: 7 initialized @(19599,0)
GPGPU-Sim uArch: Shader 7 finished CTA #7 (19603,0), 7 CTAs running
GPGPU-Sim uArch: core:  7, cta: 7 initialized @(19604,0)
GPGPU-Sim uArch: Shader 11 finished CTA #0 (19615,0), 7 CTAs running
GPGPU-Sim uArch: core: 11, cta: 0 initialized @(19616,0)
GPGPU-Sim uArch: Shader 10 finished CTA #0 (19634,0), 7 CTAs running
GPGPU-Sim uArch: core: 10, cta: 0 initialized @(19635,0)
GPGPU-Sim uArch: Shader 13 finished CTA #1 (19693,0), 7 CTAs running
GPGPU-Sim uArch: core: 13, cta: 1 initialized @(19694,0)
GPGPU-Sim uArch: Shader 4 finished CTA #1 (19723,0), 7 CTAs running
GPGPU-Sim uArch: core:  4, cta: 1 initialized @(19724,0)
GPGPU-Sim uArch: Shader 1 finished CTA #3 (19826,0), 7 CTAs running
GPGPU-Sim uArch: core:  1, cta: 3 initialized @(19827,0)
GPGPU-Sim uArch: Shader 5 finished CTA #0 (19861,0), 7 CTAs running
GPGPU-Sim uArch: core:  5, cta: 0 initialized @(19862,0)
GPGPU-Sim uArch: Shader 14 finished CTA #7 (19913,0), 7 CTAs running
GPGPU-Sim uArch: core: 14, cta: 7 initialized @(19914,0)
GPGPU-Sim uArch: cycles simulated: 20000  inst.: 2563904 (ipc=128.2) sim_rate=122090 (inst/sec) elapsed = 0:0:00:21 / Tue Mar 22 12:46:34 2016
GPGPU-Sim uArch: Shader 3 finished CTA #3 (20037,0), 7 CTAs running
GPGPU-Sim uArch: core:  3, cta: 3 initialized @(20038,0)
GPGPU-Sim uArch: Shader 0 finished CTA #2 (20087,0), 7 CTAs running
GPGPU-Sim uArch: core:  0, cta: 2 initialized @(20088,0)
GPGPU-Sim uArch: Shader 9 finished CTA #3 (20093,0), 7 CTAs running
GPGPU-Sim uArch: core:  9, cta: 3 initialized @(20094,0)
GPGPU-Sim uArch: Shader 11 finished CTA #1 (20183,0), 7 CTAs running
GPGPU-Sim uArch: core: 11, cta: 1 initialized @(20184,0)
GPGPU-Sim uArch: Shader 2 finished CTA #3 (20187,0), 7 CTAs running
GPGPU-Sim uArch: core:  2, cta: 3 initialized @(20188,0)
GPGPU-Sim uArch: Shader 6 finished CTA #7 (20191,0), 7 CTAs running
GPGPU-Sim uArch: core:  6, cta: 7 initialized @(20192,0)
GPGPU-Sim PTX: 2600000 instructions simulated : ctaid=(318,0,0) tid=(63,0,0)
GPGPU-Sim uArch: Shader 14 finished CTA #0 (20343,0), 7 CTAs running
GPGPU-Sim uArch: core: 14, cta: 0 initialized @(20344,0)
GPGPU-Sim uArch: Shader 8 finished CTA #2 (20415,0), 7 CTAs running
GPGPU-Sim uArch: core:  8, cta: 2 initialized @(20416,0)
GPGPU-Sim uArch: Shader 13 finished CTA #2 (20453,0), 7 CTAs running
GPGPU-Sim uArch: core: 13, cta: 2 initialized @(20454,0)
GPGPU-Sim uArch: Shader 10 finished CTA #1 (20620,0), 7 CTAs running
GPGPU-Sim uArch: core: 10, cta: 1 initialized @(20621,0)
GPGPU-Sim uArch: Shader 13 finished CTA #3 (20630,0), 7 CTAs running
GPGPU-Sim uArch: core: 13, cta: 3 initialized @(20631,0)
GPGPU-Sim uArch: Shader 12 finished CTA #0 (20633,0), 7 CTAs running
GPGPU-Sim uArch: core: 12, cta: 0 initialized @(20634,0)
GPGPU-Sim uArch: Shader 7 finished CTA #0 (20669,0), 7 CTAs running
GPGPU-Sim uArch: core:  7, cta: 0 initialized @(20670,0)
GPGPU-Sim uArch: Shader 6 finished CTA #0 (20678,0), 7 CTAs running
GPGPU-Sim uArch: core:  6, cta: 0 initialized @(20679,0)
GPGPU-Sim uArch: Shader 4 finished CTA #2 (20780,0), 7 CTAs running
GPGPU-Sim uArch: core:  4, cta: 2 initialized @(20781,0)
GPGPU-Sim uArch: Shader 0 finished CTA #3 (20803,0), 7 CTAs running
GPGPU-Sim uArch: core:  0, cta: 3 initialized @(20804,0)
GPGPU-Sim PTX: 2700000 instructions simulated : ctaid=(304,0,0) tid=(63,0,0)
GPGPU-Sim uArch: Shader 5 finished CTA #1 (20994,0), 7 CTAs running
GPGPU-Sim uArch: core:  5, cta: 1 initialized @(20995,0)
GPGPU-Sim uArch: Shader 13 finished CTA #4 (21200,0), 7 CTAs running
GPGPU-Sim uArch: core: 13, cta: 4 initialized @(21201,0)
GPGPU-Sim uArch: Shader 11 finished CTA #2 (21203,0), 7 CTAs running
GPGPU-Sim uArch: core: 11, cta: 2 initialized @(21204,0)
GPGPU-Sim uArch: Shader 12 finished CTA #1 (21208,0), 7 CTAs running
GPGPU-Sim uArch: core: 12, cta: 1 initialized @(21209,0)
GPGPU-Sim uArch: Shader 1 finished CTA #4 (21256,0), 7 CTAs running
GPGPU-Sim uArch: core:  1, cta: 4 initialized @(21257,0)
GPGPU-Sim uArch: Shader 3 finished CTA #4 (21263,0), 7 CTAs running
GPGPU-Sim uArch: core:  3, cta: 4 initialized @(21264,0)
GPGPU-Sim uArch: Shader 8 finished CTA #3 (21268,0), 7 CTAs running
GPGPU-Sim uArch: core:  8, cta: 3 initialized @(21269,0)
GPGPU-Sim uArch: Shader 4 finished CTA #3 (21299,0), 7 CTAs running
GPGPU-Sim uArch: core:  4, cta: 3 initialized @(21300,0)
GPGPU-Sim uArch: Shader 10 finished CTA #2 (21333,0), 7 CTAs running
GPGPU-Sim uArch: core: 10, cta: 2 initialized @(21334,0)
GPGPU-Sim uArch: Shader 0 finished CTA #4 (21437,0), 7 CTAs running
GPGPU-Sim uArch: core:  0, cta: 4 initialized @(21438,0)
GPGPU-Sim uArch: cycles simulated: 21500  inst.: 2772832 (ipc=129.0) sim_rate=126037 (inst/sec) elapsed = 0:0:00:22 / Tue Mar 22 12:46:35 2016
GPGPU-Sim uArch: Shader 7 finished CTA #1 (21525,0), 7 CTAs running
GPGPU-Sim uArch: core:  7, cta: 1 initialized @(21526,0)
GPGPU-Sim uArch: Shader 6 finished CTA #1 (21530,0), 7 CTAs running
GPGPU-Sim uArch: core:  6, cta: 1 initialized @(21531,0)
GPGPU-Sim uArch: Shader 12 finished CTA #2 (21554,0), 7 CTAs running
GPGPU-Sim uArch: core: 12, cta: 2 initialized @(21555,0)
GPGPU-Sim uArch: Shader 9 finished CTA #4 (21638,0), 7 CTAs running
GPGPU-Sim uArch: core:  9, cta: 4 initialized @(21639,0)
GPGPU-Sim uArch: Shader 1 finished CTA #5 (21665,0), 7 CTAs running
GPGPU-Sim uArch: core:  1, cta: 5 initialized @(21666,0)
GPGPU-Sim uArch: Shader 3 finished CTA #5 (21698,0), 7 CTAs running
GPGPU-Sim uArch: core:  3, cta: 5 initialized @(21699,0)
GPGPU-Sim uArch: Shader 13 finished CTA #5 (21762,0), 7 CTAs running
GPGPU-Sim uArch: core: 13, cta: 5 initialized @(21763,0)
GPGPU-Sim PTX: 2800000 instructions simulated : ctaid=(338,0,0) tid=(63,0,0)
GPGPU-Sim uArch: Shader 2 finished CTA #4 (21903,0), 7 CTAs running
GPGPU-Sim uArch: core:  2, cta: 4 initialized @(21904,0)
GPGPU-Sim uArch: Shader 4 finished CTA #4 (22059,0), 7 CTAs running
GPGPU-Sim uArch: core:  4, cta: 4 initialized @(22060,0)
GPGPU-Sim uArch: Shader 11 finished CTA #3 (22077,0), 7 CTAs running
GPGPU-Sim uArch: core: 11, cta: 3 initialized @(22078,0)
GPGPU-Sim uArch: Shader 7 finished CTA #2 (22109,0), 7 CTAs running
GPGPU-Sim uArch: core:  7, cta: 2 initialized @(22110,0)
GPGPU-Sim uArch: Shader 14 finished CTA #1 (22201,0), 7 CTAs running
GPGPU-Sim uArch: core: 14, cta: 1 initialized @(22202,0)
GPGPU-Sim uArch: Shader 6 finished CTA #2 (22256,0), 7 CTAs running
GPGPU-Sim uArch: core:  6, cta: 2 initialized @(22257,0)
GPGPU-Sim uArch: Shader 5 finished CTA #2 (22275,0), 7 CTAs running
[...]
traffic_breakdown_coretomem[INST_ACC_R] = 702256 {8:87782,}
traffic_breakdown_memtocore[CONST_ACC_R] = 6480 {72:90,}
traffic_breakdown_memtocore[GLOBAL_ACC_R] = 205059304 {136:1507789,}
traffic_breakdown_memtocore[GLOBAL_ACC_W] = 1016064 {8:127008,}
traffic_breakdown_memtocore[INST_ACC_R] = 11938352 {136:87782,}
maxmrqlatency = 871 
maxdqlatency = 0 
maxmflatency = 2760 
averagemflatency = 371 
max_icnt2mem_latency = 1708 
max_icnt2sh_latency = 1622540 
mrq_lat_table:195564 	5117 	7544 	18951 	62097 	53665 	46851 	37051 	14824 	491 	0 	0 	0 	0 	0 	0 	0 	0 	0 	0 	0 	0 	0 	0 	0 	0 	0 	0 	0 	0 	0 	0 	
dq_lat_table:0 	0 	0 	0 	0 	0 	0 	0 	0 	0 	0 	0 	0 	0 	0 	0 	0 	0 	0 	0 	0 	0 	0 	0 	0 	0 	0 	0 	0 	0 	0 	0 	
mf_lat_table:0 	0 	0 	0 	0 	0 	0 	462991 	936980 	191419 	43327 	170 	0 	0 	0 	0 	0 	0 	0 	0 	0 	0 	0 	0 	0 	0 	0 	0 	0 	0 	0 	0 	
icnt2mem_lat_table:0 	0 	0 	802228 	136893 	155073 	249942 	256197 	103063 	18733 	540 	0 	0 	0 	0 	0 	0 	0 	0 	0 	0 	0 	0 	0 	
icnt2sh_lat_table:0 	0 	0 	79423 	812313 	591672 	24437 	34 	0 	52 	416 	891 	1943 	4243 	8526 	16381 	33536 	30780 	6230 	11599 	12411 	0 	0 	0 	
mf_lat_pw_table:0 	0 	0 	0 	0 	0 	0 	82 	2800 	161 	194 	0 	0 	0 	0 	0 	0 	0 	0 	0 	0 	0 	0 	0 	0 	0 	0 	0 	0 	0 	0 	0 	
maximum concurrent accesses to same row:
dram[0]:        16        20        16        18        16        16        24        20        18        18        20        16        16        22        24        18 
dram[1]:        16        16        16        16        16        16        28        32        24        18        16        20        18        14        16        16 
dram[2]:        16        16        16        18        20        24        22        22        26        24        36        40        28        32        20        18 
dram[3]:        16        16        16        16        16        16        22        24        22        26        20        20        16        16        20        16 
dram[4]:        16        16        16        16        16        16        26        28        22        26        18        20        16        16        18        16 
dram[5]:        16        16        18        16        20        24        18        26        24        24        36        40        28        32        16        18 
maximum service time to same row:
dram[0]:     42078     20331     39916     25553     88665     63222     27028     33435     52832     37772     73718     51138     23120     32682     28652     30565 
dram[1]:     23841     37019     35659     42512     33121     35178     23021     30691     25728     21725     31690     46968     32068     33803     26027     42415 
dram[2]:     26202     42431     23874     59698     56852     29089     39808     38332     25231     39855     36822     44003     26072     47018     44188     24681 
dram[3]:     37936     18100     39109     52081     33913     72932     27837     34089     20174     20811     31285     52102     24249     27282     32982     20087 
dram[4]:     21281     28518     23749     50507     39593     20327     50261     26434     35348     31082     46818     56013     25787     30183     38744     17600 
dram[5]:     22461     25252     51615     49847     67323     29745     34560     19932     47935     76897     76116     36272     37153     24479     19820     17110 
average row accesses per activate:
dram[0]:  2.139805  2.170418  2.085651  2.152044  2.072566  2.124542  2.140587  2.207921  2.031180  2.067944  2.090697  2.061813  2.121827  2.077096  2.069390  2.070614 
dram[1]:  2.055125  2.163275  2.107760  2.123580  2.012247  2.022346  2.099484  2.139857  2.045086  2.042686  2.039708  2.067836  2.041998  2.055009  2.023659  2.046733 
dram[2]:  2.135321  2.179404  2.098970  2.167127  2.064317  2.087517  2.164143  2.195146  2.126760  2.186299  2.112524  2.145146  2.113087  2.200487  2.087014  2.150979 
dram[3]:  2.143576  2.138149  2.092576  2.163661  2.047868  2.096472  2.113314  2.113753  2.071364  2.064589  2.098422  2.057025  2.237738  2.143468  2.172799  2.079108 
dram[4]:  2.136220  2.141090  2.135905  2.110910  2.034318  2.067616  2.112471  2.149591  2.029399  2.115529  2.013796  2.064840  2.037184  2.114717  2.092700  2.108157 
dram[5]:  2.144840  2.129295  2.114518  2.224509  2.069717  2.104770  2.161165  2.189824  2.140124  2.124235  2.140520  2.136190  2.168599  2.094637  2.110407  2.124720 
average row locality = 442155/209800 = 2.107507
number of total memory accesses made:
dram[0]:         0         0         0         0         0         0         0         0         0         0         0         0         0         0         0         0 
dram[1]:         0         0         0         0         0         0         0         0         0         0         0         0         0         0         0         0 
dram[2]:         0         0         0         0         0         0         0         0         0         0         0         0         0         0         0         0 
dram[3]:         0         0         0         0         0         0         0         0         0         0         0         0         0         0         0         0 
dram[4]:         0         0         0         0         0         0         0         0         0         0         0         0         0         0         0         0 
dram[5]:         0         0         0         0         0         0         0         0         0         0         0         0         0         0         0         0 
total accesses: 0
min_bank_accesses = 0!
min_chip_accesses = 0!
number of total read accesses:
dram[0]:      3263      3381      3380      3341      3368      3324      3164      3178      3248      3223      3160      3191      3268      3277      3368      3377 
dram[1]:      3428      3333      3409      3330      3449      3390      3192      3201      3224      3282      3157      3169      3289      3265      3446      3386 
dram[2]:      3311      3333      3343      3363      3370      3387      3148      3148      3218      3124      3175      3107      3304      3190      3381      3272 
dram[3]:      3344      3392      3335      3336      3390      3382      3194      3250      3245      3259      3208      3197      3141      3180      3321      3413 
dram[4]:      3392      3330      3308      3319      3367      3336      3207      3185      3244      3211      3213      3210      3272      3295      3329      3334 
dram[5]:      3291      3366      3346      3303      3434      3409      3170      3192      3163      3202      3136      3174      3159      3316      3320      3392 
total reads: 315147
bank skew: 3449/3107 = 1.11
chip skew: 52950/52174 = 1.01
number of total write accesses:
dram[0]:      1344      1344      1344      1344      1316      1316      1282      1282      1312      1312      1312      1312      1330      1330      1344      1344 
dram[1]:      1344      1344      1344      1344      1316      1316      1282      1282      1312      1312      1312      1312      1330      1330      1344      1344 
dram[2]:      1344      1344      1344      1344      1316      1312      1282      1284      1312      1312      1312      1312      1330      1332      1344      1344 
dram[3]:      1344      1344      1344      1344      1316      1312      1282      1284      1312      1312      1312      1312      1330      1332      1344      1344 
dram[4]:      1344      1344      1344      1344      1316      1312      1282      1284      1312      1312      1312      1312      1330      1332      1344      1344 
dram[5]:      1344      1344      1344      1344      1316      1312      1282      1284      1312      1312      1312      1312      1330      1332      1344      1344 
total reads: 127008
bank skew: 1344/1282 = 1.05
chip skew: 21168/21168 = 1.00
average mf latency per bank:
dram[0]:       1382      1362      1415      1382      1433      1423      1436      1489      1346      1516      1198      1219      1244      1276      1313      1354
dram[1]:       1239      1373      1351      1449      1354      1398      1362      1480      1361      1415      1158      1180      1144      1297      1227      1318
dram[2]:       1322      1440      1379      1566      1419      1582      1466      1601      1470      1643      1193      1368      1238      1353      1324      1383
dram[3]:       1383      1304      1442      1376      1441      1452      1464      1426      1399      1364      1194      1171      1279      1237      1381      1250
dram[4]:       1345      1347      1412      1373      1523      1284      1576      1346      1484      1366      1221      1110      1286      1130      1369      1245
dram[5]:       1526      1470      1488      1517      1533      1510      1583      1495      1588      1453      1340      1202      1381      1296      1499      1370
maximum mf latency per bank:
dram[0]:       1949      2760      2118      2219      1967      2194      1836      1803      1766      1707      2312      2029      2250      1938      2168      2065
dram[1]:       1737      1989      2083      1733      1788      1751      1656      1558      1772      1893      1903      2009      2101      1754      1842      2007
dram[2]:       2060      2132      2095      2163      2148      2235      2486      2014      2599      2290      2099      2431      2363      2351      2130      2644
dram[3]:       1808      1913      1913      1840      1892      1866      1735      1799      2031      1974      1990      2130      2045      2010      2000      2151
dram[4]:       1565      1687      2051      1836      1856      1756      1779      1633      1979      1792      1776      1609      1989      1834      1622      1743
dram[5]:       2453      2250      2187      2262      2415      2205      2292      2141      2181      2730      2337      2243      2371      2208      2270      1919

Number of Memory Banks Accessed per Memory Operation per Warp (from 0):
0	0	0	0	0	0	0	0	0	0	0	0	0	0	0	0	0	0	0	0	0	0	0	0	0	0	0	0	0	0	0	0	0	0	0	0	0	0	0	0	0	0	0	0	0	0	0	0	0	0	0	0	0	0	0	0	0	0	0	0	0	0	0	0	0	0	0	0	0	0	0	0	0	0	0	0	0	0	0	0	0	0	0	0	0	0	0	0	0	0	0	0	0	0	0	0	
Average # of Memory Banks Accessed per Memory Operation per Warp=-nan

position of mrq chosen
0	0	0	0	0	0	0	0	0	0	0	0	0	0	0	0	

average position of mrq chosen = -nan
Memory Partition 0: 
Cache L2_bank_000:
MSHR contents

Cache L2_bank_001:
MSHR contents

In Dram Latency Queue (total = 0): 
DRAM[0]: 16 bks, busW=4 BL=8 CL=12, tRRD=2 tCCD=6, tRCD=12 tRAS=28 tRP=12 tRC=40
n_cmd=2141749 n_nop=1924375 n_act=35016 n_pre=35000 n_req=73679 n_rd=105022 n_write=42336 bw_util=0.1376
n_activity=1127274 dram_eff=0.2614
bk0: 6526a 2019569i bk1: 6762a 2017234i bk2: 6760a 2009557i bk3: 6682a 2010132i bk4: 6736a 2009162i bk5: 6648a 2011560i bk6: 6328a 2020506i bk7: 6356a 2022550i bk8: 6496a 2019825i bk9: 6446a 2021472i bk10: 6320a 2017816i bk11: 6382a 2017984i bk12: 6536a 2015816i bk13: 6554a 2014464i bk14: 6736a 2014071i bk15: 6754a 2013966i 
dram_util_bins: 0 0 0 0 0 0 0 0 0 0
dram_eff_bins: 0 0 0 0 0 0 0 0 0 0
mrqq: max=16 avg=2.05662
Memory Partition 1: 
Cache L2_bank_002:
MSHR contents
MSHR: tag=0x8179f980, atomic=0 1 entries : 0x7f56d1feebb0 :  mf: uid=22647687, sid00:w05, part=1, addr=0x8179f980, load , size=128, unknown  status = IN_PARTITION_DRAM (1622538), 

Cache L2_bank_003:
MSHR contents

In Dram Latency Queue (total = 0): 
DRAM[1]: 16 bks, busW=4 BL=8 CL=12, tRRD=2 tCCD=6, tRCD=12 tRAS=28 tRP=12 tRC=40
n_cmd=2141749 n_nop=1921803 n_act=35863 n_pre=35847 n_req=74118 n_rd=105900 n_write=42336 bw_util=0.1384
n_activity=1143865 dram_eff=0.2592
bk0: 6856a 2014998i bk1: 6666a 2016282i bk2: 6818a 2009764i bk3: 6660a 2011422i bk4: 6898a 2007648i bk5: 6780a 2008597i bk6: 6384a 2018026i bk7: 6402a 2020334i bk8: 6448a 2021629i bk9: 6564a 2019829i bk10: 6314a 2017320i bk11: 6338a 2017639i bk12: 6578a 2013443i bk13: 6530a 2014916i bk14: 6892a 2012029i bk15: 6772a 2012083i 
dram_util_bins: 0 0 0 0 0 0 0 0 0 0
dram_eff_bins: 0 0 0 0 0 0 0 0 0 0
mrqq: max=16 avg=2.03815
Memory Partition 2: 
Cache L2_bank_004:
MSHR contents

Cache L2_bank_005:
MSHR contents

In Dram Latency Queue (total = 0): 
DRAM[2]: 16 bks, busW=4 BL=8 CL=12, tRRD=2 tCCD=6, tRCD=12 tRAS=28 tRP=12 tRC=40
n_cmd=2141749 n_nop=1926443 n_act=34319 n_pre=34303 n_req=73342 n_rd=104348 n_write=42336 bw_util=0.137
n_activity=1107342 dram_eff=0.2649
bk0: 6622a 2018537i bk1: 6666a 2017290i bk2: 6686a 2010593i bk3: 6726a 2007823i bk4: 6740a 2009887i bk5: 6774a 2009509i bk6: 6296a 2020352i bk7: 6296a 2021061i bk8: 6436a 2021767i bk9: 6248a 2024960i bk10: 6350a 2018442i bk11: 6214a 2020619i bk12: 6608a 2013927i bk13: 6380a 2017832i bk14: 6762a 2014999i bk15: 6544a 2017847i 
dram_util_bins: 0 0 0 0 0 0 0 0 0 0
dram_eff_bins: 0 0 0 0 0 0 0 0 0 0
mrqq: max=16 avg=2.09091
Memory Partition 3: 
Cache L2_bank_006:
MSHR contents

Cache L2_bank_007:
MSHR contents

In Dram Latency Queue (total = 0): 
DRAM[3]: 16 bks, busW=4 BL=8 CL=12, tRRD=2 tCCD=6, tRCD=12 tRAS=28 tRP=12 tRC=40
n_cmd=2141749 n_nop=1924457 n_act=34899 n_pre=34883 n_req=73755 n_rd=105174 n_write=42336 bw_util=0.1377
n_activity=1128208 dram_eff=0.2615
bk0: 6688a 2018763i bk1: 6784a 2015129i bk2: 6670a 2010689i bk3: 6672a 2009578i bk4: 6780a 2008874i bk5: 6764a 2010028i bk6: 6388a 2017142i bk7: 6500a 2018346i bk8: 6490a 2021000i bk9: 6518a 2018629i bk10: 6416a 2018289i bk11: 6394a 2017068i bk12: 6282a 2020003i bk13: 6360a 2017816i bk14: 6642a 2017159i bk15: 6826a 2013328i 
dram_util_bins: 0 0 0 0 0 0 0 0 0 0
dram_eff_bins: 0 0 0 0 0 0 0 0 0 0
mrqq: max=16 avg=2.06147
Memory Partition 4: 
Cache L2_bank_008:
MSHR contents

Cache L2_bank_009:
MSHR contents

In Dram Latency Queue (total = 0): 
DRAM[4]: 16 bks, busW=4 BL=8 CL=12, tRRD=2 tCCD=6, tRCD=12 tRAS=28 tRP=12 tRC=40
n_cmd=2141749 n_nop=1923805 n_act=35260 n_pre=35244 n_req=73720 n_rd=105104 n_write=42336 bw_util=0.1377
n_activity=1131659 dram_eff=0.2606
bk0: 6784a 2016507i bk1: 6660a 2016864i bk2: 6616a 2010850i bk3: 6638a 2010062i bk4: 6734a 2009140i bk5: 6672a 2011104i bk6: 6414a 2019491i bk7: 6370a 2019015i bk8: 6488a 2020223i bk9: 6422a 2020644i bk10: 6426a 2017179i bk11: 6420a 2014985i bk12: 6544a 2014868i bk13: 6590a 2013808i bk14: 6658a 2016353i bk15: 6668a 2014700i 
dram_util_bins: 0 0 0 0 0 0 0 0 0 0
dram_eff_bins: 0 0 0 0 0 0 0 0 0 0
mrqq: max=16 avg=2.00814
Memory Partition 5: 
Cache L2_bank_010:
MSHR contents

Cache L2_bank_011:
MSHR contents

In Dram Latency Queue (total = 0): 
DRAM[5]: 16 bks, busW=4 BL=8 CL=12, tRRD=2 tCCD=6, tRCD=12 tRAS=28 tRP=12 tRC=40
n_cmd=2141749 n_nop=1925795 n_act=34444 n_pre=34428 n_req=73541 n_rd=104746 n_write=42336 bw_util=0.1373
n_activity=1116304 dram_eff=0.2635
bk0: 6582a 2020274i bk1: 6732a 2017232i bk2: 6692a 2011023i bk3: 6606a 2012619i bk4: 6868a 2010634i bk5: 6818a 2009816i bk6: 6340a 2022278i bk7: 6384a 2020762i bk8: 6326a 2024512i bk9: 6404a 2021500i bk10: 6272a 2019461i bk11: 6348a 2018512i bk12: 6318a 2018421i bk13: 6632a 2013159i bk14: 6640a 2017288i bk15: 6784a 2015129i 
dram_util_bins: 0 0 0 0 0 0 0 0 0 0
dram_eff_bins: 0 0 0 0 0 0 0 0 0 0
mrqq: max=16 avg=2.09422

========= L2 cache stats =========
L2_cache_bank[0]: Access = 143452, Miss = 26219, Miss_rate = 0.183, Pending_hits = 95, Reservation_fails = 1197
L2_cache_bank[1]: Access = 143388, Miss = 26292, Miss_rate = 0.183, Pending_hits = 79, Reservation_fails = 1041
L2_cache_bank[2]: Access = 140099, Miss = 26594, Miss_rate = 0.190, Pending_hits = 102, Reservation_fails = 501
L2_cache_bank[3]: Access = 144730, Miss = 26356, Miss_rate = 0.182, Pending_hits = 84, Reservation_fails = 104
L2_cache_bank[4]: Access = 139727, Miss = 26250, Miss_rate = 0.188, Pending_hits = 80, Reservation_fails = 3305
L2_cache_bank[5]: Access = 145558, Miss = 25924, Miss_rate = 0.178, Pending_hits = 73, Reservation_fails = 3075
L2_cache_bank[6]: Access = 144686, Miss = 26178, Miss_rate = 0.181, Pending_hits = 95, Reservation_fails = 991
L2_cache_bank[7]: Access = 143223, Miss = 26409, Miss_rate = 0.184, Pending_hits = 99, Reservation_fails = 776
L2_cache_bank[8]: Access = 147611, Miss = 26332, Miss_rate = 0.178, Pending_hits = 112, Reservation_fails = 718
L2_cache_bank[9]: Access = 140056, Miss = 26220, Miss_rate = 0.187, Pending_hits = 100, Reservation_fails = 427
L2_cache_bank[10]: Access = 145791, Miss = 26019, Miss_rate = 0.178, Pending_hits = 76, Reservation_fails = 3775
L2_cache_bank[11]: Access = 144348, Miss = 26354, Miss_rate = 0.183, Pending_hits = 103, Reservation_fails = 8232
L2_total_cache_accesses = 1722669
L2_total_cache_misses = 315147
L2_total_cache_miss_rate = 0.1829
L2_total_cache_pending_hits = 1098
L2_total_cache_reservation_fails = 24142
L2_total_cache_breakdown:
	L2_cache_stats_breakdown[GLOBAL_ACC_R][HIT] = 1318896
	L2_cache_stats_breakdown[GLOBAL_ACC_R][HIT_RESERVED] = 891
	L2_cache_stats_breakdown[GLOBAL_ACC_R][MISS] = 188002
	L2_cache_stats_breakdown[GLOBAL_ACC_R][RESERVATION_FAIL] = 4066
	L2_cache_stats_breakdown[CONST_ACC_R][HIT] = 64
	L2_cache_stats_breakdown[CONST_ACC_R][HIT_RESERVED] = 16
	L2_cache_stats_breakdown[CONST_ACC_R][MISS] = 10
	L2_cache_stats_breakdown[CONST_ACC_R][RESERVATION_FAIL] = 302
	L2_cache_stats_breakdown[GLOBAL_ACC_W][MISS] = 127008
	L2_cache_stats_breakdown[GLOBAL_ACC_W][RESERVATION_FAIL] = 15016
	L2_cache_stats_breakdown[INST_ACC_R][HIT] = 87464
	L2_cache_stats_breakdown[INST_ACC_R][HIT_RESERVED] = 191
	L2_cache_stats_breakdown[INST_ACC_R][MISS] = 127
	L2_cache_stats_breakdown[INST_ACC_R][RESERVATION_FAIL] = 4758
L2_cache_data_port_util = 0.289
L2_cache_fill_port_util = 0.065

icnt_total_pkts_mem_to_simt=8105133
icnt_total_pkts_simt_to_mem=2230701
LD_mem_lat_dist  0 0 0 0 0 0 0 0 0 0 0 0 0 0 0 0 0 0 0 0 0 0 0 0 0 0 0
ST_mem_lat_dist  0 0 0 0 0 0 0 0 0 0 0 0 0 0 0 0 0 0 0 0 0 0 0 0 0 0 0
----------------------------Interconnect-DETAILS--------------------------------
Class 0:
Packet latency average = 33.2386
	minimum = 6
	maximum = 535
Network latency average = 25.0976
	minimum = 6
	maximum = 478
Slowest packet = 296003
Flit latency average = 18.0762
	minimum = 6
	maximum = 478
Slowest flit = 8505236
Fragmentation average = 0.0291835
	minimum = 0
	maximum = 436
Injected packet rate average = 0.0858669
	minimum = 0.0746531 (at node 14)
	maximum = 0.0995659 (at node 23)
Accepted packet rate average = 0.0858669
	minimum = 0.0746531 (at node 14)
	maximum = 0.0995659 (at node 23)
Injected flit rate average = 0.257597
	minimum = 0.0803416 (at node 14)
	maximum = 0.490478 (at node 23)
Accepted flit rate average= 0.257597
	minimum = 0.101146 (at node 19)
	maximum = 0.388294 (at node 13)
Injected packet length average = 2.99996
Accepted packet length average = 2.99996
Total in-flight flits = 0 (0 measured)
====== Overall Traffic Statistics ======
====== Traffic class 0 ======
Packet latency average = 39.458 (5 samples)
	minimum = 6 (5 samples)
	maximum = 667.4 (5 samples)
Network latency average = 29.475 (5 samples)
	minimum = 6 (5 samples)
	maximum = 593.2 (5 samples)
Flit latency average = 32.7404 (5 samples)
	minimum = 6 (5 samples)
	maximum = 590.8 (5 samples)
Fragmentation average = 1.38691 (5 samples)
	minimum = 0 (5 samples)
	maximum = 410 (5 samples)
Injected packet rate average = 0.0483996 (5 samples)
	minimum = 0.0417418 (5 samples)
	maximum = 0.0552405 (5 samples)
Accepted packet rate average = 0.0483996 (5 samples)
	minimum = 0.0417418 (5 samples)
	maximum = 0.0552405 (5 samples)
Injected flit rate average = 0.145191 (5 samples)
	minimum = 0.0536377 (5 samples)
	maximum = 0.249814 (5 samples)
Accepted flit rate average = 0.145191 (5 samples)
	minimum = 0.054605 (5 samples)
	maximum = 0.239583 (5 samples)
Injected packet size average = 2.99983 (5 samples)
Accepted packet size average = 2.99983 (5 samples)
Hops average = 1 (5 samples)
----------------------------END-of-Interconnect-DETAILS-------------------------

GPGPU-Sim PTX: cudaLaunch for 0x0x406564 (mode=performance simulation) on stream 0
