

        *** GPGPU-Sim Simulator Version 3.2.2  [build 0] ***


GPGPU-Sim PTX: simulation mode 0 (can change with PTX_SIM_MODE_FUNC environment variable:
               1=functional simulation only, 0=detailed performance simulator)
GPGPU-Sim: Configuration options:

-network_mode                           1 # Interconnection network mode
-inter_config_file   config_fermi_islip.icnt # Interconnection network config file
-gpgpu_ptx_use_cuobjdump                    1 # Use cuobjdump to extract ptx and sass from binaries
-gpgpu_experimental_lib_support                    0 # Try to extract code from cuda libraries [Broken because of unknown cudaGetExportTable]
-gpgpu_ptx_convert_to_ptxplus                    0 # Convert SASS (native ISA) to ptxplus and run ptxplus
-gpgpu_ptx_force_max_capability                   20 # Force maximum compute capability
-gpgpu_ptx_inst_debug_to_file                    0 # Dump executed instructions' debug information to file
-gpgpu_ptx_inst_debug_file       inst_debug.txt # Executed instructions' debug output file
-gpgpu_ptx_inst_debug_thread_uid                    1 # Thread UID for executed instructions' debug output
-gpgpu_simd_model                       1 # 1 = post-dominator
-gpgpu_shader_core_pipeline              1536:32 # shader core pipeline config, i.e., {<nthread>:<warpsize>}
-gpgpu_tex_cache:l1  4:128:24,L:R:m:N:L,F:128:4,128:2 # per-shader L1 texture cache  (READ-ONLY) config  {<nsets>:<bsize>:<assoc>,<rep>:<wr>:<alloc>:<wr_alloc>,<mshr>:<N>:<merge>,<mq>:<rf>}
-gpgpu_const_cache:l1 64:64:2,L:R:f:N:L,A:2:32,4 # per-shader L1 constant memory cache  (READ-ONLY) config  {<nsets>:<bsize>:<assoc>,<rep>:<wr>:<alloc>:<wr_alloc>,<mshr>:<N>:<merge>,<mq>} 
-gpgpu_cache:il1     4:128:4,L:R:f:N:L,A:2:32,4 # shader L1 instruction cache config  {<nsets>:<bsize>:<assoc>,<rep>:<wr>:<alloc>:<wr_alloc>,<mshr>:<N>:<merge>,<mq>} 
-gpgpu_cache:dl1     32:128:4,L:L:m:N:H,A:32:8,8:2,0,1:0:1:1:0:1,1:4:8:16:32:64,/sciclone/data10/hwang07/GPU_RESEARCH/swl/swl_outputs/RESULTS/swl1/ # per-shader L1 data cache config  {<nsets>:<bsize>:<assoc>,<rep>:<wr>:<alloc>:<wr_alloc>,<mshr>:<N>:<merge>,<mq> | none}
-gpgpu_cache:dl1PrefL1                 none # per-shader L1 data cache config  {<nsets>:<bsize>:<assoc>,<rep>:<wr>:<alloc>:<wr_alloc>,<mshr>:<N>:<merge>,<mq> | none}
-gpgpu_cache:dl1PreShared                 none # per-shader L1 data cache config  {<nsets>:<bsize>:<assoc>,<rep>:<wr>:<alloc>:<wr_alloc>,<mshr>:<N>:<merge>,<mq> | none}
-gmem_skip_L1D                          0 # global memory access skip L1D cache (implements -Xptxas -dlcm=cg, default=no skip)
-gpgpu_perfect_mem                      0 # enable perfect memory mode (no cache miss)
-n_regfile_gating_group                    4 # group of lanes that should be read/written together)
-gpgpu_clock_gated_reg_file                    0 # enable clock gated reg file for power calculations
-gpgpu_clock_gated_lanes                    0 # enable clock gated lanes for power calculations
-gpgpu_shader_registers                32768 # Number of registers per shader core. Limits number of concurrent CTAs. (default 8192)
-gpgpu_shader_cta                       8 # Maximum number of concurrent CTAs in shader (default 8)
-gpgpu_num_cta_barriers                   16 # Maximum number of named barriers per CTA (default 16)
-gpgpu_n_clusters                      15 # number of processing clusters
-gpgpu_n_cores_per_cluster                    1 # number of simd cores per cluster
-gpgpu_n_cluster_ejection_buffer_size                    8 # number of packets in ejection buffer
-gpgpu_n_ldst_response_buffer_size                    2 # number of response packets in ld/st unit ejection buffer
-gpgpu_shmem_size                   16384 # Size of shared memory per shader core (default 16kB)
-gpgpu_shmem_size                   49152 # Size of shared memory per shader core (default 16kB)
-gpgpu_shmem_size_PrefL1                16384 # Size of shared memory per shader core (default 16kB)
-gpgpu_shmem_size_PrefShared                16384 # Size of shared memory per shader core (default 16kB)
-gpgpu_shmem_num_banks                   32 # Number of banks in the shared memory in each shader core (default 16)
-gpgpu_shmem_limited_broadcast                    0 # Limit shared memory to do one broadcast per cycle (default on)
-gpgpu_shmem_warp_parts                    1 # Number of portions a warp is divided into for shared memory bank conflict check 
-gpgpu_warpdistro_shader                   -1 # Specify which shader core to collect the warp size distribution from
-gpgpu_warp_issue_shader                    0 # Specify which shader core to collect the warp issue distribution from
-gpgpu_local_mem_map                    1 # Mapping from local memory space address to simulated GPU physical address space (default = enabled)
-gpgpu_num_reg_banks                   16 # Number of register banks (default = 8)
-gpgpu_reg_bank_use_warp_id                    0 # Use warp ID in mapping registers to banks (default = off)
-gpgpu_operand_collector_num_units_sp                    6 # number of collector units (default = 4)
-gpgpu_operand_collector_num_units_sfu                    8 # number of collector units (default = 4)
-gpgpu_operand_collector_num_units_mem                    2 # number of collector units (default = 2)
-gpgpu_operand_collector_num_units_gen                    0 # number of collector units (default = 0)
-gpgpu_operand_collector_num_in_ports_sp                    2 # number of collector unit in ports (default = 1)
-gpgpu_operand_collector_num_in_ports_sfu                    1 # number of collector unit in ports (default = 1)
-gpgpu_operand_collector_num_in_ports_mem                    1 # number of collector unit in ports (default = 1)
-gpgpu_operand_collector_num_in_ports_gen                    0 # number of collector unit in ports (default = 0)
-gpgpu_operand_collector_num_out_ports_sp                    2 # number of collector unit in ports (default = 1)
-gpgpu_operand_collector_num_out_ports_sfu                    1 # number of collector unit in ports (default = 1)
-gpgpu_operand_collector_num_out_ports_mem                    1 # number of collector unit in ports (default = 1)
-gpgpu_operand_collector_num_out_ports_gen                    0 # number of collector unit in ports (default = 0)
-gpgpu_coalesce_arch                   13 # Coalescing arch (default = 13, anything else is off for now)
-gpgpu_num_sched_per_core                    2 # Number of warp schedulers per core
-gpgpu_max_insn_issue_per_warp                    1 # Max number of instructions that can be issued per warp in one cycle by scheduler
-gpgpu_simt_core_sim_order                    1 # Select the simulation order of cores in a cluster (0=Fix, 1=Round-Robin)
-gpgpu_pipeline_widths        2,1,1,2,1,1,2 # Pipeline widths ID_OC_SP,ID_OC_SFU,ID_OC_MEM,OC_EX_SP,OC_EX_SFU,OC_EX_MEM,EX_WB
-gpgpu_num_sp_units                     2 # Number of SP units (default=1)
-gpgpu_num_sfu_units                    1 # Number of SF units (default=1)
-gpgpu_num_mem_units                    1 # Number if ldst units (default=1) WARNING: not hooked up to anything
-gpgpu_scheduler        warp_limiting:2:1 # Scheduler configuration: < lrr | gto | two_level_active > If two_level_active:<num_active_warps>:<inner_prioritization>:<outer_prioritization>For complete list of prioritization values see shader.h enum scheduler_prioritization_typeDefault: gto
-gpgpu_dram_scheduler                    1 # 0 = fifo, 1 = FR-FCFS (defaul)
-gpgpu_dram_partition_queues              8:8:8:8 # i2$:$2d:d2$:$2i
-l2_ideal                               0 # Use a ideal L2 cache that always hit
-gpgpu_cache:dl2     64:128:8,L:B:m:W:L,A:32:4,4:0,32 # unified banked L2 data cache config  {<nsets>:<bsize>:<assoc>,<rep>:<wr>:<alloc>:<wr_alloc>,<mshr>:<N>:<merge>,<mq>}
-gpgpu_cache:dl2_texture_only                    0 # L2 cache used for texture only
-gpgpu_n_mem                            6 # number of memory modules (e.g. memory controllers) in gpu
-gpgpu_n_sub_partition_per_mchannel                    2 # number of memory subpartition in each memory module
-gpgpu_n_mem_per_ctrlr                    2 # number of memory chips per memory controller
-gpgpu_memlatency_stat                   14 # track and display latency statistics 0x2 enables MC, 0x4 enables queue logs
-gpgpu_frfcfs_dram_sched_queue_size                   16 # 0 = unlimited (default); # entries per chip
-gpgpu_dram_return_queue_size                  116 # 0 = unlimited (default); # entries per chip
-gpgpu_dram_buswidth                    4 # default = 4 bytes (8 bytes per cycle at DDR)
-gpgpu_dram_burst_length                    8 # Burst length of each DRAM request (default = 4 data bus cycle)
-dram_data_command_freq_ratio                    4 # Frequency ratio between DRAM data bus and command bus (default = 2 times, i.e. DDR)
-gpgpu_dram_timing_opt nbk=16:CCD=2:RRD=6:RCD=12:RAS=28:RP=12:RC=40: CL=12:WL=4:CDLR=5:WR=12:nbkgrp=4:CCDL=3:RTPL=2 # DRAM timing parameters = {nbk:tCCD:tRRD:tRCD:tRAS:tRP:tRC:CL:WL:tCDLR:tWR:nbkgrp:tCCDL:tRTPL}
-rop_latency                          120 # ROP queue latency (default 85)
-dram_latency                         100 # DRAM latency (default 30)
-gpgpu_mem_addr_mapping dramid@8;00000000.00000000.00000000.00000000.0000RRRR.RRRRRRRR.BBBCCCCB.CCSSSSSS # mapping memory address to dram model {dramid@<start bit>;<memory address map>}
-gpgpu_mem_addr_test                    0 # run sweep test to check address mapping for aliased address
-gpgpu_mem_address_mask                    1 # 0 = old addressing mask, 1 = new addressing mask, 2 = new add. mask + flipped bank sel and chip sel bits
-gpuwattch_xml_file  gpuwattch_gtx480.xml # GPUWattch XML file
-power_simulation_enabled                    0 # Turn on power simulator (1=On, 0=Off)
-power_per_cycle_dump                    0 # Dump detailed power output each cycle
-power_trace_enabled                    0 # produce a file for the power trace (1=On, 0=Off)
-power_trace_zlevel                     6 # Compression level of the power trace output log (0=no comp, 9=highest)
-steady_power_levels_enabled                    0 # produce a file for the steady power levels (1=On, 0=Off)
-steady_state_definition                  8:4 # allowed deviation:number of samples
-gpgpu_max_cycle                        0 # terminates gpu simulation early (0 = no limit)
-gpgpu_max_insn                         0 # terminates gpu simulation early (0 = no limit)
-gpgpu_max_cta                          0 # terminates gpu simulation early (0 = no limit)
-gpgpu_runtime_stat                   500 # display runtime statistics such as dram utilization {<freq>:<flag>}
-liveness_message_freq                    1 # Minimum number of seconds between simulation liveness messages (0 = always print)
-gpgpu_flush_l1_cache                    0 # Flush L1 cache at the end of each kernel call
-gpgpu_flush_l2_cache                    0 # Flush L2 cache at the end of each kernel call
-gpgpu_deadlock_detect                    1 # Stop the simulation at deadlock (1=on (default), 0=off)
-gpgpu_ptx_instruction_classification                    0 # if enabled will classify ptx instruction types per kernel (Max 255 kernels now)
-gpgpu_ptx_sim_mode                     0 # Select between Performance (default) or Functional simulation (1)
-gpgpu_clock_domains 700.0:700.0:700.0:924.0 # Clock Domain Frequencies in MhZ {<Core Clock>:<ICNT Clock>:<L2 Clock>:<DRAM Clock>}
-gpgpu_max_concurrent_kernel                    8 # maximum kernels that can run concurrently on GPU
-gpgpu_cflog_interval                    0 # Interval between each snapshot in control flow logger
-visualizer_enabled                     0 # Turn on visualizer output (1=On, 0=Off)
-visualizer_outputfile                 NULL # Specifies the output log file for visualizer
-visualizer_zlevel                      6 # Compression level of the visualizer output log (0=no comp, 9=highest)
-trace_enabled                          0 # Turn on traces
-trace_components                    none # comma seperated list of traces to enable. Complete list found in trace_streams.tup. Default none
-trace_sampling_core                    0 # The core which is printed using CORE_DPRINTF. Default 0
-trace_sampling_memory_partition                   -1 # The memory partition which is printed using MEMPART_DPRINTF. Default -1 (i.e. all)
-enable_ptx_file_line_stats                    1 # Turn on PTX source line statistic profiling. (1 = On)
-ptx_line_stats_filename gpgpu_inst_stats.txt # Output file for PTX source line statistics.
-save_embedded_ptx                      0 # saves ptx files embedded in binary as <n>.ptx
-keep                                   0 # keep intermediate files created by GPGPU-Sim when interfacing with external programs
-gpgpu_ptx_save_converted_ptxplus                    0 # Saved converted ptxplus to a file
-ptx_opcode_latency_int         4,13,4,5,145 # Opcode latencies for integers <ADD,MAX,MUL,MAD,DIV>Default 1,1,19,25,145
-ptx_opcode_latency_fp          4,13,4,5,39 # Opcode latencies for single precision floating points <ADD,MAX,MUL,MAD,DIV>Default 1,1,1,1,30
-ptx_opcode_latency_dp         8,19,8,8,330 # Opcode latencies for double precision floating points <ADD,MAX,MUL,MAD,DIV>Default 8,8,8,8,335
-ptx_opcode_initiation_int            1,2,2,1,8 # Opcode initiation intervals for integers <ADD,MAX,MUL,MAD,DIV>Default 1,1,4,4,32
-ptx_opcode_initiation_fp            1,2,1,1,4 # Opcode initiation intervals for single precision floating points <ADD,MAX,MUL,MAD,DIV>Default 1,1,1,1,5
-ptx_opcode_initiation_dp         8,16,8,8,130 # Opcode initiation intervals for double precision floating points <ADD,MAX,MUL,MAD,DIV>Default 8,8,8,8,130
DRAM Timing Options:
nbk                                    16 # number of banks
CCD                                     2 # column to column delay
RRD                                     6 # minimal delay between activation of rows in different banks
RCD                                    12 # row to column delay
RAS                                    28 # time needed to activate row
RP                                     12 # time needed to precharge (deactivate) row
RC                                     40 # row cycle time
CDLR                                    5 # switching from write to read (changes tWTR)
WR                                     12 # last data-in to row precharge
CL                                     12 # CAS latency
WL                                      4 # Write latency
nbkgrp                                  4 # number of bank groups
CCDL                                    3 # column to column delay between accesses to different bank groups
RTPL                                    2 # read to precharge delay between accesses to different bank groups
Total number of memory sub partition = 12
addr_dec_mask[CHIP]  = 0000000000000000 	high:64 low:0
addr_dec_mask[BK]    = 000000000000e100 	high:16 low:8
addr_dec_mask[ROW]   = 000000000fff0000 	high:28 low:16
addr_dec_mask[COL]   = 0000000000001eff 	high:13 low:0
addr_dec_mask[BURST] = 000000000000003f 	high:6 low:0
sub_partition_id_mask = 0000000000000100
GPGPU-Sim uArch: clock freqs: 700000000.000000:700000000.000000:700000000.000000:924000000.000000
GPGPU-Sim uArch: clock periods: 0.00000000142857142857:0.00000000142857142857:0.00000000142857142857:0.00000000108225108225
*** Initializing Memory Statistics ***
GPGPU-Sim uArch: interconnect node map (shaderID+MemID to icntID)
GPGPU-Sim uArch: Memory nodes ID start from index: 15
GPGPU-Sim uArch:    0   1   2   3   4
GPGPU-Sim uArch:    5   6   7   8   9
GPGPU-Sim uArch:   10  11  12  13  14
GPGPU-Sim uArch:   15  16  17  18  19
GPGPU-Sim uArch:   20  21  22  23  24
GPGPU-Sim uArch:   25  26
GPGPU-Sim uArch: interconnect node reverse map (icntID to shaderID+MemID)
GPGPU-Sim uArch: Memory nodes start from ID: 15
GPGPU-Sim uArch:    0   1   2   3   4
GPGPU-Sim uArch:    5   6   7   8   9
GPGPU-Sim uArch:   10  11  12  13  14
GPGPU-Sim uArch:   15  16  17  18  19
GPGPU-Sim uArch:   20  21  22  23  24
GPGPU-Sim uArch:   25  26
183c9781a2853cb79f2942d6c5929a5a  /sciclone/data10/hwang07/adwait/applications/benchmarks/Mars/sample_apps/SimilarityScore/gpgpu_ptx_sim__SimilarityScore
GPGPU-Sim uArch: performance model initialization complete.
GPGPU-Sim PTX: __cudaRegisterFatBinary, fat_cubin_handle = 1, filename=MarsLib.cu
self exe links to: /sciclone/data10/hwang07/adwait/applications/benchmarks/Mars/sample_apps/SimilarityScore/gpgpu_ptx_sim__SimilarityScore
Running md5sum using "md5sum /sciclone/data10/hwang07/adwait/applications/benchmarks/Mars/sample_apps/SimilarityScore/gpgpu_ptx_sim__SimilarityScore "
Parsing file _cuobjdump_complete_output_kTIJ9d
######### cuobjdump parser ########
## Adding new section ELF
Adding arch: sm_20
Adding identifier: main.cu
## Adding new section PTX
Adding ptx filename: _cuobjdump_1.ptx
Adding arch: sm_20
Adding identifier: main.cu
## Adding new section ELF
Adding arch: sm_20
Adding identifier: MarsScan.cu
## Adding new section PTX
Adding ptx filename: _cuobjdump_2.ptx
Adding arch: sm_20
Adding identifier: MarsScan.cu
## Adding new section ELF
Adding arch: sm_20
Adding identifier: MarsSort.cu
## Adding new section PTX
Adding ptx filename: _cuobjdump_3.ptx
Adding arch: sm_20
Adding identifier: MarsSort.cu
## Adding new section ELF
Adding arch: sm_20
Adding identifier: MarsLib.cu
## Adding new section PTX
Adding ptx filename: _cuobjdump_4.ptx
Adding arch: sm_20
Adding identifier: MarsLib.cu
Done parsing!!!
GPGPU-Sim PTX: __cudaRegisterFunction _Z7ReducerPcS_P4int4P4int2PiS4_S4_S_S_S1_S3_S4_iii : hostFun 0x0x4091e6, fat_cubin_handle = 1
GPGPU-Sim PTX: allocating stack frame region for .param "__cudaparmf1__Z9map_countPvS_iiPiS0_S0_" from 0x0 to 0x8
GPGPU-Sim PTX: allocating stack frame region for .param "__cudaparmf2__Z9map_countPvS_iiPiS0_S0_" from 0x8 to 0x10
GPGPU-Sim PTX: allocating stack frame region for .param "__cudaparmf3__Z9map_countPvS_iiPiS0_S0_" from 0x10 to 0x14
GPGPU-Sim PTX: allocating stack frame region for .param "__cudaparmf4__Z9map_countPvS_iiPiS0_S0_" from 0x14 to 0x18
GPGPU-Sim PTX: allocating stack frame region for .param "__cudaparmf5__Z9map_countPvS_iiPiS0_S0_" from 0x18 to 0x20
GPGPU-Sim PTX: allocating stack frame region for .param "__cudaparmf6__Z9map_countPvS_iiPiS0_S0_" from 0x20 to 0x28
GPGPU-Sim PTX: allocating stack frame region for .param "__cudaparmf7__Z9map_countPvS_iiPiS0_S0_" from 0x28 to 0x30
GPGPU-Sim PTX: allocating stack frame region for .param "__cudaparmf1__Z14EmitInterCountiiPiS_S_" from 0x0 to 0x4
GPGPU-Sim PTX: allocating stack frame region for .param "__cudaparmf2__Z14EmitInterCountiiPiS_S_" from 0x4 to 0x8
GPGPU-Sim PTX: allocating stack frame region for .param "__cudaparmf3__Z14EmitInterCountiiPiS_S_" from 0x8 to 0x10
GPGPU-Sim PTX: allocating stack frame region for .param "__cudaparmf4__Z14EmitInterCountiiPiS_S_" from 0x10 to 0x18
GPGPU-Sim PTX: allocating stack frame region for .param "__cudaparmf5__Z14EmitInterCountiiPiS_S_" from 0x18 to 0x20
GPGPU-Sim PTX: allocating stack frame region for .param "__cudaparmf1__Z3mapPvS_iiPiS0_S0_P4int2PcS3_P4int4S0_" from 0x0 to 0x8
GPGPU-Sim PTX: allocating stack frame region for .param "__cudaparmf2__Z3mapPvS_iiPiS0_S0_P4int2PcS3_P4int4S0_" from 0x8 to 0x10
GPGPU-Sim PTX: allocating stack frame region for .param "__cudaparmf3__Z3mapPvS_iiPiS0_S0_P4int2PcS3_P4int4S0_" from 0x10 to 0x14
GPGPU-Sim PTX: allocating stack frame region for .param "__cudaparmf4__Z3mapPvS_iiPiS0_S0_P4int2PcS3_P4int4S0_" from 0x14 to 0x18
GPGPU-Sim PTX: allocating stack frame region for .param "__cudaparmf5__Z3mapPvS_iiPiS0_S0_P4int2PcS3_P4int4S0_" from 0x18 to 0x20
GPGPU-Sim PTX: allocating stack frame region for .param "__cudaparmf6__Z3mapPvS_iiPiS0_S0_P4int2PcS3_P4int4S0_" from 0x20 to 0x28
GPGPU-Sim PTX: allocating stack frame region for .param "__cudaparmf7__Z3mapPvS_iiPiS0_S0_P4int2PcS3_P4int4S0_" from 0x28 to 0x30
GPGPU-Sim PTX: allocating stack frame region for .param "__cudaparmf8__Z3mapPvS_iiPiS0_S0_P4int2PcS3_P4int4S0_" from 0x30 to 0x38
GPGPU-Sim PTX: allocating stack frame region for .param "__cudaparmf9__Z3mapPvS_iiPiS0_S0_P4int2PcS3_P4int4S0_" from 0x38 to 0x40
GPGPU-Sim PTX: allocating stack frame region for .param "__cudaparmf10__Z3mapPvS_iiPiS0_S0_P4int2PcS3_P4int4S0_" from 0x40 to 0x48
GPGPU-Sim PTX: allocating stack frame region for .param "__cudaparmf11__Z3mapPvS_iiPiS0_S0_P4int2PcS3_P4int4S0_" from 0x48 to 0x50
GPGPU-Sim PTX: allocating stack frame region for .param "__cudaparmf12__Z3mapPvS_iiPiS0_S0_P4int2PcS3_P4int4S0_" from 0x50 to 0x58
GPGPU-Sim PTX: allocating stack frame region for .param "__cudaparmf1__Z16EmitIntermediatePvS_iiPiS0_S0_P4int2PcS3_P4int4S0_" from 0x0 to 0x8
GPGPU-Sim PTX: allocating stack frame region for .param "__cudaparmf2__Z16EmitIntermediatePvS_iiPiS0_S0_P4int2PcS3_P4int4S0_" from 0x8 to 0x10
GPGPU-Sim PTX: allocating stack frame region for .param "__cudaparmf3__Z16EmitIntermediatePvS_iiPiS0_S0_P4int2PcS3_P4int4S0_" from 0x10 to 0x14
GPGPU-Sim PTX: allocating stack frame region for .param "__cudaparmf4__Z16EmitIntermediatePvS_iiPiS0_S0_P4int2PcS3_P4int4S0_" from 0x14 to 0x18
GPGPU-Sim PTX: allocating stack frame region for .param "__cudaparmf5__Z16EmitIntermediatePvS_iiPiS0_S0_P4int2PcS3_P4int4S0_" from 0x18 to 0x20
GPGPU-Sim PTX: allocating stack frame region for .param "__cudaparmf6__Z16EmitIntermediatePvS_iiPiS0_S0_P4int2PcS3_P4int4S0_" from 0x20 to 0x28
GPGPU-Sim PTX: allocating stack frame region for .param "__cudaparmf7__Z16EmitIntermediatePvS_iiPiS0_S0_P4int2PcS3_P4int4S0_" from 0x28 to 0x30
GPGPU-Sim PTX: allocating stack frame region for .param "__cudaparmf8__Z16EmitIntermediatePvS_iiPiS0_S0_P4int2PcS3_P4int4S0_" from 0x30 to 0x38
GPGPU-Sim PTX: allocating stack frame region for .param "__cudaparmf9__Z16EmitIntermediatePvS_iiPiS0_S0_P4int2PcS3_P4int4S0_" from 0x38 to 0x40
GPGPU-Sim PTX: allocating stack frame region for .param "__cudaparmf10__Z16EmitIntermediatePvS_iiPiS0_S0_P4int2PcS3_P4int4S0_" from 0x40 to 0x48
GPGPU-Sim PTX: allocating stack frame region for .param "__cudaparmf11__Z16EmitIntermediatePvS_iiPiS0_S0_P4int2PcS3_P4int4S0_" from 0x48 to 0x50
GPGPU-Sim PTX: allocating stack frame region for .param "__cudaparmf12__Z16EmitIntermediatePvS_iiPiS0_S0_P4int2PcS3_P4int4S0_" from 0x50 to 0x58
GPGPU-Sim PTX: allocating stack frame region for .param "__cudaparmf1__Z12reduce_countPvS_iiP4int4PiS2_S2_" from 0x0 to 0x8
GPGPU-Sim PTX: allocating stack frame region for .param "__cudaparmf2__Z12reduce_countPvS_iiP4int4PiS2_S2_" from 0x8 to 0x10
GPGPU-Sim PTX: allocating stack frame region for .param "__cudaparmf3__Z12reduce_countPvS_iiP4int4PiS2_S2_" from 0x10 to 0x14
GPGPU-Sim PTX: allocating stack frame region for .param "__cudaparmf4__Z12reduce_countPvS_iiP4int4PiS2_S2_" from 0x14 to 0x18
GPGPU-Sim PTX: allocating stack frame region for .param "__cudaparmf5__Z12reduce_countPvS_iiP4int4PiS2_S2_" from 0x18 to 0x20
GPGPU-Sim PTX: allocating stack frame region for .param "__cudaparmf6__Z12reduce_countPvS_iiP4int4PiS2_S2_" from 0x20 to 0x28
GPGPU-Sim PTX: allocating stack frame region for .param "__cudaparmf7__Z12reduce_countPvS_iiP4int4PiS2_S2_" from 0x28 to 0x30
GPGPU-Sim PTX: allocating stack frame region for .param "__cudaparmf8__Z12reduce_countPvS_iiP4int4PiS2_S2_" from 0x30 to 0x38
GPGPU-Sim PTX: allocating stack frame region for .param "__cudaparmf1__Z6reducePvS_iiPiS0_S0_P4int2P4int4PcS5_S4_S0_i" from 0x0 to 0x8
GPGPU-Sim PTX: allocating stack frame region for .param "__cudaparmf2__Z6reducePvS_iiPiS0_S0_P4int2P4int4PcS5_S4_S0_i" from 0x8 to 0x10
GPGPU-Sim PTX: allocating stack frame region for .param "__cudaparmf3__Z6reducePvS_iiPiS0_S0_P4int2P4int4PcS5_S4_S0_i" from 0x10 to 0x14
GPGPU-Sim PTX: allocating stack frame region for .param "__cudaparmf4__Z6reducePvS_iiPiS0_S0_P4int2P4int4PcS5_S4_S0_i" from 0x14 to 0x18
GPGPU-Sim PTX: allocating stack frame region for .param "__cudaparmf5__Z6reducePvS_iiPiS0_S0_P4int2P4int4PcS5_S4_S0_i" from 0x18 to 0x20
GPGPU-Sim PTX: allocating stack frame region for .param "__cudaparmf6__Z6reducePvS_iiPiS0_S0_P4int2P4int4PcS5_S4_S0_i" from 0x20 to 0x28
GPGPU-Sim PTX: allocating stack frame region for .param "__cudaparmf7__Z6reducePvS_iiPiS0_S0_P4int2P4int4PcS5_S4_S0_i" from 0x28 to 0x30
GPGPU-Sim PTX: allocating stack frame region for .param "__cudaparmf8__Z6reducePvS_iiPiS0_S0_P4int2P4int4PcS5_S4_S0_i" from 0x30 to 0x38
GPGPU-Sim PTX: allocating stack frame region for .param "__cudaparmf9__Z6reducePvS_iiPiS0_S0_P4int2P4int4PcS5_S4_S0_i" from 0x38 to 0x40
GPGPU-Sim PTX: allocating stack frame region for .param "__cudaparmf10__Z6reducePvS_iiPiS0_S0_P4int2P4int4PcS5_S4_S0_i" from 0x40 to 0x48
GPGPU-Sim PTX: allocating stack frame region for .param "__cudaparmf11__Z6reducePvS_iiPiS0_S0_P4int2P4int4PcS5_S4_S0_i" from 0x48 to 0x50
GPGPU-Sim PTX: allocating stack frame region for .param "__cudaparmf12__Z6reducePvS_iiPiS0_S0_P4int2P4int4PcS5_S4_S0_i" from 0x50 to 0x58
GPGPU-Sim PTX: allocating stack frame region for .param "__cudaparmf13__Z6reducePvS_iiPiS0_S0_P4int2P4int4PcS5_S4_S0_i" from 0x58 to 0x60
GPGPU-Sim PTX: allocating stack frame region for .param "__cudaparmf14__Z6reducePvS_iiPiS0_S0_P4int2P4int4PcS5_S4_S0_i" from 0x60 to 0x64
GPGPU-Sim PTX: allocating stack frame region for .param "__cudaretf__Z6GetValPvP4int4ii" from 0x0 to 0x8
GPGPU-Sim PTX: allocating stack frame region for .param "__cudaparmf1__Z6GetValPvP4int4ii" from 0x8 to 0x10
GPGPU-Sim PTX: allocating stack frame region for .param "__cudaparmf2__Z6GetValPvP4int4ii" from 0x10 to 0x18
GPGPU-Sim PTX: allocating stack frame region for .param "__cudaparmf3__Z6GetValPvP4int4ii" from 0x18 to 0x1c
GPGPU-Sim PTX: allocating stack frame region for .param "__cudaparmf4__Z6GetValPvP4int4ii" from 0x1c to 0x20
GPGPU-Sim PTX: allocating stack frame region for .param "__cudaretf__Z6GetKeyPvP4int4ii" from 0x0 to 0x8
GPGPU-Sim PTX: allocating stack frame region for .param "__cudaparmf1__Z6GetKeyPvP4int4ii" from 0x8 to 0x10
GPGPU-Sim PTX: allocating stack frame region for .param "__cudaparmf2__Z6GetKeyPvP4int4ii" from 0x10 to 0x18
GPGPU-Sim PTX: allocating stack frame region for .param "__cudaparmf3__Z6GetKeyPvP4int4ii" from 0x18 to 0x1c
GPGPU-Sim PTX: allocating stack frame region for .param "__cudaparmf4__Z6GetKeyPvP4int4ii" from 0x1c to 0x20
GPGPU-Sim PTX: allocating stack frame region for .param "__cudaparmf1__Z9EmitCountiiPiS_S_" from 0x0 to 0x4
GPGPU-Sim PTX: allocating stack frame region for .param "__cudaparmf2__Z9EmitCountiiPiS_S_" from 0x4 to 0x8
GPGPU-Sim PTX: allocating stack frame region for .param "__cudaparmf3__Z9EmitCountiiPiS_S_" from 0x8 to 0x10
GPGPU-Sim PTX: allocating stack frame region for .param "__cudaparmf4__Z9EmitCountiiPiS_S_" from 0x10 to 0x18
GPGPU-Sim PTX: allocating stack frame region for .param "__cudaparmf5__Z9EmitCountiiPiS_S_" from 0x18 to 0x20
GPGPU-Sim PTX: allocating stack frame region for .param "__cudaparmf1__Z4EmitPcS_iiPiS0_S0_P4int2S_S_P4int4S0_" from 0x0 to 0x8
GPGPU-Sim PTX: allocating stack frame region for .param "__cudaparmf2__Z4EmitPcS_iiPiS0_S0_P4int2S_S_P4int4S0_" from 0x8 to 0x10
GPGPU-Sim PTX: allocating stack frame region for .param "__cudaparmf3__Z4EmitPcS_iiPiS0_S0_P4int2S_S_P4int4S0_" from 0x10 to 0x14
GPGPU-Sim PTX: allocating stack frame region for .param "__cudaparmf4__Z4EmitPcS_iiPiS0_S0_P4int2S_S_P4int4S0_" from 0x14 to 0x18
GPGPU-Sim PTX: allocating stack frame region for .param "__cudaparmf5__Z4EmitPcS_iiPiS0_S0_P4int2S_S_P4int4S0_" from 0x18 to 0x20
GPGPU-Sim PTX: allocating stack frame region for .param "__cudaparmf6__Z4EmitPcS_iiPiS0_S0_P4int2S_S_P4int4S0_" from 0x20 to 0x28
GPGPU-Sim PTX: allocating stack frame region for .param "__cudaparmf7__Z4EmitPcS_iiPiS0_S0_P4int2S_S_P4int4S0_" from 0x28 to 0x30
GPGPU-Sim PTX: allocating stack frame region for .param "__cudaparmf8__Z4EmitPcS_iiPiS0_S0_P4int2S_S_P4int4S0_" from 0x30 to 0x38
GPGPU-Sim PTX: allocating stack frame region for .param "__cudaparmf9__Z4EmitPcS_iiPiS0_S0_P4int2S_S_P4int4S0_" from 0x38 to 0x40
GPGPU-Sim PTX: allocating stack frame region for .param "__cudaparmf10__Z4EmitPcS_iiPiS0_S0_P4int2S_S_P4int4S0_" from 0x40 to 0x48
GPGPU-Sim PTX: allocating stack frame region for .param "__cudaparmf11__Z4EmitPcS_iiPiS0_S0_P4int2S_S_P4int4S0_" from 0x48 to 0x50
GPGPU-Sim PTX: allocating stack frame region for .param "__cudaparmf12__Z4EmitPcS_iiPiS0_S0_P4int2S_S_P4int4S0_" from 0x50 to 0x58
GPGPU-Sim PTX: instruction assembly for function '_Z9map_countPvS_iiPiS0_S0_'...   done.
GPGPU-Sim PTX: finding reconvergence points for '_Z9map_countPvS_iiPiS0_S0_'...
GPGPU-Sim PTX: Finding dominators for '_Z9map_countPvS_iiPiS0_S0_'...
GPGPU-Sim PTX: Finding immediate dominators for '_Z9map_countPvS_iiPiS0_S0_'...
GPGPU-Sim PTX: Finding postdominators for '_Z9map_countPvS_iiPiS0_S0_'...
GPGPU-Sim PTX: Finding immediate postdominators for '_Z9map_countPvS_iiPiS0_S0_'...
GPGPU-Sim PTX: pre-decoding instructions for '_Z9map_countPvS_iiPiS0_S0_'...
GPGPU-Sim PTX: reconvergence points for _Z9map_countPvS_iiPiS0_S0_...
GPGPU-Sim PTX: ... end of reconvergence points for _Z9map_countPvS_iiPiS0_S0_
GPGPU-Sim PTX: ... done pre-decoding instructions for '_Z9map_countPvS_iiPiS0_S0_'.
GPGPU-Sim PTX: allocating shared region for "sbuf" from 0x0 to 0x0 (shared memory space)
GPGPU-Sim PTX: instruction assembly for function '_Z3mapPvS_iiPiS0_S0_P4int2PcS3_P4int4S0_'...   done.
GPGPU-Sim PTX: finding reconvergence points for '_Z3mapPvS_iiPiS0_S0_P4int2PcS3_P4int4S0_'...
GPGPU-Sim PTX: Finding dominators for '_Z3mapPvS_iiPiS0_S0_P4int2PcS3_P4int4S0_'...
GPGPU-Sim PTX: Finding immediate dominators for '_Z3mapPvS_iiPiS0_S0_P4int2PcS3_P4int4S0_'...
GPGPU-Sim PTX: Finding postdominators for '_Z3mapPvS_iiPiS0_S0_P4int2PcS3_P4int4S0_'...
GPGPU-Sim PTX: Finding immediate postdominators for '_Z3mapPvS_iiPiS0_S0_P4int2PcS3_P4int4S0_'...
GPGPU-Sim PTX: pre-decoding instructions for '_Z3mapPvS_iiPiS0_S0_P4int2PcS3_P4int4S0_'...
GPGPU-Sim PTX: reconvergence points for _Z3mapPvS_iiPiS0_S0_P4int2PcS3_P4int4S0_...
GPGPU-Sim PTX:  1 (potential) branch divergence @  PC=0x1c8 (_1.ptx:158) @%p1 bra $Lt_1_7682;
GPGPU-Sim PTX:    immediate post dominator      @  PC=0x320 (_1.ptx:208) and.b32 %r11, %r3, 3;
GPGPU-Sim PTX:  2 (potential) branch divergence @  PC=0x2f8 (_1.ptx:201) @%p2 bra $Lt_1_5634;
GPGPU-Sim PTX:    immediate post dominator      @  PC=0x300 (_1.ptx:202) bra.uni $Lt_1_5122;
GPGPU-Sim PTX:  3 (potential) branch divergence @  PC=0x300 (_1.ptx:202) bra.uni $Lt_1_5122;
GPGPU-Sim PTX:    immediate post dominator      @  PC=0x320 (_1.ptx:208) and.b32 %r11, %r3, 3;
GPGPU-Sim PTX:  4 (potential) branch divergence @  PC=0x338 (_1.ptx:211) @%p3 bra $Lt_1_6146;
GPGPU-Sim PTX:    immediate post dominator      @  PC=0x408 (_1.ptx:246) mov.u32 %r18, %tid.x;
GPGPU-Sim PTX:  5 (potential) branch divergence @  PC=0x400 (_1.ptx:243) @%p4 bra $Lt_1_6658;
GPGPU-Sim PTX:    immediate post dominator      @  PC=0x408 (_1.ptx:246) mov.u32 %r18, %tid.x;
GPGPU-Sim PTX:  6 (potential) branch divergence @  PC=0x678 (_1.ptx:336) @%p5 bra $Lt_1_7170;
GPGPU-Sim PTX:    immediate post dominator      @  PC=0x698 (_1.ptx:344) mov.s32 %r56, 4;
GPGPU-Sim PTX: ... end of reconvergence points for _Z3mapPvS_iiPiS0_S0_P4int2PcS3_P4int4S0_
GPGPU-Sim PTX: ... done pre-decoding instructions for '_Z3mapPvS_iiPiS0_S0_P4int2PcS3_P4int4S0_'.
GPGPU-Sim PTX: instruction assembly for function '_Z12reduce_countPvS_iiP4int4PiS2_S2_'...   done.
GPGPU-Sim PTX: finding reconvergence points for '_Z12reduce_countPvS_iiP4int4PiS2_S2_'...
GPGPU-Sim PTX: Finding dominators for '_Z12reduce_countPvS_iiP4int4PiS2_S2_'...
GPGPU-Sim PTX: Finding immediate dominators for '_Z12reduce_countPvS_iiP4int4PiS2_S2_'...
GPGPU-Sim PTX: Finding postdominators for '_Z12reduce_countPvS_iiP4int4PiS2_S2_'...
GPGPU-Sim PTX: Finding immediate postdominators for '_Z12reduce_countPvS_iiP4int4PiS2_S2_'...
GPGPU-Sim PTX: pre-decoding instructions for '_Z12reduce_countPvS_iiP4int4PiS2_S2_'...
GPGPU-Sim PTX: reconvergence points for _Z12reduce_countPvS_iiP4int4PiS2_S2_...
GPGPU-Sim PTX: ... end of reconvergence points for _Z12reduce_countPvS_iiP4int4PiS2_S2_
GPGPU-Sim PTX: ... done pre-decoding instructions for '_Z12reduce_countPvS_iiP4int4PiS2_S2_'.
GPGPU-Sim PTX: instruction assembly for function '_Z6reducePvS_iiPiS0_S0_P4int2P4int4PcS5_S4_S0_i'...   done.
GPGPU-Sim PTX: finding reconvergence points for '_Z6reducePvS_iiPiS0_S0_P4int2P4int4PcS5_S4_S0_i'...
GPGPU-Sim PTX: Finding dominators for '_Z6reducePvS_iiPiS0_S0_P4int2P4int4PcS5_S4_S0_i'...
GPGPU-Sim PTX: Finding immediate dominators for '_Z6reducePvS_iiPiS0_S0_P4int2P4int4PcS5_S4_S0_i'...
GPGPU-Sim PTX: Finding postdominators for '_Z6reducePvS_iiPiS0_S0_P4int2P4int4PcS5_S4_S0_i'...
GPGPU-Sim PTX: Finding immediate postdominators for '_Z6reducePvS_iiPiS0_S0_P4int2P4int4PcS5_S4_S0_i'...
GPGPU-Sim PTX: pre-decoding instructions for '_Z6reducePvS_iiPiS0_S0_P4int2P4int4PcS5_S4_S0_i'...
GPGPU-Sim PTX: reconvergence points for _Z6reducePvS_iiPiS0_S0_P4int2P4int4PcS5_S4_S0_i...
GPGPU-Sim PTX: ... end of reconvergence points for _Z6reducePvS_iiPiS0_S0_P4int2P4int4PcS5_S4_S0_i
GPGPU-Sim PTX: ... done pre-decoding instructions for '_Z6reducePvS_iiPiS0_S0_P4int2P4int4PcS5_S4_S0_i'.
GPGPU-Sim PTX: instruction assembly for function '_Z14EmitInterCountiiPiS_S_'...   done.
GPGPU-Sim PTX: finding reconvergence points for '_Z14EmitInterCountiiPiS_S_'...
GPGPU-Sim PTX: Finding dominators for '_Z14EmitInterCountiiPiS_S_'...
GPGPU-Sim PTX: Finding immediate dominators for '_Z14EmitInterCountiiPiS_S_'...
GPGPU-Sim PTX: Finding postdominators for '_Z14EmitInterCountiiPiS_S_'...
GPGPU-Sim PTX: Finding immediate postdominators for '_Z14EmitInterCountiiPiS_S_'...
GPGPU-Sim PTX: pre-decoding instructions for '_Z14EmitInterCountiiPiS_S_'...
GPGPU-Sim PTX: reconvergence points for _Z14EmitInterCountiiPiS_S_...
GPGPU-Sim PTX: ... end of reconvergence points for _Z14EmitInterCountiiPiS_S_
GPGPU-Sim PTX: ... done pre-decoding instructions for '_Z14EmitInterCountiiPiS_S_'.
GPGPU-Sim PTX: instruction assembly for function '_Z16EmitIntermediatePvS_iiPiS0_S0_P4int2PcS3_P4int4S0_'...   done.
GPGPU-Sim PTX: finding reconvergence points for '_Z16EmitIntermediatePvS_iiPiS0_S0_P4int2PcS3_P4int4S0_'...
GPGPU-Sim PTX: Finding dominators for '_Z16EmitIntermediatePvS_iiPiS0_S0_P4int2PcS3_P4int4S0_'...
GPGPU-Sim PTX: Finding immediate dominators for '_Z16EmitIntermediatePvS_iiPiS0_S0_P4int2PcS3_P4int4S0_'...
GPGPU-Sim PTX: Finding postdominators for '_Z16EmitIntermediatePvS_iiPiS0_S0_P4int2PcS3_P4int4S0_'...
GPGPU-Sim PTX: Finding immediate postdominators for '_Z16EmitIntermediatePvS_iiPiS0_S0_P4int2PcS3_P4int4S0_'...
GPGPU-Sim PTX: pre-decoding instructions for '_Z16EmitIntermediatePvS_iiPiS0_S0_P4int2PcS3_P4int4S0_'...
GPGPU-Sim PTX: reconvergence points for _Z16EmitIntermediatePvS_iiPiS0_S0_P4int2PcS3_P4int4S0_...
GPGPU-Sim PTX:  1 (potential) branch divergence @  PC=0x988 (_1.ptx:482) @%p1 bra $Lt_5_3074;
GPGPU-Sim PTX:    immediate post dominator      @  PC=0x9f0 (_1.ptx:499) mov.u32 %r23, 0;
GPGPU-Sim PTX:  2 (potential) branch divergence @  PC=0x9e8 (_1.ptx:497) @%p2 bra $Lt_5_3586;
GPGPU-Sim PTX:    immediate post dominator      @  PC=0x9f0 (_1.ptx:499) mov.u32 %r23, 0;
GPGPU-Sim PTX:  3 (potential) branch divergence @  PC=0xa00 (_1.ptx:501) @%p3 bra $Lt_5_4098;
GPGPU-Sim PTX:    immediate post dominator      @  PC=0xa68 (_1.ptx:519) add.s32 %r14, %r2, %r14;
GPGPU-Sim PTX:  4 (potential) branch divergence @  PC=0xa60 (_1.ptx:516) @%p4 bra $Lt_5_4610;
GPGPU-Sim PTX:    immediate post dominator      @  PC=0xa68 (_1.ptx:519) add.s32 %r14, %r2, %r14;
GPGPU-Sim PTX:  5 (potential) branch divergence @  PC=0xae0 (_1.ptx:538) @%p5 bra $Lt_5_5122;
GPGPU-Sim PTX:    immediate post dominator      @  PC=0xb00 (_1.ptx:545) st.v4.s32 [%rd43+0], {%r31,%r2,%r32,%r4};
GPGPU-Sim PTX: ... end of reconvergence points for _Z16EmitIntermediatePvS_iiPiS0_S0_P4int2PcS3_P4int4S0_
GPGPU-Sim PTX: ... done pre-decoding instructions for '_Z16EmitIntermediatePvS_iiPiS0_S0_P4int2PcS3_P4int4S0_'.
GPGPU-Sim PTX: instruction assembly for function '_Z6GetValPvP4int4ii'...   done.
GPGPU-Sim PTX: finding reconvergence points for '_Z6GetValPvP4int4ii'...
GPGPU-Sim PTX: Finding dominators for '_Z6GetValPvP4int4ii'...
GPGPU-Sim PTX: Finding immediate dominators for '_Z6GetValPvP4int4ii'...
GPGPU-Sim PTX: Finding postdominators for '_Z6GetValPvP4int4ii'...
GPGPU-Sim PTX: Finding immediate postdominators for '_Z6GetValPvP4int4ii'...
GPGPU-Sim PTX: pre-decoding instructions for '_Z6GetValPvP4int4ii'...
GPGPU-Sim PTX: reconvergence points for _Z6GetValPvP4int4ii...
GPGPU-Sim PTX: ... end of reconvergence points for _Z6GetValPvP4int4ii
GPGPU-Sim PTX: ... done pre-decoding instructions for '_Z6GetValPvP4int4ii'.
GPGPU-Sim PTX: instruction assembly for function '_Z6GetKeyPvP4int4ii'...   done.
GPGPU-Sim PTX: finding reconvergence points for '_Z6GetKeyPvP4int4ii'...
GPGPU-Sim PTX: Finding dominators for '_Z6GetKeyPvP4int4ii'...
GPGPU-Sim PTX: Finding immediate dominators for '_Z6GetKeyPvP4int4ii'...
GPGPU-Sim PTX: Finding postdominators for '_Z6GetKeyPvP4int4ii'...
GPGPU-Sim PTX: Finding immediate postdominators for '_Z6GetKeyPvP4int4ii'...
GPGPU-Sim PTX: pre-decoding instructions for '_Z6GetKeyPvP4int4ii'...
GPGPU-Sim PTX: reconvergence points for _Z6GetKeyPvP4int4ii...
GPGPU-Sim PTX: ... end of reconvergence points for _Z6GetKeyPvP4int4ii
GPGPU-Sim PTX: ... done pre-decoding instructions for '_Z6GetKeyPvP4int4ii'.
GPGPU-Sim PTX: instruction assembly for function '_Z9EmitCountiiPiS_S_'...   done.
GPGPU-Sim PTX: finding reconvergence points for '_Z9EmitCountiiPiS_S_'...
GPGPU-Sim PTX: Finding dominators for '_Z9EmitCountiiPiS_S_'...
GPGPU-Sim PTX: Finding immediate dominators for '_Z9EmitCountiiPiS_S_'...
GPGPU-Sim PTX: Finding postdominators for '_Z9EmitCountiiPiS_S_'...
GPGPU-Sim PTX: Finding immediate postdominators for '_Z9EmitCountiiPiS_S_'...
GPGPU-Sim PTX: pre-decoding instructions for '_Z9EmitCountiiPiS_S_'...
GPGPU-Sim PTX: reconvergence points for _Z9EmitCountiiPiS_S_...
GPGPU-Sim PTX: ... end of reconvergence points for _Z9EmitCountiiPiS_S_
GPGPU-Sim PTX: ... done pre-decoding instructions for '_Z9EmitCountiiPiS_S_'.
GPGPU-Sim PTX: instruction assembly for function '_Z4EmitPcS_iiPiS0_S0_P4int2S_S_P4int4S0_'...   done.
GPGPU-Sim PTX: finding reconvergence points for '_Z4EmitPcS_iiPiS0_S0_P4int2S_S_P4int4S0_'...
GPGPU-Sim PTX: Finding dominators for '_Z4EmitPcS_iiPiS0_S0_P4int2S_S_P4int4S0_'...
GPGPU-Sim PTX: Finding immediate dominators for '_Z4EmitPcS_iiPiS0_S0_P4int2S_S_P4int4S0_'...
GPGPU-Sim PTX: Finding postdominators for '_Z4EmitPcS_iiPiS0_S0_P4int2S_S_P4int4S0_'...
GPGPU-Sim PTX: Finding immediate postdominators for '_Z4EmitPcS_iiPiS0_S0_P4int2S_S_P4int4S0_'...
GPGPU-Sim PTX: pre-decoding instructions for '_Z4EmitPcS_iiPiS0_S0_P4int2S_S_P4int4S0_'...
GPGPU-Sim PTX: reconvergence points for _Z4EmitPcS_iiPiS0_S0_P4int2S_S_P4int4S0_...
GPGPU-Sim PTX:  1 (potential) branch divergence @  PC=0xee0 (_1.ptx:716) @%p1 bra $Lt_9_3074;
GPGPU-Sim PTX:    immediate post dominator      @  PC=0xf48 (_1.ptx:733) mov.u32 %r23, 0;
GPGPU-Sim PTX:  2 (potential) branch divergence @  PC=0xf40 (_1.ptx:731) @%p2 bra $Lt_9_3586;
GPGPU-Sim PTX:    immediate post dominator      @  PC=0xf48 (_1.ptx:733) mov.u32 %r23, 0;
GPGPU-Sim PTX:  3 (potential) branch divergence @  PC=0xf58 (_1.ptx:735) @%p3 bra $Lt_9_4098;
GPGPU-Sim PTX:    immediate post dominator      @  PC=0xfc0 (_1.ptx:752) ld.v2.s32 {%r28,%r29}, [%rd24+0];
GPGPU-Sim PTX:  4 (potential) branch divergence @  PC=0xfb8 (_1.ptx:750) @%p4 bra $Lt_9_4610;
GPGPU-Sim PTX:    immediate post dominator      @  PC=0xfc0 (_1.ptx:752) ld.v2.s32 {%r28,%r29}, [%rd24+0];
GPGPU-Sim PTX:  5 (potential) branch divergence @  PC=0x1008 (_1.ptx:763) @%p5 bra $Lt_9_5122;
GPGPU-Sim PTX:    immediate post dominator      @  PC=0x10a0 (_1.ptx:786) ld.s32 %r45, [%rd40+0];
GPGPU-Sim PTX: ... end of reconvergence points for _Z4EmitPcS_iiPiS0_S0_P4int2S_S_P4int4S0_
GPGPU-Sim PTX: ... done pre-decoding instructions for '_Z4EmitPcS_iiPiS0_S0_P4int2S_S_P4int4S0_'.
GPGPU-Sim PTX: instruction assembly for function '_Z11MapperCountPcS_P4int4PiS2_S2_iii'...   done.
GPGPU-Sim PTX: finding reconvergence points for '_Z11MapperCountPcS_P4int4PiS2_S2_iii'...
GPGPU-Sim PTX: Finding dominators for '_Z11MapperCountPcS_P4int4PiS2_S2_iii'...
GPGPU-Sim PTX: Finding immediate dominators for '_Z11MapperCountPcS_P4int4PiS2_S2_iii'...
GPGPU-Sim PTX: Finding postdominators for '_Z11MapperCountPcS_P4int4PiS2_S2_iii'...
GPGPU-Sim PTX: Finding immediate postdominators for '_Z11MapperCountPcS_P4int4PiS2_S2_iii'...
GPGPU-Sim PTX: pre-decoding instructions for '_Z11MapperCountPcS_P4int4PiS2_S2_iii'...
GPGPU-Sim PTX: reconvergence points for _Z11MapperCountPcS_P4int4PiS2_S2_iii...
GPGPU-Sim PTX:  1 (potential) branch divergence @  PC=0x1190 (_1.ptx:838) @%p1 bra $Lt_10_4354;
GPGPU-Sim PTX:    immediate post dominator      @  PC=0x12a0 (_1.ptx:882) exit;
GPGPU-Sim PTX:  2 (potential) branch divergence @  PC=0x1198 (_1.ptx:839) bra.uni $LBB7__Z11MapperCountPcS_P4int4PiS2_S2_iii;
GPGPU-Sim PTX:    immediate post dominator      @  PC=0x12a0 (_1.ptx:882) exit;
GPGPU-Sim PTX:  3 (potential) branch divergence @  PC=0x11f8 (_1.ptx:853) @%p3 bra $LBB7__Z11MapperCountPcS_P4int4PiS2_S2_iii;
GPGPU-Sim PTX:    immediate post dominator      @  PC=0x12a0 (_1.ptx:882) exit;
GPGPU-Sim PTX:  4 (potential) branch divergence @  PC=0x1298 (_1.ptx:879) @%p4 bra $Lt_10_3842;
GPGPU-Sim PTX:    immediate post dominator      @  PC=0x12a0 (_1.ptx:882) exit;
GPGPU-Sim PTX: ... end of reconvergence points for _Z11MapperCountPcS_P4int4PiS2_S2_iii
GPGPU-Sim PTX: ... done pre-decoding instructions for '_Z11MapperCountPcS_P4int4PiS2_S2_iii'.
GPGPU-Sim PTX: instruction assembly for function '_Z6MapperPcS_P4int4PiS2_S2_P4int2S_S_S1_S2_iii'...   done.
GPGPU-Sim PTX: finding reconvergence points for '_Z6MapperPcS_P4int4PiS2_S2_P4int2S_S_S1_S2_iii'...
GPGPU-Sim PTX: Finding dominators for '_Z6MapperPcS_P4int4PiS2_S2_P4int2S_S_S1_S2_iii'...
GPGPU-Sim PTX: Finding immediate dominators for '_Z6MapperPcS_P4int4PiS2_S2_P4int2S_S_S1_S2_iii'...
GPGPU-Sim PTX: Finding postdominators for '_Z6MapperPcS_P4int4PiS2_S2_P4int2S_S_S1_S2_iii'...
GPGPU-Sim PTX: Finding immediate postdominators for '_Z6MapperPcS_P4int4PiS2_S2_P4int2S_S_S1_S2_iii'...
GPGPU-Sim PTX: pre-decoding instructions for '_Z6MapperPcS_P4int4PiS2_S2_P4int2S_S_S1_S2_iii'...
GPGPU-Sim PTX: reconvergence points for _Z6MapperPcS_P4int4PiS2_S2_P4int2S_S_S1_S2_iii...
GPGPU-Sim PTX:  1 (potential) branch divergence @  PC=0x1310 (_1.ptx:921) @%p1 bra $Lt_11_7682;
GPGPU-Sim PTX:    immediate post dominator      @  PC=0x1980 (_1.ptx:1175) exit;
GPGPU-Sim PTX:  2 (potential) branch divergence @  PC=0x1318 (_1.ptx:922) bra.uni $LBB19__Z6MapperPcS_P4int4PiS2_S2_P4int2S_S_S1_S2_iii;
GPGPU-Sim PTX:    immediate post dominator      @  PC=0x1980 (_1.ptx:1175) exit;
GPGPU-Sim PTX:  3 (potential) branch divergence @  PC=0x1408 (_1.ptx:958) @%p3 bra $LBB19__Z6MapperPcS_P4int4PiS2_S2_P4int2S_S_S1_S2_iii;
GPGPU-Sim PTX:    immediate post dominator      @  PC=0x1980 (_1.ptx:1175) exit;
GPGPU-Sim PTX:  4 (potential) branch divergence @  PC=0x1518 (_1.ptx:999) @%p4 bra $Lt_11_12034;
GPGPU-Sim PTX:    immediate post dominator      @  PC=0x1670 (_1.ptx:1049) and.b32 %r40, %r32, 3;
GPGPU-Sim PTX:  5 (potential) branch divergence @  PC=0x1648 (_1.ptx:1042) @%p5 bra $Lt_11_9474;
GPGPU-Sim PTX:    immediate post dominator      @  PC=0x1650 (_1.ptx:1043) bra.uni $Lt_11_8962;
GPGPU-Sim PTX:  6 (potential) branch divergence @  PC=0x1650 (_1.ptx:1043) bra.uni $Lt_11_8962;
GPGPU-Sim PTX:    immediate post dominator      @  PC=0x1670 (_1.ptx:1049) and.b32 %r40, %r32, 3;
GPGPU-Sim PTX:  7 (potential) branch divergence @  PC=0x1688 (_1.ptx:1052) @%p6 bra $Lt_11_9986;
GPGPU-Sim PTX:    immediate post dominator      @  PC=0x1758 (_1.ptx:1087) sqrt.rn.f32 %f26, %f1;
GPGPU-Sim PTX:  8 (potential) branch divergence @  PC=0x1750 (_1.ptx:1084) @%p7 bra $Lt_11_10498;
GPGPU-Sim PTX:    immediate post dominator      @  PC=0x1758 (_1.ptx:1087) sqrt.rn.f32 %f26, %f1;
GPGPU-Sim PTX:  9 (potential) branch divergence @  PC=0x1918 (_1.ptx:1154) @%p8 bra $Lt_11_11010;
GPGPU-Sim PTX:    immediate post dominator      @  PC=0x1938 (_1.ptx:1162) mov.s32 %r75, 4;
GPGPU-Sim PTX: 10 (potential) branch divergence @  PC=0x1978 (_1.ptx:1172) @%p9 bra $Lt_11_8706;
GPGPU-Sim PTX:    immediate post dominator      @  PC=0x1980 (_1.ptx:1175) exit;
GPGPU-Sim PTX: ... end of reconvergence points for _Z6MapperPcS_P4int4PiS2_S2_P4int2S_S_S1_S2_iii
GPGPU-Sim PTX: ... done pre-decoding instructions for '_Z6MapperPcS_P4int4PiS2_S2_P4int2S_S_S1_S2_iii'.
GPGPU-Sim PTX: instruction assembly for function '_Z12ReducerCountPcS_P4int4P4int2PiS4_S4_iii'...   done.
GPGPU-Sim PTX: finding reconvergence points for '_Z12ReducerCountPcS_P4int4P4int2PiS4_S4_iii'...
GPGPU-Sim PTX: Finding dominators for '_Z12ReducerCountPcS_P4int4P4int2PiS4_S4_iii'...
GPGPU-Sim PTX: Finding immediate dominators for '_Z12ReducerCountPcS_P4int4P4int2PiS4_S4_iii'...
GPGPU-Sim PTX: Finding postdominators for '_Z12ReducerCountPcS_P4int4P4int2PiS4_S4_iii'...
GPGPU-Sim PTX: Finding immediate postdominators for '_Z12ReducerCountPcS_P4int4P4int2PiS4_S4_iii'...
GPGPU-Sim PTX: pre-decoding instructions for '_Z12ReducerCountPcS_P4int4P4int2PiS4_S4_iii'...
GPGPU-Sim PTX: reconvergence points for _Z12ReducerCountPcS_P4int4P4int2PiS4_S4_iii...
GPGPU-Sim PTX: ... end of reconvergence points for _Z12ReducerCountPcS_P4int4P4int2PiS4_S4_iii
GPGPU-Sim PTX: ... done pre-decoding instructions for '_Z12ReducerCountPcS_P4int4P4int2PiS4_S4_iii'.
GPGPU-Sim PTX: instruction assembly for function '_Z7ReducerPcS_P4int4P4int2PiS4_S4_S_S_S1_S3_S4_iii'...   done.
GPGPU-Sim PTX: finding reconvergence points for '_Z7ReducerPcS_P4int4P4int2PiS4_S4_S_S_S1_S3_S4_iii'...
GPGPU-Sim PTX: Finding dominators for '_Z7ReducerPcS_P4int4P4int2PiS4_S4_S_S_S1_S3_S4_iii'...
GPGPU-Sim PTX: Finding immediate dominators for '_Z7ReducerPcS_P4int4P4int2PiS4_S4_S_S_S1_S3_S4_iii'...
GPGPU-Sim PTX: Finding postdominators for '_Z7ReducerPcS_P4int4P4int2PiS4_S4_S_S_S1_S3_S4_iii'...
GPGPU-Sim PTX: Finding immediate postdominators for '_Z7ReducerPcS_P4int4P4int2PiS4_S4_S_S_S1_S3_S4_iii'...
GPGPU-Sim PTX: pre-decoding instructions for '_Z7ReducerPcS_P4int4P4int2PiS4_S4_S_S_S1_S3_S4_iii'...
GPGPU-Sim PTX: reconvergence points for _Z7ReducerPcS_P4int4P4int2PiS4_S4_S_S_S1_S3_S4_iii...
GPGPU-Sim PTX:  1 (potential) branch divergence @  PC=0x1a60 (_1.ptx:1249) @%p1 bra $Lt_13_3074;
GPGPU-Sim PTX:    immediate post dominator      @  PC=0x1b18 (_1.ptx:1277) exit;
GPGPU-Sim PTX:  2 (potential) branch divergence @  PC=0x1a68 (_1.ptx:1250) bra.uni $LBB4__Z7ReducerPcS_P4int4P4int2PiS4_S4_S_S_S1_S3_S4_iii;
GPGPU-Sim PTX:    immediate post dominator      @  PC=0x1b18 (_1.ptx:1277) exit;
GPGPU-Sim PTX: ... end of reconvergence points for _Z7ReducerPcS_P4int4P4int2PiS4_S4_S_S_S1_S3_S4_iii
GPGPU-Sim PTX: ... done pre-decoding instructions for '_Z7ReducerPcS_P4int4P4int2PiS4_S4_S_S_S1_S3_S4_iii'.
GPGPU-Sim PTX: finished parsing EMBEDDED .ptx file _1.ptx
Adding _cuobjdump_4.ptx with cubin handle 1
GPGPU-Sim PTX: extracting embedded .ptx to temporary file "_ptx_qMDkKJ"
Running: cat _ptx_qMDkKJ | sed 's/.version 1.5/.version 1.4/' | sed 's/, texmode_independent//' | sed 's/\(\.extern \.const\[1\] .b8 \w\+\)\[\]/\1\[1\]/' | sed 's/const\[.\]/const\[0\]/g' > _ptx2_MuKRnh
GPGPU-Sim PTX: generating ptxinfo using "$CUDA_INSTALL_PATH/bin/ptxas --gpu-name=sm_20 -v _ptx2_MuKRnh --output-file  /dev/null 2> _ptx_qMDkKJinfo"
GPGPU-Sim PTX: Kernel '_Z7ReducerPcS_P4int4P4int2PiS4_S4_S_S_S1_S3_S4_iii' : regs=12, lmem=0, smem=0, cmem=140
GPGPU-Sim PTX: Kernel '_Z12ReducerCountPcS_P4int4P4int2PiS4_S4_iii' : regs=2, lmem=0, smem=0, cmem=100
GPGPU-Sim PTX: Kernel '_Z6MapperPcS_P4int4PiS2_S2_P4int2S_S_S1_S2_iii' : regs=42, lmem=0, smem=0, cmem=152
GPGPU-Sim PTX: Kernel '_Z11MapperCountPcS_P4int4PiS2_S2_iii' : regs=10, lmem=0, smem=0, cmem=92
GPGPU-Sim PTX: removing ptxinfo using "rm -f _ptx_qMDkKJ _ptx2_MuKRnh _ptx_qMDkKJinfo"
GPGPU-Sim PTX: loading globals with explicit initializers... 
GPGPU-Sim PTX: finished loading globals (0 bytes total).
GPGPU-Sim PTX: loading constants with explicit initializers...  done.
GPGPU-Sim PTX: __cudaRegisterFunction _Z12ReducerCountPcS_P4int4P4int2PiS4_S4_iii : hostFun 0x0x408f12, fat_cubin_handle = 1
GPGPU-Sim PTX: __cudaRegisterFunction _Z6MapperPcS_P4int4PiS2_S2_P4int2S_S_S1_S2_iii : hostFun 0x0x408cd8, fat_cubin_handle = 1
GPGPU-Sim PTX: __cudaRegisterFunction _Z11MapperCountPcS_P4int4PiS2_S2_iii : hostFun 0x0x408a33, fat_cubin_handle = 1
GPGPU-Sim PTX: __cudaRegisterFatBinary, fat_cubin_handle = 2, filename=MarsSort.cu
GPGPU-Sim PTX: __cudaRegisterFunction _Z20writeBoundary_kerneliiPiS_S_ : hostFun 0x0x405d57, fat_cubin_handle = 2
GPGPU-Sim PTX: allocating stack frame region for .param "__cudaretf__Z7comparePKviS0_i" from 0x0 to 0x4
GPGPU-Sim PTX: allocating stack frame region for .param "__cudaparmf1__Z7comparePKviS0_i" from 0x4 to 0xc
GPGPU-Sim PTX: allocating stack frame region for .param "__cudaparmf2__Z7comparePKviS0_i" from 0xc to 0x10
GPGPU-Sim PTX: allocating stack frame region for .param "__cudaparmf3__Z7comparePKviS0_i" from 0x10 to 0x18
GPGPU-Sim PTX: allocating stack frame region for .param "__cudaparmf4__Z7comparePKviS0_i" from 0x18 to 0x1c
GPGPU-Sim PTX: allocating stack frame region for .param "__cudaretf__Z15getCompareValuePv4int4S0_" from 0x0 to 0x4
GPGPU-Sim PTX: allocating stack frame region for .param "__cudaparmf1__Z15getCompareValuePv4int4S0_" from 0x4 to 0xc
GPGPU-Sim PTX: allocating stack frame region for .param "__cudaparmf2__Z15getCompareValuePv4int4S0_" from 0xc to 0x1c
GPGPU-Sim PTX: allocating stack frame region for .param "__cudaparmf3__Z15getCompareValuePv4int4S0_" from 0x1c to 0x2c
GPGPU-Sim PTX: instruction assembly for function '_Z7comparePKviS0_i'...   done.
GPGPU-Sim PTX: finding reconvergence points for '_Z7comparePKviS0_i'...
GPGPU-Sim PTX: Finding dominators for '_Z7comparePKviS0_i'...
GPGPU-Sim PTX: Finding immediate dominators for '_Z7comparePKviS0_i'...
GPGPU-Sim PTX: Finding postdominators for '_Z7comparePKviS0_i'...
GPGPU-Sim PTX: Finding immediate postdominators for '_Z7comparePKviS0_i'...
GPGPU-Sim PTX: pre-decoding instructions for '_Z7comparePKviS0_i'...
GPGPU-Sim PTX: reconvergence points for _Z7comparePKviS0_i...
GPGPU-Sim PTX:  1 (potential) branch divergence @  PC=0x1b70 (_2.ptx:77) @!%p1 bra $Lt_0_1794;
GPGPU-Sim PTX:    immediate post dominator      @  PC=0x1bb0 (_2.ptx:91) mov.s32 %r2, %r1;
GPGPU-Sim PTX:  2 (potential) branch divergence @  PC=0x1b80 (_2.ptx:80) bra.uni $LBB6__Z7comparePKviS0_i;
GPGPU-Sim PTX:    immediate post dominator      @  PC=0x1bb0 (_2.ptx:91) mov.s32 %r2, %r1;
GPGPU-Sim PTX:  3 (potential) branch divergence @  PC=0x1b90 (_2.ptx:83) @!%p2 bra $Lt_0_2306;
GPGPU-Sim PTX:    immediate post dominator      @  PC=0x1bb0 (_2.ptx:91) mov.s32 %r2, %r1;
GPGPU-Sim PTX:  4 (potential) branch divergence @  PC=0x1ba0 (_2.ptx:86) bra.uni $LBB6__Z7comparePKviS0_i;
GPGPU-Sim PTX:    immediate post dominator      @  PC=0x1bb0 (_2.ptx:91) mov.s32 %r2, %r1;
GPGPU-Sim PTX: ... end of reconvergence points for _Z7comparePKviS0_i
GPGPU-Sim PTX: ... done pre-decoding instructions for '_Z7comparePKviS0_i'.
GPGPU-Sim PTX: instruction assembly for function '_Z15getCompareValuePv4int4S0_'...   done.
GPGPU-Sim PTX: finding reconvergence points for '_Z15getCompareValuePv4int4S0_'...
GPGPU-Sim PTX: Finding dominators for '_Z15getCompareValuePv4int4S0_'...
GPGPU-Sim PTX: Finding immediate dominators for '_Z15getCompareValuePv4int4S0_'...
GPGPU-Sim PTX: Finding postdominators for '_Z15getCompareValuePv4int4S0_'...
GPGPU-Sim PTX: Finding immediate postdominators for '_Z15getCompareValuePv4int4S0_'...
GPGPU-Sim PTX: pre-decoding instructions for '_Z15getCompareValuePv4int4S0_'...
GPGPU-Sim PTX: reconvergence points for _Z15getCompareValuePv4int4S0_...
GPGPU-Sim PTX:  1 (potential) branch divergence @  PC=0x1c40 (_2.ptx:120) @%p2 bra $Lt_1_5122;
GPGPU-Sim PTX:    immediate post dominator      @  PC=0x1d20 (_2.ptx:162) mov.s32 %r16, %r12;
GPGPU-Sim PTX:  2 (potential) branch divergence @  PC=0x1c50 (_2.ptx:122) @%p3 bra $Lt_1_5634;
GPGPU-Sim PTX:    immediate post dominator      @  PC=0x1d20 (_2.ptx:162) mov.s32 %r16, %r12;
GPGPU-Sim PTX:  3 (potential) branch divergence @  PC=0x1c60 (_2.ptx:124) bra.uni $Lt_1_4866;
GPGPU-Sim PTX:    immediate post dominator      @  PC=0x1d20 (_2.ptx:162) mov.s32 %r16, %r12;
GPGPU-Sim PTX:  4 (potential) branch divergence @  PC=0x1c80 (_2.ptx:130) bra.uni $Lt_1_4866;
GPGPU-Sim PTX:    immediate post dominator      @  PC=0x1d20 (_2.ptx:162) mov.s32 %r16, %r12;
GPGPU-Sim PTX:  5 (potential) branch divergence @  PC=0x1cd8 (_2.ptx:144) @!%p4 bra $Lt_1_5890;
GPGPU-Sim PTX:    immediate post dominator      @  PC=0x1d18 (_2.ptx:159) mov.s32 %r12, %r15;
GPGPU-Sim PTX:  6 (potential) branch divergence @  PC=0x1ce8 (_2.ptx:147) bra.uni $LDWendi__Z7comparePKviS0_i_181_1;
GPGPU-Sim PTX:    immediate post dominator      @  PC=0x1d18 (_2.ptx:159) mov.s32 %r12, %r15;
GPGPU-Sim PTX:  7 (potential) branch divergence @  PC=0x1cf8 (_2.ptx:150) @!%p5 bra $Lt_1_6402;
GPGPU-Sim PTX:    immediate post dominator      @  PC=0x1d18 (_2.ptx:159) mov.s32 %r12, %r15;
GPGPU-Sim PTX:  8 (potential) branch divergence @  PC=0x1d08 (_2.ptx:153) bra.uni $LDWendi__Z7comparePKviS0_i_181_1;
GPGPU-Sim PTX:    immediate post dominator      @  PC=0x1d18 (_2.ptx:159) mov.s32 %r12, %r15;
GPGPU-Sim PTX: ... end of reconvergence points for _Z15getCompareValuePv4int4S0_
GPGPU-Sim PTX: ... done pre-decoding instructions for '_Z15getCompareValuePv4int4S0_'.
GPGPU-Sim PTX: allocating shared region for "__cuda___cuda_local_var_45740_37_non_const_shared48" from 0x0 to 0x1000 (shared memory space)
GPGPU-Sim PTX: instruction assembly for function '_Z21partBitonicSortKernelPviP4int4jii'...   done.
GPGPU-Sim PTX: finding reconvergence points for '_Z21partBitonicSortKernelPviP4int4jii'...
GPGPU-Sim PTX: Finding dominators for '_Z21partBitonicSortKernelPviP4int4jii'...
GPGPU-Sim PTX: Finding immediate dominators for '_Z21partBitonicSortKernelPviP4int4jii'...
GPGPU-Sim PTX: Finding postdominators for '_Z21partBitonicSortKernelPviP4int4jii'...
GPGPU-Sim PTX: Finding immediate postdominators for '_Z21partBitonicSortKernelPviP4int4jii'...
GPGPU-Sim PTX: pre-decoding instructions for '_Z21partBitonicSortKernelPviP4int4jii'...
GPGPU-Sim PTX: reconvergence points for _Z21partBitonicSortKernelPviP4int4jii...
GPGPU-Sim PTX:  1 (potential) branch divergence @  PC=0x1e08 (_2.ptx:211) @%p1 bra $Lt_2_24322;
GPGPU-Sim PTX:    immediate post dominator      @  PC=0x2248 (_2.ptx:399) ld.shared.v4.s32 {%r69,%r70,%r71,%r72}, [%rd4+0];
GPGPU-Sim PTX:  2 (potential) branch divergence @  PC=0x1e50 (_2.ptx:223) @%p2 bra $Lt_2_23298;
GPGPU-Sim PTX:    immediate post dominator      @  PC=0x2000 (_2.ptx:298) bar.sync 0;
GPGPU-Sim PTX:  3 (potential) branch divergence @  PC=0x1ea0 (_2.ptx:234) @%p4 bra $Lt_2_20482;
GPGPU-Sim PTX:    immediate post dominator      @  PC=0x1f88 (_2.ptx:277) and.b32 %r40, %r6, 256;
GPGPU-Sim PTX:  4 (potential) branch divergence @  PC=0x1eb0 (_2.ptx:236) @%p5 bra $Lt_2_20994;
GPGPU-Sim PTX:    immediate post dominator      @  PC=0x1f88 (_2.ptx:277) and.b32 %r40, %r6, 256;
GPGPU-Sim PTX:  5 (potential) branch divergence @  PC=0x1ec0 (_2.ptx:238) bra.uni $Lt_2_20226;
GPGPU-Sim PTX:    immediate post dominator      @  PC=0x1f88 (_2.ptx:277) and.b32 %r40, %r6, 256;
GPGPU-Sim PTX:  6 (potential) branch divergence @  PC=0x1ee0 (_2.ptx:244) bra.uni $Lt_2_20226;
GPGPU-Sim PTX:    immediate post dominator      @  PC=0x1f88 (_2.ptx:277) and.b32 %r40, %r6, 256;
GPGPU-Sim PTX:  7 (potential) branch divergence @  PC=0x1f40 (_2.ptx:259) @!%p6 bra $Lt_2_21250;
GPGPU-Sim PTX:    immediate post dominator      @  PC=0x1f80 (_2.ptx:274) mov.s32 %r36, %r39;
GPGPU-Sim PTX:  8 (potential) branch divergence @  PC=0x1f50 (_2.ptx:262) bra.uni $LDWendi__Z7comparePKviS0_i_182_3;
GPGPU-Sim PTX:    immediate post dominator      @  PC=0x1f80 (_2.ptx:274) mov.s32 %r36, %r39;
GPGPU-Sim PTX:  9 (potential) branch divergence @  PC=0x1f60 (_2.ptx:265) @!%p7 bra $Lt_2_21762;
GPGPU-Sim PTX:    immediate post dominator      @  PC=0x1f80 (_2.ptx:274) mov.s32 %r36, %r39;
GPGPU-Sim PTX: 10 (potential) branch divergence @  PC=0x1f70 (_2.ptx:268) bra.uni $LDWendi__Z7comparePKviS0_i_182_3;
GPGPU-Sim PTX:    immediate post dominator      @  PC=0x1f80 (_2.ptx:274) mov.s32 %r36, %r39;
GPGPU-Sim PTX: 11 (potential) branch divergence @  PC=0x1fa0 (_2.ptx:280) @%p8 bra $Lt_2_22530;
GPGPU-Sim PTX:    immediate post dominator      @  PC=0x2000 (_2.ptx:298) bar.sync 0;
GPGPU-Sim PTX: 12 (potential) branch divergence @  PC=0x1fb8 (_2.ptx:283) @%p9 bra $Lt_2_23298;
GPGPU-Sim PTX:    immediate post dominator      @  PC=0x2000 (_2.ptx:298) bar.sync 0;
GPGPU-Sim PTX: 13 (potential) branch divergence @  PC=0x1fd0 (_2.ptx:286) bra.uni $Lt_2_23298;
GPGPU-Sim PTX:    immediate post dominator      @  PC=0x2000 (_2.ptx:298) bar.sync 0;
GPGPU-Sim PTX: 14 (potential) branch divergence @  PC=0x1fe8 (_2.ptx:291) @%p10 bra $Lt_2_23298;
GPGPU-Sim PTX:    immediate post dominator      @  PC=0x2000 (_2.ptx:298) bar.sync 0;
GPGPU-Sim PTX: 15 (potential) branch divergence @  PC=0x2020 (_2.ptx:303) @%p11 bra $Lt_2_19458;
GPGPU-Sim PTX:    immediate post dominator      @  PC=0x2028 (_2.ptx:304) bra.uni $Lt_2_18434;
GPGPU-Sim PTX: 16 (potential) branch divergence @  PC=0x2028 (_2.ptx:304) bra.uni $Lt_2_18434;
GPGPU-Sim PTX:    immediate post dominator      @  PC=0x2248 (_2.ptx:399) ld.shared.v4.s32 {%r69,%r70,%r71,%r72}, [%rd4+0];
GPGPU-Sim PTX: 17 (potential) branch divergence @  PC=0x2070 (_2.ptx:317) @%p12 bra $Lt_2_28418;
GPGPU-Sim PTX:    immediate post dominator      @  PC=0x2220 (_2.ptx:392) bar.sync 0;
GPGPU-Sim PTX: 18 (potential) branch divergence @  PC=0x20c0 (_2.ptx:328) @%p14 bra $Lt_2_25602;
GPGPU-Sim PTX:    immediate post dominator      @  PC=0x21a8 (_2.ptx:371) and.b32 %r64, %r6, 256;
GPGPU-Sim PTX: 19 (potential) branch divergence @  PC=0x20d0 (_2.ptx:330) @%p15 bra $Lt_2_26114;
GPGPU-Sim PTX:    immediate post dominator      @  PC=0x21a8 (_2.ptx:371) and.b32 %r64, %r6, 256;
GPGPU-Sim PTX: 20 (potential) branch divergence @  PC=0x20e0 (_2.ptx:332) bra.uni $Lt_2_25346;
GPGPU-Sim PTX:    immediate post dominator      @  PC=0x21a8 (_2.ptx:371) and.b32 %r64, %r6, 256;
GPGPU-Sim PTX: 21 (potential) branch divergence @  PC=0x2100 (_2.ptx:338) bra.uni $Lt_2_25346;
GPGPU-Sim PTX:    immediate post dominator      @  PC=0x21a8 (_2.ptx:371) and.b32 %r64, %r6, 256;
GPGPU-Sim PTX: 22 (potential) branch divergence @  PC=0x2160 (_2.ptx:353) @!%p16 bra $Lt_2_26370;
GPGPU-Sim PTX:    immediate post dominator      @  PC=0x21a0 (_2.ptx:368) mov.s32 %r36, %r39;
GPGPU-Sim PTX: 23 (potential) branch divergence @  PC=0x2170 (_2.ptx:356) bra.uni $LDWendi__Z7comparePKviS0_i_182_1;
GPGPU-Sim PTX:    immediate post dominator      @  PC=0x21a0 (_2.ptx:368) mov.s32 %r36, %r39;
GPGPU-Sim PTX: 24 (potential) branch divergence @  PC=0x2180 (_2.ptx:359) @!%p17 bra $Lt_2_26882;
GPGPU-Sim PTX:    immediate post dominator      @  PC=0x21a0 (_2.ptx:368) mov.s32 %r36, %r39;
GPGPU-Sim PTX: 25 (potential) branch divergence @  PC=0x2190 (_2.ptx:362) bra.uni $LDWendi__Z7comparePKviS0_i_182_1;
GPGPU-Sim PTX:    immediate post dominator      @  PC=0x21a0 (_2.ptx:368) mov.s32 %r36, %r39;
GPGPU-Sim PTX: 26 (potential) branch divergence @  PC=0x21c0 (_2.ptx:374) @%p18 bra $Lt_2_27650;
GPGPU-Sim PTX:    immediate post dominator      @  PC=0x2220 (_2.ptx:392) bar.sync 0;
GPGPU-Sim PTX: 27 (potential) branch divergence @  PC=0x21d8 (_2.ptx:377) @%p19 bra $Lt_2_28418;
GPGPU-Sim PTX:    immediate post dominator      @  PC=0x2220 (_2.ptx:392) bar.sync 0;
GPGPU-Sim PTX: 28 (potential) branch divergence @  PC=0x21f0 (_2.ptx:380) bra.uni $Lt_2_28418;
GPGPU-Sim PTX:    immediate post dominator      @  PC=0x2220 (_2.ptx:392) bar.sync 0;
GPGPU-Sim PTX: 29 (potential) branch divergence @  PC=0x2208 (_2.ptx:385) @%p20 bra $Lt_2_28418;
GPGPU-Sim PTX:    immediate post dominator      @  PC=0x2220 (_2.ptx:392) bar.sync 0;
GPGPU-Sim PTX: 30 (potential) branch divergence @  PC=0x2240 (_2.ptx:397) @%p21 bra $Lt_2_24578;
GPGPU-Sim PTX:    immediate post dominator      @  PC=0x2248 (_2.ptx:399) ld.shared.v4.s32 {%r69,%r70,%r71,%r72}, [%rd4+0];
GPGPU-Sim PTX: ... end of reconvergence points for _Z21partBitonicSortKernelPviP4int4jii
GPGPU-Sim PTX: ... done pre-decoding instructions for '_Z21partBitonicSortKernelPviP4int4jii'.
GPGPU-Sim PTX: allocating shared region for "__cuda___cuda_local_var_45823_37_non_const_shared4176" from 0x0 to 0x1000 (shared memory space)
GPGPU-Sim PTX: instruction assembly for function '_Z21unitBitonicSortKernelPviP4int4ji'...   done.
GPGPU-Sim PTX: finding reconvergence points for '_Z21unitBitonicSortKernelPviP4int4ji'...
GPGPU-Sim PTX: Finding dominators for '_Z21unitBitonicSortKernelPviP4int4ji'...
GPGPU-Sim PTX: Finding immediate dominators for '_Z21unitBitonicSortKernelPviP4int4ji'...
GPGPU-Sim PTX: Finding postdominators for '_Z21unitBitonicSortKernelPviP4int4ji'...
GPGPU-Sim PTX: Finding immediate postdominators for '_Z21unitBitonicSortKernelPviP4int4ji'...
GPGPU-Sim PTX: pre-decoding instructions for '_Z21unitBitonicSortKernelPviP4int4ji'...
GPGPU-Sim PTX: reconvergence points for _Z21unitBitonicSortKernelPviP4int4ji...
GPGPU-Sim PTX:  1 (potential) branch divergence @  PC=0x2320 (_2.ptx:446) @%p1 bra $Lt_3_27394;
GPGPU-Sim PTX:    immediate post dominator      @  PC=0x27f0 (_2.ptx:660) ld.shared.v4.s32 {%r75,%r76,%r77,%r78}, [%rd4+0];
GPGPU-Sim PTX:  2 (potential) branch divergence @  PC=0x2350 (_2.ptx:455) @%p2 bra $Lt_3_21762;
GPGPU-Sim PTX:    immediate post dominator      @  PC=0x2568 (_2.ptx:548) shl.b32 %r17, %r17, 1;
GPGPU-Sim PTX:  3 (potential) branch divergence @  PC=0x2390 (_2.ptx:465) @%p3 bra $Lt_3_26114;
GPGPU-Sim PTX:    immediate post dominator      @  PC=0x2540 (_2.ptx:540) bar.sync 0;
GPGPU-Sim PTX:  4 (potential) branch divergence @  PC=0x23e0 (_2.ptx:476) @%p5 bra $Lt_3_23298;
GPGPU-Sim PTX:    immediate post dominator      @  PC=0x24c8 (_2.ptx:519) and.b32 %r41, %r17, %r6;
GPGPU-Sim PTX:  5 (potential) branch divergence @  PC=0x23f0 (_2.ptx:478) @%p6 bra $Lt_3_23810;
GPGPU-Sim PTX:    immediate post dominator      @  PC=0x24c8 (_2.ptx:519) and.b32 %r41, %r17, %r6;
GPGPU-Sim PTX:  6 (potential) branch divergence @  PC=0x2400 (_2.ptx:480) bra.uni $Lt_3_23042;
GPGPU-Sim PTX:    immediate post dominator      @  PC=0x24c8 (_2.ptx:519) and.b32 %r41, %r17, %r6;
GPGPU-Sim PTX:  7 (potential) branch divergence @  PC=0x2420 (_2.ptx:486) bra.uni $Lt_3_23042;
GPGPU-Sim PTX:    immediate post dominator      @  PC=0x24c8 (_2.ptx:519) and.b32 %r41, %r17, %r6;
GPGPU-Sim PTX:  8 (potential) branch divergence @  PC=0x2480 (_2.ptx:501) @!%p7 bra $Lt_3_24066;
GPGPU-Sim PTX:    immediate post dominator      @  PC=0x24c0 (_2.ptx:516) mov.s32 %r37, %r40;
GPGPU-Sim PTX:  9 (potential) branch divergence @  PC=0x2490 (_2.ptx:504) bra.uni $LDWendi__Z7comparePKviS0_i_183_3;
GPGPU-Sim PTX:    immediate post dominator      @  PC=0x24c0 (_2.ptx:516) mov.s32 %r37, %r40;
GPGPU-Sim PTX: 10 (potential) branch divergence @  PC=0x24a0 (_2.ptx:507) @!%p8 bra $Lt_3_24578;
GPGPU-Sim PTX:    immediate post dominator      @  PC=0x24c0 (_2.ptx:516) mov.s32 %r37, %r40;
GPGPU-Sim PTX: 11 (potential) branch divergence @  PC=0x24b0 (_2.ptx:510) bra.uni $LDWendi__Z7comparePKviS0_i_183_3;
GPGPU-Sim PTX:    immediate post dominator      @  PC=0x24c0 (_2.ptx:516) mov.s32 %r37, %r40;
GPGPU-Sim PTX: 12 (potential) branch divergence @  PC=0x24e0 (_2.ptx:522) @%p9 bra $Lt_3_25346;
GPGPU-Sim PTX:    immediate post dominator      @  PC=0x2540 (_2.ptx:540) bar.sync 0;
GPGPU-Sim PTX: 13 (potential) branch divergence @  PC=0x24f8 (_2.ptx:525) @%p10 bra $Lt_3_26114;
GPGPU-Sim PTX:    immediate post dominator      @  PC=0x2540 (_2.ptx:540) bar.sync 0;
GPGPU-Sim PTX: 14 (potential) branch divergence @  PC=0x2510 (_2.ptx:528) bra.uni $Lt_3_26114;
GPGPU-Sim PTX:    immediate post dominator      @  PC=0x2540 (_2.ptx:540) bar.sync 0;
GPGPU-Sim PTX: 15 (potential) branch divergence @  PC=0x2528 (_2.ptx:533) @%p11 bra $Lt_3_26114;
GPGPU-Sim PTX:    immediate post dominator      @  PC=0x2540 (_2.ptx:540) bar.sync 0;
GPGPU-Sim PTX: 16 (potential) branch divergence @  PC=0x2560 (_2.ptx:545) @%p12 bra $Lt_3_22274;
GPGPU-Sim PTX:    immediate post dominator      @  PC=0x2568 (_2.ptx:548) shl.b32 %r17, %r17, 1;
GPGPU-Sim PTX: 17 (potential) branch divergence @  PC=0x2580 (_2.ptx:551) @%p13 bra $Lt_3_21506;
GPGPU-Sim PTX:    immediate post dominator      @  PC=0x2588 (_2.ptx:552) bra.uni $Lt_3_20482;
GPGPU-Sim PTX: 18 (potential) branch divergence @  PC=0x2588 (_2.ptx:552) bra.uni $Lt_3_20482;
GPGPU-Sim PTX:    immediate post dominator      @  PC=0x27f0 (_2.ptx:660) ld.shared.v4.s32 {%r75,%r76,%r77,%r78}, [%rd4+0];
GPGPU-Sim PTX: 19 (potential) branch divergence @  PC=0x25b8 (_2.ptx:562) @%p14 bra $Lt_3_27906;
GPGPU-Sim PTX:    immediate post dominator      @  PC=0x27d0 (_2.ptx:655) shl.b32 %r47, %r47, 1;
GPGPU-Sim PTX: 20 (potential) branch divergence @  PC=0x25f8 (_2.ptx:572) @%p15 bra $Lt_3_32258;
GPGPU-Sim PTX:    immediate post dominator      @  PC=0x27a8 (_2.ptx:647) bar.sync 0;
GPGPU-Sim PTX: 21 (potential) branch divergence @  PC=0x2648 (_2.ptx:583) @%p17 bra $Lt_3_29442;
GPGPU-Sim PTX:    immediate post dominator      @  PC=0x2730 (_2.ptx:626) and.b32 %r69, %r47, %r6;
GPGPU-Sim PTX: 22 (potential) branch divergence @  PC=0x2658 (_2.ptx:585) @%p18 bra $Lt_3_29954;
GPGPU-Sim PTX:    immediate post dominator      @  PC=0x2730 (_2.ptx:626) and.b32 %r69, %r47, %r6;
GPGPU-Sim PTX: 23 (potential) branch divergence @  PC=0x2668 (_2.ptx:587) bra.uni $Lt_3_29186;
GPGPU-Sim PTX:    immediate post dominator      @  PC=0x2730 (_2.ptx:626) and.b32 %r69, %r47, %r6;
GPGPU-Sim PTX: 24 (potential) branch divergence @  PC=0x2688 (_2.ptx:593) bra.uni $Lt_3_29186;
GPGPU-Sim PTX:    immediate post dominator      @  PC=0x2730 (_2.ptx:626) and.b32 %r69, %r47, %r6;
GPGPU-Sim PTX: 25 (potential) branch divergence @  PC=0x26e8 (_2.ptx:608) @!%p19 bra $Lt_3_30210;
GPGPU-Sim PTX:    immediate post dominator      @  PC=0x2728 (_2.ptx:623) mov.s32 %r37, %r40;
GPGPU-Sim PTX: 26 (potential) branch divergence @  PC=0x26f8 (_2.ptx:611) bra.uni $LDWendi__Z7comparePKviS0_i_183_1;
GPGPU-Sim PTX:    immediate post dominator      @  PC=0x2728 (_2.ptx:623) mov.s32 %r37, %r40;
GPGPU-Sim PTX: 27 (potential) branch divergence @  PC=0x2708 (_2.ptx:614) @!%p20 bra $Lt_3_30722;
GPGPU-Sim PTX:    immediate post dominator      @  PC=0x2728 (_2.ptx:623) mov.s32 %r37, %r40;
GPGPU-Sim PTX: 28 (potential) branch divergence @  PC=0x2718 (_2.ptx:617) bra.uni $LDWendi__Z7comparePKviS0_i_183_1;
GPGPU-Sim PTX:    immediate post dominator      @  PC=0x2728 (_2.ptx:623) mov.s32 %r37, %r40;
GPGPU-Sim PTX: 29 (potential) branch divergence @  PC=0x2748 (_2.ptx:629) @%p21 bra $Lt_3_31490;
GPGPU-Sim PTX:    immediate post dominator      @  PC=0x27a8 (_2.ptx:647) bar.sync 0;
GPGPU-Sim PTX: 30 (potential) branch divergence @  PC=0x2760 (_2.ptx:632) @%p22 bra $Lt_3_32258;
GPGPU-Sim PTX:    immediate post dominator      @  PC=0x27a8 (_2.ptx:647) bar.sync 0;
GPGPU-Sim PTX: 31 (potential) branch divergence @  PC=0x2778 (_2.ptx:635) bra.uni $Lt_3_32258;
GPGPU-Sim PTX:    immediate post dominator      @  PC=0x27a8 (_2.ptx:647) bar.sync 0;
GPGPU-Sim PTX: 32 (potential) branch divergence @  PC=0x2790 (_2.ptx:640) @%p23 bra $Lt_3_32258;
GPGPU-Sim PTX:    immediate post dominator      @  PC=0x27a8 (_2.ptx:647) bar.sync 0;
GPGPU-Sim PTX: 33 (potential) branch divergence @  PC=0x27c8 (_2.ptx:652) @%p24 bra $Lt_3_28418;
GPGPU-Sim PTX:    immediate post dominator      @  PC=0x27d0 (_2.ptx:655) shl.b32 %r47, %r47, 1;
GPGPU-Sim PTX: 34 (potential) branch divergence @  PC=0x27e8 (_2.ptx:658) @%p25 bra $Lt_3_27650;
GPGPU-Sim PTX:    immediate post dominator      @  PC=0x27f0 (_2.ptx:660) ld.shared.v4.s32 {%r75,%r76,%r77,%r78}, [%rd4+0];
GPGPU-Sim PTX: ... end of reconvergence points for _Z21unitBitonicSortKernelPviP4int4ji
GPGPU-Sim PTX: ... done pre-decoding instructions for '_Z21unitBitonicSortKernelPviP4int4ji'.
GPGPU-Sim PTX: instruction assembly for function '_Z13bitonicKernelPviP4int4jii'...   done.
GPGPU-Sim PTX: finding reconvergence points for '_Z13bitonicKernelPviP4int4jii'...
GPGPU-Sim PTX: Finding dominators for '_Z13bitonicKernelPviP4int4jii'...
GPGPU-Sim PTX: Finding immediate dominators for '_Z13bitonicKernelPviP4int4jii'...
GPGPU-Sim PTX: Finding postdominators for '_Z13bitonicKernelPviP4int4jii'...
GPGPU-Sim PTX: Finding immediate postdominators for '_Z13bitonicKernelPviP4int4jii'...
GPGPU-Sim PTX: pre-decoding instructions for '_Z13bitonicKernelPviP4int4jii'...
GPGPU-Sim PTX: reconvergence points for _Z13bitonicKernelPviP4int4jii...
GPGPU-Sim PTX:  1 (potential) branch divergence @  PC=0x2868 (_2.ptx:693) @%p1 bra $Lt_4_18178;
GPGPU-Sim PTX:    immediate post dominator      @  PC=0x2b60 (_2.ptx:825) exit;
GPGPU-Sim PTX:  2 (potential) branch divergence @  PC=0x2910 (_2.ptx:716) @%p4 bra $Lt_4_13314;
GPGPU-Sim PTX:    immediate post dominator      @  PC=0x2b60 (_2.ptx:825) exit;
GPGPU-Sim PTX:  3 (potential) branch divergence @  PC=0x2928 (_2.ptx:720) @%p5 bra $Lt_4_13826;
GPGPU-Sim PTX:    immediate post dominator      @  PC=0x2a10 (_2.ptx:763) mov.u32 %r33, 1;
GPGPU-Sim PTX:  4 (potential) branch divergence @  PC=0x2938 (_2.ptx:722) @%p6 bra $Lt_4_14338;
GPGPU-Sim PTX:    immediate post dominator      @  PC=0x2a10 (_2.ptx:763) mov.u32 %r33, 1;
GPGPU-Sim PTX:  5 (potential) branch divergence @  PC=0x2948 (_2.ptx:724) bra.uni $Lt_4_13570;
GPGPU-Sim PTX:    immediate post dominator      @  PC=0x2a10 (_2.ptx:763) mov.u32 %r33, 1;
GPGPU-Sim PTX:  6 (potential) branch divergence @  PC=0x2968 (_2.ptx:730) bra.uni $Lt_4_13570;
GPGPU-Sim PTX:    immediate post dominator      @  PC=0x2a10 (_2.ptx:763) mov.u32 %r33, 1;
GPGPU-Sim PTX:  7 (potential) branch divergence @  PC=0x29c8 (_2.ptx:745) @!%p7 bra $Lt_4_14594;
GPGPU-Sim PTX:    immediate post dominator      @  PC=0x2a08 (_2.ptx:760) mov.s32 %r29, %r32;
GPGPU-Sim PTX:  8 (potential) branch divergence @  PC=0x29d8 (_2.ptx:748) bra.uni $LDWendi__Z7comparePKviS0_i_184_3;
GPGPU-Sim PTX:    immediate post dominator      @  PC=0x2a08 (_2.ptx:760) mov.s32 %r29, %r32;
GPGPU-Sim PTX:  9 (potential) branch divergence @  PC=0x29e8 (_2.ptx:751) @!%p8 bra $Lt_4_15106;
GPGPU-Sim PTX:    immediate post dominator      @  PC=0x2a08 (_2.ptx:760) mov.s32 %r29, %r32;
GPGPU-Sim PTX: 10 (potential) branch divergence @  PC=0x29f8 (_2.ptx:754) bra.uni $LDWendi__Z7comparePKviS0_i_184_3;
GPGPU-Sim PTX:    immediate post dominator      @  PC=0x2a08 (_2.ptx:760) mov.s32 %r29, %r32;
GPGPU-Sim PTX: 11 (potential) branch divergence @  PC=0x2a20 (_2.ptx:765) @%p9 bra $Lt_4_18178;
GPGPU-Sim PTX:    immediate post dominator      @  PC=0x2b60 (_2.ptx:825) exit;
GPGPU-Sim PTX: 12 (potential) branch divergence @  PC=0x2a38 (_2.ptx:768) bra.uni $Lt_4_18178;
GPGPU-Sim PTX:    immediate post dominator      @  PC=0x2b60 (_2.ptx:825) exit;
GPGPU-Sim PTX: 13 (potential) branch divergence @  PC=0x2a50 (_2.ptx:773) @%p10 bra $Lt_4_16386;
GPGPU-Sim PTX:    immediate post dominator      @  PC=0x2b38 (_2.ptx:816) mov.u32 %r37, -1;
GPGPU-Sim PTX: 14 (potential) branch divergence @  PC=0x2a60 (_2.ptx:775) @%p11 bra $Lt_4_16898;
GPGPU-Sim PTX:    immediate post dominator      @  PC=0x2b38 (_2.ptx:816) mov.u32 %r37, -1;
GPGPU-Sim PTX: 15 (potential) branch divergence @  PC=0x2a70 (_2.ptx:777) bra.uni $Lt_4_16130;
GPGPU-Sim PTX:    immediate post dominator      @  PC=0x2b38 (_2.ptx:816) mov.u32 %r37, -1;
GPGPU-Sim PTX: 16 (potential) branch divergence @  PC=0x2a90 (_2.ptx:783) bra.uni $Lt_4_16130;
GPGPU-Sim PTX:    immediate post dominator      @  PC=0x2b38 (_2.ptx:816) mov.u32 %r37, -1;
GPGPU-Sim PTX: 17 (potential) branch divergence @  PC=0x2af0 (_2.ptx:798) @!%p12 bra $Lt_4_17154;
GPGPU-Sim PTX:    immediate post dominator      @  PC=0x2b30 (_2.ptx:813) mov.s32 %r29, %r32;
GPGPU-Sim PTX: 18 (potential) branch divergence @  PC=0x2b00 (_2.ptx:801) bra.uni $LDWendi__Z7comparePKviS0_i_184_1;
GPGPU-Sim PTX:    immediate post dominator      @  PC=0x2b30 (_2.ptx:813) mov.s32 %r29, %r32;
GPGPU-Sim PTX: 19 (potential) branch divergence @  PC=0x2b10 (_2.ptx:804) @!%p13 bra $Lt_4_17666;
GPGPU-Sim PTX:    immediate post dominator      @  PC=0x2b30 (_2.ptx:813) mov.s32 %r29, %r32;
GPGPU-Sim PTX: 20 (potential) branch divergence @  PC=0x2b20 (_2.ptx:807) bra.uni $LDWendi__Z7comparePKviS0_i_184_1;
GPGPU-Sim PTX:    immediate post dominator      @  PC=0x2b30 (_2.ptx:813) mov.s32 %r29, %r32;
GPGPU-Sim PTX: 21 (potential) branch divergence @  PC=0x2b48 (_2.ptx:818) @%p14 bra $Lt_4_18178;
GPGPU-Sim PTX:    immediate post dominator      @  PC=0x2b60 (_2.ptx:825) exit;
GPGPU-Sim PTX: ... end of reconvergence points for _Z13bitonicKernelPviP4int4jii
GPGPU-Sim PTX: ... done pre-decoding instructions for '_Z13bitonicKernelPviP4int4jii'.
GPGPU-Sim PTX: allocating shared region for "__cuda___cuda_local_var_45960_37_non_const_bs_cmpbuf8352" from 0x0 to 0x1000 (shared memory space)
GPGPU-Sim PTX: instruction assembly for function '_Z29bitonicSortSingleBlock_kernelPviP4int4iS1_'...   done.
GPGPU-Sim PTX: finding reconvergence points for '_Z29bitonicSortSingleBlock_kernelPviP4int4iS1_'...
GPGPU-Sim PTX: Finding dominators for '_Z29bitonicSortSingleBlock_kernelPviP4int4iS1_'...
GPGPU-Sim PTX: Finding immediate dominators for '_Z29bitonicSortSingleBlock_kernelPviP4int4iS1_'...
GPGPU-Sim PTX: Finding postdominators for '_Z29bitonicSortSingleBlock_kernelPviP4int4iS1_'...
GPGPU-Sim PTX: Finding immediate postdominators for '_Z29bitonicSortSingleBlock_kernelPviP4int4iS1_'...
GPGPU-Sim PTX: pre-decoding instructions for '_Z29bitonicSortSingleBlock_kernelPviP4int4iS1_'...
GPGPU-Sim PTX: reconvergence points for _Z29bitonicSortSingleBlock_kernelPviP4int4iS1_...
GPGPU-Sim PTX:  1 (potential) branch divergence @  PC=0x2bc0 (_2.ptx:854) @%p1 bra $Lt_5_16386;
GPGPU-Sim PTX:    immediate post dominator      @  PC=0x2c00 (_2.ptx:867) bar.sync 0;
GPGPU-Sim PTX:  2 (potential) branch divergence @  PC=0x2be8 (_2.ptx:860) bra.uni $Lt_5_16130;
GPGPU-Sim PTX:    immediate post dominator      @  PC=0x2c00 (_2.ptx:867) bar.sync 0;
GPGPU-Sim PTX:  3 (potential) branch divergence @  PC=0x2c50 (_2.ptx:880) @%p2 bra $Lt_5_17410;
GPGPU-Sim PTX:    immediate post dominator      @  PC=0x2fd8 (_2.ptx:1032) mul.lo.s32 %r12, %r12, 2;
GPGPU-Sim PTX:  4 (potential) branch divergence @  PC=0x2c68 (_2.ptx:884) @%p3 bra $Lt_5_23810;
GPGPU-Sim PTX:    immediate post dominator      @  PC=0x2f90 (_2.ptx:1020) bar.sync 0;
GPGPU-Sim PTX:  5 (potential) branch divergence @  PC=0x2cb0 (_2.ptx:893) @%p4 bra $Lt_5_18946;
GPGPU-Sim PTX:    immediate post dominator      @  PC=0x2f90 (_2.ptx:1020) bar.sync 0;
GPGPU-Sim PTX:  6 (potential) branch divergence @  PC=0x2d00 (_2.ptx:904) @%p6 bra $Lt_5_19458;
GPGPU-Sim PTX:    immediate post dominator      @  PC=0x2de8 (_2.ptx:947) mov.u32 %r36, 0;
GPGPU-Sim PTX:  7 (potential) branch divergence @  PC=0x2d10 (_2.ptx:906) @%p7 bra $Lt_5_19970;
GPGPU-Sim PTX:    immediate post dominator      @  PC=0x2de8 (_2.ptx:947) mov.u32 %r36, 0;
GPGPU-Sim PTX:  8 (potential) branch divergence @  PC=0x2d20 (_2.ptx:908) bra.uni $Lt_5_19202;
GPGPU-Sim PTX:    immediate post dominator      @  PC=0x2de8 (_2.ptx:947) mov.u32 %r36, 0;
GPGPU-Sim PTX:  9 (potential) branch divergence @  PC=0x2d40 (_2.ptx:914) bra.uni $Lt_5_19202;
GPGPU-Sim PTX:    immediate post dominator      @  PC=0x2de8 (_2.ptx:947) mov.u32 %r36, 0;
GPGPU-Sim PTX: 10 (potential) branch divergence @  PC=0x2da0 (_2.ptx:929) @!%p8 bra $Lt_5_20226;
GPGPU-Sim PTX:    immediate post dominator      @  PC=0x2de0 (_2.ptx:944) mov.s32 %r32, %r35;
GPGPU-Sim PTX: 11 (potential) branch divergence @  PC=0x2db0 (_2.ptx:932) bra.uni $LDWendi__Z7comparePKviS0_i_185_3;
GPGPU-Sim PTX:    immediate post dominator      @  PC=0x2de0 (_2.ptx:944) mov.s32 %r32, %r35;
GPGPU-Sim PTX: 12 (potential) branch divergence @  PC=0x2dc0 (_2.ptx:935) @!%p9 bra $Lt_5_20738;
GPGPU-Sim PTX:    immediate post dominator      @  PC=0x2de0 (_2.ptx:944) mov.s32 %r32, %r35;
GPGPU-Sim PTX: 13 (potential) branch divergence @  PC=0x2dd0 (_2.ptx:938) bra.uni $LDWendi__Z7comparePKviS0_i_185_3;
GPGPU-Sim PTX:    immediate post dominator      @  PC=0x2de0 (_2.ptx:944) mov.s32 %r32, %r35;
GPGPU-Sim PTX: 14 (potential) branch divergence @  PC=0x2df8 (_2.ptx:949) @%p10 bra $Lt_5_23810;
GPGPU-Sim PTX:    immediate post dominator      @  PC=0x2f90 (_2.ptx:1020) bar.sync 0;
GPGPU-Sim PTX: 15 (potential) branch divergence @  PC=0x2e20 (_2.ptx:954) bra.uni $Lt_5_23810;
GPGPU-Sim PTX:    immediate post dominator      @  PC=0x2f90 (_2.ptx:1020) bar.sync 0;
GPGPU-Sim PTX: 16 (potential) branch divergence @  PC=0x2e70 (_2.ptx:966) @%p11 bra $Lt_5_22018;
GPGPU-Sim PTX:    immediate post dominator      @  PC=0x2f58 (_2.ptx:1009) mov.u32 %r52, 0;
GPGPU-Sim PTX: 17 (potential) branch divergence @  PC=0x2e80 (_2.ptx:968) @%p12 bra $Lt_5_22530;
GPGPU-Sim PTX:    immediate post dominator      @  PC=0x2f58 (_2.ptx:1009) mov.u32 %r52, 0;
GPGPU-Sim PTX: 18 (potential) branch divergence @  PC=0x2e90 (_2.ptx:970) bra.uni $Lt_5_21762;
GPGPU-Sim PTX:    immediate post dominator      @  PC=0x2f58 (_2.ptx:1009) mov.u32 %r52, 0;
GPGPU-Sim PTX: 19 (potential) branch divergence @  PC=0x2eb0 (_2.ptx:976) bra.uni $Lt_5_21762;
GPGPU-Sim PTX:    immediate post dominator      @  PC=0x2f58 (_2.ptx:1009) mov.u32 %r52, 0;
GPGPU-Sim PTX: 20 (potential) branch divergence @  PC=0x2f10 (_2.ptx:991) @!%p13 bra $Lt_5_22786;
GPGPU-Sim PTX:    immediate post dominator      @  PC=0x2f50 (_2.ptx:1006) mov.s32 %r32, %r35;
GPGPU-Sim PTX: 21 (potential) branch divergence @  PC=0x2f20 (_2.ptx:994) bra.uni $LDWendi__Z7comparePKviS0_i_185_1;
GPGPU-Sim PTX:    immediate post dominator      @  PC=0x2f50 (_2.ptx:1006) mov.s32 %r32, %r35;
GPGPU-Sim PTX: 22 (potential) branch divergence @  PC=0x2f30 (_2.ptx:997) @!%p14 bra $Lt_5_23298;
GPGPU-Sim PTX:    immediate post dominator      @  PC=0x2f50 (_2.ptx:1006) mov.s32 %r32, %r35;
GPGPU-Sim PTX: 23 (potential) branch divergence @  PC=0x2f40 (_2.ptx:1000) bra.uni $LDWendi__Z7comparePKviS0_i_185_1;
GPGPU-Sim PTX:    immediate post dominator      @  PC=0x2f50 (_2.ptx:1006) mov.s32 %r32, %r35;
GPGPU-Sim PTX: 24 (potential) branch divergence @  PC=0x2f68 (_2.ptx:1011) @%p15 bra $Lt_5_23810;
GPGPU-Sim PTX:    immediate post dominator      @  PC=0x2f90 (_2.ptx:1020) bar.sync 0;
GPGPU-Sim PTX: 25 (potential) branch divergence @  PC=0x2fd0 (_2.ptx:1029) @%p16 bra $Lt_5_17922;
GPGPU-Sim PTX:    immediate post dominator      @  PC=0x2fd8 (_2.ptx:1032) mul.lo.s32 %r12, %r12, 2;
GPGPU-Sim PTX: 26 (potential) branch divergence @  PC=0x2ff0 (_2.ptx:1035) @%p17 bra $Lt_5_17154;
GPGPU-Sim PTX:    immediate post dominator      @  PC=0x2ff8 (_2.ptx:1036) mov.s32 %r65, 256;
GPGPU-Sim PTX: 27 (potential) branch divergence @  PC=0x3010 (_2.ptx:1039) @%p18 bra $Lt_5_24834;
GPGPU-Sim PTX:    immediate post dominator      @  PC=0x3050 (_2.ptx:1050) exit;
GPGPU-Sim PTX: ... end of reconvergence points for _Z29bitonicSortSingleBlock_kernelPviP4int4iS1_
GPGPU-Sim PTX: ... done pre-decoding instructions for '_Z29bitonicSortSingleBlock_kernelPviP4int4iS1_'.
GPGPU-Sim PTX: allocating shared region for "__cuda___cuda_local_var_46035_40_non_const_bs_shared12496" from 0x0 to 0x1000 (shared memory space)
GPGPU-Sim PTX: allocating shared region for "__cuda_local_var_46032_30_non_const_bs_pStart" from 0x1000 to 0x1004 (shared memory space)
GPGPU-Sim PTX: allocating shared region for "__cuda_local_var_46033_30_non_const_bs_pEnd" from 0x1004 to 0x1008 (shared memory space)
GPGPU-Sim PTX: allocating shared region for "__cuda_local_var_46034_30_non_const_bs_numElement" from 0x1008 to 0x100c (shared memory space)
[...]
traffic_breakdown_coretomem[CONST_ACC_R] = 120 {8:15,}
traffic_breakdown_coretomem[GLOBAL_ACC_R] = 523776 {8:65472,}
traffic_breakdown_coretomem[GLOBAL_ACC_W] = 8945112 {40:1023,136:65472,}
traffic_breakdown_coretomem[INST_ACC_R] = 1560 {8:195,}
traffic_breakdown_memtocore[CONST_ACC_R] = 1080 {72:15,}
traffic_breakdown_memtocore[GLOBAL_ACC_R] = 8904192 {136:65472,}
traffic_breakdown_memtocore[GLOBAL_ACC_W] = 531960 {8:66495,}
traffic_breakdown_memtocore[INST_ACC_R] = 26520 {136:195,}
maxmrqlatency = 810 
maxdqlatency = 0 
maxmflatency = 1048 
averagemflatency = 239 
max_icnt2mem_latency = 178 
max_icnt2sh_latency = 1309242 
mrq_lat_table:63785 	1632 	1301 	5805 	44912 	13580 	8200 	7577 	580 	89 	0 	0 	0 	0 	0 	0 	0 	0 	0 	0 	0 	0 	0 	0 	0 	0 	0 	0 	0 	0 	0 	0 	
dq_lat_table:0 	0 	0 	0 	0 	0 	0 	0 	0 	0 	0 	0 	0 	0 	0 	0 	0 	0 	0 	0 	0 	0 	0 	0 	0 	0 	0 	0 	0 	0 	0 	0 	
mf_lat_table:0 	0 	0 	0 	0 	0 	0 	50656 	78655 	2666 	5 	0 	0 	0 	0 	0 	0 	0 	0 	0 	0 	0 	0 	0 	0 	0 	0 	0 	0 	0 	0 	0 	
icnt2mem_lat_table:0 	0 	0 	115551 	11560 	3633 	1364 	69 	0 	0 	0 	0 	0 	0 	0 	0 	0 	0 	0 	0 	0 	0 	0 	0 	
icnt2sh_lat_table:0 	0 	0 	63959 	1528 	0 	0 	0 	0 	0 	56 	129 	355 	720 	1409 	2819 	5394 	10742 	21482 	16963 	6426 	0 	0 	0 	
mf_lat_pw_table:0 	0 	0 	0 	0 	0 	0 	1322 	681 	11 	0 	0 	0 	0 	0 	0 	0 	0 	0 	0 	0 	0 	0 	0 	0 	0 	0 	0 	0 	0 	0 	0 	
maximum concurrent accesses to same row:
dram[0]:        40        40        48        48        48        48        48        48        48        48        40        40        48        48        48        48 
dram[1]:        40        40        48        48        48        48        48        48        48        48        40        40        48        48        48        48 
dram[2]:        40        40        48        48        48        48        48        48        48        48        40        40        48        48        48        48 
dram[3]:        40        40        48        48        48        48        48        48        48        48        40        40        48        48        48        48 
dram[4]:        40        40        48        48        48        48        48        48        40        48        40        40        48        48        48        48 
dram[5]:        40        40        48        48        48        48        48        48        48        48        40        40        48        48        48        48 
maximum service time to same row:
dram[0]:     70581     69106     61824     63203     70328     68982     70063     68535     62047     68953     70341     68899     70498     69075     70373     68806 
dram[1]:     69880     68398     62522     63912     69628     68275     69362     67829     69603     68259     69640     68190     69804     68369     69672     68100 
dram[2]:     69180     70551     63206     61956     68929     70291     68662     69972     63468     70241     68931     70276     69109     70419     68973     70242 
dram[3]:     68474     69850     63890     62653     68222     69588     67956     69272     64175     69542     68225     69575     68414     69725     68266     69544 
dram[4]:     70503     69149     61794     63334     70383     68887     69936     68568     70343     68844     70298     68875     70478     69031     70207     68843 
dram[5]:     69806     68443     62501     64018     69683     68181     69236     67859     69648     64178     69599     68169     69775     68337     69507     68137 
average row accesses per activate:
dram[0]:  1.787663  1.863861  1.831912  1.863693  1.917275  2.028314  1.965602  1.995013  1.871345  2.029412  1.840881  1.935650  1.854501  1.847666  1.788347  1.938144 
dram[1]:  1.792857  1.870647  1.816425  1.866005  1.885167  2.028314  1.939394  1.995013  1.886659  2.034571  1.827461  1.930680  1.831912  1.852217  1.761124  1.906210 
dram[2]:  1.780142  1.859085  1.812048  1.836386  1.869514  1.984887  1.941748  2.007528  1.867526  1.924940  1.831912  1.918367  1.816425  1.875312  1.748837  1.834146 
dram[3]:  1.793802  1.854501  1.814234  1.840881  1.873960  1.970000  1.932367  2.007528  1.882979  1.920290  1.814234  1.901391  1.825243  1.866005  1.744780  1.831912 
dram[4]:  1.877653  1.852217  1.875312  1.836386  2.057441  1.950495  2.012579  2.005013  2.047619  1.916767  1.960887  1.906210  1.875312  1.856790  1.958333  1.823030 
dram[5]:  1.861557  1.859259  1.866005  1.840881  2.033548  1.960199  2.002503  1.995013  2.024204  1.892601  1.950713  1.891824  1.861386  1.847666  1.920817  1.823030 
average row locality = 147461/77925 = 1.892345
number of total memory accesses made:
dram[0]:         0         0         0         0         0         0         0         0         0         0         0         0         0         0         0         0 
dram[1]:         0         0         0         0         0         0         0         0         0         0         0         0         0         0         0         0 
dram[2]:         0         0         0         0         0         0         0         0         0         0         0         0         0         0         0         0 
dram[3]:         0         0         0         0         0         0         0         0         0         0         0         0         0         0         0         0 
dram[4]:         0         0         0         0         0         0         0         0         0         0         0         0         0         0         0         0 
dram[5]:         0         0         0         0         0         0         0         0         0         0         0         0         0         0         0         0 
total accesses: 0
min_bank_accesses = 0!
min_chip_accesses = 0!
number of total read accesses:
dram[0]:       835       834       832       832       880       880       896       896       888       886       832       832       832       832       832       832 
dram[1]:       834       832       832       832       880       880       896       896       888       886       832       832       832       832       832       832 
dram[2]:       834       832       832       832       880       880       896       896       888       886       832       832       832       832       832       832 
dram[3]:       833       832       832       832       880       880       896       896       888       886       832       832       832       832       832       832 
dram[4]:       832       832       832       832       880       880       896       896       886       886       832       832       832       832       832       832 
dram[5]:       834       834       832       832       880       880       896       896       886       886       832       832       832       832       832       832 
total reads: 81886
bank skew: 896/832 = 1.08
chip skew: 13651/13644 = 1.00
number of total write accesses:
dram[0]:       672       672       672       672       696       696       704       704       712       701       672       672       672       672       672       672 
dram[1]:       672       672       672       672       696       696       704       704       710       703       672       672       672       672       672       672 
dram[2]:       672       672       672       672       696       696       704       704       705       704       672       672       672       672       672       672 
dram[3]:       672       672       672       672       696       696       704       704       705       704       672       672       672       672       672       672 
dram[4]:       672       672       672       672       696       696       704       704       705       703       672       672       672       672       672       672 
dram[5]:       672       672       672       672       696       696       704       704       703       700       672       672       672       672       672       672 
total reads: 65575
bank skew: 712/672 = 1.06
chip skew: 10933/10923 = 1.00
average mf latency per bank:
dram[0]:        213       214       214       211       215       213       216       215       225       221       216       220       217       216       215       213
dram[1]:        208       213       209       210       211       212       212       214       220       220       212       219       211       216       210       213
dram[2]:        211       214       212       213       216       214       215       213       222       222       218       217       216       218       212       215
dram[3]:        211       210       211       209       215       210       214       209       222       217       217       213       214       213       212       210
dram[4]:        215       212       213       210       213       214       215       214       219       220       217       219       217       217       213       213
dram[5]:        211       211       209       210       210       213       211       213       215       219       212       218       212       217       210       213
maximum mf latency per bank:
dram[0]:        631       723       646       662       890      1048       729       871       754       845       744      1037       808       911       780       718
dram[1]:        586       659       634       581       934      1006       737       811       732       796       738       988       821       861       759       680
dram[2]:        632       730       665       631      1047       901       885       781       643       864       928       764       913       810       765       710
dram[3]:        601       680       620       596      1006       855       798       779       663       841       921       741       852       807       740       671
dram[4]:        729       692       812       642       925      1030       705       888       652       944       860       963       793       901       723       746
dram[5]:        684       672       578       615       951       992       682       847       711       813       831       970       729       859       680       689

Number of Memory Banks Accessed per Memory Operation per Warp (from 0):
0	0	0	0	0	0	0	0	0	0	0	0	0	0	0	0	0	0	0	0	0	0	0	0	0	0	0	0	0	0	0	0	0	0	0	0	0	0	0	0	0	0	0	0	0	0	0	0	0	0	0	0	0	0	0	0	0	0	0	0	0	0	0	0	0	0	0	0	0	0	0	0	0	0	0	0	0	0	0	0	0	0	0	0	0	0	0	0	0	0	0	0	0	0	0	0	
Average # of Memory Banks Accessed per Memory Operation per Warp=-nan

position of mrq chosen
0	0	0	0	0	0	0	0	0	0	0	0	0	0	0	0	

average position of mrq chosen = -nan
Memory Partition 0: 
Cache L2_bank_000:
MSHR contents

Cache L2_bank_001:
MSHR contents

In Dram Latency Queue (total = 0): 
DRAM[0]: 16 bks, busW=4 BL=8 CL=12, tRRD=2 tCCD=6, tRCD=12 tRAS=28 tRP=12 tRC=40
n_cmd=1728199 n_nop=1653127 n_act=12968 n_pre=12952 n_req=24584 n_rd=27302 n_write=21850 bw_util=0.05688
n_activity=536406 dram_eff=0.1833
bk0: 1670a 1691808i bk1: 1668a 1692650i bk2: 1664a 1691753i bk3: 1664a 1692918i bk4: 1760a 1690835i bk5: 1760a 1692399i bk6: 1792a 1690667i bk7: 1792a 1691436i bk8: 1776a 1690083i bk9: 1772a 1692147i bk10: 1664a 1691504i bk11: 1664a 1693129i bk12: 1664a 1692345i bk13: 1664a 1692188i bk14: 1664a 1691255i bk15: 1664a 1693467i 
dram_util_bins: 0 0 0 0 0 0 0 0 0 0
dram_eff_bins: 0 0 0 0 0 0 0 0 0 0
mrqq: max=16 avg=0.517461
Memory Partition 1: 
Cache L2_bank_002:
MSHR contents

Cache L2_bank_003:
MSHR contents
MSHR: tag=0x81cf8b00, atomic=0 1 entries : 0x7f73d8eb5ad0 :  mf: uid=2153779, sid05:w22, part=1, addr=0x81cf8b00, load , size=128, unknown  status = IN_PARTITION_DRAM (1309238), 

In Dram Latency Queue (total = 0): 
DRAM[1]: 16 bks, busW=4 BL=8 CL=12, tRRD=2 tCCD=6, tRCD=12 tRAS=28 tRP=12 tRC=40
n_cmd=1728199 n_nop=1653022 n_act=13024 n_pre=13008 n_req=24581 n_rd=27296 n_write=21849 bw_util=0.05687
n_activity=544566 dram_eff=0.1805
bk0: 1668a 1692789i bk1: 1664a 1693236i bk2: 1664a 1692550i bk3: 1664a 1693378i bk4: 1760a 1691458i bk5: 1760a 1693094i bk6: 1792a 1691298i bk7: 1792a 1691851i bk8: 1776a 1691158i bk9: 1772a 1692736i bk10: 1664a 1692428i bk11: 1664a 1693473i bk12: 1664a 1692636i bk13: 1664a 1692667i bk14: 1664a 1691577i bk15: 1664a 1693653i 
dram_util_bins: 0 0 0 0 0 0 0 0 0 0
dram_eff_bins: 0 0 0 0 0 0 0 0 0 0
mrqq: max=16 avg=0.479817
Memory Partition 2: 
Cache L2_bank_004:
MSHR contents

Cache L2_bank_005:
MSHR contents

In Dram Latency Queue (total = 0): 
DRAM[2]: 16 bks, busW=4 BL=8 CL=12, tRRD=2 tCCD=6, tRCD=12 tRAS=28 tRP=12 tRC=40
n_cmd=1728199 n_nop=1652762 n_act=13156 n_pre=13140 n_req=24577 n_rd=27296 n_write=21845 bw_util=0.05687
n_activity=547419 dram_eff=0.1795
bk0: 1668a 1691999i bk1: 1664a 1692290i bk2: 1664a 1692176i bk3: 1664a 1692305i bk4: 1760a 1691064i bk5: 1760a 1691544i bk6: 1792a 1690986i bk7: 1792a 1691462i bk8: 1776a 1690590i bk9: 1772a 1690645i bk10: 1664a 1692009i bk11: 1664a 1692695i bk12: 1664a 1692504i bk13: 1664a 1692072i bk14: 1664a 1691447i bk15: 1664a 1691943i 
dram_util_bins: 0 0 0 0 0 0 0 0 0 0
dram_eff_bins: 0 0 0 0 0 0 0 0 0 0
mrqq: max=16 avg=0.514515
Memory Partition 3: 
Cache L2_bank_006:
MSHR contents

Cache L2_bank_007:
MSHR contents

In Dram Latency Queue (total = 0): 
DRAM[3]: 16 bks, busW=4 BL=8 CL=12, tRRD=2 tCCD=6, tRCD=12 tRAS=28 tRP=12 tRC=40
n_cmd=1728199 n_nop=1652738 n_act=13169 n_pre=13153 n_req=24576 n_rd=27294 n_write=21845 bw_util=0.05687
n_activity=555220 dram_eff=0.177
bk0: 1666a 1692484i bk1: 1664a 1693094i bk2: 1664a 1692656i bk3: 1664a 1693235i bk4: 1760a 1691433i bk5: 1760a 1692595i bk6: 1792a 1691164i bk7: 1792a 1692442i bk8: 1776a 1690935i bk9: 1772a 1691264i bk10: 1664a 1692351i bk11: 1664a 1693511i bk12: 1664a 1692487i bk13: 1664a 1692755i bk14: 1664a 1691423i bk15: 1664a 1692587i 
dram_util_bins: 0 0 0 0 0 0 0 0 0 0
dram_eff_bins: 0 0 0 0 0 0 0 0 0 0
mrqq: max=16 avg=0.480146
Memory Partition 4: 
Cache L2_bank_008:
MSHR contents

Cache L2_bank_009:
MSHR contents

In Dram Latency Queue (total = 0): 
DRAM[4]: 16 bks, busW=4 BL=8 CL=12, tRRD=2 tCCD=6, tRCD=12 tRAS=28 tRP=12 tRC=40
n_cmd=1728199 n_nop=1653547 n_act=12768 n_pre=12752 n_req=24572 n_rd=27288 n_write=21844 bw_util=0.05686
n_activity=542478 dram_eff=0.1811
bk0: 1664a 1692463i bk1: 1664a 1692641i bk2: 1664a 1692684i bk3: 1664a 1692629i bk4: 1760a 1692323i bk5: 1760a 1692048i bk6: 1792a 1691647i bk7: 1792a 1692121i bk8: 1772a 1692633i bk9: 1772a 1691447i bk10: 1664a 1693211i bk11: 1664a 1693131i bk12: 1664a 1692471i bk13: 1664a 1692733i bk14: 1664a 1693434i bk15: 1664a 1692109i 
dram_util_bins: 0 0 0 0 0 0 0 0 0 0
dram_eff_bins: 0 0 0 0 0 0 0 0 0 0
mrqq: max=16 avg=0.514897
Memory Partition 5: 
Cache L2_bank_010:
MSHR contents

Cache L2_bank_011:
MSHR contents
MSHR: tag=0x81cf8f00, atomic=0 1 entries : 0x7f73d8eb5cf0 :  mf: uid=2153781, sid05:w22, part=5, addr=0x81cf8f00, load , size=128, unknown  status = IN_PARTITION_DRAM (1309239), 

In Dram Latency Queue (total = 0): 
DRAM[5]: 16 bks, busW=4 BL=8 CL=12, tRRD=2 tCCD=6, tRCD=12 tRAS=28 tRP=12 tRC=40
n_cmd=1728199 n_nop=1653398 n_act=12841 n_pre=12825 n_req=24571 n_rd=27296 n_write=21839 bw_util=0.05686
n_activity=550437 dram_eff=0.1785
bk0: 1668a 1693177i bk1: 1668a 1693145i bk2: 1664a 1693393i bk3: 1664a 1693089i bk4: 1760a 1693082i bk5: 1760a 1692384i bk6: 1792a 1692192i bk7: 1792a 1692317i bk8: 1772a 1693068i bk9: 1772a 1691604i bk10: 1664a 1694182i bk11: 1664a 1693436i bk12: 1664a 1692916i bk13: 1664a 1693144i bk14: 1664a 1693805i bk15: 1664a 1692551i 
dram_util_bins: 0 0 0 0 0 0 0 0 0 0
dram_eff_bins: 0 0 0 0 0 0 0 0 0 0
mrqq: max=16 avg=0.476694

========= L2 cache stats =========
L2_cache_bank[0]: Access = 11085, Miss = 6827, Miss_rate = 0.616, Pending_hits = 18, Reservation_fails = 498
L2_cache_bank[1]: Access = 11006, Miss = 6824, Miss_rate = 0.620, Pending_hits = 7, Reservation_fails = 202
L2_cache_bank[2]: Access = 11070, Miss = 6826, Miss_rate = 0.617, Pending_hits = 14, Reservation_fails = 337
L2_cache_bank[3]: Access = 10976, Miss = 6822, Miss_rate = 0.622, Pending_hits = 3, Reservation_fails = 8
L2_cache_bank[4]: Access = 11070, Miss = 6826, Miss_rate = 0.617, Pending_hits = 9, Reservation_fails = 228
L2_cache_bank[5]: Access = 10976, Miss = 6822, Miss_rate = 0.622, Pending_hits = 4, Reservation_fails = 0
L2_cache_bank[6]: Access = 11054, Miss = 6825, Miss_rate = 0.617, Pending_hits = 6, Reservation_fails = 112
L2_cache_bank[7]: Access = 10976, Miss = 6822, Miss_rate = 0.622, Pending_hits = 4, Reservation_fails = 41
L2_cache_bank[8]: Access = 10976, Miss = 6822, Miss_rate = 0.622, Pending_hits = 5, Reservation_fails = 3
L2_cache_bank[9]: Access = 10976, Miss = 6822, Miss_rate = 0.622, Pending_hits = 3, Reservation_fails = 5
L2_cache_bank[10]: Access = 11006, Miss = 6824, Miss_rate = 0.620, Pending_hits = 9, Reservation_fails = 216
L2_cache_bank[11]: Access = 11006, Miss = 6824, Miss_rate = 0.620, Pending_hits = 6, Reservation_fails = 228
L2_total_cache_accesses = 132177
L2_total_cache_misses = 81886
L2_total_cache_miss_rate = 0.6195
L2_total_cache_pending_hits = 88
L2_total_cache_reservation_fails = 1878
L2_total_cache_breakdown:
	L2_cache_stats_breakdown[GLOBAL_ACC_R][MISS] = 65472
	L2_cache_stats_breakdown[CONST_ACC_R][HIT] = 11
	L2_cache_stats_breakdown[CONST_ACC_R][HIT_RESERVED] = 3
	L2_cache_stats_breakdown[CONST_ACC_R][MISS] = 1
	L2_cache_stats_breakdown[CONST_ACC_R][RESERVATION_FAIL] = 93
	L2_cache_stats_breakdown[GLOBAL_ACC_W][HIT] = 50049
	L2_cache_stats_breakdown[GLOBAL_ACC_W][HIT_RESERVED] = 46
	L2_cache_stats_breakdown[GLOBAL_ACC_W][MISS] = 16400
	L2_cache_stats_breakdown[GLOBAL_ACC_W][RESERVATION_FAIL] = 401
	L2_cache_stats_breakdown[INST_ACC_R][HIT] = 143
	L2_cache_stats_breakdown[INST_ACC_R][HIT_RESERVED] = 39
	L2_cache_stats_breakdown[INST_ACC_R][MISS] = 13
	L2_cache_stats_breakdown[INST_ACC_R][RESERVATION_FAIL] = 1384
L2_cache_data_port_util = 0.024
L2_cache_fill_port_util = 0.021

icnt_total_pkts_mem_to_simt=394875
icnt_total_pkts_simt_to_mem=395088
LD_mem_lat_dist  0 0 0 0 0 0 0 0 0 0 0 0 0 0 0 0 0 0 0 0 0 0 0 0 0 0 0
ST_mem_lat_dist  0 0 0 0 0 0 0 0 0 0 0 0 0 0 0 0 0 0 0 0 0 0 0 0 0 0 0
----------------------------Interconnect-DETAILS--------------------------------
Class 0:
Packet latency average = 10.6596
	minimum = 6
	maximum = 85
Network latency average = 9.81131
	minimum = 6
	maximum = 71
Slowest packet = 201637
Flit latency average = 8.64212
	minimum = 6
	maximum = 67
Slowest flit = 604923
Fragmentation average = 0
	minimum = 0
	maximum = 0
Injected packet rate average = 0.00353983
	minimum = 0.00317655 (at node 0)
	maximum = 0.00406902 (at node 15)
Accepted packet rate average = 0.00353983
	minimum = 0.00317655 (at node 0)
	maximum = 0.00406902 (at node 15)
Injected flit rate average = 0.0104592
	minimum = 0.00940838 (at node 0)
	maximum = 0.0119307 (at node 15)
Accepted flit rate average= 0.0104592
	minimum = 0.00936327 (at node 0)
	maximum = 0.011942 (at node 15)
Injected packet length average = 2.95473
Accepted packet length average = 2.95473
Total in-flight flits = 0 (0 measured)
====== Overall Traffic Statistics ======
====== Traffic class 0 ======
Packet latency average = 9.79982 (2 samples)
	minimum = 6 (2 samples)
	maximum = 60.5 (2 samples)
Network latency average = 9.13188 (2 samples)
	minimum = 6 (2 samples)
	maximum = 52.5 (2 samples)
Flit latency average = 7.52875 (2 samples)
	minimum = 6 (2 samples)
	maximum = 50.5 (2 samples)
Fragmentation average = 0 (2 samples)
	minimum = 0 (2 samples)
	maximum = 0 (2 samples)
Injected packet rate average = 0.00783695 (2 samples)
	minimum = 0.0070326 (2 samples)
	maximum = 0.00887972 (2 samples)
Accepted packet rate average = 0.00783695 (2 samples)
	minimum = 0.0070326 (2 samples)
	maximum = 0.00887972 (2 samples)
Injected flit rate average = 0.0234298 (2 samples)
	minimum = 0.0210288 (2 samples)
	maximum = 0.026551 (2 samples)
Accepted flit rate average = 0.0234298 (2 samples)
	minimum = 0.0210213 (2 samples)
	maximum = 0.0264566 (2 samples)
Injected packet size average = 2.98966 (2 samples)
Accepted packet size average = 2.98966 (2 samples)
Hops average = 1 (2 samples)
