

        *** GPGPU-Sim Simulator Version 3.2.2  [build 0] ***


GPGPU-Sim PTX: simulation mode 0 (can change with PTX_SIM_MODE_FUNC environment variable:
               1=functional simulation only, 0=detailed performance simulator)
GPGPU-Sim: Configuration options:

-network_mode                           1 # Interconnection network mode
-inter_config_file   config_fermi_islip.icnt # Interconnection network config file
-gpgpu_ptx_use_cuobjdump                    1 # Use cuobjdump to extract ptx and sass from binaries
-gpgpu_experimental_lib_support                    0 # Try to extract code from cuda libraries [Broken because of unknown cudaGetExportTable]
-gpgpu_ptx_convert_to_ptxplus                    0 # Convert SASS (native ISA) to ptxplus and run ptxplus
-gpgpu_ptx_force_max_capability                   20 # Force maximum compute capability
-gpgpu_ptx_inst_debug_to_file                    0 # Dump executed instructions' debug information to file
-gpgpu_ptx_inst_debug_file       inst_debug.txt # Executed instructions' debug output file
-gpgpu_ptx_inst_debug_thread_uid                    1 # Thread UID for executed instructions' debug output
-gpgpu_simd_model                       1 # 1 = post-dominator
-gpgpu_shader_core_pipeline              1536:32 # shader core pipeline config, i.e., {<nthread>:<warpsize>}
-gpgpu_tex_cache:l1  4:128:24,L:R:m:N:L,F:128:4,128:2 # per-shader L1 texture cache  (READ-ONLY) config  {<nsets>:<bsize>:<assoc>,<rep>:<wr>:<alloc>:<wr_alloc>,<mshr>:<N>:<merge>,<mq>:<rf>}
-gpgpu_const_cache:l1 64:64:2,L:R:f:N:L,A:2:32,4 # per-shader L1 constant memory cache  (READ-ONLY) config  {<nsets>:<bsize>:<assoc>,<rep>:<wr>:<alloc>:<wr_alloc>,<mshr>:<N>:<merge>,<mq>} 
-gpgpu_cache:il1     4:128:4,L:R:f:N:L,A:2:32,4 # shader L1 instruction cache config  {<nsets>:<bsize>:<assoc>,<rep>:<wr>:<alloc>:<wr_alloc>,<mshr>:<N>:<merge>,<mq>} 
-gpgpu_cache:dl1     32:128:4,L:L:m:N:H,A:32:8,8:2,0,1:0:1:1:0:1,1:4:8:16:32:64,/sciclone/data10/hwang07/GPU_RESEARCH/swl/swl_outputs/RESULTS/swl8/ # per-shader L1 data cache config  {<nsets>:<bsize>:<assoc>,<rep>:<wr>:<alloc>:<wr_alloc>,<mshr>:<N>:<merge>,<mq> | none}
-gpgpu_cache:dl1PrefL1                 none # per-shader L1 data cache config  {<nsets>:<bsize>:<assoc>,<rep>:<wr>:<alloc>:<wr_alloc>,<mshr>:<N>:<merge>,<mq> | none}
-gpgpu_cache:dl1PreShared                 none # per-shader L1 data cache config  {<nsets>:<bsize>:<assoc>,<rep>:<wr>:<alloc>:<wr_alloc>,<mshr>:<N>:<merge>,<mq> | none}
-gmem_skip_L1D                          0 # global memory access skip L1D cache (implements -Xptxas -dlcm=cg, default=no skip)
-gpgpu_perfect_mem                      0 # enable perfect memory mode (no cache miss)
-n_regfile_gating_group                    4 # group of lanes that should be read/written together)
-gpgpu_clock_gated_reg_file                    0 # enable clock gated reg file for power calculations
-gpgpu_clock_gated_lanes                    0 # enable clock gated lanes for power calculations
-gpgpu_shader_registers                32768 # Number of registers per shader core. Limits number of concurrent CTAs. (default 8192)
-gpgpu_shader_cta                       8 # Maximum number of concurrent CTAs in shader (default 8)
-gpgpu_num_cta_barriers                   16 # Maximum number of named barriers per CTA (default 16)
-gpgpu_n_clusters                      15 # number of processing clusters
-gpgpu_n_cores_per_cluster                    1 # number of simd cores per cluster
-gpgpu_n_cluster_ejection_buffer_size                    8 # number of packets in ejection buffer
-gpgpu_n_ldst_response_buffer_size                    2 # number of response packets in ld/st unit ejection buffer
-gpgpu_shmem_size                   16384 # Size of shared memory per shader core (default 16kB)
-gpgpu_shmem_size                   49152 # Size of shared memory per shader core (default 16kB)
-gpgpu_shmem_size_PrefL1                16384 # Size of shared memory per shader core (default 16kB)
-gpgpu_shmem_size_PrefShared                16384 # Size of shared memory per shader core (default 16kB)
-gpgpu_shmem_num_banks                   32 # Number of banks in the shared memory in each shader core (default 16)
-gpgpu_shmem_limited_broadcast                    0 # Limit shared memory to do one broadcast per cycle (default on)
-gpgpu_shmem_warp_parts                    1 # Number of portions a warp is divided into for shared memory bank conflict check 
-gpgpu_warpdistro_shader                   -1 # Specify which shader core to collect the warp size distribution from
-gpgpu_warp_issue_shader                    0 # Specify which shader core to collect the warp issue distribution from
-gpgpu_local_mem_map                    1 # Mapping from local memory space address to simulated GPU physical address space (default = enabled)
-gpgpu_num_reg_banks                   16 # Number of register banks (default = 8)
-gpgpu_reg_bank_use_warp_id                    0 # Use warp ID in mapping registers to banks (default = off)
-gpgpu_operand_collector_num_units_sp                    6 # number of collector units (default = 4)
-gpgpu_operand_collector_num_units_sfu                    8 # number of collector units (default = 4)
-gpgpu_operand_collector_num_units_mem                    2 # number of collector units (default = 2)
-gpgpu_operand_collector_num_units_gen                    0 # number of collector units (default = 0)
-gpgpu_operand_collector_num_in_ports_sp                    2 # number of collector unit in ports (default = 1)
-gpgpu_operand_collector_num_in_ports_sfu                    1 # number of collector unit in ports (default = 1)
-gpgpu_operand_collector_num_in_ports_mem                    1 # number of collector unit in ports (default = 1)
-gpgpu_operand_collector_num_in_ports_gen                    0 # number of collector unit in ports (default = 0)
-gpgpu_operand_collector_num_out_ports_sp                    2 # number of collector unit in ports (default = 1)
-gpgpu_operand_collector_num_out_ports_sfu                    1 # number of collector unit in ports (default = 1)
-gpgpu_operand_collector_num_out_ports_mem                    1 # number of collector unit in ports (default = 1)
-gpgpu_operand_collector_num_out_ports_gen                    0 # number of collector unit in ports (default = 0)
-gpgpu_coalesce_arch                   13 # Coalescing arch (default = 13, anything else is off for now)
-gpgpu_num_sched_per_core                    2 # Number of warp schedulers per core
-gpgpu_max_insn_issue_per_warp                    1 # Max number of instructions that can be issued per warp in one cycle by scheduler
-gpgpu_simt_core_sim_order                    1 # Select the simulation order of cores in a cluster (0=Fix, 1=Round-Robin)
-gpgpu_pipeline_widths        2,1,1,2,1,1,2 # Pipeline widths ID_OC_SP,ID_OC_SFU,ID_OC_MEM,OC_EX_SP,OC_EX_SFU,OC_EX_MEM,EX_WB
-gpgpu_num_sp_units                     2 # Number of SP units (default=1)
-gpgpu_num_sfu_units                    1 # Number of SF units (default=1)
-gpgpu_num_mem_units                    1 # Number if ldst units (default=1) WARNING: not hooked up to anything
-gpgpu_scheduler        warp_limiting:2:8 # Scheduler configuration: < lrr | gto | two_level_active > If two_level_active:<num_active_warps>:<inner_prioritization>:<outer_prioritization>For complete list of prioritization values see shader.h enum scheduler_prioritization_typeDefault: gto
-gpgpu_dram_scheduler                    1 # 0 = fifo, 1 = FR-FCFS (defaul)
-gpgpu_dram_partition_queues              8:8:8:8 # i2$:$2d:d2$:$2i
-l2_ideal                               0 # Use a ideal L2 cache that always hit
-gpgpu_cache:dl2     64:128:8,L:B:m:W:L,A:32:4,4:0,32 # unified banked L2 data cache config  {<nsets>:<bsize>:<assoc>,<rep>:<wr>:<alloc>:<wr_alloc>,<mshr>:<N>:<merge>,<mq>}
-gpgpu_cache:dl2_texture_only                    0 # L2 cache used for texture only
-gpgpu_n_mem                            6 # number of memory modules (e.g. memory controllers) in gpu
-gpgpu_n_sub_partition_per_mchannel                    2 # number of memory subpartition in each memory module
-gpgpu_n_mem_per_ctrlr                    2 # number of memory chips per memory controller
-gpgpu_memlatency_stat                   14 # track and display latency statistics 0x2 enables MC, 0x4 enables queue logs
-gpgpu_frfcfs_dram_sched_queue_size                   16 # 0 = unlimited (default); # entries per chip
-gpgpu_dram_return_queue_size                  116 # 0 = unlimited (default); # entries per chip
-gpgpu_dram_buswidth                    4 # default = 4 bytes (8 bytes per cycle at DDR)
-gpgpu_dram_burst_length                    8 # Burst length of each DRAM request (default = 4 data bus cycle)
-dram_data_command_freq_ratio                    4 # Frequency ratio between DRAM data bus and command bus (default = 2 times, i.e. DDR)
-gpgpu_dram_timing_opt nbk=16:CCD=2:RRD=6:RCD=12:RAS=28:RP=12:RC=40: CL=12:WL=4:CDLR=5:WR=12:nbkgrp=4:CCDL=3:RTPL=2 # DRAM timing parameters = {nbk:tCCD:tRRD:tRCD:tRAS:tRP:tRC:CL:WL:tCDLR:tWR:nbkgrp:tCCDL:tRTPL}
-rop_latency                          120 # ROP queue latency (default 85)
-dram_latency                         100 # DRAM latency (default 30)
-gpgpu_mem_addr_mapping dramid@8;00000000.00000000.00000000.00000000.0000RRRR.RRRRRRRR.BBBCCCCB.CCSSSSSS # mapping memory address to dram model {dramid@<start bit>;<memory address map>}
-gpgpu_mem_addr_test                    0 # run sweep test to check address mapping for aliased address
-gpgpu_mem_address_mask                    1 # 0 = old addressing mask, 1 = new addressing mask, 2 = new add. mask + flipped bank sel and chip sel bits
-gpuwattch_xml_file  gpuwattch_gtx480.xml # GPUWattch XML file
-power_simulation_enabled                    0 # Turn on power simulator (1=On, 0=Off)
-power_per_cycle_dump                    0 # Dump detailed power output each cycle
-power_trace_enabled                    0 # produce a file for the power trace (1=On, 0=Off)
-power_trace_zlevel                     6 # Compression level of the power trace output log (0=no comp, 9=highest)
-steady_power_levels_enabled                    0 # produce a file for the steady power levels (1=On, 0=Off)
-steady_state_definition                  8:4 # allowed deviation:number of samples
-gpgpu_max_cycle                        0 # terminates gpu simulation early (0 = no limit)
-gpgpu_max_insn                         0 # terminates gpu simulation early (0 = no limit)
-gpgpu_max_cta                          0 # terminates gpu simulation early (0 = no limit)
-gpgpu_runtime_stat                   500 # display runtime statistics such as dram utilization {<freq>:<flag>}
-liveness_message_freq                    1 # Minimum number of seconds between simulation liveness messages (0 = always print)
-gpgpu_flush_l1_cache                    0 # Flush L1 cache at the end of each kernel call
-gpgpu_flush_l2_cache                    0 # Flush L2 cache at the end of each kernel call
-gpgpu_deadlock_detect                    1 # Stop the simulation at deadlock (1=on (default), 0=off)
-gpgpu_ptx_instruction_classification                    0 # if enabled will classify ptx instruction types per kernel (Max 255 kernels now)
-gpgpu_ptx_sim_mode                     0 # Select between Performance (default) or Functional simulation (1)
-gpgpu_clock_domains 700.0:700.0:700.0:924.0 # Clock Domain Frequencies in MhZ {<Core Clock>:<ICNT Clock>:<L2 Clock>:<DRAM Clock>}
-gpgpu_max_concurrent_kernel                    8 # maximum kernels that can run concurrently on GPU
-gpgpu_cflog_interval                    0 # Interval between each snapshot in control flow logger
-visualizer_enabled                     0 # Turn on visualizer output (1=On, 0=Off)
-visualizer_outputfile                 NULL # Specifies the output log file for visualizer
-visualizer_zlevel                      6 # Compression level of the visualizer output log (0=no comp, 9=highest)
-trace_enabled                          0 # Turn on traces
-trace_components                    none # comma seperated list of traces to enable. Complete list found in trace_streams.tup. Default none
-trace_sampling_core                    0 # The core which is printed using CORE_DPRINTF. Default 0
-trace_sampling_memory_partition                   -1 # The memory partition which is printed using MEMPART_DPRINTF. Default -1 (i.e. all)
-enable_ptx_file_line_stats                    1 # Turn on PTX source line statistic profiling. (1 = On)
-ptx_line_stats_filename gpgpu_inst_stats.txt # Output file for PTX source line statistics.
-save_embedded_ptx                      0 # saves ptx files embedded in binary as <n>.ptx
-keep                                   0 # keep intermediate files created by GPGPU-Sim when interfacing with external programs
-gpgpu_ptx_save_converted_ptxplus                    0 # Saved converted ptxplus to a file
-ptx_opcode_latency_int         4,13,4,5,145 # Opcode latencies for integers <ADD,MAX,MUL,MAD,DIV>Default 1,1,19,25,145
-ptx_opcode_latency_fp          4,13,4,5,39 # Opcode latencies for single precision floating points <ADD,MAX,MUL,MAD,DIV>Default 1,1,1,1,30
-ptx_opcode_latency_dp         8,19,8,8,330 # Opcode latencies for double precision floating points <ADD,MAX,MUL,MAD,DIV>Default 8,8,8,8,335
-ptx_opcode_initiation_int            1,2,2,1,8 # Opcode initiation intervals for integers <ADD,MAX,MUL,MAD,DIV>Default 1,1,4,4,32
-ptx_opcode_initiation_fp            1,2,1,1,4 # Opcode initiation intervals for single precision floating points <ADD,MAX,MUL,MAD,DIV>Default 1,1,1,1,5
-ptx_opcode_initiation_dp         8,16,8,8,130 # Opcode initiation intervals for double precision floating points <ADD,MAX,MUL,MAD,DIV>Default 8,8,8,8,130
DRAM Timing Options:
nbk                                    16 # number of banks
CCD                                     2 # column to column delay
RRD                                     6 # minimal delay between activation of rows in different banks
RCD                                    12 # row to column delay
RAS                                    28 # time needed to activate row
RP                                     12 # time needed to precharge (deactivate) row
RC                                     40 # row cycle time
CDLR                                    5 # switching from write to read (changes tWTR)
WR                                     12 # last data-in to row precharge
CL                                     12 # CAS latency
WL                                      4 # Write latency
nbkgrp                                  4 # number of bank groups
CCDL                                    3 # column to column delay between accesses to different bank groups
RTPL                                    2 # read to precharge delay between accesses to different bank groups
Total number of memory sub partition = 12
addr_dec_mask[CHIP]  = 0000000000000000 	high:64 low:0
addr_dec_mask[BK]    = 000000000000e100 	high:16 low:8
addr_dec_mask[ROW]   = 000000000fff0000 	high:28 low:16
addr_dec_mask[COL]   = 0000000000001eff 	high:13 low:0
addr_dec_mask[BURST] = 000000000000003f 	high:6 low:0
sub_partition_id_mask = 0000000000000100
GPGPU-Sim uArch: clock freqs: 700000000.000000:700000000.000000:700000000.000000:924000000.000000
GPGPU-Sim uArch: clock periods: 0.00000000142857142857:0.00000000142857142857:0.00000000142857142857:0.00000000108225108225
*** Initializing Memory Statistics ***
GPGPU-Sim uArch: interconnect node map (shaderID+MemID to icntID)
GPGPU-Sim uArch: Memory nodes ID start from index: 15
GPGPU-Sim uArch:    0   1   2   3   4
GPGPU-Sim uArch:    5   6   7   8   9
GPGPU-Sim uArch:   10  11  12  13  14
GPGPU-Sim uArch:   15  16  17  18  19
GPGPU-Sim uArch:   20  21  22  23  24
GPGPU-Sim uArch:   25  26
GPGPU-Sim uArch: interconnect node reverse map (icntID to shaderID+MemID)
GPGPU-Sim uArch: Memory nodes start from ID: 15
GPGPU-Sim uArch:    0   1   2   3   4
GPGPU-Sim uArch:    5   6   7   8   9
GPGPU-Sim uArch:   10  11  12  13  14
GPGPU-Sim uArch:   15  16  17  18  19
GPGPU-Sim uArch:   20  21  22  23  24
GPGPU-Sim uArch:   25  26
54328626b7b3e20cd9d3237c822777b1  /sciclone/data10/hwang07/adwait/applications/benchmarks/rodinia/cuda/hotspot/gpgpu_ptx_sim__hotspot
GPGPU-Sim uArch: performance model initialization complete.
GPGPU-Sim PTX: __cudaRegisterFatBinary, fat_cubin_handle = 1, filename=hotspot.cu
self exe links to: /sciclone/data10/hwang07/adwait/applications/benchmarks/rodinia/cuda/hotspot/gpgpu_ptx_sim__hotspot
Running md5sum using "md5sum /sciclone/data10/hwang07/adwait/applications/benchmarks/rodinia/cuda/hotspot/gpgpu_ptx_sim__hotspot "
Parsing file _cuobjdump_complete_output_xoI5eS
######### cuobjdump parser ########
## Adding new section ELF
Adding arch: sm_20
Adding identifier: hotspot.cu
## Adding new section PTX
Adding ptx filename: _cuobjdump_1.ptx
Adding arch: sm_20
Adding identifier: hotspot.cu
Done parsing!!!
GPGPU-Sim PTX: __cudaRegisterFunction _Z14calculate_tempiPfS_S_iiiiffffff : hostFun 0x0x401b60, fat_cubin_handle = 1
GPGPU-Sim PTX: allocating shared region for "__cuda___cuda_local_var_32316_39_non_const_temp_on_cuda72" from 0x0 to 0x400 (shared memory space)
GPGPU-Sim PTX: allocating shared region for "__cuda___cuda_local_var_32317_39_non_const_power_on_cuda1096" from 0x400 to 0x800 (shared memory space)
GPGPU-Sim PTX: allocating shared region for "__cuda___cuda_local_var_32318_39_non_const_temp_t2120" from 0x800 to 0xc00 (shared memory space)
GPGPU-Sim PTX: instruction assembly for function '_Z14calculate_tempiPfS_S_iiiiffffff'...   done.
GPGPU-Sim PTX: finding reconvergence points for '_Z14calculate_tempiPfS_S_iiiiffffff'...
GPGPU-Sim PTX: Finding dominators for '_Z14calculate_tempiPfS_S_iiiiffffff'...
GPGPU-Sim PTX: Finding immediate dominators for '_Z14calculate_tempiPfS_S_iiiiffffff'...
GPGPU-Sim PTX: Finding postdominators for '_Z14calculate_tempiPfS_S_iiiiffffff'...
GPGPU-Sim PTX: Finding immediate postdominators for '_Z14calculate_tempiPfS_S_iiiiffffff'...
GPGPU-Sim PTX: pre-decoding instructions for '_Z14calculate_tempiPfS_S_iiiiffffff'...
GPGPU-Sim PTX: reconvergence points for _Z14calculate_tempiPfS_S_iiiiffffff...
GPGPU-Sim PTX:  1 (potential) branch divergence @  PC=0x060 (_1.ptx:91) @%p1 bra $Lt_0_15106;
GPGPU-Sim PTX:    immediate post dominator      @  PC=0x198 (_1.ptx:134) mov.u64 %rd1, __cuda___cuda_local_var_32316_39_non_const_temp_on_cuda72;
GPGPU-Sim PTX:  2 (potential) branch divergence @  PC=0x080 (_1.ptx:95) @%p2 bra $Lt_0_15106;
GPGPU-Sim PTX:    immediate post dominator      @  PC=0x198 (_1.ptx:134) mov.u64 %rd1, __cuda___cuda_local_var_32316_39_non_const_temp_on_cuda72;
GPGPU-Sim PTX:  3 (potential) branch divergence @  PC=0x0c8 (_1.ptx:104) @%p3 bra $Lt_0_15106;
GPGPU-Sim PTX:    immediate post dominator      @  PC=0x198 (_1.ptx:134) mov.u64 %rd1, __cuda___cuda_local_var_32316_39_non_const_temp_on_cuda72;
GPGPU-Sim PTX:  4 (potential) branch divergence @  PC=0x0e8 (_1.ptx:108) @%p4 bra $Lt_0_15106;
GPGPU-Sim PTX:    immediate post dominator      @  PC=0x198 (_1.ptx:134) mov.u64 %rd1, __cuda___cuda_local_var_32316_39_non_const_temp_on_cuda72;
GPGPU-Sim PTX:  5 (potential) branch divergence @  PC=0x1c0 (_1.ptx:140) @%p5 bra $Lt_0_15618;
GPGPU-Sim PTX:    immediate post dominator      @  PC=0x6b0 (_1.ptx:315) @!%p20 bra $Lt_0_14082;
GPGPU-Sim PTX:  6 (potential) branch divergence @  PC=0x388 (_1.ptx:200) @%p10 bra $Lt_0_17410;
GPGPU-Sim PTX:    immediate post dominator      @  PC=0x5c8 (_1.ptx:277) bar.sync 0;
GPGPU-Sim PTX:  7 (potential) branch divergence @  PC=0x3a8 (_1.ptx:204) @%p11 bra $Lt_0_17410;
GPGPU-Sim PTX:    immediate post dominator      @  PC=0x5c8 (_1.ptx:277) bar.sync 0;
GPGPU-Sim PTX:  8 (potential) branch divergence @  PC=0x3b8 (_1.ptx:206) @%p12 bra $Lt_0_17410;
GPGPU-Sim PTX:    immediate post dominator      @  PC=0x5c8 (_1.ptx:277) bar.sync 0;
GPGPU-Sim PTX:  9 (potential) branch divergence @  PC=0x3c8 (_1.ptx:208) @%p13 bra $Lt_0_17410;
GPGPU-Sim PTX:    immediate post dominator      @  PC=0x5c8 (_1.ptx:277) bar.sync 0;
GPGPU-Sim PTX: 10 (potential) branch divergence @  PC=0x3d8 (_1.ptx:210) @%p14 bra $Lt_0_17410;
GPGPU-Sim PTX:    immediate post dominator      @  PC=0x5c8 (_1.ptx:277) bar.sync 0;
GPGPU-Sim PTX: 11 (potential) branch divergence @  PC=0x3e8 (_1.ptx:212) @%p15 bra $Lt_0_17410;
GPGPU-Sim PTX:    immediate post dominator      @  PC=0x5c8 (_1.ptx:277) bar.sync 0;
GPGPU-Sim PTX: 12 (potential) branch divergence @  PC=0x3f8 (_1.ptx:214) @%p16 bra $Lt_0_17410;
GPGPU-Sim PTX:    immediate post dominator      @  PC=0x5c8 (_1.ptx:277) bar.sync 0;
GPGPU-Sim PTX: 13 (potential) branch divergence @  PC=0x408 (_1.ptx:216) @%p17 bra $Lt_0_17410;
GPGPU-Sim PTX:    immediate post dominator      @  PC=0x5c8 (_1.ptx:277) bar.sync 0;
GPGPU-Sim PTX: 14 (potential) branch divergence @  PC=0x5d8 (_1.ptx:280) @%p18 bra $Lt_0_17922;
GPGPU-Sim PTX:    immediate post dominator      @  PC=0x6b0 (_1.ptx:315) @!%p20 bra $Lt_0_14082;
GPGPU-Sim PTX: 15 (potential) branch divergence @  PC=0x600 (_1.ptx:285) @!%p19 bra $Lt_0_13314;
GPGPU-Sim PTX:    immediate post dominator      @  PC=0x650 (_1.ptx:298) bar.sync 0;
GPGPU-Sim PTX: 16 (potential) branch divergence @  PC=0x668 (_1.ptx:302) @%p23 bra $Lt_0_13058;
GPGPU-Sim PTX:    immediate post dominator      @  PC=0x6b0 (_1.ptx:315) @!%p20 bra $Lt_0_14082;
GPGPU-Sim PTX: 17 (potential) branch divergence @  PC=0x670 (_1.ptx:303) bra.uni $Lt_0_258;
GPGPU-Sim PTX:    immediate post dominator      @  PC=0x6b0 (_1.ptx:315) @!%p20 bra $Lt_0_14082;
GPGPU-Sim PTX: 18 (potential) branch divergence @  PC=0x698 (_1.ptx:309) bra.uni $Lt_0_258;
GPGPU-Sim PTX:    immediate post dominator      @  PC=0x6b0 (_1.ptx:315) @!%p20 bra $Lt_0_14082;
GPGPU-Sim PTX: 19 (potential) branch divergence @  PC=0x6b0 (_1.ptx:315) @!%p20 bra $Lt_0_14082;
GPGPU-Sim PTX:    immediate post dominator      @  PC=0x760 (_1.ptx:340) exit;
GPGPU-Sim PTX: ... end of reconvergence points for _Z14calculate_tempiPfS_S_iiiiffffff
GPGPU-Sim PTX: ... done pre-decoding instructions for '_Z14calculate_tempiPfS_S_iiiiffffff'.
GPGPU-Sim PTX: finished parsing EMBEDDED .ptx file _1.ptx
Adding _cuobjdump_1.ptx with cubin handle 1
GPGPU-Sim PTX: extracting embedded .ptx to temporary file "_ptx_XNYz9h"
Running: cat _ptx_XNYz9h | sed 's/.version 1.5/.version 1.4/' | sed 's/, texmode_independent//' | sed 's/\(\.extern \.const\[1\] .b8 \w\+\)\[\]/\1\[1\]/' | sed 's/const\[.\]/const\[0\]/g' > _ptx2_vhs4aK
GPGPU-Sim PTX: generating ptxinfo using "$CUDA_INSTALL_PATH/bin/ptxas --gpu-name=sm_20 -v _ptx2_vhs4aK --output-file  /dev/null 2> _ptx_XNYz9hinfo"
GPGPU-Sim PTX: Kernel '_Z14calculate_tempiPfS_S_iiiiffffff' : regs=35, lmem=0, smem=3072, cmem=120
GPGPU-Sim PTX: removing ptxinfo using "rm -f _ptx_XNYz9h _ptx2_vhs4aK _ptx_XNYz9hinfo"
GPGPU-Sim PTX: loading globals with explicit initializers... 
GPGPU-Sim PTX: finished loading globals (0 bytes total).
GPGPU-Sim PTX: loading constants with explicit initializers...  done.
pyramidHeight: 2
gridSize: [512, 512]
border:[2, 2]
blockGrid:[43, 43]
targetBlock:[12, 12]
Start computing the transient temperature

GPGPU-Sim PTX: cudaLaunch for 0x0x401b60 (mode=performance simulation) on stream 0
GPGPU-Sim PTX: pushing kernel '_Z14calculate_tempiPfS_S_iiiiffffff' to stream 0, gridDim= (43,43,1) blockDim = (16,16,1) 
kernel '_Z14calculate_tempiPfS_S_iiiiffffff' transfer to GPU hardware scheduler
GPGPU-Sim uArch: Shader 1 bind to kernel 1 '_Z14calculate_tempiPfS_S_iiiiffffff'
GPGPU-Sim uArch: CTA/core = 3, limited by: regs
GPGPU-Sim uArch: core:  1, cta: 0 initialized @(1,0)
GPGPU-Sim uArch: Shader 2 bind to kernel 1 '_Z14calculate_tempiPfS_S_iiiiffffff'
GPGPU-Sim uArch: core:  2, cta: 0 initialized @(1,0)
GPGPU-Sim uArch: Shader 3 bind to kernel 1 '_Z14calculate_tempiPfS_S_iiiiffffff'
GPGPU-Sim uArch: core:  3, cta: 0 initialized @(1,0)
GPGPU-Sim uArch: Shader 4 bind to kernel 1 '_Z14calculate_tempiPfS_S_iiiiffffff'
GPGPU-Sim uArch: core:  4, cta: 0 initialized @(1,0)
GPGPU-Sim uArch: Shader 5 bind to kernel 1 '_Z14calculate_tempiPfS_S_iiiiffffff'
GPGPU-Sim uArch: core:  5, cta: 0 initialized @(1,0)
GPGPU-Sim uArch: Shader 6 bind to kernel 1 '_Z14calculate_tempiPfS_S_iiiiffffff'
GPGPU-Sim uArch: core:  6, cta: 0 initialized @(1,0)
GPGPU-Sim uArch: Shader 7 bind to kernel 1 '_Z14calculate_tempiPfS_S_iiiiffffff'
GPGPU-Sim uArch: core:  7, cta: 0 initialized @(1,0)
GPGPU-Sim uArch: Shader 8 bind to kernel 1 '_Z14calculate_tempiPfS_S_iiiiffffff'
GPGPU-Sim uArch: core:  8, cta: 0 initialized @(1,0)
GPGPU-Sim uArch: Shader 9 bind to kernel 1 '_Z14calculate_tempiPfS_S_iiiiffffff'
GPGPU-Sim uArch: core:  9, cta: 0 initialized @(1,0)
GPGPU-Sim uArch: Shader 10 bind to kernel 1 '_Z14calculate_tempiPfS_S_iiiiffffff'
GPGPU-Sim uArch: core: 10, cta: 0 initialized @(1,0)
GPGPU-Sim uArch: Shader 11 bind to kernel 1 '_Z14calculate_tempiPfS_S_iiiiffffff'
GPGPU-Sim uArch: core: 11, cta: 0 initialized @(1,0)
GPGPU-Sim uArch: Shader 12 bind to kernel 1 '_Z14calculate_tempiPfS_S_iiiiffffff'
GPGPU-Sim uArch: core: 12, cta: 0 initialized @(1,0)
GPGPU-Sim uArch: Shader 13 bind to kernel 1 '_Z14calculate_tempiPfS_S_iiiiffffff'
GPGPU-Sim uArch: core: 13, cta: 0 initialized @(1,0)
GPGPU-Sim uArch: Shader 14 bind to kernel 1 '_Z14calculate_tempiPfS_S_iiiiffffff'
GPGPU-Sim uArch: core: 14, cta: 0 initialized @(1,0)
GPGPU-Sim uArch: Shader 0 bind to kernel 1 '_Z14calculate_tempiPfS_S_iiiiffffff'
GPGPU-Sim uArch: core:  0, cta: 0 initialized @(1,0)
GPGPU-Sim uArch: core:  1, cta: 1 initialized @(2,0)
GPGPU-Sim uArch: core:  2, cta: 1 initialized @(2,0)
GPGPU-Sim uArch: core:  3, cta: 1 initialized @(2,0)
GPGPU-Sim uArch: core:  4, cta: 1 initialized @(2,0)
GPGPU-Sim uArch: core:  5, cta: 1 initialized @(2,0)
GPGPU-Sim uArch: core:  6, cta: 1 initialized @(2,0)
GPGPU-Sim uArch: core:  7, cta: 1 initialized @(2,0)
GPGPU-Sim uArch: core:  8, cta: 1 initialized @(2,0)
GPGPU-Sim uArch: core:  9, cta: 1 initialized @(2,0)
GPGPU-Sim uArch: core: 10, cta: 1 initialized @(2,0)
GPGPU-Sim uArch: core: 11, cta: 1 initialized @(2,0)
GPGPU-Sim uArch: core: 12, cta: 1 initialized @(2,0)
GPGPU-Sim uArch: core: 13, cta: 1 initialized @(2,0)
GPGPU-Sim uArch: core: 14, cta: 1 initialized @(2,0)
GPGPU-Sim uArch: core:  0, cta: 1 initialized @(2,0)
GPGPU-Sim uArch: core:  1, cta: 2 initialized @(3,0)
GPGPU-Sim uArch: core:  2, cta: 2 initialized @(3,0)
GPGPU-Sim uArch: core:  3, cta: 2 initialized @(3,0)
GPGPU-Sim uArch: core:  4, cta: 2 initialized @(3,0)
GPGPU-Sim uArch: core:  5, cta: 2 initialized @(3,0)
GPGPU-Sim uArch: core:  6, cta: 2 initialized @(3,0)
GPGPU-Sim uArch: core:  7, cta: 2 initialized @(3,0)
GPGPU-Sim uArch: core:  8, cta: 2 initialized @(3,0)
GPGPU-Sim uArch: core:  9, cta: 2 initialized @(3,0)
GPGPU-Sim uArch: core: 10, cta: 2 initialized @(3,0)
GPGPU-Sim uArch: core: 11, cta: 2 initialized @(3,0)
GPGPU-Sim uArch: core: 12, cta: 2 initialized @(3,0)
GPGPU-Sim uArch: core: 13, cta: 2 initialized @(3,0)
GPGPU-Sim uArch: core: 14, cta: 2 initialized @(3,0)
GPGPU-Sim uArch: core:  0, cta: 2 initialized @(3,0)
GPGPU-Sim uArch: cycles simulated: 500  inst.: 0 (ipc= 0.0) sim_rate=0 (inst/sec) elapsed = 0:0:00:05 / Tue Mar 22 12:51:12 2016
GPGPU-Sim PTX: 100000 instructions simulated : ctaid=(19,0,0) tid=(15,11,0)
GPGPU-Sim PTX: 200000 instructions simulated : ctaid=(17,0,0) tid=(7,10,0)
GPGPU-Sim PTX: 300000 instructions simulated : ctaid=(27,0,0) tid=(7,8,0)
GPGPU-Sim uArch: cycles simulated: 1500  inst.: 327588 (ipc=218.4) sim_rate=20474 (inst/sec) elapsed = 0:0:00:16 / Tue Mar 22 12:51:23 2016
GPGPU-Sim uArch: cycles simulated: 2000  inst.: 350928 (ipc=175.5) sim_rate=20642 (inst/sec) elapsed = 0:0:00:17 / Tue Mar 22 12:51:24 2016
GPGPU-Sim PTX: 400000 instructions simulated : ctaid=(21,0,0) tid=(15,12,0)
GPGPU-Sim PTX: 500000 instructions simulated : ctaid=(3,0,0) tid=(11,4,0)
GPGPU-Sim PTX: 600000 instructions simulated : ctaid=(6,0,0) tid=(7,6,0)
GPGPU-Sim PTX: 700000 instructions simulated : ctaid=(14,0,0) tid=(7,14,0)
GPGPU-Sim PTX: 800000 instructions simulated : ctaid=(17,0,0) tid=(7,12,0)
GPGPU-Sim PTX: 900000 instructions simulated : ctaid=(19,0,0) tid=(7,6,0)
GPGPU-Sim uArch: cycles simulated: 3500  inst.: 860636 (ipc=245.9) sim_rate=47813 (inst/sec) elapsed = 0:0:00:18 / Tue Mar 22 12:51:25 2016
GPGPU-Sim PTX: 1000000 instructions simulated : ctaid=(6,0,0) tid=(2,5,0)
GPGPU-Sim PTX: 1100000 instructions simulated : ctaid=(23,0,0) tid=(11,8,0)
GPGPU-Sim PTX: 1200000 instructions simulated : ctaid=(22,0,0) tid=(2,2,0)
GPGPU-Sim PTX: 1300000 instructions simulated : ctaid=(27,0,0) tid=(13,5,0)
GPGPU-Sim uArch: cycles simulated: 5500  inst.: 1295401 (ipc=235.5) sim_rate=68179 (inst/sec) elapsed = 0:0:00:19 / Tue Mar 22 12:51:26 2016
GPGPU-Sim PTX: 1400000 instructions simulated : ctaid=(10,0,0) tid=(1,10,0)
GPGPU-Sim PTX: 1500000 instructions simulated : ctaid=(12,0,0) tid=(2,11,0)
GPGPU-Sim PTX: 1600000 instructions simulated : ctaid=(42,0,0) tid=(9,6,0)
GPGPU-Sim uArch: Shader 0 finished CTA #0 (6407,0), 2 CTAs running
GPGPU-Sim uArch: core:  0, cta: 0 initialized @(6408,0)
GPGPU-Sim uArch: Shader 1 finished CTA #1 (6450,0), 2 CTAs running
GPGPU-Sim uArch: core:  1, cta: 1 initialized @(6451,0)
GPGPU-Sim uArch: Shader 9 finished CTA #0 (6516,0), 2 CTAs running
GPGPU-Sim uArch: core:  9, cta: 0 initialized @(6517,0)
GPGPU-Sim uArch: Shader 2 finished CTA #0 (6521,0), 2 CTAs running
GPGPU-Sim uArch: core:  2, cta: 0 initialized @(6522,0)
GPGPU-Sim uArch: Shader 8 finished CTA #0 (6529,0), 2 CTAs running
GPGPU-Sim uArch: core:  8, cta: 0 initialized @(6530,0)
GPGPU-Sim uArch: Shader 1 finished CTA #0 (6532,0), 2 CTAs running
GPGPU-Sim uArch: core:  1, cta: 0 initialized @(6533,0)
GPGPU-Sim uArch: Shader 9 finished CTA #2 (6541,0), 2 CTAs running
GPGPU-Sim uArch: Shader 11 finished CTA #0 (6541,0), 2 CTAs running
GPGPU-Sim uArch: core:  9, cta: 2 initialized @(6542,0)
GPGPU-Sim uArch: core: 11, cta: 0 initialized @(6542,0)
GPGPU-Sim uArch: Shader 6 finished CTA #0 (6561,0), 2 CTAs running
GPGPU-Sim uArch: core:  6, cta: 0 initialized @(6562,0)
GPGPU-Sim uArch: Shader 9 finished CTA #1 (6584,0), 2 CTAs running
GPGPU-Sim uArch: core:  9, cta: 1 initialized @(6585,0)
GPGPU-Sim uArch: Shader 2 finished CTA #1 (6591,0), 2 CTAs running
GPGPU-Sim uArch: core:  2, cta: 1 initialized @(6592,0)
GPGPU-Sim PTX: 1700000 instructions simulated : ctaid=(37,0,0) tid=(1,1,0)
GPGPU-Sim uArch: Shader 14 finished CTA #0 (6619,0), 2 CTAs running
GPGPU-Sim uArch: core: 14, cta: 0 initialized @(6620,0)
GPGPU-Sim uArch: Shader 5 finished CTA #0 (6627,0), 2 CTAs running
GPGPU-Sim uArch: core:  5, cta: 0 initialized @(6628,0)
GPGPU-Sim uArch: Shader 12 finished CTA #2 (6644,0), 2 CTAs running
GPGPU-Sim uArch: core: 12, cta: 2 initialized @(6645,0)
GPGPU-Sim uArch: Shader 8 finished CTA #2 (6651,0), 2 CTAs running
GPGPU-Sim uArch: core:  8, cta: 2 initialized @(6652,0)
GPGPU-Sim uArch: Shader 13 finished CTA #2 (6675,0), 2 CTAs running
GPGPU-Sim uArch: core: 13, cta: 2 initialized @(6676,0)
GPGPU-Sim uArch: Shader 10 finished CTA #2 (6691,0), 2 CTAs running
GPGPU-Sim uArch: core: 10, cta: 2 initialized @(6692,0)
GPGPU-Sim uArch: Shader 4 finished CTA #0 (6693,0), 2 CTAs running
GPGPU-Sim uArch: core:  4, cta: 0 initialized @(6694,0)
GPGPU-Sim uArch: Shader 3 finished CTA #1 (6717,0), 2 CTAs running
GPGPU-Sim uArch: core:  3, cta: 1 initialized @(6718,0)
GPGPU-Sim uArch: Shader 7 finished CTA #0 (6723,0), 2 CTAs running
GPGPU-Sim uArch: core:  7, cta: 0 initialized @(6724,0)
GPGPU-Sim uArch: Shader 11 finished CTA #2 (6744,0), 2 CTAs running
GPGPU-Sim uArch: core: 11, cta: 2 initialized @(6745,0)
GPGPU-Sim uArch: Shader 13 finished CTA #0 (6747,0), 2 CTAs running
GPGPU-Sim uArch: core: 13, cta: 0 initialized @(6748,0)
GPGPU-Sim uArch: Shader 10 finished CTA #0 (6754,0), 2 CTAs running
GPGPU-Sim uArch: core: 10, cta: 0 initialized @(6755,0)
GPGPU-Sim uArch: Shader 12 finished CTA #1 (6759,0), 2 CTAs running
GPGPU-Sim uArch: core: 12, cta: 1 initialized @(6760,0)
GPGPU-Sim PTX: 1800000 instructions simulated : ctaid=(24,1,0) tid=(5,10,0)
GPGPU-Sim uArch: Shader 10 finished CTA #1 (6777,0), 2 CTAs running
GPGPU-Sim uArch: Shader 11 finished CTA #1 (6777,0), 2 CTAs running
GPGPU-Sim uArch: Shader 12 finished CTA #0 (6777,0), 2 CTAs running
GPGPU-Sim uArch: core: 10, cta: 1 initialized @(6778,0)
GPGPU-Sim uArch: core: 11, cta: 1 initialized @(6778,0)
GPGPU-Sim uArch: core: 12, cta: 0 initialized @(6778,0)
GPGPU-Sim uArch: Shader 6 finished CTA #1 (6842,0), 2 CTAs running
GPGPU-Sim uArch: core:  6, cta: 1 initialized @(6843,0)
GPGPU-Sim uArch: Shader 8 finished CTA #1 (6844,0), 2 CTAs running
GPGPU-Sim uArch: core:  8, cta: 1 initialized @(6845,0)
GPGPU-Sim uArch: Shader 5 finished CTA #1 (6851,0), 2 CTAs running
GPGPU-Sim uArch: core:  5, cta: 1 initialized @(6852,0)
GPGPU-Sim uArch: Shader 7 finished CTA #1 (6853,0), 2 CTAs running
GPGPU-Sim uArch: core:  7, cta: 1 initialized @(6854,0)
GPGPU-Sim uArch: Shader 4 finished CTA #1 (6854,0), 2 CTAs running
GPGPU-Sim uArch: core:  4, cta: 1 initialized @(6855,0)
GPGPU-Sim uArch: Shader 3 finished CTA #0 (6856,0), 2 CTAs running
GPGPU-Sim uArch: core:  3, cta: 0 initialized @(6857,0)
GPGPU-Sim uArch: Shader 0 finished CTA #1 (6858,0), 2 CTAs running
GPGPU-Sim uArch: core:  0, cta: 1 initialized @(6859,0)
GPGPU-Sim uArch: Shader 14 finished CTA #1 (6863,0), 2 CTAs running
GPGPU-Sim uArch: core: 14, cta: 1 initialized @(6864,0)
GPGPU-Sim uArch: Shader 13 finished CTA #1 (6870,0), 2 CTAs running
GPGPU-Sim uArch: core: 13, cta: 1 initialized @(6871,0)
GPGPU-Sim PTX: 1900000 instructions simulated : ctaid=(8,1,0) tid=(5,15,0)
GPGPU-Sim uArch: cycles simulated: 7000  inst.: 1819635 (ipc=259.9) sim_rate=90981 (inst/sec) elapsed = 0:0:00:20 / Tue Mar 22 12:51:27 2016
GPGPU-Sim PTX: 2000000 instructions simulated : ctaid=(35,0,0) tid=(1,5,0)
GPGPU-Sim PTX: 2100000 instructions simulated : ctaid=(33,0,0) tid=(15,5,0)
GPGPU-Sim uArch: cycles simulated: 7500  inst.: 2034566 (ipc=271.3) sim_rate=96884 (inst/sec) elapsed = 0:0:00:21 / Tue Mar 22 12:51:28 2016
GPGPU-Sim PTX: 2200000 instructions simulated : ctaid=(34,0,0) tid=(14,11,0)
GPGPU-Sim PTX: 2300000 instructions simulated : ctaid=(34,1,0) tid=(9,2,0)
GPGPU-Sim PTX: 2400000 instructions simulated : ctaid=(30,1,0) tid=(9,13,0)
GPGPU-Sim PTX: 2500000 instructions simulated : ctaid=(21,1,0) tid=(14,13,0)
GPGPU-Sim uArch: Shader 2 finished CTA #2 (8146,0), 2 CTAs running
GPGPU-Sim uArch: core:  2, cta: 2 initialized @(8147,0)
GPGPU-Sim uArch: Shader 1 finished CTA #2 (8171,0), 2 CTAs running
GPGPU-Sim uArch: core:  1, cta: 2 initialized @(8172,0)
GPGPU-Sim PTX: 2600000 instructions simulated : ctaid=(3,1,0) tid=(9,3,0)
GPGPU-Sim PTX: 2700000 instructions simulated : ctaid=(34,0,0) tid=(7,5,0)
GPGPU-Sim uArch: cycles simulated: 8500  inst.: 2600553 (ipc=305.9) sim_rate=118206 (inst/sec) elapsed = 0:0:00:22 / Tue Mar 22 12:51:29 2016
GPGPU-Sim PTX: 2800000 instructions simulated : ctaid=(25,1,0) tid=(7,3,0)
GPGPU-Sim PTX: 2900000 instructions simulated : ctaid=(6,1,0) tid=(2,6,0)
GPGPU-Sim uArch: Shader 7 finished CTA #2 (8784,0), 2 CTAs running
GPGPU-Sim uArch: core:  7, cta: 2 initialized @(8785,0)
GPGPU-Sim uArch: Shader 14 finished CTA #2 (8863,0), 2 CTAs running
GPGPU-Sim uArch: core: 14, cta: 2 initialized @(8864,0)
GPGPU-Sim uArch: Shader 4 finished CTA #2 (8870,0), 2 CTAs running
GPGPU-Sim uArch: core:  4, cta: 2 initialized @(8871,0)
GPGPU-Sim uArch: Shader 6 finished CTA #2 (8896,0), 2 CTAs running
GPGPU-Sim uArch: core:  6, cta: 2 initialized @(8897,0)
GPGPU-Sim uArch: Shader 3 finished CTA #2 (8898,0), 2 CTAs running
GPGPU-Sim PTX: 3000000 instructions simulated : ctaid=(19,1,0) tid=(8,13,0)
GPGPU-Sim uArch: core:  3, cta: 2 initialized @(8899,0)
GPGPU-Sim uArch: Shader 0 finished CTA #2 (8899,0), 2 CTAs running
GPGPU-Sim uArch: core:  0, cta: 2 initialized @(8900,0)
GPGPU-Sim uArch: Shader 5 finished CTA #2 (8906,0), 2 CTAs running
GPGPU-Sim uArch: core:  5, cta: 2 initialized @(8907,0)
GPGPU-Sim PTX: 3100000 instructions simulated : ctaid=(3,2,0) tid=(1,2,0)
GPGPU-Sim PTX: 3200000 instructions simulated : ctaid=(7,1,0) tid=(12,13,0)
GPGPU-Sim PTX: 3300000 instructions simulated : ctaid=(12,1,0) tid=(4,4,0)
GPGPU-Sim uArch: cycles simulated: 9500  inst.: 3126830 (ipc=329.1) sim_rate=135949 (inst/sec) elapsed = 0:0:00:23 / Tue Mar 22 12:51:30 2016
GPGPU-Sim uArch: Shader 6 finished CTA #0 (9547,0), 2 CTAs running
GPGPU-Sim uArch: core:  6, cta: 0 initialized @(9548,0)
GPGPU-Sim PTX: 3400000 instructions simulated : ctaid=(36,1,0) tid=(13,14,0)
GPGPU-Sim uArch: Shader 5 finished CTA #0 (9655,0), 2 CTAs running
GPGPU-Sim uArch: core:  5, cta: 0 initialized @(9656,0)
GPGPU-Sim uArch: Shader 1 finished CTA #1 (9666,0), 2 CTAs running
GPGPU-Sim uArch: core:  1, cta: 1 initialized @(9667,0)
GPGPU-Sim uArch: Shader 4 finished CTA #0 (9741,0), 2 CTAs running
GPGPU-Sim uArch: core:  4, cta: 0 initialized @(9742,0)
GPGPU-Sim PTX: 3500000 instructions simulated : ctaid=(29,1,0) tid=(5,13,0)
GPGPU-Sim uArch: Shader 13 finished CTA #2 (9783,0), 2 CTAs running
GPGPU-Sim uArch: core: 13, cta: 2 initialized @(9784,0)
GPGPU-Sim uArch: Shader 2 finished CTA #0 (9805,0), 2 CTAs running
GPGPU-Sim uArch: core:  2, cta: 0 initialized @(9806,0)
GPGPU-Sim uArch: Shader 0 finished CTA #0 (9822,0), 2 CTAs running
GPGPU-Sim uArch: core:  0, cta: 0 initialized @(9823,0)
GPGPU-Sim uArch: Shader 7 finished CTA #0 (9826,0), 2 CTAs running
GPGPU-Sim uArch: core:  7, cta: 0 initialized @(9827,0)
GPGPU-Sim uArch: Shader 12 finished CTA #2 (9828,0), 2 CTAs running
GPGPU-Sim uArch: core: 12, cta: 2 initialized @(9829,0)
GPGPU-Sim uArch: Shader 14 finished CTA #0 (9860,0), 2 CTAs running
GPGPU-Sim uArch: core: 14, cta: 0 initialized @(9861,0)
GPGPU-Sim uArch: Shader 9 finished CTA #0 (9866,0), 2 CTAs running
GPGPU-Sim uArch: core:  9, cta: 0 initialized @(9867,0)
GPGPU-Sim uArch: Shader 10 finished CTA #2 (9870,0), 2 CTAs running
GPGPU-Sim uArch: core: 10, cta: 2 initialized @(9871,0)
GPGPU-Sim uArch: Shader 3 finished CTA #1 (9880,0), 2 CTAs running
GPGPU-Sim uArch: core:  3, cta: 1 initialized @(9881,0)
GPGPU-Sim uArch: Shader 11 finished CTA #0 (9910,0), 2 CTAs running
GPGPU-Sim uArch: core: 11, cta: 0 initialized @(9911,0)
GPGPU-Sim uArch: Shader 8 finished CTA #0 (9919,0), 2 CTAs running
GPGPU-Sim uArch: core:  8, cta: 0 initialized @(9920,0)
GPGPU-Sim PTX: 3600000 instructions simulated : ctaid=(39,1,0) tid=(13,6,0)
GPGPU-Sim uArch: cycles simulated: 10000  inst.: 3394508 (ipc=339.5) sim_rate=141437 (inst/sec) elapsed = 0:0:00:24 / Tue Mar 22 12:51:31 2016
GPGPU-Sim PTX: 3700000 instructions simulated : ctaid=(17,2,0) tid=(11,2,0)
GPGPU-Sim uArch: Shader 13 finished CTA #1 (10095,0), 2 CTAs running
GPGPU-Sim uArch: core: 13, cta: 1 initialized @(10096,0)
GPGPU-Sim PTX: 3800000 instructions simulated : ctaid=(27,1,0) tid=(1,7,0)
GPGPU-Sim uArch: Shader 9 finished CTA #2 (10246,0), 2 CTAs running
GPGPU-Sim uArch: core:  9, cta: 2 initialized @(10247,0)
GPGPU-Sim uArch: Shader 1 finished CTA #2 (10345,0), 2 CTAs running
GPGPU-Sim uArch: core:  1, cta: 2 initialized @(10346,0)
GPGPU-Sim uArch: Shader 2 finished CTA #2 (10349,0), 2 CTAs running
GPGPU-Sim uArch: core:  2, cta: 2 initialized @(10350,0)
GPGPU-Sim PTX: 3900000 instructions simulated : ctaid=(11,1,0) tid=(13,1,0)
GPGPU-Sim uArch: Shader 8 finished CTA #2 (10380,0), 2 CTAs running
GPGPU-Sim uArch: core:  8, cta: 2 initialized @(10381,0)
GPGPU-Sim uArch: Shader 7 finished CTA #2 (10454,0), 2 CTAs running
GPGPU-Sim uArch: core:  7, cta: 2 initialized @(10455,0)
GPGPU-Sim uArch: Shader 4 finished CTA #2 (10465,0), 2 CTAs running
GPGPU-Sim uArch: core:  4, cta: 2 initialized @(10466,0)
GPGPU-Sim uArch: Shader 1 finished CTA #0 (10520,0), 2 CTAs running
GPGPU-Sim uArch: core:  1, cta: 0 initialized @(10521,0)
GPGPU-Sim PTX: 4000000 instructions simulated : ctaid=(21,2,0) tid=(0,8,0)
GPGPU-Sim uArch: Shader 10 finished CTA #0 (10545,0), 2 CTAs running
GPGPU-Sim uArch: core: 10, cta: 0 initialized @(10546,0)
GPGPU-Sim uArch: Shader 12 finished CTA #1 (10625,0), 2 CTAs running
GPGPU-Sim uArch: core: 12, cta: 1 initialized @(10626,0)
GPGPU-Sim uArch: Shader 14 finished CTA #2 (10626,0), 2 CTAs running
GPGPU-Sim uArch: core: 14, cta: 2 initialized @(10627,0)
GPGPU-Sim uArch: Shader 11 finished CTA #2 (10627,0), 2 CTAs running
GPGPU-Sim uArch: core: 11, cta: 2 initialized @(10628,0)
GPGPU-Sim uArch: Shader 13 finished CTA #0 (10629,0), 2 CTAs running
GPGPU-Sim uArch: core: 13, cta: 0 initialized @(10630,0)
GPGPU-Sim PTX: 4100000 instructions simulated : ctaid=(11,2,0) tid=(15,15,0)
GPGPU-Sim uArch: Shader 2 finished CTA #1 (10746,0), 2 CTAs running
GPGPU-Sim uArch: core:  2, cta: 1 initialized @(10747,0)
GPGPU-Sim PTX: 4200000 instructions simulated : ctaid=(11,1,0) tid=(1,1,0)
GPGPU-Sim uArch: cycles simulated: 11000  inst.: 3971964 (ipc=361.1) sim_rate=158878 (inst/sec) elapsed = 0:0:00:25 / Tue Mar 22 12:51:32 2016
GPGPU-Sim uArch: Shader 5 finished CTA #1 (11060,0), 2 CTAs running
GPGPU-Sim uArch: core:  5, cta: 1 initialized @(11061,0)
GPGPU-Sim PTX: 4300000 instructions simulated : ctaid=(32,2,0) tid=(15,9,0)
GPGPU-Sim uArch: Shader 4 finished CTA #1 (11154,0), 2 CTAs running
GPGPU-Sim uArch: core:  4, cta: 1 initialized @(11155,0)
GPGPU-Sim PTX: 4400000 instructions simulated : ctaid=(30,1,0) tid=(5,3,0)
GPGPU-Sim uArch: Shader 6 finished CTA #1 (11288,0), 2 CTAs running
GPGPU-Sim uArch: core:  6, cta: 1 initialized @(11289,0)
GPGPU-Sim uArch: Shader 7 finished CTA #1 (11345,0), 2 CTAs running
GPGPU-Sim uArch: core:  7, cta: 1 initialized @(11346,0)
GPGPU-Sim uArch: Shader 0 finished CTA #1 (11386,0), 2 CTAs running
GPGPU-Sim uArch: core:  0, cta: 1 initialized @(11387,0)
GPGPU-Sim uArch: Shader 3 finished CTA #0 (11452,0), 2 CTAs running
GPGPU-Sim uArch: core:  3, cta: 0 initialized @(11453,0)
GPGPU-Sim uArch: Shader 14 finished CTA #1 (11464,0), 2 CTAs running
GPGPU-Sim uArch: core: 14, cta: 1 initialized @(11465,0)
GPGPU-Sim PTX: 4500000 instructions simulated : ctaid=(0,2,0) tid=(11,14,0)
GPGPU-Sim uArch: Shader 10 finished CTA #1 (11628,0), 2 CTAs running
GPGPU-Sim uArch: core: 10, cta: 1 initialized @(11629,0)
GPGPU-Sim PTX: 4600000 instructions simulated : ctaid=(19,2,0) tid=(3,8,0)
GPGPU-Sim uArch: Shader 9 finished CTA #1 (11753,0), 2 CTAs running
GPGPU-Sim uArch: core:  9, cta: 1 initialized @(11754,0)
GPGPU-Sim PTX: 4700000 instructions simulated : ctaid=(9,2,0) tid=(15,12,0)
GPGPU-Sim uArch: Shader 12 finished CTA #0 (11817,0), 2 CTAs running
GPGPU-Sim uArch: core: 12, cta: 0 initialized @(11818,0)
GPGPU-Sim uArch: Shader 11 finished CTA #1 (11842,0), 2 CTAs running
GPGPU-Sim uArch: core: 11, cta: 1 initialized @(11843,0)
GPGPU-Sim uArch: Shader 8 finished CTA #1 (11856,0), 2 CTAs running
GPGPU-Sim uArch: core:  8, cta: 1 initialized @(11857,0)
GPGPU-Sim PTX: 4800000 instructions simulated : ctaid=(15,2,0) tid=(3,14,0)
GPGPU-Sim uArch: cycles simulated: 12000  inst.: 4519170 (ipc=376.6) sim_rate=173814 (inst/sec) elapsed = 0:0:00:26 / Tue Mar 22 12:51:33 2016
GPGPU-Sim PTX: 4900000 instructions simulated : ctaid=(23,2,0) tid=(3,6,0)
GPGPU-Sim uArch: Shader 5 finished CTA #2 (12163,0), 2 CTAs running
GPGPU-Sim uArch: core:  5, cta: 2 initialized @(12164,0)
GPGPU-Sim uArch: Shader 6 finished CTA #2 (12198,0), 2 CTAs running
GPGPU-Sim uArch: core:  6, cta: 2 initialized @(12199,0)
GPGPU-Sim uArch: Shader 0 finished CTA #2 (12228,0), 2 CTAs running
GPGPU-Sim uArch: core:  0, cta: 2 initialized @(12229,0)
GPGPU-Sim PTX: 5000000 instructions simulated : ctaid=(27,2,0) tid=(9,0,0)
GPGPU-Sim uArch: Shader 3 finished CTA #2 (12269,0), 2 CTAs running
GPGPU-Sim uArch: core:  3, cta: 2 initialized @(12270,0)
GPGPU-Sim PTX: 5100000 instructions simulated : ctaid=(19,2,0) tid=(10,6,0)
GPGPU-Sim uArch: cycles simulated: 12500  inst.: 4819348 (ipc=385.5) sim_rate=178494 (inst/sec) elapsed = 0:0:00:27 / Tue Mar 22 12:51:34 2016
GPGPU-Sim PTX: 5200000 instructions simulated : ctaid=(21,2,0) tid=(14,13,0)
GPGPU-Sim PTX: 5300000 instructions simulated : ctaid=(4,3,0) tid=(13,5,0)
GPGPU-Sim uArch: Shader 13 finished CTA #2 (12834,0), 2 CTAs running
GPGPU-Sim uArch: core: 13, cta: 2 initialized @(12835,0)
GPGPU-Sim uArch: Shader 4 finished CTA #0 (12899,0), 2 CTAs running
GPGPU-Sim uArch: core:  4, cta: 0 initialized @(12900,0)
GPGPU-Sim PTX: 5400000 instructions simulated : ctaid=(20,2,0) tid=(6,11,0)
GPGPU-Sim PTX: 5500000 instructions simulated : ctaid=(25,2,0) tid=(6,10,0)
GPGPU-Sim uArch: Shader 1 finished CTA #1 (13108,0), 2 CTAs running
GPGPU-Sim uArch: core:  1, cta: 1 initialized @(13109,0)
GPGPU-Sim uArch: Shader 3 finished CTA #0 (13133,0), 2 CTAs running
GPGPU-Sim uArch: core:  3, cta: 0 initialized @(13134,0)
GPGPU-Sim uArch: Shader 12 finished CTA #2 (13191,0), 2 CTAs running
GPGPU-Sim uArch: core: 12, cta: 2 initialized @(13192,0)
GPGPU-Sim uArch: Shader 0 finished CTA #1 (13242,0), 2 CTAs running
GPGPU-Sim uArch: core:  0, cta: 1 initialized @(13243,0)
GPGPU-Sim PTX: 5600000 instructions simulated : ctaid=(8,3,0) tid=(13,0,0)
GPGPU-Sim uArch: Shader 7 finished CTA #0 (13303,0), 2 CTAs running
GPGPU-Sim uArch: core:  7, cta: 0 initialized @(13304,0)
GPGPU-Sim uArch: Shader 2 finished CTA #0 (13304,0), 2 CTAs running
GPGPU-Sim uArch: core:  2, cta: 0 initialized @(13305,0)
GPGPU-Sim uArch: Shader 5 finished CTA #0 (13314,0), 2 CTAs running
GPGPU-Sim uArch: core:  5, cta: 0 initialized @(13315,0)
GPGPU-Sim uArch: Shader 10 finished CTA #2 (13393,0), 2 CTAs running
GPGPU-Sim uArch: core: 10, cta: 2 initialized @(13394,0)
GPGPU-Sim uArch: Shader 6 finished CTA #0 (13426,0), 2 CTAs running
GPGPU-Sim uArch: Shader 11 finished CTA #0 (13426,0), 2 CTAs running
GPGPU-Sim uArch: core: 11, cta: 0 initialized @(13427,0)
GPGPU-Sim uArch: core:  6, cta: 0 initialized @(13427,0)
GPGPU-Sim PTX: 5700000 instructions simulated : ctaid=(26,2,0) tid=(15,6,0)
GPGPU-Sim uArch: Shader 14 finished CTA #0 (13449,0), 2 CTAs running
GPGPU-Sim uArch: core: 14, cta: 0 initialized @(13450,0)
GPGPU-Sim uArch: Shader 9 finished CTA #0 (13452,0), 2 CTAs running
GPGPU-Sim uArch: core:  9, cta: 0 initialized @(13453,0)
GPGPU-Sim uArch: Shader 8 finished CTA #0 (13498,0), 2 CTAs running
GPGPU-Sim uArch: core:  8, cta: 0 initialized @(13499,0)
GPGPU-Sim uArch: cycles simulated: 13500  inst.: 5359414 (ipc=397.0) sim_rate=191407 (inst/sec) elapsed = 0:0:00:28 / Tue Mar 22 12:51:35 2016
GPGPU-Sim uArch: Shader 3 finished CTA #1 (13542,0), 2 CTAs running
GPGPU-Sim uArch: core:  3, cta: 1 initialized @(13543,0)
GPGPU-Sim PTX: 5800000 instructions simulated : ctaid=(33,2,0) tid=(4,6,0)
GPGPU-Sim uArch: Shader 13 finished CTA #1 (13612,0), 2 CTAs running
GPGPU-Sim uArch: core: 13, cta: 1 initialized @(13613,0)
GPGPU-Sim uArch: Shader 0 finished CTA #0 (13698,0), 2 CTAs running
GPGPU-Sim uArch: core:  0, cta: 0 initialized @(13699,0)
GPGPU-Sim PTX: 5900000 instructions simulated : ctaid=(23,3,0) tid=(5,13,0)
GPGPU-Sim uArch: Shader 1 finished CTA #2 (13825,0), 2 CTAs running
GPGPU-Sim uArch: core:  1, cta: 2 initialized @(13826,0)
GPGPU-Sim PTX: 6000000 instructions simulated : ctaid=(20,3,0) tid=(15,7,0)
GPGPU-Sim uArch: Shader 12 finished CTA #0 (13918,0), 2 CTAs running
GPGPU-Sim uArch: core: 12, cta: 0 initialized @(13919,0)
GPGPU-Sim uArch: Shader 14 finished CTA #1 (13978,0), 2 CTAs running
GPGPU-Sim uArch: core: 14, cta: 1 initialized @(13979,0)
GPGPU-Sim uArch: Shader 9 finished CTA #1 (13993,0), 2 CTAs running
GPGPU-Sim uArch: core:  9, cta: 1 initialized @(13994,0)
GPGPU-Sim uArch: cycles simulated: 14000  inst.: 5654160 (ipc=403.9) sim_rate=194971 (inst/sec) elapsed = 0:0:00:29 / Tue Mar 22 12:51:36 2016
GPGPU-Sim uArch: Shader 10 finished CTA #1 (14012,0), 2 CTAs running
GPGPU-Sim uArch: core: 10, cta: 1 initialized @(14013,0)
GPGPU-Sim uArch: Shader 4 finished CTA #2 (14013,0), 2 CTAs running
GPGPU-Sim uArch: core:  4, cta: 2 initialized @(14014,0)
GPGPU-Sim uArch: Shader 7 finished CTA #2 (14056,0), 2 CTAs running
GPGPU-Sim uArch: core:  7, cta: 2 initialized @(14057,0)
GPGPU-Sim uArch: Shader 2 finished CTA #2 (14057,0), 2 CTAs running
GPGPU-Sim uArch: core:  2, cta: 2 initialized @(14058,0)
GPGPU-Sim PTX: 6100000 instructions simulated : ctaid=(22,3,0) tid=(11,6,0)
GPGPU-Sim uArch: Shader 8 finished CTA #2 (14102,0), 2 CTAs running
GPGPU-Sim uArch: core:  8, cta: 2 initialized @(14103,0)
GPGPU-Sim uArch: Shader 9 finished CTA #2 (14132,0), 2 CTAs running
GPGPU-Sim uArch: core:  9, cta: 2 initialized @(14133,0)
GPGPU-Sim PTX: 6200000 instructions simulated : ctaid=(4,3,0) tid=(2,0,0)
GPGPU-Sim uArch: Shader 12 finished CTA #1 (14289,0), 2 CTAs running
GPGPU-Sim uArch: core: 12, cta: 1 initialized @(14290,0)
GPGPU-Sim PTX: 6300000 instructions simulated : ctaid=(4,3,0) tid=(8,4,0)
GPGPU-Sim uArch: Shader 11 finished CTA #2 (14469,0), 2 CTAs running
GPGPU-Sim uArch: core: 11, cta: 2 initialized @(14470,0)
GPGPU-Sim uArch: Shader 10 finished CTA #0 (14489,0), 2 CTAs running
GPGPU-Sim uArch: core: 10, cta: 0 initialized @(14490,0)
GPGPU-Sim uArch: Shader 14 finished CTA #2 (14492,0), 2 CTAs running
GPGPU-Sim uArch: core: 14, cta: 2 initialized @(14493,0)
GPGPU-Sim uArch: cycles simulated: 14500  inst.: 5932744 (ipc=409.2) sim_rate=197758 (inst/sec) elapsed = 0:0:00:30 / Tue Mar 22 12:51:37 2016
GPGPU-Sim uArch: Shader 5 finished CTA #1 (14503,0), 2 CTAs running
GPGPU-Sim uArch: core:  5, cta: 1 initialized @(14504,0)
GPGPU-Sim PTX: 6400000 instructions simulated : ctaid=(32,3,0) tid=(4,0,0)
GPGPU-Sim uArch: Shader 6 finished CTA #1 (14677,0), 2 CTAs running
GPGPU-Sim uArch: core:  6, cta: 1 initialized @(14678,0)
GPGPU-Sim PTX: 6500000 instructions simulated : ctaid=(32,3,0) tid=(14,11,0)
GPGPU-Sim uArch: Shader 13 finished CTA #0 (14865,0), 2 CTAs running
GPGPU-Sim uArch: core: 13, cta: 0 initialized @(14866,0)
GPGPU-Sim PTX: 6600000 instructions simulated : ctaid=(7,3,0) tid=(3,12,0)
GPGPU-Sim PTX: 6700000 instructions simulated : ctaid=(20,3,0) tid=(4,15,0)
GPGPU-Sim uArch: Shader 1 finished CTA #0 (15091,0), 2 CTAs running
GPGPU-Sim uArch: core:  1, cta: 0 initialized @(15092,0)
GPGPU-Sim uArch: Shader 2 finished CTA #1 (15120,0), 2 CTAs running
GPGPU-Sim uArch: core:  2, cta: 1 initialized @(15121,0)
GPGPU-Sim uArch: Shader 7 finished CTA #1 (15162,0), 2 CTAs running
GPGPU-Sim uArch: core:  7, cta: 1 initialized @(15163,0)
GPGPU-Sim PTX: 6800000 instructions simulated : ctaid=(20,3,0) tid=(6,7,0)
GPGPU-Sim uArch: Shader 4 finished CTA #1 (15269,0), 2 CTAs running
GPGPU-Sim uArch: core:  4, cta: 1 initialized @(15270,0)
GPGPU-Sim PTX: 6900000 instructions simulated : ctaid=(16,3,0) tid=(15,6,0)
GPGPU-Sim uArch: cycles simulated: 15500  inst.: 6527848 (ipc=421.2) sim_rate=210575 (inst/sec) elapsed = 0:0:00:31 / Tue Mar 22 12:51:38 2016
GPGPU-Sim PTX: 7000000 instructions simulated : ctaid=(1,4,0) tid=(15,11,0)
GPGPU-Sim uArch: Shader 8 finished CTA #1 (15604,0), 2 CTAs running
GPGPU-Sim uArch: core:  8, cta: 1 initialized @(15605,0)
GPGPU-Sim uArch: Shader 11 finished CTA #1 (15656,0), 2 CTAs running
GPGPU-Sim uArch: core: 11, cta: 1 initialized @(15657,0)
GPGPU-Sim PTX: 7100000 instructions simulated : ctaid=(24,3,0) tid=(11,2,0)
GPGPU-Sim uArch: Shader 3 finished CTA #2 (15694,0), 2 CTAs running
GPGPU-Sim uArch: core:  3, cta: 2 initialized @(15695,0)
GPGPU-Sim uArch: Shader 0 finished CTA #2 (15787,0), 2 CTAs running
GPGPU-Sim uArch: core:  0, cta: 2 initialized @(15788,0)
GPGPU-Sim uArch: Shader 5 finished CTA #2 (15833,0), 2 CTAs running
GPGPU-Sim uArch: core:  5, cta: 2 initialized @(15834,0)
GPGPU-Sim uArch: Shader 6 finished CTA #2 (15851,0), 2 CTAs running
GPGPU-Sim uArch: core:  6, cta: 2 initialized @(15852,0)
GPGPU-Sim PTX: 7200000 instructions simulated : ctaid=(5,4,0) tid=(11,11,0)
GPGPU-Sim uArch: Shader 13 finished CTA #2 (15993,0), 2 CTAs running
GPGPU-Sim uArch: core: 13, cta: 2 initialized @(15994,0)
GPGPU-Sim uArch: cycles simulated: 16000  inst.: 6799090 (ipc=424.9) sim_rate=212471 (inst/sec) elapsed = 0:0:00:32 / Tue Mar 22 12:51:39 2016
GPGPU-Sim PTX: 7300000 instructions simulated : ctaid=(38,3,0) tid=(3,12,0)
GPGPU-Sim uArch: Shader 1 finished CTA #1 (16038,0), 2 CTAs running
GPGPU-Sim uArch: core:  1, cta: 1 initialized @(16039,0)
GPGPU-Sim uArch: Shader 4 finished CTA #0 (16056,0), 2 CTAs running
GPGPU-Sim uArch: core:  4, cta: 0 initialized @(16057,0)
GPGPU-Sim PTX: 7400000 instructions simulated : ctaid=(11,3,0) tid=(8,7,0)
GPGPU-Sim PTX: 7500000 instructions simulated : ctaid=(24,3,0) tid=(6,12,0)
GPGPU-Sim uArch: Shader 7 finished CTA #0 (16446,0), 2 CTAs running
GPGPU-Sim uArch: core:  7, cta: 0 initialized @(16447,0)
GPGPU-Sim uArch: Shader 2 finished CTA #0 (16454,0), 2 CTAs running
GPGPU-Sim uArch: core:  2, cta: 0 initialized @(16455,0)
GPGPU-Sim PTX: 7600000 instructions simulated : ctaid=(42,3,0) tid=(11,15,0)
GPGPU-Sim uArch: Shader 10 finished CTA #2 (16543,0), 2 CTAs running
GPGPU-Sim uArch: core: 10, cta: 2 initialized @(16544,0)
GPGPU-Sim uArch: Shader 5 finished CTA #1 (16563,0), 2 CTAs running
GPGPU-Sim uArch: core:  5, cta: 1 initialized @(16564,0)
GPGPU-Sim uArch: Shader 12 finished CTA #2 (16645,0), 2 CTAs running
GPGPU-Sim uArch: core: 12, cta: 2 initialized @(16646,0)
GPGPU-Sim PTX: 7700000 instructions simulated : ctaid=(32,3,0) tid=(10,10,0)
GPGPU-Sim uArch: Shader 6 finished CTA #1 (16661,0), 2 CTAs running
GPGPU-Sim uArch: core:  6, cta: 1 initialized @(16662,0)
GPGPU-Sim uArch: Shader 0 finished CTA #1 (16679,0), 2 CTAs running
GPGPU-Sim uArch: core:  0, cta: 1 initialized @(16680,0)
GPGPU-Sim uArch: Shader 11 finished CTA #0 (16693,0), 2 CTAs running
GPGPU-Sim uArch: core: 11, cta: 0 initialized @(16694,0)
GPGPU-Sim uArch: Shader 3 finished CTA #0 (16775,0), 2 CTAs running
GPGPU-Sim uArch: core:  3, cta: 0 initialized @(16776,0)
GPGPU-Sim uArch: Shader 6 finished CTA #0 (16781,0), 2 CTAs running
GPGPU-Sim uArch: core:  6, cta: 0 initialized @(16782,0)
GPGPU-Sim uArch: Shader 5 finished CTA #0 (16790,0), 2 CTAs running
GPGPU-Sim uArch: core:  5, cta: 0 initialized @(16791,0)
GPGPU-Sim PTX: 7800000 instructions simulated : ctaid=(13,4,0) tid=(5,13,0)
GPGPU-Sim uArch: Shader 9 finished CTA #0 (16836,0), 2 CTAs running
GPGPU-Sim uArch: core:  9, cta: 0 initialized @(16837,0)
GPGPU-Sim uArch: Shader 8 finished CTA #0 (16883,0), 2 CTAs running
GPGPU-Sim uArch: core:  8, cta: 0 initialized @(16884,0)
GPGPU-Sim uArch: Shader 14 finished CTA #0 (16885,0), 2 CTAs running
GPGPU-Sim uArch: core: 14, cta: 0 initialized @(16886,0)
GPGPU-Sim uArch: Shader 13 finished CTA #0 (16891,0), 2 CTAs running
GPGPU-Sim uArch: core: 13, cta: 0 initialized @(16892,0)
GPGPU-Sim uArch: Shader 1 finished CTA #0 (16960,0), 2 CTAs running
GPGPU-Sim uArch: core:  1, cta: 0 initialized @(16961,0)
GPGPU-Sim PTX: 7900000 instructions simulated : ctaid=(36,3,0) tid=(3,12,0)
GPGPU-Sim uArch: cycles simulated: 17000  inst.: 7383488 (ipc=434.3) sim_rate=223742 (inst/sec) elapsed = 0:0:00:33 / Tue Mar 22 12:51:40 2016
GPGPU-Sim uArch: Shader 14 finished CTA #2 (17058,0), 2 CTAs running
GPGPU-Sim uArch: core: 14, cta: 2 initialized @(17059,0)
GPGPU-Sim PTX: 8000000 instructions simulated : ctaid=(42,3,0) tid=(10,10,0)
GPGPU-Sim uArch: Shader 2 finished CTA #1 (17315,0), 2 CTAs running
GPGPU-Sim uArch: core:  2, cta: 1 initialized @(17316,0)
GPGPU-Sim PTX: 8100000 instructions simulated : ctaid=(21,3,0) tid=(11,2,0)
GPGPU-Sim uArch: Shader 10 finished CTA #1 (17333,0), 2 CTAs running
GPGPU-Sim uArch: core: 10, cta: 1 initialized @(17334,0)
GPGPU-Sim uArch: Shader 13 finished CTA #1 (17351,0), 2 CTAs running
GPGPU-Sim uArch: core: 13, cta: 1 initialized @(17352,0)
GPGPU-Sim uArch: Shader 12 finished CTA #0 (17481,0), 2 CTAs running
GPGPU-Sim uArch: core: 12, cta: 0 initialized @(17482,0)
GPGPU-Sim PTX: 8200000 instructions simulated : ctaid=(2,4,0) tid=(15,3,0)
GPGPU-Sim uArch: Shader 9 finished CTA #1 (17487,0), 2 CTAs running
GPGPU-Sim uArch: core:  9, cta: 1 initialized @(17488,0)
GPGPU-Sim uArch: Shader 1 finished CTA #2 (17497,0), 2 CTAs running
GPGPU-Sim uArch: core:  1, cta: 2 initialized @(17498,0)
GPGPU-Sim uArch: cycles simulated: 17500  inst.: 7664208 (ipc=438.0) sim_rate=225417 (inst/sec) elapsed = 0:0:00:34 / Tue Mar 22 12:51:41 2016
GPGPU-Sim uArch: Shader 14 finished CTA #1 (17517,0), 2 CTAs running
GPGPU-Sim uArch: core: 14, cta: 1 initialized @(17518,0)
GPGPU-Sim PTX: 8300000 instructions simulated : ctaid=(28,4,0) tid=(5,2,0)
GPGPU-Sim uArch: Shader 3 finished CTA #1 (17677,0), 2 CTAs running
GPGPU-Sim uArch: core:  3, cta: 1 initialized @(17678,0)
GPGPU-Sim uArch: Shader 4 finished CTA #2 (17808,0), 2 CTAs running
GPGPU-Sim uArch: core:  4, cta: 2 initialized @(17809,0)
GPGPU-Sim uArch: Shader 7 finished CTA #2 (17828,0), 2 CTAs running
GPGPU-Sim uArch: core:  7, cta: 2 initialized @(17829,0)
GPGPU-Sim PTX: 8400000 instructions simulated : ctaid=(33,4,0) tid=(10,10,0)
GPGPU-Sim uArch: Shader 2 finished CTA #2 (17898,0), 2 CTAs running
GPGPU-Sim uArch: core:  2, cta: 2 initialized @(17899,0)
GPGPU-Sim uArch: Shader 0 finished CTA #0 (17964,0), 2 CTAs running
GPGPU-Sim uArch: core:  0, cta: 0 initialized @(17965,0)
GPGPU-Sim uArch: Shader 8 finished CTA #2 (18032,0), 2 CTAs running
GPGPU-Sim uArch: core:  8, cta: 2 initialized @(18033,0)
GPGPU-Sim PTX: 8500000 instructions simulated : ctaid=(37,4,0) tid=(11,3,0)
GPGPU-Sim uArch: Shader 11 finished CTA #2 (18171,0), 2 CTAs running
GPGPU-Sim uArch: core: 11, cta: 2 initialized @(18172,0)
GPGPU-Sim PTX: 8600000 instructions simulated : ctaid=(30,4,0) tid=(4,6,0)
GPGPU-Sim PTX: 8700000 instructions simulated : ctaid=(9,4,0) tid=(7,6,0)
GPGPU-Sim PTX: 8800000 instructions simulated : ctaid=(37,4,0) tid=(11,5,0)
GPGPU-Sim uArch: cycles simulated: 18500  inst.: 8222986 (ipc=444.5) sim_rate=234942 (inst/sec) elapsed = 0:0:00:35 / Tue Mar 22 12:51:42 2016
GPGPU-Sim uArch: Shader 9 finished CTA #2 (18556,0), 2 CTAs running
GPGPU-Sim uArch: core:  9, cta: 2 initialized @(18557,0)
GPGPU-Sim uArch: Shader 4 finished CTA #1 (18593,0), 2 CTAs running
GPGPU-Sim uArch: core:  4, cta: 1 initialized @(18594,0)
GPGPU-Sim uArch: Shader 10 finished CTA #0 (18608,0), 2 CTAs running
GPGPU-Sim uArch: core: 10, cta: 0 initialized @(18609,0)
GPGPU-Sim uArch: Shader 7 finished CTA #1 (18629,0), 2 CTAs running
GPGPU-Sim uArch: core:  7, cta: 1 initialized @(18630,0)
GPGPU-Sim PTX: 8900000 instructions simulated : ctaid=(23,4,0) tid=(13,3,0)
GPGPU-Sim uArch: Shader 12 finished CTA #1 (18731,0), 2 CTAs running
GPGPU-Sim uArch: core: 12, cta: 1 initialized @(18732,0)
GPGPU-Sim PTX: 9000000 instructions simulated : ctaid=(25,4,0) tid=(1,15,0)
GPGPU-Sim PTX: 9100000 instructions simulated : ctaid=(13,4,0) tid=(15,2,0)
GPGPU-Sim uArch: cycles simulated: 19000  inst.: 8523910 (ipc=448.6) sim_rate=236775 (inst/sec) elapsed = 0:0:00:36 / Tue Mar 22 12:51:43 2016
GPGPU-Sim uArch: Shader 0 finished CTA #2 (19057,0), 2 CTAs running
GPGPU-Sim uArch: core:  0, cta: 2 initialized @(19058,0)
GPGPU-Sim uArch: Shader 3 finished CTA #2 (19069,0), 2 CTAs running
GPGPU-Sim uArch: core:  3, cta: 2 initialized @(19070,0)
GPGPU-Sim PTX: 9200000 instructions simulated : ctaid=(10,4,0) tid=(10,7,0)
GPGPU-Sim uArch: Shader 8 finished CTA #1 (19136,0), 2 CTAs running
GPGPU-Sim uArch: core:  8, cta: 1 initialized @(19137,0)
GPGPU-Sim uArch: Shader 11 finished CTA #1 (19160,0), 2 CTAs running
GPGPU-Sim uArch: core: 11, cta: 1 initialized @(19161,0)
GPGPU-Sim uArch: Shader 5 finished CTA #2 (19239,0), 2 CTAs running
GPGPU-Sim uArch: core:  5, cta: 2 initialized @(19240,0)
GPGPU-Sim PTX: 9300000 instructions simulated : ctaid=(17,4,0) tid=(10,14,0)
GPGPU-Sim uArch: Shader 6 finished CTA #2 (19332,0), 2 CTAs running
GPGPU-Sim uArch: core:  6, cta: 2 initialized @(19333,0)
GPGPU-Sim uArch: Shader 13 finished CTA #2 (19392,0), 2 CTAs running
GPGPU-Sim uArch: core: 13, cta: 2 initialized @(19393,0)
GPGPU-Sim PTX: 9400000 instructions simulated : ctaid=(25,4,0) tid=(8,11,0)
GPGPU-Sim uArch: Shader 7 finished CTA #2 (19551,0), 2 CTAs running
GPGPU-Sim uArch: core:  7, cta: 2 initialized @(19552,0)
GPGPU-Sim PTX: 9500000 instructions simulated : ctaid=(10,5,0) tid=(11,13,0)
GPGPU-Sim uArch: Shader 12 finished CTA #2 (19733,0), 2 CTAs running
GPGPU-Sim uArch: core: 12, cta: 2 initialized @(19734,0)
GPGPU-Sim uArch: Shader 10 finished CTA #2 (19738,0), 2 CTAs running
GPGPU-Sim uArch: core: 10, cta: 2 initialized @(19739,0)
GPGPU-Sim uArch: Shader 1 finished CTA #1 (19803,0), 2 CTAs running
GPGPU-Sim uArch: core:  1, cta: 1 initialized @(19804,0)
GPGPU-Sim PTX: 9600000 instructions simulated : ctaid=(41,4,0) tid=(13,10,0)
GPGPU-Sim uArch: Shader 2 finished CTA #0 (19838,0), 2 CTAs running
GPGPU-Sim uArch: core:  2, cta: 0 initialized @(19839,0)
GPGPU-Sim uArch: Shader 5 finished CTA #1 (19842,0), 2 CTAs running
GPGPU-Sim uArch: core:  5, cta: 1 initialized @(19843,0)
GPGPU-Sim uArch: Shader 4 finished CTA #0 (19846,0), 2 CTAs running
GPGPU-Sim uArch: core:  4, cta: 0 initialized @(19847,0)
GPGPU-Sim uArch: Shader 0 finished CTA #0 (19900,0), 2 CTAs running
GPGPU-Sim uArch: core:  0, cta: 0 initialized @(19901,0)
GPGPU-Sim PTX: 9700000 instructions simulated : ctaid=(35,4,0) tid=(10,11,0)
GPGPU-Sim uArch: Shader 8 finished CTA #2 (19980,0), 2 CTAs running
GPGPU-Sim uArch: core:  8, cta: 2 initialized @(19981,0)
GPGPU-Sim uArch: cycles simulated: 20000  inst.: 9086782 (ipc=454.3) sim_rate=245588 (inst/sec) elapsed = 0:0:00:37 / Tue Mar 22 12:51:44 2016
GPGPU-Sim uArch: Shader 9 finished CTA #0 (20018,0), 2 CTAs running
GPGPU-Sim uArch: core:  9, cta: 0 initialized @(20019,0)
GPGPU-Sim uArch: Shader 11 finished CTA #2 (20061,0), 2 CTAs running
GPGPU-Sim uArch: core: 11, cta: 2 initialized @(20062,0)
GPGPU-Sim uArch: Shader 14 finished CTA #0 (20082,0), 2 CTAs running
GPGPU-Sim uArch: core: 14, cta: 0 initialized @(20083,0)
GPGPU-Sim uArch: Shader 7 finished CTA #0 (20100,0), 2 CTAs running
GPGPU-Sim uArch: core:  7, cta: 0 initialized @(20101,0)
GPGPU-Sim PTX: 9800000 instructions simulated : ctaid=(22,5,0) tid=(0,12,0)
GPGPU-Sim uArch: Shader 6 finished CTA #1 (20150,0), 2 CTAs running
GPGPU-Sim uArch: core:  6, cta: 1 initialized @(20151,0)
GPGPU-Sim uArch: Shader 0 finished CTA #1 (20235,0), 2 CTAs running
GPGPU-Sim uArch: core:  0, cta: 1 initialized @(20236,0)
GPGPU-Sim uArch: Shader 8 finished CTA #0 (20257,0), 2 CTAs running
GPGPU-Sim uArch: core:  8, cta: 0 initialized @(20258,0)
GPGPU-Sim PTX: 9900000 instructions simulated : ctaid=(1,5,0) tid=(2,7,0)
GPGPU-Sim uArch: Shader 3 finished CTA #0 (20321,0), 2 CTAs running
GPGPU-Sim uArch: core:  3, cta: 0 initialized @(20322,0)
GPGPU-Sim uArch: Shader 2 finished CTA #2 (20335,0), 2 CTAs running
GPGPU-Sim uArch: core:  2, cta: 2 initialized @(20336,0)
GPGPU-Sim uArch: Shader 11 finished CTA #0 (20402,0), 2 CTAs running
GPGPU-Sim uArch: core: 11, cta: 0 initialized @(20403,0)
GPGPU-Sim PTX: 10000000 instructions simulated : ctaid=(24,5,0) tid=(5,1,0)
GPGPU-Sim uArch: cycles simulated: 20500  inst.: 9372503 (ipc=457.2) sim_rate=246644 (inst/sec) elapsed = 0:0:00:38 / Tue Mar 22 12:51:45 2016
GPGPU-Sim uArch: Shader 1 finished CTA #0 (20572,0), 2 CTAs running
GPGPU-Sim uArch: core:  1, cta: 0 initialized @(20573,0)
GPGPU-Sim uArch: Shader 13 finished CTA #0 (20592,0), 2 CTAs running
GPGPU-Sim uArch: core: 13, cta: 0 initialized @(20593,0)
GPGPU-Sim PTX: 10100000 instructions simulated : ctaid=(12,5,0) tid=(3,10,0)
GPGPU-Sim uArch: Shader 9 finished CTA #2 (20680,0), 2 CTAs running
GPGPU-Sim uArch: core:  9, cta: 2 initialized @(20681,0)
GPGPU-Sim PTX: 10200000 instructions simulated : ctaid=(34,4,0) tid=(10,15,0)
GPGPU-Sim uArch: Shader 2 finished CTA #1 (20877,0), 2 CTAs running
GPGPU-Sim uArch: core:  2, cta: 1 initialized @(20878,0)
GPGPU-Sim uArch: Shader 14 finished CTA #2 (20907,0), 2 CTAs running
GPGPU-Sim uArch: core: 14, cta: 2 initialized @(20908,0)
GPGPU-Sim PTX: 10300000 instructions simulated : ctaid=(33,4,0) tid=(8,1,0)
GPGPU-Sim PTX: 10400000 instructions simulated : ctaid=(1,5,0) tid=(6,6,0)
GPGPU-Sim uArch: Shader 5 finished CTA #0 (21123,0), 2 CTAs running
GPGPU-Sim uArch: core:  5, cta: 0 initialized @(21124,0)
GPGPU-Sim uArch: Shader 4 finished CTA #2 (21176,0), 2 CTAs running
GPGPU-Sim uArch: core:  4, cta: 2 initialized @(21177,0)
GPGPU-Sim uArch: Shader 3 finished CTA #1 (21201,0), 2 CTAs running
GPGPU-Sim uArch: core:  3, cta: 1 initialized @(21202,0)
GPGPU-Sim PTX: 10500000 instructions simulated : ctaid=(3,5,0) tid=(1,9,0)
GPGPU-Sim uArch: Shader 12 finished CTA #0 (21316,0), 2 CTAs running
GPGPU-Sim uArch: core: 12, cta: 0 initialized @(21317,0)
GPGPU-Sim uArch: Shader 10 finished CTA #1 (21340,0), 2 CTAs running
GPGPU-Sim uArch: core: 10, cta: 1 initialized @(21341,0)
GPGPU-Sim PTX: 10600000 instructions simulated : ctaid=(39,5,0) tid=(6,0,0)
GPGPU-Sim uArch: Shader 9 finished CTA #1 (21460,0), 2 CTAs running
GPGPU-Sim uArch: core:  9, cta: 1 initialized @(21461,0)
GPGPU-Sim uArch: Shader 6 finished CTA #0 (21474,0), 2 CTAs running
GPGPU-Sim uArch: core:  6, cta: 0 initialized @(21475,0)
GPGPU-Sim uArch: cycles simulated: 21500  inst.: 9942105 (ipc=462.4) sim_rate=254925 (inst/sec) elapsed = 0:0:00:39 / Tue Mar 22 12:51:46 2016
GPGPU-Sim PTX: 10700000 instructions simulated : ctaid=(41,5,0) tid=(5,5,0)
GPGPU-Sim uArch: Shader 1 finished CTA #2 (21587,0), 2 CTAs running
GPGPU-Sim uArch: core:  1, cta: 2 initialized @(21588,0)
GPGPU-Sim uArch: Shader 13 finished CTA #1 (21623,0), 2 CTAs running
GPGPU-Sim uArch: core: 13, cta: 1 initialized @(21624,0)
GPGPU-Sim PTX: 10800000 instructions simulated : ctaid=(19,5,0) tid=(15,12,0)
GPGPU-Sim PTX: 10900000 instructions simulated : ctaid=(14,5,0) tid=(4,1,0)
GPGPU-Sim uArch: cycles simulated: 22000  inst.: 10233562 (ipc=465.2) sim_rate=255839 (inst/sec) elapsed = 0:0:00:40 / Tue Mar 22 12:51:47 2016
GPGPU-Sim uArch: Shader 4 finished CTA #1 (22057,0), 2 CTAs running
GPGPU-Sim uArch: core:  4, cta: 1 initialized @(22058,0)
GPGPU-Sim PTX: 11000000 instructions simulated : ctaid=(12,5,0) tid=(1,8,0)
GPGPU-Sim uArch: Shader 14 finished CTA #1 (22148,0), 2 CTAs running
GPGPU-Sim uArch: core: 14, cta: 1 initialized @(22149,0)
GPGPU-Sim uArch: Shader 12 finished CTA #1 (22162,0), 2 CTAs running
GPGPU-Sim uArch: core: 12, cta: 1 initialized @(22163,0)
GPGPU-Sim uArch: Shader 7 finished CTA #1 (22193,0), 2 CTAs running
GPGPU-Sim uArch: core:  7, cta: 1 initialized @(22194,0)
GPGPU-Sim uArch: Shader 10 finished CTA #0 (22197,0), 2 CTAs running
GPGPU-Sim uArch: core: 10, cta: 0 initialized @(22198,0)
GPGPU-Sim PTX: 11100000 instructions simulated : ctaid=(7,5,0) tid=(7,4,0)
GPGPU-Sim PTX: 11200000 instructions simulated : ctaid=(29,5,0) tid=(3,10,0)
GPGPU-Sim uArch: cycles simulated: 22500  inst.: 10524308 (ipc=467.7) sim_rate=256690 (inst/sec) elapsed = 0:0:00:41 / Tue Mar 22 12:51:48 2016
GPGPU-Sim uArch: Shader 3 finished CTA #2 (22508,0), 2 CTAs running
GPGPU-Sim uArch: core:  3, cta: 2 initialized @(22509,0)
GPGPU-Sim PTX: 11300000 instructions simulated : ctaid=(2,6,0) tid=(5,9,0)
GPGPU-Sim uArch: Shader 5 finished CTA #2 (22572,0), 2 CTAs running
GPGPU-Sim uArch: core:  5, cta: 2 initialized @(22573,0)
GPGPU-Sim uArch: Shader 11 finished CTA #1 (22597,0), 2 CTAs running
GPGPU-Sim uArch: core: 11, cta: 1 initialized @(22598,0)
GPGPU-Sim uArch: Shader 6 finished CTA #2 (22603,0), 2 CTAs running
GPGPU-Sim uArch: core:  6, cta: 2 initialized @(22604,0)
GPGPU-Sim uArch: Shader 0 finished CTA #2 (22612,0), 2 CTAs running
GPGPU-Sim uArch: core:  0, cta: 2 initialized @(22613,0)
GPGPU-Sim uArch: Shader 13 finished CTA #2 (22668,0), 2 CTAs running
GPGPU-Sim uArch: core: 13, cta: 2 initialized @(22669,0)
GPGPU-Sim uArch: Shader 8 finished CTA #1 (22691,0), 2 CTAs running
GPGPU-Sim uArch: core:  8, cta: 1 initialized @(22692,0)
GPGPU-Sim PTX: 11400000 instructions simulated : ctaid=(24,5,0) tid=(10,10,0)
GPGPU-Sim PTX: 11500000 instructions simulated : ctaid=(28,5,0) tid=(6,11,0)
GPGPU-Sim uArch: Shader 7 finished CTA #2 (22916,0), 2 CTAs running
GPGPU-Sim uArch: core:  7, cta: 2 initialized @(22917,0)
GPGPU-Sim uArch: Shader 12 finished CTA #0 (23002,0), 2 CTAs running
GPGPU-Sim uArch: core: 12, cta: 0 initialized @(23003,0)
GPGPU-Sim PTX: 11600000 instructions simulated : ctaid=(36,5,0) tid=(11,3,0)
GPGPU-Sim uArch: Shader 2 finished CTA #0 (23083,0), 2 CTAs running
GPGPU-Sim uArch: core:  2, cta: 0 initialized @(23084,0)
GPGPU-Sim uArch: Shader 1 finished CTA #1 (23119,0), 2 CTAs running
GPGPU-Sim uArch: core:  1, cta: 1 initialized @(23120,0)
GPGPU-Sim uArch: Shader 10 finished CTA #1 (23146,0), 2 CTAs running
GPGPU-Sim uArch: core: 10, cta: 1 initialized @(23147,0)
GPGPU-Sim PTX: 11700000 instructions simulated : ctaid=(26,5,0) tid=(10,11,0)
GPGPU-Sim uArch: Shader 14 finished CTA #0 (23270,0), 2 CTAs running
GPGPU-Sim uArch: core: 14, cta: 0 initialized @(23271,0)
GPGPU-Sim uArch: Shader 9 finished CTA #0 (23331,0), 2 CTAs running
GPGPU-Sim uArch: core:  9, cta: 0 initialized @(23332,0)
GPGPU-Sim PTX: 11800000 instructions simulated : ctaid=(26,5,0) tid=(11,11,0)
GPGPU-Sim uArch: Shader 6 finished CTA #0 (23397,0), 2 CTAs running
GPGPU-Sim uArch: core:  6, cta: 0 initialized @(23398,0)
GPGPU-Sim uArch: Shader 8 finished CTA #2 (23398,0), 2 CTAs running
GPGPU-Sim uArch: core:  8, cta: 2 initialized @(23399,0)
GPGPU-Sim uArch: Shader 3 finished CTA #1 (23403,0), 2 CTAs running
GPGPU-Sim uArch: core:  3, cta: 1 initialized @(23404,0)
GPGPU-Sim uArch: Shader 11 finished CTA #2 (23422,0), 2 CTAs running
GPGPU-Sim uArch: core: 11, cta: 2 initialized @(23423,0)
GPGPU-Sim uArch: Shader 4 finished CTA #0 (23431,0), 2 CTAs running
GPGPU-Sim uArch: core:  4, cta: 0 initialized @(23432,0)
GPGPU-Sim uArch: Shader 0 finished CTA #0 (23436,0), 2 CTAs running
GPGPU-Sim uArch: core:  0, cta: 0 initialized @(23437,0)
GPGPU-Sim uArch: Shader 12 finished CTA #2 (23462,0), 2 CTAs running
GPGPU-Sim uArch: core: 12, cta: 2 initialized @(23463,0)
GPGPU-Sim uArch: cycles simulated: 23500  inst.: 11098228 (ipc=472.3) sim_rate=264243 (inst/sec) elapsed = 0:0:00:42 / Tue Mar 22 12:51:49 2016
GPGPU-Sim uArch: Shader 5 finished CTA #1 (23513,0), 2 CTAs running
GPGPU-Sim uArch: core:  5, cta: 1 initialized @(23514,0)
GPGPU-Sim PTX: 11900000 instructions simulated : ctaid=(33,5,0) tid=(13,2,0)
GPGPU-Sim uArch: Shader 10 finished CTA #2 (23536,0), 2 CTAs running
GPGPU-Sim uArch: core: 10, cta: 2 initialized @(23537,0)
GPGPU-Sim PTX: 12000000 instructions simulated : ctaid=(25,6,0) tid=(10,1,0)
GPGPU-Sim uArch: Shader 6 finished CTA #1 (23733,0), 2 CTAs running
GPGPU-Sim uArch: core:  6, cta: 1 initialized @(23734,0)
GPGPU-Sim uArch: Shader 2 finished CTA #2 (23834,0), 2 CTAs running
GPGPU-Sim uArch: core:  2, cta: 2 initialized @(23835,0)
GPGPU-Sim PTX: 12100000 instructions simulated : ctaid=(2,6,0) tid=(13,6,0)
GPGPU-Sim uArch: Shader 1 finished CTA #2 (23871,0), 2 CTAs running
GPGPU-Sim uArch: core:  1, cta: 2 initialized @(23872,0)
GPGPU-Sim uArch: Shader 3 finished CTA #0 (23936,0), 2 CTAs running
GPGPU-Sim uArch: core:  3, cta: 0 initialized @(23937,0)
GPGPU-Sim uArch: Shader 9 finished CTA #1 (23952,0), 2 CTAs running
GPGPU-Sim uArch: core:  9, cta: 1 initialized @(23953,0)
GPGPU-Sim uArch: Shader 13 finished CTA #0 (23956,0), 2 CTAs running
GPGPU-Sim uArch: core: 13, cta: 0 initialized @(23957,0)
GPGPU-Sim uArch: Shader 7 finished CTA #0 (23994,0), 2 CTAs running
GPGPU-Sim uArch: core:  7, cta: 0 initialized @(23995,0)
GPGPU-Sim uArch: cycles simulated: 24000  inst.: 11391401 (ipc=474.6) sim_rate=264916 (inst/sec) elapsed = 0:0:00:43 / Tue Mar 22 12:51:50 2016
GPGPU-Sim PTX: 12200000 instructions simulated : ctaid=(1,6,0) tid=(10,9,0)
GPGPU-Sim uArch: Shader 1 finished CTA #0 (24055,0), 2 CTAs running
GPGPU-Sim uArch: core:  1, cta: 0 initialized @(24056,0)
GPGPU-Sim PTX: 12300000 instructions simulated : ctaid=(1,6,0) tid=(1,3,0)
GPGPU-Sim uArch: Shader 9 finished CTA #2 (24320,0), 2 CTAs running
GPGPU-Sim uArch: core:  9, cta: 2 initialized @(24321,0)
GPGPU-Sim PTX: 12400000 instructions simulated : ctaid=(12,6,0) tid=(0,8,0)
GPGPU-Sim PTX: 12500000 instructions simulated : ctaid=(25,5,0) tid=(5,11,0)
GPGPU-Sim uArch: Shader 8 finished CTA #0 (24554,0), 2 CTAs running
GPGPU-Sim uArch: core:  8, cta: 0 initialized @(24555,0)
GPGPU-Sim uArch: Shader 11 finished CTA #0 (24627,0), 2 CTAs running
GPGPU-Sim uArch: core: 11, cta: 0 initialized @(24628,0)
GPGPU-Sim PTX: 12600000 instructions simulated : ctaid=(7,6,0) tid=(3,7,0)
GPGPU-Sim uArch: Shader 4 finished CTA #2 (24674,0), 2 CTAs running
GPGPU-Sim uArch: core:  4, cta: 2 initialized @(24675,0)
GPGPU-Sim uArch: Shader 14 finished CTA #2 (24715,0), 2 CTAs running
GPGPU-Sim uArch: core: 14, cta: 2 initialized @(24716,0)
GPGPU-Sim uArch: Shader 5 finished CTA #0 (24728,0), 2 CTAs running
GPGPU-Sim uArch: core:  5, cta: 0 initialized @(24729,0)
GPGPU-Sim PTX: 12700000 instructions simulated : ctaid=(14,6,0) tid=(11,2,0)
GPGPU-Sim uArch: Shader 0 finished CTA #1 (24823,0), 2 CTAs running
GPGPU-Sim uArch: core:  0, cta: 1 initialized @(24824,0)
GPGPU-Sim PTX: 12800000 instructions simulated : ctaid=(30,6,0) tid=(0,14,0)
GPGPU-Sim uArch: cycles simulated: 25000  inst.: 11979484 (ipc=479.2) sim_rate=272261 (inst/sec) elapsed = 0:0:00:44 / Tue Mar 22 12:51:51 2016
GPGPU-Sim uArch: Shader 2 finished CTA #1 (25051,0), 2 CTAs running
GPGPU-Sim uArch: core:  2, cta: 1 initialized @(25052,0)
GPGPU-Sim PTX: 12900000 instructions simulated : ctaid=(11,6,0) tid=(2,1,0)
GPGPU-Sim uArch: Shader 13 finished CTA #1 (25288,0), 2 CTAs running
GPGPU-Sim uArch: core: 13, cta: 1 initialized @(25289,0)
GPGPU-Sim PTX: 13000000 instructions simulated : ctaid=(11,6,0) tid=(6,7,0)
GPGPU-Sim uArch: Shader 4 finished CTA #1 (25425,0), 2 CTAs running
GPGPU-Sim uArch: core:  4, cta: 1 initialized @(25426,0)
GPGPU-Sim PTX: 13100000 instructions simulated : ctaid=(25,6,0) tid=(1,11,0)
GPGPU-Sim uArch: Shader 12 finished CTA #1 (25464,0), 2 CTAs running
GPGPU-Sim uArch: core: 12, cta: 1 initialized @(25465,0)
GPGPU-Sim uArch: cycles simulated: 25500  inst.: 12269304 (ipc=481.1) sim_rate=272651 (inst/sec) elapsed = 0:0:00:45 / Tue Mar 22 12:51:52 2016
GPGPU-Sim uArch: Shader 14 finished CTA #1 (25532,0), 2 CTAs running
GPGPU-Sim uArch: core: 14, cta: 1 initialized @(25533,0)
GPGPU-Sim uArch: Shader 7 finished CTA #1 (25536,0), 2 CTAs running
GPGPU-Sim uArch: core:  7, cta: 1 initialized @(25537,0)
GPGPU-Sim PTX: 13200000 instructions simulated : ctaid=(21,6,0) tid=(1,14,0)
GPGPU-Sim uArch: Shader 10 finished CTA #0 (25644,0), 2 CTAs running
GPGPU-Sim uArch: core: 10, cta: 0 initialized @(25645,0)
GPGPU-Sim uArch: Shader 5 finished CTA #2 (25692,0), 2 CTAs running
GPGPU-Sim uArch: core:  5, cta: 2 initialized @(25693,0)
GPGPU-Sim PTX: 13300000 instructions simulated : ctaid=(38,6,0) tid=(7,9,0)
GPGPU-Sim uArch: Shader 0 finished CTA #2 (25791,0), 2 CTAs running
GPGPU-Sim uArch: core:  0, cta: 2 initialized @(25792,0)
GPGPU-Sim uArch: Shader 11 finished CTA #1 (25799,0), 2 CTAs running
GPGPU-Sim uArch: core: 11, cta: 1 initialized @(25800,0)
GPGPU-Sim PTX: 13400000 instructions simulated : ctaid=(23,6,0) tid=(12,8,0)
GPGPU-Sim uArch: Shader 3 finished CTA #2 (25953,0), 2 CTAs running
GPGPU-Sim uArch: core:  3, cta: 2 initialized @(25954,0)
GPGPU-Sim uArch: cycles simulated: 26000  inst.: 12564576 (ipc=483.3) sim_rate=273142 (inst/sec) elapsed = 0:0:00:46 / Tue Mar 22 12:51:53 2016
GPGPU-Sim uArch: Shader 8 finished CTA #1 (26072,0), 2 CTAs running
GPGPU-Sim uArch: core:  8, cta: 1 initialized @(26073,0)
GPGPU-Sim uArch: Shader 6 finished CTA #2 (26087,0), 2 CTAs running
GPGPU-Sim uArch: core:  6, cta: 2 initialized @(26088,0)
GPGPU-Sim PTX: 13500000 instructions simulated : ctaid=(19,6,0) tid=(6,7,0)
GPGPU-Sim uArch: Shader 2 finished CTA #0 (26091,0), 2 CTAs running
GPGPU-Sim uArch: core:  2, cta: 0 initialized @(26092,0)
GPGPU-Sim uArch: Shader 13 finished CTA #2 (26119,0), 2 CTAs running
GPGPU-Sim uArch: core: 13, cta: 2 initialized @(26120,0)
GPGPU-Sim uArch: Shader 12 finished CTA #0 (26182,0), 2 CTAs running
GPGPU-Sim uArch: core: 12, cta: 0 initialized @(26183,0)
GPGPU-Sim PTX: 13600000 instructions simulated : ctaid=(14,7,0) tid=(1,1,0)
GPGPU-Sim uArch: Shader 7 finished CTA #2 (26324,0), 2 CTAs running
GPGPU-Sim uArch: core:  7, cta: 2 initialized @(26325,0)
GPGPU-Sim uArch: Shader 1 finished CTA #1 (26331,0), 2 CTAs running
GPGPU-Sim uArch: core:  1, cta: 1 initialized @(26332,0)
GPGPU-Sim uArch: Shader 14 finished CTA #2 (26415,0), 2 CTAs running
GPGPU-Sim uArch: core: 14, cta: 2 initialized @(26416,0)
GPGPU-Sim PTX: 13700000 instructions simulated : ctaid=(34,6,0) tid=(12,2,0)
GPGPU-Sim uArch: Shader 10 finished CTA #1 (26444,0), 2 CTAs running
GPGPU-Sim uArch: core: 10, cta: 1 initialized @(26445,0)
GPGPU-Sim uArch: Shader 4 finished CTA #2 (26496,0), 2 CTAs running
GPGPU-Sim uArch: core:  4, cta: 2 initialized @(26497,0)
GPGPU-Sim uArch: Shader 9 finished CTA #0 (26512,0), 2 CTAs running
GPGPU-Sim uArch: core:  9, cta: 0 initialized @(26513,0)
GPGPU-Sim uArch: Shader 5 finished CTA #0 (26561,0), 2 CTAs running
GPGPU-Sim uArch: core:  5, cta: 0 initialized @(26562,0)
GPGPU-Sim PTX: 13800000 instructions simulated : ctaid=(23,6,0) tid=(10,8,0)
GPGPU-Sim uArch: Shader 11 finished CTA #0 (26670,0), 2 CTAs running
GPGPU-Sim uArch: core: 11, cta: 0 initialized @(26671,0)
GPGPU-Sim PTX: 13900000 instructions simulated : ctaid=(33,6,0) tid=(9,8,0)
GPGPU-Sim uArch: Shader 8 finished CTA #0 (26732,0), 2 CTAs running
GPGPU-Sim uArch: core:  8, cta: 0 initialized @(26733,0)
GPGPU-Sim uArch: Shader 3 finished CTA #1 (26834,0), 2 CTAs running
GPGPU-Sim uArch: core:  3, cta: 1 initialized @(26835,0)
GPGPU-Sim uArch: Shader 8 finished CTA #2 (26865,0), 2 CTAs running
GPGPU-Sim uArch: core:  8, cta: 2 initialized @(26866,0)
GPGPU-Sim PTX: 14000000 instructions simulated : ctaid=(7,7,0) tid=(9,15,0)
GPGPU-Sim uArch: Shader 11 finished CTA #2 (26880,0), 2 CTAs running
GPGPU-Sim uArch: core: 11, cta: 2 initialized @(26881,0)
GPGPU-Sim uArch: Shader 4 finished CTA #0 (26902,0), 2 CTAs running
GPGPU-Sim uArch: core:  4, cta: 0 initialized @(26903,0)
GPGPU-Sim uArch: Shader 6 finished CTA #0 (26925,0), 2 CTAs running
GPGPU-Sim uArch: core:  6, cta: 0 initialized @(26926,0)
GPGPU-Sim uArch: Shader 14 finished CTA #0 (26952,0), 2 CTAs running
GPGPU-Sim uArch: core: 14, cta: 0 initialized @(26953,0)
GPGPU-Sim uArch: Shader 9 finished CTA #2 (26965,0), 2 CTAs running
GPGPU-Sim uArch: core:  9, cta: 2 initialized @(26966,0)
GPGPU-Sim uArch: cycles simulated: 27000  inst.: 13163967 (ipc=487.6) sim_rate=280084 (inst/sec) elapsed = 0:0:00:47 / Tue Mar 22 12:51:54 2016
GPGPU-Sim PTX: 14100000 instructions simulated : ctaid=(23,7,0) tid=(0,8,0)
GPGPU-Sim uArch: Shader 1 finished CTA #2 (27146,0), 2 CTAs running
GPGPU-Sim uArch: core:  1, cta: 2 initialized @(27147,0)
GPGPU-Sim uArch: Shader 0 finished CTA #0 (27152,0), 2 CTAs running
GPGPU-Sim uArch: core:  0, cta: 0 initialized @(27153,0)
GPGPU-Sim PTX: 14200000 instructions simulated : ctaid=(2,7,0) tid=(14,4,0)
GPGPU-Sim uArch: Shader 5 finished CTA #1 (27233,0), 2 CTAs running
GPGPU-Sim uArch: core:  5, cta: 1 initialized @(27234,0)
GPGPU-Sim uArch: Shader 2 finished CTA #2 (27243,0), 2 CTAs running
GPGPU-Sim uArch: core:  2, cta: 2 initialized @(27244,0)
GPGPU-Sim uArch: Shader 9 finished CTA #1 (27311,0), 2 CTAs running
GPGPU-Sim uArch: core:  9, cta: 1 initialized @(27312,0)
GPGPU-Sim PTX: 14300000 instructions simulated : ctaid=(33,7,0) tid=(9,0,0)
GPGPU-Sim uArch: cycles simulated: 27500  inst.: 13444838 (ipc=488.9) sim_rate=280100 (inst/sec) elapsed = 0:0:00:48 / Tue Mar 22 12:51:55 2016
GPGPU-Sim PTX: 14400000 instructions simulated : ctaid=(5,7,0) tid=(5,3,0)
GPGPU-Sim uArch: Shader 12 finished CTA #2 (27612,0), 2 CTAs running
GPGPU-Sim uArch: core: 12, cta: 2 initialized @(27613,0)
GPGPU-Sim uArch: Shader 10 finished CTA #2 (27658,0), 2 CTAs running
GPGPU-Sim uArch: core: 10, cta: 2 initialized @(27659,0)
GPGPU-Sim PTX: 14500000 instructions simulated : ctaid=(33,7,0) tid=(11,7,0)
[...]
Warp Occupancy Distribution:
Stall:375815	W0_Idle:92655	W0_Scoreboard:749992	W1:0	W2:0	W3:0	W4:0	W5:0	W6:0	W7:0	W8:0	W9:5814	W10:0	W11:0	W12:0	W13:5986	W14:221808	W15:0	W16:0	W17:0	W18:17752	W19:0	W20:6132	W21:0	W22:0	W23:0	W24:0	W25:0	W26:18268	W27:0	W28:727950	W29:0	W30:59168	W31:0	W32:1663412
traffic_breakdown_coretomem[CONST_ACC_R] = 120 {8:15,}
traffic_breakdown_coretomem[GLOBAL_ACC_R] = 472512 {8:59064,}
traffic_breakdown_coretomem[GLOBAL_ACC_W] = 2162688 {40:8704,72:9728,136:8192,}
traffic_breakdown_coretomem[INST_ACC_R] = 1680 {8:210,}
traffic_breakdown_memtocore[CONST_ACC_R] = 1080 {72:15,}
traffic_breakdown_memtocore[GLOBAL_ACC_R] = 8032704 {136:59064,}
traffic_breakdown_memtocore[GLOBAL_ACC_W] = 212992 {8:26624,}
traffic_breakdown_memtocore[INST_ACC_R] = 28560 {136:210,}
maxmrqlatency = 257 
maxdqlatency = 0 
maxmflatency = 790 
averagemflatency = 238 
max_icnt2mem_latency = 214 
max_icnt2sh_latency = 124709 
mrq_lat_table:19795 	2387 	2005 	3797 	7299 	5717 	3246 	616 	1 	0 	0 	0 	0 	0 	0 	0 	0 	0 	0 	0 	0 	0 	0 	0 	0 	0 	0 	0 	0 	0 	0 	0 	
dq_lat_table:0 	0 	0 	0 	0 	0 	0 	0 	0 	0 	0 	0 	0 	0 	0 	0 	0 	0 	0 	0 	0 	0 	0 	0 	0 	0 	0 	0 	0 	0 	0 	0 	
mf_lat_table:0 	0 	0 	0 	0 	0 	0 	47291 	37922 	490 	0 	0 	0 	0 	0 	0 	0 	0 	0 	0 	0 	0 	0 	0 	0 	0 	0 	0 	0 	0 	0 	0 	
icnt2mem_lat_table:0 	0 	0 	50403 	13295 	18656 	3486 	73 	0 	0 	0 	0 	0 	0 	0 	0 	0 	0 	0 	0 	0 	0 	0 	0 	
icnt2sh_lat_table:0 	0 	0 	13635 	31725 	13108 	610 	1 	0 	0 	0 	0 	585 	1734 	3745 	7353 	13207 	0 	0 	0 	0 	0 	0 	0 	
mf_lat_pw_table:0 	0 	0 	0 	0 	0 	0 	217 	27 	1 	0 	0 	0 	0 	0 	0 	0 	0 	0 	0 	0 	0 	0 	0 	0 	0 	0 	0 	0 	0 	0 	0 	
maximum concurrent accesses to same row:
dram[0]:       112        93        99        96        96        99        94       100        94        94        91        94       102        99        96        97 
dram[1]:       127       122       104        88        89        95        95        96       106        83        95        90        93        92        97        96 
dram[2]:        98       112        94       100       103        95       105        92        96        94        95        93       100       100        93        97 
dram[3]:       125       122        90       110        94        92        97        98        84       105        87        92        97        94        97        93 
dram[4]:       111        93        97        95        95       101        93       104        93        97        94        93       100       102        96        97 
dram[5]:       126       118       104        89        94        96       100       101       103        85        92        90        92        94        97        97 
maximum service time to same row:
dram[0]:     15719     15416     14053     13968     15617     15507     20296     20741     15922     16575     15650     15484     18647     18722     18972     18812 
dram[1]:     16049     15616     13653     14436     15587     15415     20706     21300     15742     16440     15779     15424     18454     18191     18835     19015 
dram[2]:     15403     15597     13975     14119     15800     15632     20775     20270     15828     18792     15751     15609     18946     18642     18826     18975 
dram[3]:     15619     15919     14474     13687     15500     15630     21302     20669     15891     18073     15618     15763     18374     18470     19053     18833 
dram[4]:     15720     15217     14053     14038     15272     15818     20304     20710     17011     18444     15666     15746     18378     18937     18962     18850 
dram[5]:     16078     15514     13825     14498     15203     15560     20725     21279     16416     18476     15787     15617     18079     18408     18828     19046 
average row accesses per activate:
dram[0]:  8.684211 10.063829  6.480000  6.819445  7.446154  6.560000  7.208955  7.272727  7.191176  8.116667  5.637500  6.707692  6.000000  5.905406  6.500000  5.558442 
dram[1]:  9.716981  8.209678  7.485294  5.925000  5.658823  5.975308  7.242424  6.728571  8.300000  7.533333  6.219178  4.453608  5.729730  5.684210  5.671052  5.207317 
dram[2]: 10.600000  8.803572  7.250000  6.915493  6.573333  8.186440  8.152542  8.050000  7.393939  7.730159  6.843750  6.250000  6.257143  6.027778  5.808219  6.640625 
dram[3]:  6.931507 10.408163  5.761905  7.125000  5.563219  5.951220  6.364865  6.985507  6.805970  7.781250  4.526316  6.109589  5.972603  5.300000  5.182927  6.042857 
dram[4]:  8.305085 10.600000  6.421052  6.294872  7.238806  6.767123  7.287879  7.161765  6.777778  8.767858  6.352113  6.888889  6.013889  6.069445  6.671875  5.592105 
dram[5]: 10.000000  8.000000  7.257143  5.409091  5.347826  6.269231  6.694445  6.250000  7.447761  6.319445  6.686567  4.758242  5.565790  5.684210  6.084507  5.783784 
average row locality = 44863/6742 = 6.654257
number of total memory accesses made:
dram[0]:         0         0         0         0         0         0         0         0         0         0         0         0         0         0         0         0 
dram[1]:         0         0         0         0         0         0         0         0         0         0         0         0         0         0         0         0 
dram[2]:         0         0         0         0         0         0         0         0         0         0         0         0         0         0         0         0 
dram[3]:         0         0         0         0         0         0         0         0         0         0         0         0         0         0         0         0 
dram[4]:         0         0         0         0         0         0         0         0         0         0         0         0         0         0         0         0 
dram[5]:         0         0         0         0         0         0         0         0         0         0         0         0         0         0         0         0 
total accesses: 0
min_bank_accesses = 0!
min_chip_accesses = 0!
number of total read accesses:
dram[0]:       259       257       256       256       256       256       256       256       256       256       256       256       256       256       256       256 
dram[1]:       258       257       256       256       256       256       256       256       256       256       256       256       256       256       256       256 
dram[2]:       258       256       256       256       256       256       256       256       256       256       256       256       256       256       256       256 
dram[3]:       258       256       256       256       256       256       256       256       256       256       256       256       256       256       256       256 
dram[4]:       258       256       256       256       256       256       256       256       256       256       256       256       256       256       256       256 
dram[5]:       258       256       256       256       256       256       256       256       256       256       256       256       256       256       256       256 
total reads: 24591
bank skew: 259/256 = 1.01
chip skew: 4100/4098 = 1.00
number of total write accesses:
dram[0]:       236       216       230       235       228       236       227       224       233       231       195       180       176       181       173       172 
dram[1]:       257       252       253       218       225       228       222       215       242       196       198       176       168       176       175       171 
dram[2]:       219       237       237       235       237       227       225       227       232       231       182       194       182       178       168       169 
dram[3]:       248       254       228       257       228       232       215       226       200       242       174       190       180       168       169       167 
dram[4]:       232       221       232       235       229       238       225       231       232       235       195       178       177       181       171       169 
dram[5]:       252       248       252       220       236       233       226       219       243       199       192       177       167       176       176       172 
total reads: 20272
bank skew: 257/167 = 1.54
chip skew: 3388/3372 = 1.00
average mf latency per bank:
dram[0]:        435       470       403       434       414       441       420       439       403       436       444       477       451       479       457       484
dram[1]:        473       424       451       433       482       421       482       453       452       450       502       469       530       476       511       483
dram[2]:        466       419       432       402       446       416       445       413       429       403       479       439       493       444       491       461
dram[3]:        425       470       428       449       426       478       452       479       447       464       472       522       479       540       492       529
dram[4]:        431       469       402       431       412       449       425       441       404       428       438       487       447       494       459       494
dram[5]:        478       431       452       432       475       427       480       449       451       448       532       475       541       480       532       485
maximum mf latency per bank:
dram[0]:        790       778       490       520       589       535       681       516       467       473       521       525       497       509       506       510
dram[1]:        690       594       498       440       526       464       520       538       499       523       472       494       484       533       415       515
dram[2]:        780       762       590       505       523       615       488       598       450       478       556       680       569       449       493       435
dram[3]:        488       644       522       588       551       582       455       570       493       519       480       514       519       505       502       457
dram[4]:        759       729       461       486       539       527       628       538       468       455       656       496       463       532       435       598
dram[5]:        671       569       528       449       626       545       561       466       528       529       497       467       525       472       447       496

Number of Memory Banks Accessed per Memory Operation per Warp (from 0):
0	0	0	0	0	0	0	0	0	0	0	0	0	0	0	0	0	0	0	0	0	0	0	0	0	0	0	0	0	0	0	0	0	0	0	0	0	0	0	0	0	0	0	0	0	0	0	0	0	0	0	0	0	0	0	0	0	0	0	0	0	0	0	0	0	0	0	0	0	0	0	0	0	0	0	0	0	0	0	0	0	0	0	0	0	0	0	0	0	0	0	0	0	0	0	0	
Average # of Memory Banks Accessed per Memory Operation per Warp=-nan

position of mrq chosen
0	0	0	0	0	0	0	0	0	0	0	0	0	0	0	0	

average position of mrq chosen = -nan
Memory Partition 0: 
Cache L2_bank_000:
MSHR contents

Cache L2_bank_001:
MSHR contents

In Dram Latency Queue (total = 0): 
DRAM[0]: 16 bks, busW=4 BL=8 CL=12, tRRD=2 tCCD=6, tRCD=12 tRAS=28 tRP=12 tRC=40
n_cmd=173790 n_nop=158269 n_act=1086 n_pre=1070 n_req=7473 n_rd=8200 n_write=5165 bw_util=0.1538
n_activity=89256 dram_eff=0.2995
bk0: 518a 167275i bk1: 514a 167413i bk2: 512a 167060i bk3: 512a 166588i bk4: 512a 167240i bk5: 512a 166449i bk6: 512a 167050i bk7: 512a 166953i bk8: 512a 167032i bk9: 512a 167371i bk10: 512a 167710i bk11: 512a 167512i bk12: 512a 168088i bk13: 512a 167706i bk14: 512a 168340i bk15: 512a 167328i 
dram_util_bins: 0 0 0 0 0 0 0 0 0 0
dram_eff_bins: 0 0 0 0 0 0 0 0 0 0
mrqq: max=16 avg=1.09456
Memory Partition 1: 
Cache L2_bank_002:
MSHR contents

Cache L2_bank_003:
MSHR contents

In Dram Latency Queue (total = 0): 
DRAM[1]: 16 bks, busW=4 BL=8 CL=12, tRRD=2 tCCD=6, tRCD=12 tRAS=28 tRP=12 tRC=40
n_cmd=173790 n_nop=158240 n_act=1163 n_pre=1147 n_req=7471 n_rd=8198 n_write=5042 bw_util=0.1524
n_activity=90883 dram_eff=0.2914
bk0: 516a 167100i bk1: 514a 167115i bk2: 512a 167071i bk3: 512a 166726i bk4: 512a 166873i bk5: 512a 166806i bk6: 512a 167288i bk7: 512a 166801i bk8: 512a 167219i bk9: 512a 167590i bk10: 512a 167569i bk11: 512a 167178i bk12: 512a 167765i bk13: 512a 167882i bk14: 512a 167771i bk15: 512a 167381i 
dram_util_bins: 0 0 0 0 0 0 0 0 0 0
dram_eff_bins: 0 0 0 0 0 0 0 0 0 0
mrqq: max=16 avg=0.964722
Memory Partition 2: 
Cache L2_bank_004:
MSHR contents

Cache L2_bank_005:
MSHR contents

In Dram Latency Queue (total = 0): 
DRAM[2]: 16 bks, busW=4 BL=8 CL=12, tRRD=2 tCCD=6, tRCD=12 tRAS=28 tRP=12 tRC=40
n_cmd=173790 n_nop=158358 n_act=1037 n_pre=1021 n_req=7478 n_rd=8196 n_write=5178 bw_util=0.1539
n_activity=89003 dram_eff=0.3005
bk0: 516a 167444i bk1: 512a 167447i bk2: 512a 166749i bk3: 512a 167137i bk4: 512a 166458i bk5: 512a 167365i bk6: 512a 167090i bk7: 512a 167200i bk8: 512a 166811i bk9: 512a 167243i bk10: 512a 167726i bk11: 512a 167605i bk12: 512a 167726i bk13: 512a 167982i bk14: 512a 167689i bk15: 512a 168231i 
dram_util_bins: 0 0 0 0 0 0 0 0 0 0
dram_eff_bins: 0 0 0 0 0 0 0 0 0 0
mrqq: max=16 avg=1.16874
Memory Partition 3: 
Cache L2_bank_006:
MSHR contents

Cache L2_bank_007:
MSHR contents

In Dram Latency Queue (total = 0): 
DRAM[3]: 16 bks, busW=4 BL=8 CL=12, tRRD=2 tCCD=6, tRCD=12 tRAS=28 tRP=12 tRC=40
n_cmd=173790 n_nop=158166 n_act=1194 n_pre=1178 n_req=7476 n_rd=8196 n_write=5056 bw_util=0.1525
n_activity=91405 dram_eff=0.29
bk0: 516a 166936i bk1: 512a 167141i bk2: 512a 166702i bk3: 512a 166998i bk4: 512a 166247i bk5: 512a 166894i bk6: 512a 166513i bk7: 512a 167018i bk8: 512a 167184i bk9: 512a 166742i bk10: 512a 167219i bk11: 512a 167507i bk12: 512a 168146i bk13: 512a 167686i bk14: 512a 167368i bk15: 512a 167998i 
dram_util_bins: 0 0 0 0 0 0 0 0 0 0
dram_eff_bins: 0 0 0 0 0 0 0 0 0 0
mrqq: max=16 avg=1.02688
Memory Partition 4: 
Cache L2_bank_008:
MSHR contents

Cache L2_bank_009:
MSHR contents

In Dram Latency Queue (total = 0): 
DRAM[4]: 16 bks, busW=4 BL=8 CL=12, tRRD=2 tCCD=6, tRCD=12 tRAS=28 tRP=12 tRC=40
n_cmd=173790 n_nop=158273 n_act=1078 n_pre=1062 n_req=7479 n_rd=8196 n_write=5181 bw_util=0.1539
n_activity=89234 dram_eff=0.2998
bk0: 516a 167081i bk1: 512a 167275i bk2: 512a 167012i bk3: 512a 166875i bk4: 512a 167293i bk5: 512a 166571i bk6: 512a 167131i bk7: 512a 166648i bk8: 512a 167047i bk9: 512a 167283i bk10: 512a 167902i bk11: 512a 167786i bk12: 512a 168017i bk13: 512a 167651i bk14: 512a 168275i bk15: 512a 167525i 
dram_util_bins: 0 0 0 0 0 0 0 0 0 0
dram_eff_bins: 0 0 0 0 0 0 0 0 0 0
mrqq: max=16 avg=1.11929
Memory Partition 5: 
Cache L2_bank_010:
MSHR contents

Cache L2_bank_011:
MSHR contents

In Dram Latency Queue (total = 0): 
DRAM[5]: 16 bks, busW=4 BL=8 CL=12, tRRD=2 tCCD=6, tRCD=12 tRAS=28 tRP=12 tRC=40
n_cmd=173790 n_nop=158186 n_act=1184 n_pre=1168 n_req=7486 n_rd=8196 n_write=5056 bw_util=0.1525
n_activity=90808 dram_eff=0.2919
bk0: 516a 167356i bk1: 512a 166945i bk2: 512a 166846i bk3: 512a 166594i bk4: 512a 166327i bk5: 512a 166822i bk6: 512a 167075i bk7: 512a 166560i bk8: 512a 167094i bk9: 512a 167052i bk10: 512a 167849i bk11: 512a 166952i bk12: 512a 167669i bk13: 512a 167738i bk14: 512a 167502i bk15: 512a 167847i 
dram_util_bins: 0 0 0 0 0 0 0 0 0 0
dram_eff_bins: 0 0 0 0 0 0 0 0 0 0
mrqq: max=16 avg=1.03865

========= L2 cache stats =========
L2_cache_bank[0]: Access = 6642, Miss = 2051, Miss_rate = 0.309, Pending_hits = 1578, Reservation_fails = 345
L2_cache_bank[1]: Access = 7171, Miss = 2049, Miss_rate = 0.286, Pending_hits = 1439, Reservation_fails = 85
L2_cache_bank[2]: Access = 7686, Miss = 2050, Miss_rate = 0.267, Pending_hits = 1666, Reservation_fails = 190
L2_cache_bank[3]: Access = 7176, Miss = 2049, Miss_rate = 0.286, Pending_hits = 1396, Reservation_fails = 99
L2_cache_bank[4]: Access = 7182, Miss = 2050, Miss_rate = 0.285, Pending_hits = 1448, Reservation_fails = 83
L2_cache_bank[5]: Access = 6593, Miss = 2048, Miss_rate = 0.311, Pending_hits = 1560, Reservation_fails = 0
L2_cache_bank[6]: Access = 7183, Miss = 2050, Miss_rate = 0.285, Pending_hits = 1435, Reservation_fails = 191
L2_cache_bank[7]: Access = 7647, Miss = 2048, Miss_rate = 0.268, Pending_hits = 1645, Reservation_fails = 1
L2_cache_bank[8]: Access = 6628, Miss = 2050, Miss_rate = 0.309, Pending_hits = 1581, Reservation_fails = 191
L2_cache_bank[9]: Access = 7156, Miss = 2048, Miss_rate = 0.286, Pending_hits = 1479, Reservation_fails = 0
L2_cache_bank[10]: Access = 7689, Miss = 2050, Miss_rate = 0.267, Pending_hits = 1677, Reservation_fails = 187
L2_cache_bank[11]: Access = 7160, Miss = 2048, Miss_rate = 0.286, Pending_hits = 1410, Reservation_fails = 0
L2_total_cache_accesses = 85913
L2_total_cache_misses = 24591
L2_total_cache_miss_rate = 0.2862
L2_total_cache_pending_hits = 18314
L2_total_cache_reservation_fails = 1372
L2_total_cache_breakdown:
	L2_cache_stats_breakdown[GLOBAL_ACC_R][HIT] = 31422
	L2_cache_stats_breakdown[GLOBAL_ACC_R][HIT_RESERVED] = 11258
	L2_cache_stats_breakdown[GLOBAL_ACC_R][MISS] = 16384
	L2_cache_stats_breakdown[CONST_ACC_R][HIT] = 11
	L2_cache_stats_breakdown[CONST_ACC_R][HIT_RESERVED] = 3
	L2_cache_stats_breakdown[CONST_ACC_R][MISS] = 1
	L2_cache_stats_breakdown[CONST_ACC_R][RESERVATION_FAIL] = 109
	L2_cache_stats_breakdown[GLOBAL_ACC_W][HIT] = 11420
	L2_cache_stats_breakdown[GLOBAL_ACC_W][HIT_RESERVED] = 7012
	L2_cache_stats_breakdown[GLOBAL_ACC_W][MISS] = 8192
	L2_cache_stats_breakdown[GLOBAL_ACC_W][RESERVATION_FAIL] = 4
	L2_cache_stats_breakdown[INST_ACC_R][HIT] = 155
	L2_cache_stats_breakdown[INST_ACC_R][HIT_RESERVED] = 41
	L2_cache_stats_breakdown[INST_ACC_R][MISS] = 14
	L2_cache_stats_breakdown[INST_ACC_R][RESERVATION_FAIL] = 1259
L2_cache_data_port_util = 0.108
L2_cache_fill_port_util = 0.062

icnt_total_pkts_mem_to_simt=323039
icnt_total_pkts_simt_to_mem=146841
LD_mem_lat_dist  0 0 0 0 0 0 0 0 0 0 0 0 0 0 0 0 0 0 0 0 0 0 0 0 0 0 0
ST_mem_lat_dist  0 0 0 0 0 0 0 0 0 0 0 0 0 0 0 0 0 0 0 0 0 0 0 0 0 0 0
----------------------------Interconnect-DETAILS--------------------------------
Class 0:
Packet latency average = 17.5482
	minimum = 6
	maximum = 138
Network latency average = 13.8574
	minimum = 6
	maximum = 109
Slowest packet = 1500
Flit latency average = 12.5935
	minimum = 6
	maximum = 108
Slowest flit = 381282
Fragmentation average = 0.000419029
	minimum = 0
	maximum = 32
Injected packet rate average = 0.0483361
	minimum = 0.0412198 (at node 9)
	maximum = 0.0584004 (at node 25)
Accepted packet rate average = 0.0483361
	minimum = 0.0412198 (at node 9)
	maximum = 0.0584004 (at node 25)
Injected flit rate average = 0.132181
	minimum = 0.0708264 (at node 9)
	maximum = 0.219482 (at node 25)
Accepted flit rate average= 0.132181
	minimum = 0.088926 (at node 20)
	maximum = 0.176333 (at node 7)
Injected packet length average = 2.73463
Accepted packet length average = 2.73463
Total in-flight flits = 0 (0 measured)
====== Overall Traffic Statistics ======
====== Traffic class 0 ======
Packet latency average = 17.5482 (1 samples)
	minimum = 6 (1 samples)
	maximum = 138 (1 samples)
Network latency average = 13.8574 (1 samples)
	minimum = 6 (1 samples)
	maximum = 109 (1 samples)
Flit latency average = 12.5935 (1 samples)
	minimum = 6 (1 samples)
	maximum = 108 (1 samples)
Fragmentation average = 0.000419029 (1 samples)
	minimum = 0 (1 samples)
	maximum = 32 (1 samples)
Injected packet rate average = 0.0483361 (1 samples)
	minimum = 0.0412198 (1 samples)
	maximum = 0.0584004 (1 samples)
Accepted packet rate average = 0.0483361 (1 samples)
	minimum = 0.0412198 (1 samples)
	maximum = 0.0584004 (1 samples)
Injected flit rate average = 0.132181 (1 samples)
	minimum = 0.0708264 (1 samples)
	maximum = 0.219482 (1 samples)
Accepted flit rate average = 0.132181 (1 samples)
	minimum = 0.088926 (1 samples)
	maximum = 0.176333 (1 samples)
Injected packet size average = 2.73463 (1 samples)
Accepted packet size average = 2.73463 (1 samples)
Hops average = 1 (1 samples)
----------------------------END-of-Interconnect-DETAILS-------------------------


gpgpu_simulation_time = 0 days, 0 hrs, 3 min, 43 sec (223 sec)
gpgpu_simulation_rate = 333363 (inst/sec)
gpgpu_simulation_rate = 590 (cycle/sec)
