

        *** GPGPU-Sim Simulator Version 3.2.2  [build 0] ***


GPGPU-Sim PTX: simulation mode 0 (can change with PTX_SIM_MODE_FUNC environment variable:
               1=functional simulation only, 0=detailed performance simulator)
GPGPU-Sim: Configuration options:

-network_mode                           1 # Interconnection network mode
-inter_config_file   config_fermi_islip.icnt # Interconnection network config file
-gpgpu_ptx_use_cuobjdump                    1 # Use cuobjdump to extract ptx and sass from binaries
-gpgpu_experimental_lib_support                    0 # Try to extract code from cuda libraries [Broken because of unknown cudaGetExportTable]
-gpgpu_ptx_convert_to_ptxplus                    0 # Convert SASS (native ISA) to ptxplus and run ptxplus
-gpgpu_ptx_force_max_capability                   20 # Force maximum compute capability
-gpgpu_ptx_inst_debug_to_file                    0 # Dump executed instructions' debug information to file
-gpgpu_ptx_inst_debug_file       inst_debug.txt # Executed instructions' debug output file
-gpgpu_ptx_inst_debug_thread_uid                    1 # Thread UID for executed instructions' debug output
-gpgpu_simd_model                       1 # 1 = post-dominator
-gpgpu_shader_core_pipeline              1536:32 # shader core pipeline config, i.e., {<nthread>:<warpsize>}
-gpgpu_tex_cache:l1  4:128:24,L:R:m:N:L,F:128:4,128:2 # per-shader L1 texture cache  (READ-ONLY) config  {<nsets>:<bsize>:<assoc>,<rep>:<wr>:<alloc>:<wr_alloc>,<mshr>:<N>:<merge>,<mq>:<rf>}
-gpgpu_const_cache:l1 64:64:2,L:R:f:N:L,A:2:32,4 # per-shader L1 constant memory cache  (READ-ONLY) config  {<nsets>:<bsize>:<assoc>,<rep>:<wr>:<alloc>:<wr_alloc>,<mshr>:<N>:<merge>,<mq>} 
-gpgpu_cache:il1     4:128:4,L:R:f:N:L,A:2:32,4 # shader L1 instruction cache config  {<nsets>:<bsize>:<assoc>,<rep>:<wr>:<alloc>:<wr_alloc>,<mshr>:<N>:<merge>,<mq>} 
-gpgpu_cache:dl1     32:128:4,L:L:m:N:H,A:32:8,8:2,0,1:0:1:1:0:1,1:4:8:16:32:64,/sciclone/data10/hwang07/GPU_RESEARCH/swl/swl_outputs/RESULTS/swl1/ # per-shader L1 data cache config  {<nsets>:<bsize>:<assoc>,<rep>:<wr>:<alloc>:<wr_alloc>,<mshr>:<N>:<merge>,<mq> | none}
-gpgpu_cache:dl1PrefL1                 none # per-shader L1 data cache config  {<nsets>:<bsize>:<assoc>,<rep>:<wr>:<alloc>:<wr_alloc>,<mshr>:<N>:<merge>,<mq> | none}
-gpgpu_cache:dl1PreShared                 none # per-shader L1 data cache config  {<nsets>:<bsize>:<assoc>,<rep>:<wr>:<alloc>:<wr_alloc>,<mshr>:<N>:<merge>,<mq> | none}
-gmem_skip_L1D                          0 # global memory access skip L1D cache (implements -Xptxas -dlcm=cg, default=no skip)
-gpgpu_perfect_mem                      0 # enable perfect memory mode (no cache miss)
-n_regfile_gating_group                    4 # group of lanes that should be read/written together)
-gpgpu_clock_gated_reg_file                    0 # enable clock gated reg file for power calculations
-gpgpu_clock_gated_lanes                    0 # enable clock gated lanes for power calculations
-gpgpu_shader_registers                32768 # Number of registers per shader core. Limits number of concurrent CTAs. (default 8192)
-gpgpu_shader_cta                       8 # Maximum number of concurrent CTAs in shader (default 8)
-gpgpu_num_cta_barriers                   16 # Maximum number of named barriers per CTA (default 16)
-gpgpu_n_clusters                      15 # number of processing clusters
-gpgpu_n_cores_per_cluster                    1 # number of simd cores per cluster
-gpgpu_n_cluster_ejection_buffer_size                    8 # number of packets in ejection buffer
-gpgpu_n_ldst_response_buffer_size                    2 # number of response packets in ld/st unit ejection buffer
-gpgpu_shmem_size                   16384 # Size of shared memory per shader core (default 16kB)
-gpgpu_shmem_size                   49152 # Size of shared memory per shader core (default 16kB)
-gpgpu_shmem_size_PrefL1                16384 # Size of shared memory per shader core (default 16kB)
-gpgpu_shmem_size_PrefShared                16384 # Size of shared memory per shader core (default 16kB)
-gpgpu_shmem_num_banks                   32 # Number of banks in the shared memory in each shader core (default 16)
-gpgpu_shmem_limited_broadcast                    0 # Limit shared memory to do one broadcast per cycle (default on)
-gpgpu_shmem_warp_parts                    1 # Number of portions a warp is divided into for shared memory bank conflict check 
-gpgpu_warpdistro_shader                   -1 # Specify which shader core to collect the warp size distribution from
-gpgpu_warp_issue_shader                    0 # Specify which shader core to collect the warp issue distribution from
-gpgpu_local_mem_map                    1 # Mapping from local memory space address to simulated GPU physical address space (default = enabled)
-gpgpu_num_reg_banks                   16 # Number of register banks (default = 8)
-gpgpu_reg_bank_use_warp_id                    0 # Use warp ID in mapping registers to banks (default = off)
-gpgpu_operand_collector_num_units_sp                    6 # number of collector units (default = 4)
-gpgpu_operand_collector_num_units_sfu                    8 # number of collector units (default = 4)
-gpgpu_operand_collector_num_units_mem                    2 # number of collector units (default = 2)
-gpgpu_operand_collector_num_units_gen                    0 # number of collector units (default = 0)
-gpgpu_operand_collector_num_in_ports_sp                    2 # number of collector unit in ports (default = 1)
-gpgpu_operand_collector_num_in_ports_sfu                    1 # number of collector unit in ports (default = 1)
-gpgpu_operand_collector_num_in_ports_mem                    1 # number of collector unit in ports (default = 1)
-gpgpu_operand_collector_num_in_ports_gen                    0 # number of collector unit in ports (default = 0)
-gpgpu_operand_collector_num_out_ports_sp                    2 # number of collector unit in ports (default = 1)
-gpgpu_operand_collector_num_out_ports_sfu                    1 # number of collector unit in ports (default = 1)
-gpgpu_operand_collector_num_out_ports_mem                    1 # number of collector unit in ports (default = 1)
-gpgpu_operand_collector_num_out_ports_gen                    0 # number of collector unit in ports (default = 0)
-gpgpu_coalesce_arch                   13 # Coalescing arch (default = 13, anything else is off for now)
-gpgpu_num_sched_per_core                    2 # Number of warp schedulers per core
-gpgpu_max_insn_issue_per_warp                    1 # Max number of instructions that can be issued per warp in one cycle by scheduler
-gpgpu_simt_core_sim_order                    1 # Select the simulation order of cores in a cluster (0=Fix, 1=Round-Robin)
-gpgpu_pipeline_widths        2,1,1,2,1,1,2 # Pipeline widths ID_OC_SP,ID_OC_SFU,ID_OC_MEM,OC_EX_SP,OC_EX_SFU,OC_EX_MEM,EX_WB
-gpgpu_num_sp_units                     2 # Number of SP units (default=1)
-gpgpu_num_sfu_units                    1 # Number of SF units (default=1)
-gpgpu_num_mem_units                    1 # Number if ldst units (default=1) WARNING: not hooked up to anything
-gpgpu_scheduler        warp_limiting:2:1 # Scheduler configuration: < lrr | gto | two_level_active > If two_level_active:<num_active_warps>:<inner_prioritization>:<outer_prioritization>For complete list of prioritization values see shader.h enum scheduler_prioritization_typeDefault: gto
-gpgpu_dram_scheduler                    1 # 0 = fifo, 1 = FR-FCFS (defaul)
-gpgpu_dram_partition_queues              8:8:8:8 # i2$:$2d:d2$:$2i
-l2_ideal                               0 # Use a ideal L2 cache that always hit
-gpgpu_cache:dl2     64:128:8,L:B:m:W:L,A:32:4,4:0,32 # unified banked L2 data cache config  {<nsets>:<bsize>:<assoc>,<rep>:<wr>:<alloc>:<wr_alloc>,<mshr>:<N>:<merge>,<mq>}
-gpgpu_cache:dl2_texture_only                    0 # L2 cache used for texture only
-gpgpu_n_mem                            6 # number of memory modules (e.g. memory controllers) in gpu
-gpgpu_n_sub_partition_per_mchannel                    2 # number of memory subpartition in each memory module
-gpgpu_n_mem_per_ctrlr                    2 # number of memory chips per memory controller
-gpgpu_memlatency_stat                   14 # track and display latency statistics 0x2 enables MC, 0x4 enables queue logs
-gpgpu_frfcfs_dram_sched_queue_size                   16 # 0 = unlimited (default); # entries per chip
-gpgpu_dram_return_queue_size                  116 # 0 = unlimited (default); # entries per chip
-gpgpu_dram_buswidth                    4 # default = 4 bytes (8 bytes per cycle at DDR)
-gpgpu_dram_burst_length                    8 # Burst length of each DRAM request (default = 4 data bus cycle)
-dram_data_command_freq_ratio                    4 # Frequency ratio between DRAM data bus and command bus (default = 2 times, i.e. DDR)
-gpgpu_dram_timing_opt nbk=16:CCD=2:RRD=6:RCD=12:RAS=28:RP=12:RC=40: CL=12:WL=4:CDLR=5:WR=12:nbkgrp=4:CCDL=3:RTPL=2 # DRAM timing parameters = {nbk:tCCD:tRRD:tRCD:tRAS:tRP:tRC:CL:WL:tCDLR:tWR:nbkgrp:tCCDL:tRTPL}
-rop_latency                          120 # ROP queue latency (default 85)
-dram_latency                         100 # DRAM latency (default 30)
-gpgpu_mem_addr_mapping dramid@8;00000000.00000000.00000000.00000000.0000RRRR.RRRRRRRR.BBBCCCCB.CCSSSSSS # mapping memory address to dram model {dramid@<start bit>;<memory address map>}
-gpgpu_mem_addr_test                    0 # run sweep test to check address mapping for aliased address
-gpgpu_mem_address_mask                    1 # 0 = old addressing mask, 1 = new addressing mask, 2 = new add. mask + flipped bank sel and chip sel bits
-gpuwattch_xml_file  gpuwattch_gtx480.xml # GPUWattch XML file
-power_simulation_enabled                    0 # Turn on power simulator (1=On, 0=Off)
-power_per_cycle_dump                    0 # Dump detailed power output each cycle
-power_trace_enabled                    0 # produce a file for the power trace (1=On, 0=Off)
-power_trace_zlevel                     6 # Compression level of the power trace output log (0=no comp, 9=highest)
-steady_power_levels_enabled                    0 # produce a file for the steady power levels (1=On, 0=Off)
-steady_state_definition                  8:4 # allowed deviation:number of samples
-gpgpu_max_cycle                        0 # terminates gpu simulation early (0 = no limit)
-gpgpu_max_insn                         0 # terminates gpu simulation early (0 = no limit)
-gpgpu_max_cta                          0 # terminates gpu simulation early (0 = no limit)
-gpgpu_runtime_stat                   500 # display runtime statistics such as dram utilization {<freq>:<flag>}
-liveness_message_freq                    1 # Minimum number of seconds between simulation liveness messages (0 = always print)
-gpgpu_flush_l1_cache                    0 # Flush L1 cache at the end of each kernel call
-gpgpu_flush_l2_cache                    0 # Flush L2 cache at the end of each kernel call
-gpgpu_deadlock_detect                    1 # Stop the simulation at deadlock (1=on (default), 0=off)
-gpgpu_ptx_instruction_classification                    0 # if enabled will classify ptx instruction types per kernel (Max 255 kernels now)
-gpgpu_ptx_sim_mode                     0 # Select between Performance (default) or Functional simulation (1)
-gpgpu_clock_domains 700.0:700.0:700.0:924.0 # Clock Domain Frequencies in MhZ {<Core Clock>:<ICNT Clock>:<L2 Clock>:<DRAM Clock>}
-gpgpu_max_concurrent_kernel                    8 # maximum kernels that can run concurrently on GPU
-gpgpu_cflog_interval                    0 # Interval between each snapshot in control flow logger
-visualizer_enabled                     0 # Turn on visualizer output (1=On, 0=Off)
-visualizer_outputfile                 NULL # Specifies the output log file for visualizer
-visualizer_zlevel                      6 # Compression level of the visualizer output log (0=no comp, 9=highest)
-trace_enabled                          0 # Turn on traces
-trace_components                    none # comma seperated list of traces to enable. Complete list found in trace_streams.tup. Default none
-trace_sampling_core                    0 # The core which is printed using CORE_DPRINTF. Default 0
-trace_sampling_memory_partition                   -1 # The memory partition which is printed using MEMPART_DPRINTF. Default -1 (i.e. all)
-enable_ptx_file_line_stats                    1 # Turn on PTX source line statistic profiling. (1 = On)
-ptx_line_stats_filename gpgpu_inst_stats.txt # Output file for PTX source line statistics.
-save_embedded_ptx                      0 # saves ptx files embedded in binary as <n>.ptx
-keep                                   0 # keep intermediate files created by GPGPU-Sim when interfacing with external programs
-gpgpu_ptx_save_converted_ptxplus                    0 # Saved converted ptxplus to a file
-ptx_opcode_latency_int         4,13,4,5,145 # Opcode latencies for integers <ADD,MAX,MUL,MAD,DIV>Default 1,1,19,25,145
-ptx_opcode_latency_fp          4,13,4,5,39 # Opcode latencies for single precision floating points <ADD,MAX,MUL,MAD,DIV>Default 1,1,1,1,30
-ptx_opcode_latency_dp         8,19,8,8,330 # Opcode latencies for double precision floating points <ADD,MAX,MUL,MAD,DIV>Default 8,8,8,8,335
-ptx_opcode_initiation_int            1,2,2,1,8 # Opcode initiation intervals for integers <ADD,MAX,MUL,MAD,DIV>Default 1,1,4,4,32
-ptx_opcode_initiation_fp            1,2,1,1,4 # Opcode initiation intervals for single precision floating points <ADD,MAX,MUL,MAD,DIV>Default 1,1,1,1,5
-ptx_opcode_initiation_dp         8,16,8,8,130 # Opcode initiation intervals for double precision floating points <ADD,MAX,MUL,MAD,DIV>Default 8,8,8,8,130
DRAM Timing Options:
nbk                                    16 # number of banks
CCD                                     2 # column to column delay
RRD                                     6 # minimal delay between activation of rows in different banks
RCD                                    12 # row to column delay
RAS                                    28 # time needed to activate row
RP                                     12 # time needed to precharge (deactivate) row
RC                                     40 # row cycle time
CDLR                                    5 # switching from write to read (changes tWTR)
WR                                     12 # last data-in to row precharge
CL                                     12 # CAS latency
WL                                      4 # Write latency
nbkgrp                                  4 # number of bank groups
CCDL                                    3 # column to column delay between accesses to different bank groups
RTPL                                    2 # read to precharge delay between accesses to different bank groups
Total number of memory sub partition = 12
addr_dec_mask[CHIP]  = 0000000000000000 	high:64 low:0
addr_dec_mask[BK]    = 000000000000e100 	high:16 low:8
addr_dec_mask[ROW]   = 000000000fff0000 	high:28 low:16
addr_dec_mask[COL]   = 0000000000001eff 	high:13 low:0
addr_dec_mask[BURST] = 000000000000003f 	high:6 low:0
sub_partition_id_mask = 0000000000000100
GPGPU-Sim uArch: clock freqs: 700000000.000000:700000000.000000:700000000.000000:924000000.000000
GPGPU-Sim uArch: clock periods: 0.00000000142857142857:0.00000000142857142857:0.00000000142857142857:0.00000000108225108225
*** Initializing Memory Statistics ***
GPGPU-Sim uArch: interconnect node map (shaderID+MemID to icntID)
GPGPU-Sim uArch: Memory nodes ID start from index: 15
GPGPU-Sim uArch:    0   1   2   3   4
GPGPU-Sim uArch:    5   6   7   8   9
GPGPU-Sim uArch:   10  11  12  13  14
GPGPU-Sim uArch:   15  16  17  18  19
GPGPU-Sim uArch:   20  21  22  23  24
GPGPU-Sim uArch:   25  26
GPGPU-Sim uArch: interconnect node reverse map (icntID to shaderID+MemID)
GPGPU-Sim uArch: Memory nodes start from ID: 15
GPGPU-Sim uArch:    0   1   2   3   4
GPGPU-Sim uArch:    5   6   7   8   9
GPGPU-Sim uArch:   10  11  12  13  14
GPGPU-Sim uArch:   15  16  17  18  19
GPGPU-Sim uArch:   20  21  22  23  24
GPGPU-Sim uArch:   25  26
8bd7ad9c56d0614f771c29a101d426d4  /sciclone/data10/hwang07/adwait/applications/benchmarks/lonestar/bin/bh
GPGPU-Sim uArch: performance model initialization complete.
GPGPU-Sim PTX: __cudaRegisterFatBinary, fat_cubin_handle = 1, filename=apps/bh/./main.cu
self exe links to: /sciclone/data10/hwang07/adwait/applications/benchmarks/lonestar/bin/bh
Running md5sum using "md5sum /sciclone/data10/hwang07/adwait/applications/benchmarks/lonestar/bin/bh "
Parsing file _cuobjdump_complete_output_AQ4W80
######### cuobjdump parser ########
## Adding new section PTX
Adding ptx filename: _cuobjdump_1.ptx
Adding arch: sm_20
Adding identifier: apps/bh/./main.cu
## Adding new section ELF
Adding arch: sm_20
Adding identifier: apps/bh/./main.cu
Done parsing!!!
GPGPU-Sim PTX: __cudaRegisterFunction _Z17IntegrationKerneliffPVfS0_S0_S0_S0_S0_S0_S0_S0_ : hostFun 0x0x401610, fat_cubin_handle = 1
GPGPU-Sim PTX: allocating global region for "stepd" from 0x100 to 0x104 (global memory space)
GPGPU-Sim PTX: allocating global region for "maxdepthd" from 0x104 to 0x108 (global memory space)
GPGPU-Sim PTX: allocating global region for "blkcntd" from 0x108 to 0x10c (global memory space)
GPGPU-Sim PTX: instruction assembly for function '_Z20InitializationKernelPi'...   done.
GPGPU-Sim PTX: finding reconvergence points for '_Z20InitializationKernelPi'...
GPGPU-Sim PTX: Finding dominators for '_Z20InitializationKernelPi'...
GPGPU-Sim PTX: Finding immediate dominators for '_Z20InitializationKernelPi'...
GPGPU-Sim PTX: Finding postdominators for '_Z20InitializationKernelPi'...
GPGPU-Sim PTX: Finding immediate postdominators for '_Z20InitializationKernelPi'...
GPGPU-Sim PTX: pre-decoding instructions for '_Z20InitializationKernelPi'...
GPGPU-Sim PTX: reconvergence points for _Z20InitializationKernelPi...
GPGPU-Sim PTX: ... end of reconvergence points for _Z20InitializationKernelPi
GPGPU-Sim PTX: ... done pre-decoding instructions for '_Z20InitializationKernelPi'.
GPGPU-Sim PTX: allocating global region for "bottomd" from 0x10c to 0x110 (global memory space)
GPGPU-Sim PTX: allocating global region for "radiusd" from 0x110 to 0x114 (global memory space)
GPGPU-Sim: Warning: .minnctapersm ignored. 
GPGPU-Sim PTX: allocating shared region for "__cuda___cuda_local_var_40037_54_non_const_smaxx112" from 0x0 to 0x800 (shared memory space)
GPGPU-Sim PTX: allocating shared region for "__cuda___cuda_local_var_40037_78_non_const_smaxy2160" from 0x800 to 0x1000 (shared memory space)
GPGPU-Sim PTX: allocating shared region for "__cuda___cuda_local_var_40037_102_non_const_smaxz4208" from 0x1000 to 0x1800 (shared memory space)
GPGPU-Sim PTX: allocating shared region for "__cuda___cuda_local_var_40037_42_non_const_sminx6256" from 0x1800 to 0x2000 (shared memory space)
GPGPU-Sim PTX: allocating shared region for "__cuda___cuda_local_var_40037_66_non_const_sminy8304" from 0x2000 to 0x2800 (shared memory space)
GPGPU-Sim PTX: allocating shared region for "__cuda___cuda_local_var_40037_90_non_const_sminz10352" from 0x2800 to 0x3000 (shared memory space)
GPGPU-Sim PTX: instruction assembly for function '_Z17BoundingBoxKerneliiPViS0_PVfS2_S2_S2_S2_S2_S2_S2_S2_S2_'...   done.
GPGPU-Sim PTX: finding reconvergence points for '_Z17BoundingBoxKerneliiPViS0_PVfS2_S2_S2_S2_S2_S2_S2_S2_S2_'...
GPGPU-Sim PTX: Finding dominators for '_Z17BoundingBoxKerneliiPViS0_PVfS2_S2_S2_S2_S2_S2_S2_S2_S2_'...
GPGPU-Sim PTX: Finding immediate dominators for '_Z17BoundingBoxKerneliiPViS0_PVfS2_S2_S2_S2_S2_S2_S2_S2_S2_'...
GPGPU-Sim PTX: Finding postdominators for '_Z17BoundingBoxKerneliiPViS0_PVfS2_S2_S2_S2_S2_S2_S2_S2_S2_'...
GPGPU-Sim PTX: Finding immediate postdominators for '_Z17BoundingBoxKerneliiPViS0_PVfS2_S2_S2_S2_S2_S2_S2_S2_S2_'...
GPGPU-Sim PTX: pre-decoding instructions for '_Z17BoundingBoxKerneliiPViS0_PVfS2_S2_S2_S2_S2_S2_S2_S2_S2_'...
GPGPU-Sim PTX: reconvergence points for _Z17BoundingBoxKerneliiPViS0_PVfS2_S2_S2_S2_S2_S2_S2_S2_S2_...
GPGPU-Sim PTX:  1 (potential) branch divergence @  PC=0x0d0 (_1.ptx:131) @%p1 bra $Lt_1_6658;
GPGPU-Sim PTX:    immediate post dominator      @  PC=0x198 (_1.ptx:168) mov.u64 %rd11, __cuda___cuda_local_var_40037_54_non_const_smaxx112;
GPGPU-Sim PTX:  2 (potential) branch divergence @  PC=0x190 (_1.ptx:166) @%p2 bra $Lt_1_7170;
GPGPU-Sim PTX:    immediate post dominator      @  PC=0x198 (_1.ptx:168) mov.u64 %rd11, __cuda___cuda_local_var_40037_54_non_const_smaxx112;
GPGPU-Sim PTX:  3 (potential) branch divergence @  PC=0x250 (_1.ptx:200) @%p3 bra $Lt_1_8450;
GPGPU-Sim PTX:    immediate post dominator      @  PC=0x330 (_1.ptx:236) shr.s32 %r10, %r5, 31;
GPGPU-Sim PTX:  4 (potential) branch divergence @  PC=0x368 (_1.ptx:243) @%p4 bra $Lt_1_8194;
GPGPU-Sim PTX:    immediate post dominator      @  PC=0x370 (_1.ptx:244) mov.u32 %r15, 0;
GPGPU-Sim PTX:  5 (potential) branch divergence @  PC=0x380 (_1.ptx:246) @%p5 bra $Lt_1_9218;
GPGPU-Sim PTX:    immediate post dominator      @  PC=0x750 (_1.ptx:397) exit;
GPGPU-Sim PTX:  6 (potential) branch divergence @  PC=0x468 (_1.ptx:283) @%p6 bra $Lt_1_9730;
GPGPU-Sim PTX:    immediate post dominator      @  PC=0x750 (_1.ptx:397) exit;
GPGPU-Sim PTX:  7 (potential) branch divergence @  PC=0x480 (_1.ptx:286) @%p7 bra $Lt_1_10242;
GPGPU-Sim PTX:    immediate post dominator      @  PC=0x578 (_1.ptx:327) sub.f32 %f22, %f1, %f2;
GPGPU-Sim PTX:  8 (potential) branch divergence @  PC=0x570 (_1.ptx:324) @%p8 bra $Lt_1_10754;
GPGPU-Sim PTX:    immediate post dominator      @  PC=0x578 (_1.ptx:327) sub.f32 %f22, %f1, %f2;
GPGPU-Sim PTX: ... end of reconvergence points for _Z17BoundingBoxKerneliiPViS0_PVfS2_S2_S2_S2_S2_S2_S2_S2_S2_
GPGPU-Sim PTX: ... done pre-decoding instructions for '_Z17BoundingBoxKerneliiPViS0_PVfS2_S2_S2_S2_S2_S2_S2_S2_S2_'.
GPGPU-Sim: Warning: .minnctapersm ignored. 
GPGPU-Sim PTX: instruction assembly for function '_Z12ClearKernel1iiPVi'...   done.
GPGPU-Sim PTX: finding reconvergence points for '_Z12ClearKernel1iiPVi'...
GPGPU-Sim PTX: Finding dominators for '_Z12ClearKernel1iiPVi'...
GPGPU-Sim PTX: Finding immediate dominators for '_Z12ClearKernel1iiPVi'...
GPGPU-Sim PTX: Finding postdominators for '_Z12ClearKernel1iiPVi'...
GPGPU-Sim PTX: Finding immediate postdominators for '_Z12ClearKernel1iiPVi'...
GPGPU-Sim PTX: pre-decoding instructions for '_Z12ClearKernel1iiPVi'...
GPGPU-Sim PTX: reconvergence points for _Z12ClearKernel1iiPVi...
GPGPU-Sim PTX:  1 (potential) branch divergence @  PC=0x7e8 (_1.ptx:431) @%p2 bra $Lt_2_2050;
GPGPU-Sim PTX:    immediate post dominator      @  PC=0x850 (_1.ptx:450) exit;
GPGPU-Sim PTX:  2 (potential) branch divergence @  PC=0x848 (_1.ptx:447) @%p3 bra $Lt_2_2562;
GPGPU-Sim PTX:    immediate post dominator      @  PC=0x850 (_1.ptx:450) exit;
GPGPU-Sim PTX: ... end of reconvergence points for _Z12ClearKernel1iiPVi
GPGPU-Sim PTX: ... done pre-decoding instructions for '_Z12ClearKernel1iiPVi'.
GPGPU-Sim: Warning: .minnctapersm ignored. 
GPGPU-Sim PTX: instruction assembly for function '_Z18TreeBuildingKerneliiPViS0_PVfS2_S2_'...   done.
GPGPU-Sim PTX: finding reconvergence points for '_Z18TreeBuildingKerneliiPViS0_PVfS2_S2_'...
GPGPU-Sim PTX: Finding dominators for '_Z18TreeBuildingKerneliiPViS0_PVfS2_S2_'...
GPGPU-Sim PTX: Finding immediate dominators for '_Z18TreeBuildingKerneliiPViS0_PVfS2_S2_'...
GPGPU-Sim PTX: Finding postdominators for '_Z18TreeBuildingKerneliiPViS0_PVfS2_S2_'...
GPGPU-Sim PTX: Finding immediate postdominators for '_Z18TreeBuildingKerneliiPViS0_PVfS2_S2_'...
GPGPU-Sim PTX: pre-decoding instructions for '_Z18TreeBuildingKerneliiPViS0_PVfS2_S2_'...
GPGPU-Sim PTX: reconvergence points for _Z18TreeBuildingKerneliiPViS0_PVfS2_S2_...
GPGPU-Sim PTX:  1 (potential) branch divergence @  PC=0x900 (_1.ptx:509) @%p1 bra $Lt_3_29954;
GPGPU-Sim PTX:    immediate post dominator      @  PC=0x1118 (_1.ptx:854) mov.u64 %rd49, maxdepthd;
GPGPU-Sim PTX:  2 (potential) branch divergence @  PC=0x940 (_1.ptx:518) @%p2 bra $Lt_3_19458;
GPGPU-Sim PTX:    immediate post dominator      @  PC=0xac8 (_1.ptx:588) mul.lo.s32 %r20, %r14, 8;
GPGPU-Sim PTX:  3 (potential) branch divergence @  PC=0xa08 (_1.ptx:551) @!%p3 bra $Lt_3_19714;
GPGPU-Sim PTX:    immediate post dominator      @  PC=0xa20 (_1.ptx:556) setp.lt.f32 %p4, %f3, %f7;
GPGPU-Sim PTX:  4 (potential) branch divergence @  PC=0xa28 (_1.ptx:557) @!%p4 bra $Lt_3_20226;
GPGPU-Sim PTX:    immediate post dominator      @  PC=0xa40 (_1.ptx:562) setp.lt.f32 %p5, %f4, %f9;
GPGPU-Sim PTX:  5 (potential) branch divergence @  PC=0xa48 (_1.ptx:563) @!%p5 bra $Lt_3_20994;
GPGPU-Sim PTX:    immediate post dominator      @  PC=0xa78 (_1.ptx:573) add.f32 %f18, %f2, %f17;
GPGPU-Sim PTX:  6 (potential) branch divergence @  PC=0xa68 (_1.ptx:568) bra.uni $Lt_3_20738;
GPGPU-Sim PTX:    immediate post dominator      @  PC=0xa78 (_1.ptx:573) add.f32 %f18, %f2, %f17;
GPGPU-Sim PTX:  7 (potential) branch divergence @  PC=0xab0 (_1.ptx:582) bra.uni $Lt_3_19202;
GPGPU-Sim PTX:    immediate post dominator      @  PC=0xac8 (_1.ptx:588) mul.lo.s32 %r20, %r14, 8;
GPGPU-Sim PTX:  8 (potential) branch divergence @  PC=0xb00 (_1.ptx:595) @%p6 bra $Lt_3_21250;
GPGPU-Sim PTX:    immediate post dominator      @  PC=0xc80 (_1.ptx:661) mov.u32 %r26, -2;
GPGPU-Sim PTX:  9 (potential) branch divergence @  PC=0xb98 (_1.ptx:621) @!%p7 bra $Lt_3_22018;
GPGPU-Sim PTX:    immediate post dominator      @  PC=0xbb0 (_1.ptx:626) setp.gt.f32 %p8, %f7, %f26;
GPGPU-Sim PTX: 10 (potential) branch divergence @  PC=0xbb8 (_1.ptx:627) @!%p8 bra $Lt_3_22530;
GPGPU-Sim PTX:    immediate post dominator      @  PC=0xbd0 (_1.ptx:632) setp.gt.f32 %p9, %f9, %f25;
GPGPU-Sim PTX: 11 (potential) branch divergence @  PC=0xbd8 (_1.ptx:633) @!%p9 bra $Lt_3_23042;
GPGPU-Sim PTX:    immediate post dominator      @  PC=0xbf0 (_1.ptx:639) add.f32 %f27, %f17, %f27;
GPGPU-Sim PTX: 12 (potential) branch divergence @  PC=0xc40 (_1.ptx:652) @%p10 bra $Lt_3_21762;
GPGPU-Sim PTX:    immediate post dominator      @  PC=0xc48 (_1.ptx:653) mov.s32 %r17, %r23;
GPGPU-Sim PTX: 13 (potential) branch divergence @  PC=0xc90 (_1.ptx:663) @%p11 bra $Lt_3_25346;
GPGPU-Sim PTX:    immediate post dominator      @  PC=0x10a8 (_1.ptx:835) bar.sync 0;
GPGPU-Sim PTX: 14 (potential) branch divergence @  PC=0xcc0 (_1.ptx:670) @%p12 bra $Lt_3_24578;
GPGPU-Sim PTX:    immediate post dominator      @  PC=0x10a8 (_1.ptx:835) bar.sync 0;
GPGPU-Sim PTX: 15 (potential) branch divergence @  PC=0xd08 (_1.ptx:680) @%p13 bra $Lt_3_25346;
GPGPU-Sim PTX:    immediate post dominator      @  PC=0x10a8 (_1.ptx:835) bar.sync 0;
GPGPU-Sim PTX: 16 (potential) branch divergence @  PC=0xd30 (_1.ptx:687) bra.uni $Lt_3_25346;
GPGPU-Sim PTX:    immediate post dominator      @  PC=0x10a8 (_1.ptx:835) bar.sync 0;
GPGPU-Sim PTX: 17 (potential) branch divergence @  PC=0xd70 (_1.ptx:697) @%p14 bra $Lt_3_25346;
GPGPU-Sim PTX:    immediate post dominator      @  PC=0x10a8 (_1.ptx:835) bar.sync 0;
GPGPU-Sim PTX: 18 (potential) branch divergence @  PC=0xdf8 (_1.ptx:719) @%p15 bra $Lt_3_26370;
GPGPU-Sim PTX:    immediate post dominator      @  PC=0xe28 (_1.ptx:728) mov.u32 %r46, -1;
GPGPU-Sim PTX: 19 (potential) branch divergence @  PC=0xe38 (_1.ptx:730) @%p16 bra $Lt_3_26882;
GPGPU-Sim PTX:    immediate post dominator      @  PC=0xe70 (_1.ptx:740) max.s32 %r39, %r43, %r39;
GPGPU-Sim PTX: 20 (potential) branch divergence @  PC=0xf70 (_1.ptx:779) @!%p19 bra $Lt_3_27394;
GPGPU-Sim PTX:    immediate post dominator      @  PC=0xf88 (_1.ptx:784) setp.gt.f32 %p20, %f7, %f26;
GPGPU-Sim PTX: 21 (potential) branch divergence @  PC=0xf90 (_1.ptx:785) @!%p20 bra $Lt_3_27906;
GPGPU-Sim PTX:    immediate post dominator      @  PC=0xfa8 (_1.ptx:790) setp.gt.f32 %p21, %f9, %f25;
GPGPU-Sim PTX: 22 (potential) branch divergence @  PC=0xfb0 (_1.ptx:791) @!%p21 bra $Lt_3_28418;
GPGPU-Sim PTX:    immediate post dominator      @  PC=0xfc8 (_1.ptx:797) add.f32 %f27, %f17, %f27;
GPGPU-Sim PTX: 23 (potential) branch divergence @  PC=0x1018 (_1.ptx:810) @%p22 bra $Lt_3_26114;
GPGPU-Sim PTX:    immediate post dominator      @  PC=0x1020 (_1.ptx:811) mov.s32 %r17, %r23;
GPGPU-Sim PTX: 24 (potential) branch divergence @  PC=0x10c0 (_1.ptx:838) @%p23 bra $Lt_3_29186;
GPGPU-Sim PTX:    immediate post dominator      @  PC=0x10f8 (_1.ptx:847) setp.lt.s32 %p24, %r7, %r8;
GPGPU-Sim PTX: 25 (potential) branch divergence @  PC=0x1100 (_1.ptx:848) @%p24 bra $Lt_3_18946;
GPGPU-Sim PTX:    immediate post dominator      @  PC=0x1108 (_1.ptx:849) bra.uni $Lt_3_18434;
GPGPU-Sim PTX: 26 (potential) branch divergence @  PC=0x1108 (_1.ptx:849) bra.uni $Lt_3_18434;
GPGPU-Sim PTX:    immediate post dominator      @  PC=0x1118 (_1.ptx:854) mov.u64 %rd49, maxdepthd;
GPGPU-Sim PTX: ... end of reconvergence points for _Z18TreeBuildingKerneliiPViS0_PVfS2_S2_
GPGPU-Sim PTX: ... done pre-decoding instructions for '_Z18TreeBuildingKerneliiPViS0_PVfS2_S2_'.
GPGPU-Sim: Warning: .minnctapersm ignored. 
GPGPU-Sim PTX: instruction assembly for function '_Z12ClearKernel2iPViPVf'...   done.
GPGPU-Sim PTX: finding reconvergence points for '_Z12ClearKernel2iPViPVf'...
GPGPU-Sim PTX: Finding dominators for '_Z12ClearKernel2iPViPVf'...
GPGPU-Sim PTX: Finding immediate dominators for '_Z12ClearKernel2iPViPVf'...
GPGPU-Sim PTX: Finding postdominators for '_Z12ClearKernel2iPViPVf'...
GPGPU-Sim PTX: Finding immediate postdominators for '_Z12ClearKernel2iPViPVf'...
GPGPU-Sim PTX: pre-decoding instructions for '_Z12ClearKernel2iPViPVf'...
GPGPU-Sim PTX: reconvergence points for _Z12ClearKernel2iPViPVf...
GPGPU-Sim PTX:  1 (potential) branch divergence @  PC=0x11b0 (_1.ptx:892) @%p2 bra $Lt_4_2050;
GPGPU-Sim PTX:    immediate post dominator      @  PC=0x1240 (_1.ptx:917) exit;
GPGPU-Sim PTX:  2 (potential) branch divergence @  PC=0x1238 (_1.ptx:914) @%p3 bra $Lt_4_2562;
GPGPU-Sim PTX:    immediate post dominator      @  PC=0x1240 (_1.ptx:917) exit;
GPGPU-Sim PTX: ... end of reconvergence points for _Z12ClearKernel2iPViPVf
GPGPU-Sim PTX: ... done pre-decoding instructions for '_Z12ClearKernel2iPViPVf'.
GPGPU-Sim: Warning: .minnctapersm ignored. 
GPGPU-Sim PTX: allocating shared region for "__cuda___cuda_local_var_40306_31_non_const_child12544" from 0x0 to 0x1000 (shared memory space)
GPGPU-Sim PTX: allocating shared region for "__cuda___cuda_local_var_40307_33_non_const_mass16640" from 0x1000 to 0x2000 (shared memory space)
GPGPU-Sim PTX: instruction assembly for function '_Z19SummarizationKerneliiPViPKiPVfS4_S4_S4_'...   done.
GPGPU-Sim PTX: finding reconvergence points for '_Z19SummarizationKerneliiPViPKiPVfS4_S4_S4_'...
GPGPU-Sim PTX: Finding dominators for '_Z19SummarizationKerneliiPViPKiPVfS4_S4_S4_'...
GPGPU-Sim PTX: Finding immediate dominators for '_Z19SummarizationKerneliiPViPKiPVfS4_S4_S4_'...
GPGPU-Sim PTX: Finding postdominators for '_Z19SummarizationKerneliiPViPKiPVfS4_S4_S4_'...
GPGPU-Sim PTX: Finding immediate postdominators for '_Z19SummarizationKerneliiPViPKiPVfS4_S4_S4_'...
GPGPU-Sim PTX: pre-decoding instructions for '_Z19SummarizationKerneliiPViPKiPVfS4_S4_S4_'...
GPGPU-Sim PTX: reconvergence points for _Z19SummarizationKerneliiPViPKiPVfS4_S4_S4_...
GPGPU-Sim PTX:  1 (potential) branch divergence @  PC=0x12e0 (_1.ptx:964) @%p2 bra $Lt_5_20994;
GPGPU-Sim PTX:    immediate post dominator      @  PC=0x1640 (_1.ptx:1110) mov.s32 %r15, %r12;
GPGPU-Sim PTX:  2 (potential) branch divergence @  PC=0x1330 (_1.ptx:976) @!%p3 bra $Lt_5_23298;
GPGPU-Sim PTX:    immediate post dominator      @  PC=0x1620 (_1.ptx:1104) add.s32 %r15, %r15, %r4;
GPGPU-Sim PTX:  3 (potential) branch divergence @  PC=0x13b0 (_1.ptx:997) @%p4 bra $Lt_5_33794;
GPGPU-Sim PTX:    immediate post dominator      @  PC=0x1430 (_1.ptx:1018) mov.u32 %r23, 8;
GPGPU-Sim PTX:  4 (potential) branch divergence @  PC=0x13f8 (_1.ptx:1006) @!%p5 bra $Lt_5_33794;
GPGPU-Sim PTX:    immediate post dominator      @  PC=0x1430 (_1.ptx:1018) mov.u32 %r23, 8;
GPGPU-Sim PTX:  5 (potential) branch divergence @  PC=0x1400 (_1.ptx:1007) bra.uni $Lt_5_258;
GPGPU-Sim PTX:    immediate post dominator      @  PC=0x1430 (_1.ptx:1018) mov.u32 %r23, 8;
GPGPU-Sim PTX:  6 (potential) branch divergence @  PC=0x1428 (_1.ptx:1015) @%p6 bra $Lt_5_22786;
GPGPU-Sim PTX:    immediate post dominator      @  PC=0x1430 (_1.ptx:1018) mov.u32 %r23, 8;
GPGPU-Sim PTX:  7 (potential) branch divergence @  PC=0x1440 (_1.ptx:1020) @%p7 bra $Lt_5_23298;
GPGPU-Sim PTX:    immediate post dominator      @  PC=0x1620 (_1.ptx:1104) add.s32 %r15, %r15, %r4;
GPGPU-Sim PTX:  8 (potential) branch divergence @  PC=0x14d0 (_1.ptx:1042) @%p8 bra $Lt_5_24578;
GPGPU-Sim PTX:    immediate post dominator      @  PC=0x1590 (_1.ptx:1077) add.u32 %r17, %r17, 128;
GPGPU-Sim PTX:  9 (potential) branch divergence @  PC=0x14f0 (_1.ptx:1046) @%p9 bra $Lt_5_25346;
GPGPU-Sim PTX:    immediate post dominator      @  PC=0x1540 (_1.ptx:1063) add.f32 %f5, %f9, %f5;
GPGPU-Sim PTX: 10 (potential) branch divergence @  PC=0x1520 (_1.ptx:1054) bra.uni $Lt_5_25090;
GPGPU-Sim PTX:    immediate post dominator      @  PC=0x1540 (_1.ptx:1063) add.f32 %f5, %f9, %f5;
GPGPU-Sim PTX: 11 (potential) branch divergence @  PC=0x15a0 (_1.ptx:1079) @%p10 bra $Lt_5_24322;
GPGPU-Sim PTX:    immediate post dominator      @  PC=0x15a8 (_1.ptx:1080) mov.f32 %f13, %f5;
GPGPU-Sim PTX: 12 (potential) branch divergence @  PC=0x1638 (_1.ptx:1107) @%p11 bra $Lt_5_21506;
GPGPU-Sim PTX:    immediate post dominator      @  PC=0x1640 (_1.ptx:1110) mov.s32 %r15, %r12;
GPGPU-Sim PTX: 13 (potential) branch divergence @  PC=0x1660 (_1.ptx:1114) @%p12 bra $Lt_5_20738;
GPGPU-Sim PTX:    immediate post dominator      @  PC=0x1668 (_1.ptx:1115) setp.gt.s32 %p13, %r12, %r13;
GPGPU-Sim PTX: 14 (potential) branch divergence @  PC=0x1670 (_1.ptx:1116) @%p13 bra $Lt_5_26370;
GPGPU-Sim PTX:    immediate post dominator      @  PC=0x1b60 (_1.ptx:1326) exit;
GPGPU-Sim PTX: 15 (potential) branch divergence @  PC=0x16c0 (_1.ptx:1127) @!%p14 bra $Lt_5_27394;
GPGPU-Sim PTX:    immediate post dominator      @  PC=0x1af0 (_1.ptx:1307) bar.sync 0;
GPGPU-Sim PTX: 16 (potential) branch divergence @  PC=0x16e8 (_1.ptx:1133) bra.uni $Lt_5_30210;
GPGPU-Sim PTX:    immediate post dominator      @  PC=0x1af0 (_1.ptx:1307) bar.sync 0;
GPGPU-Sim PTX: 17 (potential) branch divergence @  PC=0x1700 (_1.ptx:1137) @%p15 bra $Lt_5_27906;
GPGPU-Sim PTX:    immediate post dominator      @  PC=0x1910 (_1.ptx:1225) mov.u32 %r34, 0;
GPGPU-Sim PTX: 18 (potential) branch divergence @  PC=0x1780 (_1.ptx:1158) @%p16 bra $Lt_5_5634;
GPGPU-Sim PTX:    immediate post dominator      @  PC=0x17d8 (_1.ptx:1173) add.u64 %rd45, %rd45, 4;
GPGPU-Sim PTX: 19 (potential) branch divergence @  PC=0x17c8 (_1.ptx:1167) @!%p17 bra $Lt_5_5890;
GPGPU-Sim PTX:    immediate post dominator      @  PC=0x17d8 (_1.ptx:1173) add.u64 %rd45, %rd45, 4;
GPGPU-Sim PTX: 20 (potential) branch divergence @  PC=0x17f0 (_1.ptx:1176) @%p18 bra $Lt_5_28674;
GPGPU-Sim PTX:    immediate post dominator      @  PC=0x17f8 (_1.ptx:1177) bra.uni $Lt_5_27650;
GPGPU-Sim PTX: 21 (potential) branch divergence @  PC=0x17f8 (_1.ptx:1177) bra.uni $Lt_5_27650;
GPGPU-Sim PTX:    immediate post dominator      @  PC=0x1910 (_1.ptx:1225) mov.u32 %r34, 0;
GPGPU-Sim PTX: 22 (potential) branch divergence @  PC=0x1848 (_1.ptx:1192) @%p19 bra $L_5_19970;
GPGPU-Sim PTX:    immediate post dominator      @  PC=0x1890 (_1.ptx:1204) mov.u32 %r33, 0;
GPGPU-Sim PTX: 23 (potential) branch divergence @  PC=0x1870 (_1.ptx:1197) @!%p20 bra $L_5_19714;
GPGPU-Sim PTX:    immediate post dominator      @  PC=0x1890 (_1.ptx:1204) mov.u32 %r33, 0;
GPGPU-Sim PTX: 24 (potential) branch divergence @  PC=0x1880 (_1.ptx:1200) bra.uni $L_5_19458;
GPGPU-Sim PTX:    immediate post dominator      @  PC=0x1890 (_1.ptx:1204) mov.u32 %r33, 0;
GPGPU-Sim PTX: 25 (potential) branch divergence @  PC=0x18a0 (_1.ptx:1206) @%p21 bra $Lt_5_6914;
GPGPU-Sim PTX:    immediate post dominator      @  PC=0x18f8 (_1.ptx:1221) add.u32 %r17, %r17, 128;
GPGPU-Sim PTX: 26 (potential) branch divergence @  PC=0x18e8 (_1.ptx:1215) @!%p22 bra $Lt_5_7170;
GPGPU-Sim PTX:    immediate post dominator      @  PC=0x18f8 (_1.ptx:1221) add.u32 %r17, %r17, 128;
GPGPU-Sim PTX: 27 (potential) branch divergence @  PC=0x1908 (_1.ptx:1223) @%p23 bra $Lt_5_29698;
GPGPU-Sim PTX:    immediate post dominator      @  PC=0x1910 (_1.ptx:1225) mov.u32 %r34, 0;
GPGPU-Sim PTX: 28 (potential) branch divergence @  PC=0x1920 (_1.ptx:1227) @%p24 bra $Lt_5_30210;
GPGPU-Sim PTX:    immediate post dominator      @  PC=0x1af0 (_1.ptx:1307) bar.sync 0;
GPGPU-Sim PTX: 29 (potential) branch divergence @  PC=0x19a8 (_1.ptx:1248) @%p25 bra $Lt_5_31490;
GPGPU-Sim PTX:    immediate post dominator      @  PC=0x1a68 (_1.ptx:1283) add.u32 %r17, %r17, 128;
GPGPU-Sim PTX: 30 (potential) branch divergence @  PC=0x19c8 (_1.ptx:1252) @%p26 bra $Lt_5_32258;
GPGPU-Sim PTX:    immediate post dominator      @  PC=0x1a18 (_1.ptx:1269) add.f32 %f5, %f9, %f5;
GPGPU-Sim PTX: 31 (potential) branch divergence @  PC=0x19f8 (_1.ptx:1260) bra.uni $Lt_5_32002;
GPGPU-Sim PTX:    immediate post dominator      @  PC=0x1a18 (_1.ptx:1269) add.f32 %f5, %f9, %f5;
GPGPU-Sim PTX: 32 (potential) branch divergence @  PC=0x1a78 (_1.ptx:1285) @%p27 bra $Lt_5_31234;
GPGPU-Sim PTX:    immediate post dominator      @  PC=0x1a80 (_1.ptx:1286) mov.f32 %f13, %f5;
GPGPU-Sim PTX: 33 (potential) branch divergence @  PC=0x1b08 (_1.ptx:1310) @%p28 bra $Lt_5_32770;
GPGPU-Sim PTX:    immediate post dominator      @  PC=0x1b50 (_1.ptx:1322) setp.le.s32 %p29, %r15, %r13;
GPGPU-Sim PTX: 34 (potential) branch divergence @  PC=0x1b58 (_1.ptx:1323) @%p29 bra $Lt_5_26882;
GPGPU-Sim PTX:    immediate post dominator      @  PC=0x1b60 (_1.ptx:1326) exit;
GPGPU-Sim PTX: ... end of reconvergence points for _Z19SummarizationKerneliiPViPKiPVfS4_S4_S4_
GPGPU-Sim PTX: ... done pre-decoding instructions for '_Z19SummarizationKerneliiPViPKiPVfS4_S4_S4_'.
GPGPU-Sim: Warning: .minnctapersm ignored. 
GPGPU-Sim PTX: instruction assembly for function '_Z10SortKerneliiPiS_PViS_'...   done.
GPGPU-Sim PTX: finding reconvergence points for '_Z10SortKerneliiPiS_PViS_'...
GPGPU-Sim PTX: Finding dominators for '_Z10SortKerneliiPiS_PViS_'...
GPGPU-Sim PTX: Finding immediate dominators for '_Z10SortKerneliiPiS_PViS_'...
GPGPU-Sim PTX: Finding postdominators for '_Z10SortKerneliiPiS_PViS_'...
GPGPU-Sim PTX: Finding immediate postdominators for '_Z10SortKerneliiPiS_PViS_'...
GPGPU-Sim PTX: pre-decoding instructions for '_Z10SortKerneliiPiS_PViS_'...
GPGPU-Sim PTX: reconvergence points for _Z10SortKerneliiPiS_PViS_...
GPGPU-Sim PTX:  1 (potential) branch divergence @  PC=0x1bd8 (_1.ptx:1361) @%p1 bra $Lt_6_5378;
GPGPU-Sim PTX:    immediate post dominator      @  PC=0x1dc0 (_1.ptx:1442) exit;
GPGPU-Sim PTX:  2 (potential) branch divergence @  PC=0x1c18 (_1.ptx:1371) @%p2 bra $Lt_6_6146;
GPGPU-Sim PTX:    immediate post dominator      @  PC=0x1db0 (_1.ptx:1438) setp.le.s32 %p7, %r1, %r13;
GPGPU-Sim PTX:  3 (potential) branch divergence @  PC=0x1c80 (_1.ptx:1387) @%p3 bra $Lt_6_7426;
GPGPU-Sim PTX:    immediate post dominator      @  PC=0x1d68 (_1.ptx:1427) add.s32 %r19, %r19, 1;
GPGPU-Sim PTX:  4 (potential) branch divergence @  PC=0x1c90 (_1.ptx:1389) @%p4 bra $Lt_6_7938;
GPGPU-Sim PTX:    immediate post dominator      @  PC=0x1cd0 (_1.ptx:1401) add.s32 %r20, %r20, 1;
GPGPU-Sim PTX:  5 (potential) branch divergence @  PC=0x1ce8 (_1.ptx:1404) @%p5 bra $Lt_6_8706;
GPGPU-Sim PTX:    immediate post dominator      @  PC=0x1d68 (_1.ptx:1427) add.s32 %r19, %r19, 1;
GPGPU-Sim PTX:  6 (potential) branch divergence @  PC=0x1d30 (_1.ptx:1415) bra.uni $Lt_6_8450;
GPGPU-Sim PTX:    immediate post dominator      @  PC=0x1d68 (_1.ptx:1427) add.s32 %r19, %r19, 1;
GPGPU-Sim PTX:  7 (potential) branch divergence @  PC=0x1d88 (_1.ptx:1431) @%p6 bra $Lt_6_7170;
GPGPU-Sim PTX:    immediate post dominator      @  PC=0x1d90 (_1.ptx:1433) sub.s32 %r13, %r13, %r4;
GPGPU-Sim PTX:  8 (potential) branch divergence @  PC=0x1db8 (_1.ptx:1439) @%p7 bra $Lt_6_5890;
GPGPU-Sim PTX:    immediate post dominator      @  PC=0x1dc0 (_1.ptx:1442) exit;
GPGPU-Sim PTX: ... end of reconvergence points for _Z10SortKerneliiPiS_PViS_
GPGPU-Sim PTX: ... done pre-decoding instructions for '_Z10SortKerneliiPiS_PViS_'.
GPGPU-Sim: Warning: .minnctapersm ignored. 
GPGPU-Sim PTX: allocating shared region for "__cuda___cuda_local_var_40488_33_non_const_dq20904" from 0x0 to 0x400 (shared memory space)
GPGPU-Sim PTX: allocating shared region for "__cuda___cuda_local_var_40487_58_non_const_node21928" from 0x400 to 0x800 (shared memory space)
GPGPU-Sim PTX: allocating shared region for "__cuda___cuda_local_var_40487_40_non_const_pos22952" from 0x800 to 0xc00 (shared memory space)
GPGPU-Sim PTX: instruction assembly for function '_Z22ForceCalculationKerneliiPVifffS0_S0_PVfS2_S2_S2_S2_S2_S2_S2_S2_S2_'...   done.
GPGPU-Sim PTX: finding reconvergence points for '_Z22ForceCalculationKerneliiPVifffS0_S0_PVfS2_S2_S2_S2_S2_S2_S2_S2_S2_'...
GPGPU-Sim PTX: Finding dominators for '_Z22ForceCalculationKerneliiPVifffS0_S0_PVfS2_S2_S2_S2_S2_S2_S2_S2_S2_'...
GPGPU-Sim PTX: Finding immediate dominators for '_Z22ForceCalculationKerneliiPVifffS0_S0_PVfS2_S2_S2_S2_S2_S2_S2_S2_S2_'...
GPGPU-Sim PTX: Finding postdominators for '_Z22ForceCalculationKerneliiPVifffS0_S0_PVfS2_S2_S2_S2_S2_S2_S2_S2_S2_'...
GPGPU-Sim PTX: Finding immediate postdominators for '_Z22ForceCalculationKerneliiPVifffS0_S0_PVfS2_S2_S2_S2_S2_S2_S2_S2_S2_'...
GPGPU-Sim PTX: pre-decoding instructions for '_Z22ForceCalculationKerneliiPVifffS0_S0_PVfS2_S2_S2_S2_S2_S2_S2_S2_S2_'...
GPGPU-Sim PTX: reconvergence points for _Z22ForceCalculationKerneliiPVifffS0_S0_PVfS2_S2_S2_S2_S2_S2_S2_S2_S2_...
GPGPU-Sim PTX:  1 (potential) branch divergence @  PC=0x1de0 (_1.ptx:1482) @%p1 bra $Lt_7_12802;
GPGPU-Sim PTX:    immediate post dominator      @  PC=0x2008 (_1.ptx:1564) mov.u64 %rd1, __cuda___cuda_local_var_40488_33_non_const_dq20904;
GPGPU-Sim PTX:  2 (potential) branch divergence @  PC=0x1e58 (_1.ptx:1500) @%p2 bra $Lt_7_19202;
GPGPU-Sim PTX:    immediate post dominator      @  PC=0x1f78 (_1.ptx:1543) mov.s32 %r15, %r4;
GPGPU-Sim PTX:  3 (potential) branch divergence @  PC=0x1f58 (_1.ptx:1536) @%p3 bra $Lt_7_12290;
GPGPU-Sim PTX:    immediate post dominator      @  PC=0x1f60 (_1.ptx:1537) bra.uni $Lt_7_11778;
GPGPU-Sim PTX:  4 (potential) branch divergence @  PC=0x1f60 (_1.ptx:1537) bra.uni $Lt_7_11778;
GPGPU-Sim PTX:    immediate post dominator      @  PC=0x1f78 (_1.ptx:1543) mov.s32 %r15, %r4;
GPGPU-Sim PTX:  5 (potential) branch divergence @  PC=0x1fe8 (_1.ptx:1557) @%p4 bra $Lt_7_12802;
GPGPU-Sim PTX:    immediate post dominator      @  PC=0x2008 (_1.ptx:1564) mov.u64 %rd1, __cuda___cuda_local_var_40488_33_non_const_dq20904;
GPGPU-Sim PTX:  6 (potential) branch divergence @  PC=0x2030 (_1.ptx:1570) @%p5 bra $Lt_7_14338;
GPGPU-Sim PTX:    immediate post dominator      @  PC=0x2750 (_1.ptx:1851) exit;
GPGPU-Sim PTX:  7 (potential) branch divergence @  PC=0x2060 (_1.ptx:1576) @%p6 bra $Lt_7_13826;
GPGPU-Sim PTX:    immediate post dominator      @  PC=0x20a8 (_1.ptx:1588) bar.sync 0;
GPGPU-Sim PTX:  8 (potential) branch divergence @  PC=0x20f0 (_1.ptx:1599) @%p7 bra $Lt_7_14338;
GPGPU-Sim PTX:    immediate post dominator      @  PC=0x2750 (_1.ptx:1851) exit;
GPGPU-Sim PTX:  9 (potential) branch divergence @  PC=0x2210 (_1.ptx:1642) @!%p8 bra $Lt_7_15618;
GPGPU-Sim PTX:    immediate post dominator      @  PC=0x2260 (_1.ptx:1655) cvt.s64.s32 %rd54, %r23;
GPGPU-Sim PTX: 10 (potential) branch divergence @  PC=0x22b8 (_1.ptx:1669) @%p9 bra $Lt_7_16130;
GPGPU-Sim PTX:    immediate post dominator      @  PC=0x24c0 (_1.ptx:1759) sub.s32 %r38, %r38, 1;
GPGPU-Sim PTX: 11 (potential) branch divergence @  PC=0x2308 (_1.ptx:1683) @%p10 bra $Lt_7_17154;
GPGPU-Sim PTX:    immediate post dominator      @  PC=0x24a8 (_1.ptx:1754) mov.u32 %r54, 7;
GPGPU-Sim PTX: 12 (potential) branch divergence @  PC=0x2390 (_1.ptx:1704) @%p11 bra $Lt_7_3330;
GPGPU-Sim PTX:    immediate post dominator      @  PC=0x24a8 (_1.ptx:1754) mov.u32 %r54, 7;
GPGPU-Sim PTX: 13 (potential) branch divergence @  PC=0x23f0 (_1.ptx:1716) @%p14 bra $Lt_7_3586;
GPGPU-Sim PTX:    immediate post dominator      @  PC=0x24a8 (_1.ptx:1754) mov.u32 %r54, 7;
GPGPU-Sim PTX: 14 (potential) branch divergence @  PC=0x2448 (_1.ptx:1733) bra.uni $Lt_7_16898;
GPGPU-Sim PTX:    immediate post dominator      @  PC=0x24a8 (_1.ptx:1754) mov.u32 %r54, 7;
GPGPU-Sim PTX: 15 (potential) branch divergence @  PC=0x2450 (_1.ptx:1735) @!%p8 bra $Lt_7_17410;
GPGPU-Sim PTX:    immediate post dominator      @  PC=0x2478 (_1.ptx:1744) add.s32 %r38, %r38, 1;
GPGPU-Sim PTX: 16 (potential) branch divergence @  PC=0x2498 (_1.ptx:1749) bra.uni $Lt_7_16898;
GPGPU-Sim PTX:    immediate post dominator      @  PC=0x24a8 (_1.ptx:1754) mov.u32 %r54, 7;
GPGPU-Sim PTX: 17 (potential) branch divergence @  PC=0x24b8 (_1.ptx:1756) @%p15 bra $Lt_7_16642;
GPGPU-Sim PTX:    immediate post dominator      @  PC=0x24c0 (_1.ptx:1759) sub.s32 %r38, %r38, 1;
GPGPU-Sim PTX: 18 (potential) branch divergence @  PC=0x24d8 (_1.ptx:1762) @%p16 bra $Lt_7_15874;
GPGPU-Sim PTX:    immediate post dominator      @  PC=0x24e0 (_1.ptx:1763) ld.volatile.global.s32 %r55, [stepd];
GPGPU-Sim PTX: 19 (potential) branch divergence @  PC=0x24f8 (_1.ptx:1766) @%p17 bra $Lt_7_18434;
GPGPU-Sim PTX:    immediate post dominator      @  PC=0x26b8 (_1.ptx:1827) mov.s32 %r66, %r4;
GPGPU-Sim PTX: 20 (potential) branch divergence @  PC=0x2748 (_1.ptx:1847) @%p18 bra $Lt_7_14850;
GPGPU-Sim PTX:    immediate post dominator      @  PC=0x2750 (_1.ptx:1851) exit;
GPGPU-Sim PTX: ... end of reconvergence points for _Z22ForceCalculationKerneliiPVifffS0_S0_PVfS2_S2_S2_S2_S2_S2_S2_S2_S2_
GPGPU-Sim PTX: ... done pre-decoding instructions for '_Z22ForceCalculationKerneliiPVifffS0_S0_PVfS2_S2_S2_S2_S2_S2_S2_S2_S2_'.
GPGPU-Sim: Warning: .minnctapersm ignored. 
GPGPU-Sim PTX: instruction assembly for function '_Z17IntegrationKerneliffPVfS0_S0_S0_S0_S0_S0_S0_S0_'...   done.
GPGPU-Sim PTX: finding reconvergence points for '_Z17IntegrationKerneliffPVfS0_S0_S0_S0_S0_S0_S0_S0_'...
GPGPU-Sim PTX: Finding dominators for '_Z17IntegrationKerneliffPVfS0_S0_S0_S0_S0_S0_S0_S0_'...
GPGPU-Sim PTX: Finding immediate dominators for '_Z17IntegrationKerneliffPVfS0_S0_S0_S0_S0_S0_S0_S0_'...
GPGPU-Sim PTX: Finding postdominators for '_Z17IntegrationKerneliffPVfS0_S0_S0_S0_S0_S0_S0_S0_'...
GPGPU-Sim PTX: Finding immediate postdominators for '_Z17IntegrationKerneliffPVfS0_S0_S0_S0_S0_S0_S0_S0_'...
GPGPU-Sim PTX: pre-decoding instructions for '_Z17IntegrationKerneliffPVfS0_S0_S0_S0_S0_S0_S0_S0_'...
GPGPU-Sim PTX: reconvergence points for _Z17IntegrationKerneliffPVfS0_S0_S0_S0_S0_S0_S0_S0_...
GPGPU-Sim PTX:  1 (potential) branch divergence @  PC=0x2798 (_1.ptx:1886) @%p1 bra $Lt_8_1282;
GPGPU-Sim PTX:    immediate post dominator      @  PC=0x29a8 (_1.ptx:1968) exit;
GPGPU-Sim PTX:  2 (potential) branch divergence @  PC=0x29a0 (_1.ptx:1965) @%p2 bra $Lt_8_1794;
GPGPU-Sim PTX:    immediate post dominator      @  PC=0x29a8 (_1.ptx:1968) exit;
GPGPU-Sim PTX: ... end of reconvergence points for _Z17IntegrationKerneliffPVfS0_S0_S0_S0_S0_S0_S0_S0_
GPGPU-Sim PTX: ... done pre-decoding instructions for '_Z17IntegrationKerneliffPVfS0_S0_S0_S0_S0_S0_S0_S0_'.
GPGPU-Sim PTX: finished parsing EMBEDDED .ptx file _1.ptx
Adding _cuobjdump_1.ptx with cubin handle 1
GPGPU-Sim PTX: extracting embedded .ptx to temporary file "_ptx_2h6uBm"
Running: cat _ptx_2h6uBm | sed 's/.version 1.5/.version 1.4/' | sed 's/, texmode_independent//' | sed 's/\(\.extern \.const\[1\] .b8 \w\+\)\[\]/\1\[1\]/' | sed 's/const\[.\]/const\[0\]/g' > _ptx2_FjAnTJ
GPGPU-Sim PTX: generating ptxinfo using "$CUDA_INSTALL_PATH/bin/ptxas --gpu-name=sm_20 -v _ptx2_FjAnTJ --output-file  /dev/null 2> _ptx_2h6uBminfo"
GPGPU-Sim PTX: Kernel '_Z17IntegrationKerneliffPVfS0_S0_S0_S0_S0_S0_S0_S0_' : regs=31, lmem=0, smem=0, cmem=140
GPGPU-Sim PTX: Kernel '_Z22ForceCalculationKerneliiPVifffS0_S0_PVfS2_S2_S2_S2_S2_S2_S2_S2_S2_' : regs=24, lmem=0, smem=3072, cmem=180
GPGPU-Sim PTX: Kernel '_Z10SortKerneliiPiS_PViS_' : regs=19, lmem=0, smem=0, cmem=92
GPGPU-Sim PTX: Kernel '_Z19SummarizationKerneliiPViPKiPVfS4_S4_S4_' : regs=26, lmem=0, smem=8192, cmem=112
GPGPU-Sim PTX: Kernel '_Z12ClearKernel2iPViPVf' : regs=11, lmem=0, smem=0, cmem=76
GPGPU-Sim PTX: Kernel '_Z18TreeBuildingKerneliiPViS0_PVfS2_S2_' : regs=20, lmem=0, smem=0, cmem=100
GPGPU-Sim PTX: Kernel '_Z12ClearKernel1iiPVi' : regs=10, lmem=0, smem=0, cmem=68
GPGPU-Sim PTX: Kernel '_Z17BoundingBoxKerneliiPViS0_PVfS2_S2_S2_S2_S2_S2_S2_S2_S2_' : regs=20, lmem=0, smem=12288, cmem=156
GPGPU-Sim PTX: Kernel '_Z20InitializationKernelPi' : regs=8, lmem=0, smem=0, cmem=60
GPGPU-Sim PTX: removing ptxinfo using "rm -f _ptx_2h6uBm _ptx2_FjAnTJ _ptx_2h6uBminfo"
GPGPU-Sim PTX: loading globals with explicit initializers... 
GPGPU-Sim PTX: finished loading globals (0 bytes total).
GPGPU-Sim PTX: loading constants with explicit initializers...  done.
GPGPU-Sim PTX: __cudaRegisterFunction _Z22ForceCalculationKerneliiPVifffS0_S0_PVfS2_S2_S2_S2_S2_S2_S2_S2_S2_ : hostFun 0x0x401860, fat_cubin_handle = 1
GPGPU-Sim PTX: __cudaRegisterFunction _Z10SortKerneliiPiS_PViS_ : hostFun 0x0x401950, fat_cubin_handle = 1
GPGPU-Sim PTX: __cudaRegisterFunction _Z19SummarizationKerneliiPViPKiPVfS4_S4_S4_ : hostFun 0x0x401a70, fat_cubin_handle = 1
GPGPU-Sim PTX: __cudaRegisterFunction _Z12ClearKernel2iPViPVf : hostFun 0x0x401f60, fat_cubin_handle = 1
GPGPU-Sim PTX: __cudaRegisterFunction _Z18TreeBuildingKerneliiPViS0_PVfS2_S2_ : hostFun 0x0x401c00, fat_cubin_handle = 1
GPGPU-Sim PTX: __cudaRegisterFunction _Z12ClearKernel1iiPVi : hostFun 0x0x401ee0, fat_cubin_handle = 1
GPGPU-Sim PTX: __cudaRegisterFunction _Z17BoundingBoxKerneliiPViS0_PVfS2_S2_S2_S2_S2_S2_S2_S2_S2_ : hostFun 0x0x401e50, fat_cubin_handle = 1
GPGPU-Sim PTX: __cudaRegisterFunction _Z20InitializationKernelPi : hostFun 0x0x401ea0, fat_cubin_handle = 1
GPGPU-Sim PTX: __cudaRegisterVar: hostVar = 0x61a500; deviceAddress = stepd; deviceName = stepd
GPGPU-Sim PTX: __cudaRegisterVar: Registering const memory space of 4 bytes
GPGPU-Sim PTX registering global stepd hostVar to name mapping
GPGPU-Sim PTX: __cudaRegisterVar: hostVar = 0x61a504; deviceAddress = bottomd; deviceName = bottomd
GPGPU-Sim PTX: __cudaRegisterVar: Registering const memory space of 4 bytes
GPGPU-Sim PTX registering global bottomd hostVar to name mapping
GPGPU-Sim PTX: __cudaRegisterVar: hostVar = 0x61a508; deviceAddress = maxdepthd; deviceName = maxdepthd
GPGPU-Sim PTX: __cudaRegisterVar: Registering const memory space of 4 bytes
GPGPU-Sim PTX registering global maxdepthd hostVar to name mapping
GPGPU-Sim PTX: __cudaRegisterVar: hostVar = 0x61a50c; deviceAddress = blkcntd; deviceName = blkcntd
GPGPU-Sim PTX: __cudaRegisterVar: Registering const memory space of 4 bytes
GPGPU-Sim PTX registering global blkcntd hostVar to name mapping
GPGPU-Sim PTX: __cudaRegisterVar: hostVar = 0x61a510; deviceAddress = radiusd; deviceName = radiusd
GPGPU-Sim PTX: __cudaRegisterVar: Registering const memory space of 4 bytes
GPGPU-Sim PTX registering global radiusd hostVar to name mapping
CUDA BarnesHut v3.1 [Fermi]
Copyright (c) 2013, Texas State University-San Marcos. All rights reserved.
configuration: 50000 bodies, 2 time steps
GPGPU-Sim: synchronize waiting for inactive GPU simulation
GPGPU-Sim API: Stream Manager State
GPGPU-Sim: detected inactive GPU simulation thread
GPGPU-Sim: synchronize waiting for inactive GPU simulation
GPGPU-Sim API: Stream Manager State
GPGPU-Sim: detected inactive GPU simulation thread
GPGPU-Sim: synchronize waiting for inactive GPU simulation
GPGPU-Sim API: Stream Manager State
GPGPU-Sim: detected inactive GPU simulation thread
GPGPU-Sim: synchronize waiting for inactive GPU simulation
GPGPU-Sim API: Stream Manager State
GPGPU-Sim: detected inactive GPU simulation thread
GPGPU-Sim: synchronize waiting for inactive GPU simulation
GPGPU-Sim API: Stream Manager State
GPGPU-Sim: detected inactive GPU simulation thread
GPGPU-Sim: synchronize waiting for inactive GPU simulation
GPGPU-Sim API: Stream Manager State
GPGPU-Sim: detected inactive GPU simulation thread
GPGPU-Sim: synchronize waiting for inactive GPU simulation
GPGPU-Sim API: Stream Manager State
GPGPU-Sim: detected inactive GPU simulation thread
GPGPU-Sim: synchronize waiting for inactive GPU simulation
GPGPU-Sim API: Stream Manager State
GPGPU-Sim: detected inactive GPU simulation thread
GPGPU-Sim: synchronize waiting for inactive GPU simulation
GPGPU-Sim API: Stream Manager State
GPGPU-Sim: detected inactive GPU simulation thread
GPGPU-Sim: synchronize waiting for inactive GPU simulation
GPGPU-Sim API: Stream Manager State
GPGPU-Sim: detected inactive GPU simulation thread
GPGPU-Sim: synchronize waiting for inactive GPU simulation
GPGPU-Sim API: Stream Manager State
GPGPU-Sim: detected inactive GPU simulation thread
GPGPU-Sim: synchronize waiting for inactive GPU simulation
GPGPU-Sim API: Stream Manager State
GPGPU-Sim: detected inactive GPU simulation thread
GPGPU-Sim: synchronize waiting for inactive GPU simulation
GPGPU-Sim API: Stream Manager State
GPGPU-Sim: detected inactive GPU simulation thread
GPGPU-Sim: synchronize waiting for inactive GPU simulation
GPGPU-Sim API: Stream Manager State
GPGPU-Sim: detected inactive GPU simulation thread
GPGPU-Sim: synchronize waiting for inactive GPU simulation
GPGPU-Sim API: Stream Manager State
GPGPU-Sim: detected inactive GPU simulation thread
GPGPU-Sim: synchronize waiting for inactive GPU simulation
GPGPU-Sim API: Stream Manager State
GPGPU-Sim: detected inactive GPU simulation thread
GPGPU-Sim: synchronize waiting for inactive GPU simulation
GPGPU-Sim API: Stream Manager State
GPGPU-Sim: detected inactive GPU simulation thread
GPGPU-Sim: synchronize waiting for inactive GPU simulation
GPGPU-Sim API: Stream Manager State
GPGPU-Sim: detected inactive GPU simulation thread
GPGPU-Sim: synchronize waiting for inactive GPU simulation
GPGPU-Sim API: Stream Manager State
GPGPU-Sim: detected inactive GPU simulation thread
GPGPU-Sim: synchronize waiting for inactive GPU simulation
GPGPU-Sim API: Stream Manager State
GPGPU-Sim: detected inactive GPU simulation thread
GPGPU-Sim: synchronize waiting for inactive GPU simulation
GPGPU-Sim API: Stream Manager State
GPGPU-Sim: detected inactive GPU simulation thread
GPGPU-Sim: synchronize waiting for inactive GPU simulation
GPGPU-Sim API: Stream Manager State
GPGPU-Sim: detected inactive GPU simulation thread
GPGPU-Sim: synchronize waiting for inactive GPU simulation
GPGPU-Sim API: Stream Manager State
GPGPU-Sim: detected inactive GPU simulation thread
GPGPU-Sim: synchronize waiting for inactive GPU simulation
GPGPU-Sim API: Stream Manager State
GPGPU-Sim: detected inactive GPU simulation thread
GPGPU-Sim: synchronize waiting for inactive GPU simulation
GPGPU-Sim API: Stream Manager State
GPGPU-Sim: detected inactive GPU simulation thread
GPGPU-Sim: synchronize waiting for inactive GPU simulation
GPGPU-Sim API: Stream Manager State
GPGPU-Sim: detected inactive GPU simulation thread
GPGPU-Sim: synchronize waiting for inactive GPU simulation
GPGPU-Sim API: Stream Manager State
GPGPU-Sim: detected inactive GPU simulation thread
GPGPU-Sim: synchronize waiting for inactive GPU simulation
GPGPU-Sim API: Stream Manager State
GPGPU-Sim: detected inactive GPU simulation thread
event update

GPGPU-Sim PTX: cudaLaunch for 0x0x401ea0 (mode=performance simulation) on stream 0
GPGPU-Sim PTX: pushing kernel '_Z20InitializationKernelPi' to stream 0, gridDim= (1,1,1) blockDim = (1,1,1) 
kernel '_Z20InitializationKernelPi' transfer to GPU hardware scheduler
GPGPU-Sim uArch: Shader 1 bind to kernel 1 '_Z20InitializationKernelPi'
GPGPU-Sim uArch: CTA/core = 8, limited by: cta_limit
GPGPU-Sim uArch: core:  1, cta: 0 initialized @(1,0)
GPGPU-Sim uArch: cycles simulated: 500  inst.: 1 (ipc= 0.0) sim_rate=0 (inst/sec) elapsed = 0:0:00:08 / Tue Mar 22 12:39:48 2016
GPGPU-Sim uArch: Shader 1 finished CTA #0 (836,0), 0 CTAs running
GPGPU-Sim uArch: Shader 1 empty (release kernel 1 '_Z20InitializationKernelPi').
GPGPU-Sim uArch: GPU detected kernel '_Z20InitializationKernelPi' finished on shader 1.
kernel_name = _Z20InitializationKernelPi 
kernel_launch_uid = 1 
gpu_sim_cycle = 837
gpu_sim_insn = 10
gpu_ipc =       0.0119
gpu_tot_sim_cycle = 837
gpu_tot_sim_insn = 10
gpu_tot_ipc =       0.0119
gpu_tot_issued_cta = 1
gpu_stall_dramfull = 0
gpu_stall_icnt2sh    = 0
gpu_total_sim_rate=1

========= Core cache stats =========
L1I_cache:
	L1I_total_cache_accesses = 5
	L1I_total_cache_misses = 1
	L1I_total_cache_miss_rate = 0.2000
	L1I_total_cache_pending_hits = 0
	L1I_total_cache_reservation_fails = 0
L1D_cache:
	L1D_cache_core[0]: Access = 0, Miss = 0, Miss_rate = -nan, Pending_hits = 0, Reservation_fails = 0
	L1D_cache_core[1]: Access = 4, Miss = 4, Miss_rate = 1.000, Pending_hits = 0, Reservation_fails = 0
	L1D_cache_core[2]: Access = 0, Miss = 0, Miss_rate = -nan, Pending_hits = 0, Reservation_fails = 0
	L1D_cache_core[3]: Access = 0, Miss = 0, Miss_rate = -nan, Pending_hits = 0, Reservation_fails = 0
	L1D_cache_core[4]: Access = 0, Miss = 0, Miss_rate = -nan, Pending_hits = 0, Reservation_fails = 0
	L1D_cache_core[5]: Access = 0, Miss = 0, Miss_rate = -nan, Pending_hits = 0, Reservation_fails = 0
	L1D_cache_core[6]: Access = 0, Miss = 0, Miss_rate = -nan, Pending_hits = 0, Reservation_fails = 0
	L1D_cache_core[7]: Access = 0, Miss = 0, Miss_rate = -nan, Pending_hits = 0, Reservation_fails = 0
	L1D_cache_core[8]: Access = 0, Miss = 0, Miss_rate = -nan, Pending_hits = 0, Reservation_fails = 0
	L1D_cache_core[9]: Access = 0, Miss = 0, Miss_rate = -nan, Pending_hits = 0, Reservation_fails = 0
	L1D_cache_core[10]: Access = 0, Miss = 0, Miss_rate = -nan, Pending_hits = 0, Reservation_fails = 0
	L1D_cache_core[11]: Access = 0, Miss = 0, Miss_rate = -nan, Pending_hits = 0, Reservation_fails = 0
	L1D_cache_core[12]: Access = 0, Miss = 0, Miss_rate = -nan, Pending_hits = 0, Reservation_fails = 0
	L1D_cache_core[13]: Access = 0, Miss = 0, Miss_rate = -nan, Pending_hits = 0, Reservation_fails = 0
	L1D_cache_core[14]: Access = 0, Miss = 0, Miss_rate = -nan, Pending_hits = 0, Reservation_fails = 0
	L1D_total_cache_accesses = 4
	L1D_total_cache_misses = 4
	L1D_total_cache_miss_rate = 1.0000
	L1D_total_cache_pending_hits = 0
	L1D_total_cache_reservation_fails = 0
	L1D_cache_data_port_util = 0.000
	L1D_cache_fill_port_util = 0.000
L1C_cache:
	L1C_total_cache_accesses = 1
	L1C_total_cache_misses = 1
	L1C_total_cache_miss_rate = 1.0000
	L1C_total_cache_pending_hits = 0
	L1C_total_cache_reservation_fails = 0
L1T_cache:
	L1T_total_cache_accesses = 0
	L1T_total_cache_misses = 0
	L1T_total_cache_pending_hits = 0
	L1T_total_cache_reservation_fails = 0

Total_core_cache_stats:
	Total_core_cache_stats_breakdown[CONST_ACC_R][MISS] = 1
	Total_core_cache_stats_breakdown[GLOBAL_ACC_W][MISS] = 4
	Total_core_cache_stats_breakdown[INST_ACC_R][HIT] = 4
	Total_core_cache_stats_breakdown[INST_ACC_R][MISS] = 1
Shader 0 warp_id issue ditsribution:
warp_id:

distro:

gpgpu_n_tot_thrd_icount = 320
gpgpu_n_tot_w_icount = 10
gpgpu_n_stall_shd_mem = 0
gpgpu_n_mem_read_local = 0
gpgpu_n_mem_write_local = 0
gpgpu_n_mem_read_global = 0
gpgpu_n_mem_write_global = 4
gpgpu_n_mem_texture = 0
gpgpu_n_mem_const = 1
gpgpu_n_load_insn  = 0
gpgpu_n_store_insn = 4
gpgpu_n_shmem_insn = 0
gpgpu_n_tex_insn = 0
gpgpu_n_const_mem_insn = 0
gpgpu_n_param_mem_insn = 1
gpgpu_n_shmem_bkconflict = 0
gpgpu_n_cache_bkconflict = 0
gpgpu_n_intrawarp_mshr_merge = 0
gpgpu_n_cmem_portconflict = 0
gpgpu_stall_shd_mem[c_mem][bk_conf] = 0
gpgpu_stall_shd_mem[c_mem][mshr_rc] = 0
gpgpu_stall_shd_mem[c_mem][icnt_rc] = 0
gpgpu_stall_shd_mem[c_mem][data_port_stall] = 0
gpgpu_stall_shd_mem[t_mem][mshr_rc] = 0
gpgpu_stall_shd_mem[t_mem][icnt_rc] = 0
gpgpu_stall_shd_mem[t_mem][data_port_stall] = 0
gpgpu_stall_shd_mem[s_mem][bk_conf] = 0
gpgpu_stall_shd_mem[gl_mem][bk_conf] = 0
gpgpu_stall_shd_mem[gl_mem][coal_stall] = 0
gpgpu_stall_shd_mem[gl_mem][data_port_stall] = 0
gpgpu_stall_shd_mem[g_mem_ld][mshr_rc] = 0
gpgpu_stall_shd_mem[g_mem_ld][icnt_rc] = 0
gpgpu_stall_shd_mem[g_mem_ld][wb_icnt_rc] = 0
gpgpu_stall_shd_mem[g_mem_ld][wb_rsrv_fail] = 0
gpgpu_stall_shd_mem[g_mem_st][mshr_rc] = 0
gpgpu_stall_shd_mem[g_mem_st][icnt_rc] = 0
gpgpu_stall_shd_mem[g_mem_st][wb_icnt_rc] = 0
gpgpu_stall_shd_mem[g_mem_st][wb_rsrv_fail] = 0
gpgpu_stall_shd_mem[l_mem_ld][mshr_rc] = 0
gpgpu_stall_shd_mem[l_mem_ld][icnt_rc] = 0
gpgpu_stall_shd_mem[l_mem_ld][wb_icnt_rc] = 0
gpgpu_stall_shd_mem[l_mem_ld][wb_rsrv_fail] = 0
gpgpu_stall_shd_mem[l_mem_st][mshr_rc] = 0
gpgpu_stall_shd_mem[l_mem_st][icnt_rc] = 0
gpgpu_stall_shd_mem[l_mem_ld][wb_icnt_rc] = 0
gpgpu_stall_shd_mem[l_mem_ld][wb_rsrv_fail] = 0
gpu_reg_bank_conflict_stalls = 0
Warp Occupancy Distribution:
Stall:0	W0_Idle:1402	W0_Scoreboard:290	W1:10	W2:0	W3:0	W4:0	W5:0	W6:0	W7:0	W8:0	W9:0	W10:0	W11:0	W12:0	W13:0	W14:0	W15:0	W16:0	W17:0	W18:0	W19:0	W20:0	W21:0	W22:0	W23:0	W24:0	W25:0	W26:0	W27:0	W28:0	W29:0	W30:0	W31:0	W32:0
traffic_breakdown_coretomem[CONST_ACC_R] = 8 {8:1,}
traffic_breakdown_coretomem[GLOBAL_ACC_W] = 160 {40:4,}
traffic_breakdown_coretomem[INST_ACC_R] = 8 {8:1,}
traffic_breakdown_memtocore[CONST_ACC_R] = 72 {72:1,}
traffic_breakdown_memtocore[GLOBAL_ACC_W] = 32 {8:4,}
traffic_breakdown_memtocore[INST_ACC_R] = 136 {136:1,}
maxmrqlatency = 13 
maxdqlatency = 0 
maxmflatency = 275 
max_icnt2mem_latency = 10 
max_icnt2sh_latency = 836 
mrq_lat_table:4 	0 	2 	2 	0 	0 	0 	0 	0 	0 	0 	0 	0 	0 	0 	0 	0 	0 	0 	0 	0 	0 	0 	0 	0 	0 	0 	0 	0 	0 	0 	0 	
dq_lat_table:0 	0 	0 	0 	0 	0 	0 	0 	0 	0 	0 	0 	0 	0 	0 	0 	0 	0 	0 	0 	0 	0 	0 	0 	0 	0 	0 	0 	0 	0 	0 	0 	
mf_lat_table:0 	0 	0 	0 	0 	0 	0 	2 	3 	0 	0 	0 	0 	0 	0 	0 	0 	0 	0 	0 	0 	0 	0 	0 	0 	0 	0 	0 	0 	0 	0 	0 	
icnt2mem_lat_table:0 	0 	0 	6 	0 	0 	0 	0 	0 	0 	0 	0 	0 	0 	0 	0 	0 	0 	0 	0 	0 	0 	0 	0 	
icnt2sh_lat_table:0 	0 	0 	1 	0 	0 	0 	0 	0 	4 	0 	0 	0 	0 	0 	0 	0 	0 	0 	0 	0 	0 	0 	0 	
mf_lat_pw_table:0 	0 	0 	0 	0 	0 	0 	0 	0 	0 	0 	0 	0 	0 	0 	0 	0 	0 	0 	0 	0 	0 	0 	0 	0 	0 	0 	0 	0 	0 	0 	0 	
maximum concurrent accesses to same row:
dram[0]:         1         0         0         0         0         0         0         0         0         0         0         0         0         0         0         0 
dram[1]:         0         0         0         0         0         0         0         0         0         0         0         0         0         0         0         0 
dram[2]:         0         0         0         0         0         0         0         0         0         0         0         0         0         0         0         0 
dram[3]:         0         0         0         0         0         0         0         0         0         0         0         0         0         0         0         0 
dram[4]:         0         0         0         0         0         0         0         0         0         0         0         0         0         0         0         0 
dram[5]:         0         0         0         0         0         0         0         0         0         0         0         0         0         0         0         0 
maximum service time to same row:
dram[0]:       275         0         0         0         0         0         0         0         0         0         0         0         0         0         0         0 
dram[1]:         0         0         0         0         0         0         0         0         0         0         0         0         0         0         0         0 
dram[2]:         0         0         0         0         0       790         0         0         0         0         0         0         0         0         0         0 
dram[3]:         0         0         0         0         0         0         0         0         0         0         0         0         0         0         0         0 
dram[4]:         0         0         0         0         0         0         0         0         0         0         0         0         0         0         0         0 
dram[5]:         0         0         0         0         0         0         0         0         0         0         0         0         0         0         0         0 
average row accesses per activate:
dram[0]:  1.000000      -nan      -nan      -nan      -nan      -nan      -nan      -nan      -nan      -nan      -nan      -nan      -nan      -nan      -nan      -nan 
dram[1]:       inf      -nan      -nan      -nan      -nan      -nan      -nan      -nan      -nan      -nan      -nan      -nan      -nan      -nan      -nan      -nan 
dram[2]:      -nan      -nan      -nan      -nan      -nan  2.000000      -nan      -nan      -nan      -nan      -nan      -nan      -nan      -nan      -nan      -nan 
dram[3]:      -nan      -nan      -nan      -nan      -nan      -nan      -nan      -nan      -nan      -nan      -nan      -nan      -nan      -nan      -nan      -nan 
dram[4]:      -nan      -nan      -nan      -nan      -nan      -nan      -nan      -nan      -nan      -nan      -nan      -nan      -nan      -nan      -nan      -nan 
dram[5]:      -nan      -nan      -nan      -nan      -nan      -nan      -nan      -nan      -nan      -nan      -nan      -nan      -nan      -nan      -nan      -nan 
average row locality = 8/3 = 2.666667
number of total memory accesses made:
dram[0]:         0         0         0         0         0         0         0         0         0         0         0         0         0         0         0         0 
dram[1]:         0         0         0         0         0         0         0         0         0         0         0         0         0         0         0         0 
dram[2]:         0         0         0         0         0         0         0         0         0         0         0         0         0         0         0         0 
dram[3]:         0         0         0         0         0         0         0         0         0         0         0         0         0         0         0         0 
dram[4]:         0         0         0         0         0         0         0         0         0         0         0         0         0         0         0         0 
dram[5]:         0         0         0         0         0         0         0         0         0         0         0         0         0         0         0         0 
total accesses: 0
min_bank_accesses = 0!
min_chip_accesses = 0!
number of total read accesses:
dram[0]:         2         0         0         0         0         0         0         0         0         0         0         0         0         0         0         0 
dram[1]:         1         0         0         0         0         0         0         0         0         0         0         0         0         0         0         0 
dram[2]:         0         0         0         0         0         1         0         0         0         0         0         0         0         0         0         0 
dram[3]:         0         0         0         0         0         0         0         0         0         0         0         0         0         0         0         0 
dram[4]:         0         0         0         0         0         0         0         0         0         0         0         0         0         0         0         0 
dram[5]:         0         0         0         0         0         0         0         0         0         0         0         0         0         0         0         0 
total reads: 4
min_bank_accesses = 0!
min_chip_accesses = 0!
number of total write accesses:
dram[0]:         0         0         0         0         0         0         0         0         0         0         0         0         0         0         0         0 
dram[1]:         3         0         0         0         0         0         0         0         0         0         0         0         0         0         0         0 
dram[2]:         0         0         0         0         0         1         0         0         0         0         0         0         0         0         0         0 
dram[3]:         0         0         0         0         0         0         0         0         0         0         0         0         0         0         0         0 
dram[4]:         0         0         0         0         0         0         0         0         0         0         0         0         0         0         0         0 
dram[5]:         0         0         0         0         0         0         0         0         0         0         0         0         0         0         0         0 
total reads: 4
min_bank_accesses = 0!
min_chip_accesses = 0!
average mf latency per bank:
dram[0]:        137    none      none      none      none      none      none      none      none      none      none      none      none      none      none      none  
dram[1]:        194    none      none      none      none      none      none      none      none      none      none      none      none      none      none      none  
dram[2]:     none      none      none      none      none         126    none      none      none      none      none      none      none      none      none      none  
dram[3]:     none      none      none      none      none      none      none      none      none      none      none      none      none      none      none      none  
dram[4]:     none      none      none      none      none      none      none      none      none      none      none      none      none      none      none      none  
dram[5]:     none      none      none      none      none      none      none      none      none      none      none      none      none      none      none      none  
maximum mf latency per bank:
dram[0]:        275         0         0         0         0         0         0         0         0         0         0         0         0         0         0         0
dram[1]:        265         0         0         0         0         0         0         0         0         0         0         0         0         0         0         0
dram[2]:          0         0         0         0         0       252         0         0         0         0         0         0         0         0         0         0
dram[3]:          0         0         0         0         0         0         0         0         0         0         0         0         0         0         0         0
dram[4]:          0         0         0         0         0         0         0         0         0         0         0         0         0         0         0         0
dram[5]:          0         0         0         0         0         0         0         0         0         0         0         0         0         0         0         0

Number of Memory Banks Accessed per Memory Operation per Warp (from 0):
0	0	0	0	0	0	0	0	0	0	0	0	0	0	0	0	0	0	0	0	0	0	0	0	0	0	0	0	0	0	0	0	0	0	0	0	0	0	0	0	0	0	0	0	0	0	0	0	0	0	0	0	0	0	0	0	0	0	0	0	0	0	0	0	0	0	0	0	0	0	0	0	0	0	0	0	0	0	0	0	0	0	0	0	0	0	0	0	0	0	0	0	0	0	0	0	
Average # of Memory Banks Accessed per Memory Operation per Warp=-nan

position of mrq chosen
0	0	0	0	0	0	0	0	0	0	0	0	0	0	0	0	

average position of mrq chosen = -nan
Memory Partition 0: 
Cache L2_bank_000:
MSHR contents

Cache L2_bank_001:
MSHR contents

In Dram Latency Queue (total = 0): 
DRAM[0]: 16 bks, busW=4 BL=8 CL=12, tRRD=2 tCCD=6, tRCD=12 tRAS=28 tRP=12 tRC=40
n_cmd=1104 n_nop=1097 n_act=2 n_pre=1 n_req=2 n_rd=4 n_write=0 bw_util=0.007246
n_activity=92 dram_eff=0.08696
bk0: 4a 1060i bk1: 0a 1103i bk2: 0a 1104i bk3: 0a 1104i bk4: 0a 1104i bk5: 0a 1104i bk6: 0a 1104i bk7: 0a 1104i bk8: 0a 1104i bk9: 0a 1104i bk10: 0a 1104i bk11: 0a 1104i bk12: 0a 1104i bk13: 0a 1104i bk14: 0a 1104i bk15: 0a 1104i 
dram_util_bins: 0 0 0 0 0 0 0 0 0 0
dram_eff_bins: 0 0 0 0 0 0 0 0 0 0
mrqq: max=0 avg=0
Memory Partition 1: 
Cache L2_bank_002:
MSHR contents

Cache L2_bank_003:
MSHR contents

In Dram Latency Queue (total = 0): 
DRAM[1]: 16 bks, busW=4 BL=8 CL=12, tRRD=2 tCCD=6, tRCD=12 tRAS=28 tRP=12 tRC=40
n_cmd=1104 n_nop=1098 n_act=1 n_pre=0 n_req=4 n_rd=2 n_write=3 bw_util=0.009058
n_activity=47 dram_eff=0.2128
bk0: 2a 1067i bk1: 0a 1104i bk2: 0a 1104i bk3: 0a 1104i bk4: 0a 1104i bk5: 0a 1104i bk6: 0a 1104i bk7: 0a 1104i bk8: 0a 1104i bk9: 0a 1104i bk10: 0a 1104i bk11: 0a 1104i bk12: 0a 1104i bk13: 0a 1104i bk14: 0a 1104i bk15: 0a 1104i 
dram_util_bins: 0 0 0 0 0 0 0 0 0 0
dram_eff_bins: 0 0 0 0 0 0 0 0 0 0
mrqq: max=2 avg=0.0326087
Memory Partition 2: 
Cache L2_bank_004:
MSHR contents

Cache L2_bank_005:
MSHR contents

In Dram Latency Queue (total = 0): 
DRAM[2]: 16 bks, busW=4 BL=8 CL=12, tRRD=2 tCCD=6, tRCD=12 tRAS=28 tRP=12 tRC=40
n_cmd=1104 n_nop=1100 n_act=1 n_pre=0 n_req=2 n_rd=2 n_write=1 bw_util=0.005435
n_activity=40 dram_eff=0.15
bk0: 0a 1104i bk1: 0a 1105i bk2: 0a 1105i bk3: 0a 1105i bk4: 0a 1105i bk5: 2a 1082i bk6: 0a 1103i bk7: 0a 1103i bk8: 0a 1103i bk9: 0a 1103i bk10: 0a 1103i bk11: 0a 1104i bk12: 0a 1104i bk13: 0a 1104i bk14: 0a 1104i bk15: 0a 1104i 
dram_util_bins: 0 0 0 0 0 0 0 0 0 0
dram_eff_bins: 0 0 0 0 0 0 0 0 0 0
mrqq: max=1 avg=0.00634058
Memory Partition 3: 
Cache L2_bank_006:
MSHR contents

Cache L2_bank_007:
MSHR contents

In Dram Latency Queue (total = 0): 
DRAM[3]: 16 bks, busW=4 BL=8 CL=12, tRRD=2 tCCD=6, tRCD=12 tRAS=28 tRP=12 tRC=40
n_cmd=1104 n_nop=1104 n_act=0 n_pre=0 n_req=0 n_rd=0 n_write=0 bw_util=0
n_activity=0 dram_eff=-nan
bk0: 0a 1104i bk1: 0a 1104i bk2: 0a 1104i bk3: 0a 1104i bk4: 0a 1104i bk5: 0a 1104i bk6: 0a 1104i bk7: 0a 1104i bk8: 0a 1104i bk9: 0a 1104i bk10: 0a 1104i bk11: 0a 1104i bk12: 0a 1104i bk13: 0a 1104i bk14: 0a 1104i bk15: 0a 1104i 
dram_util_bins: 0 0 0 0 0 0 0 0 0 0
dram_eff_bins: 0 0 0 0 0 0 0 0 0 0
mrqq: max=0 avg=0
Memory Partition 4: 
Cache L2_bank_008:
MSHR contents

Cache L2_bank_009:
MSHR contents

In Dram Latency Queue (total = 0): 
DRAM[4]: 16 bks, busW=4 BL=8 CL=12, tRRD=2 tCCD=6, tRCD=12 tRAS=28 tRP=12 tRC=40
n_cmd=1104 n_nop=1104 n_act=0 n_pre=0 n_req=0 n_rd=0 n_write=0 bw_util=0
n_activity=0 dram_eff=-nan
bk0: 0a 1104i bk1: 0a 1104i bk2: 0a 1104i bk3: 0a 1104i bk4: 0a 1104i bk5: 0a 1104i bk6: 0a 1104i bk7: 0a 1104i bk8: 0a 1104i bk9: 0a 1104i bk10: 0a 1104i bk11: 0a 1104i bk12: 0a 1104i bk13: 0a 1104i bk14: 0a 1104i bk15: 0a 1104i 
dram_util_bins: 0 0 0 0 0 0 0 0 0 0
dram_eff_bins: 0 0 0 0 0 0 0 0 0 0
mrqq: max=0 avg=0
Memory Partition 5: 
Cache L2_bank_010:
MSHR contents

Cache L2_bank_011:
MSHR contents

In Dram Latency Queue (total = 0): 
DRAM[5]: 16 bks, busW=4 BL=8 CL=12, tRRD=2 tCCD=6, tRCD=12 tRAS=28 tRP=12 tRC=40
n_cmd=1104 n_nop=1104 n_act=0 n_pre=0 n_req=0 n_rd=0 n_write=0 bw_util=0
n_activity=0 dram_eff=-nan
bk0: 0a 1104i bk1: 0a 1104i bk2: 0a 1104i bk3: 0a 1104i bk4: 0a 1104i bk5: 0a 1104i bk6: 0a 1104i bk7: 0a 1104i bk8: 0a 1104i bk9: 0a 1104i bk10: 0a 1104i bk11: 0a 1104i bk12: 0a 1104i bk13: 0a 1104i bk14: 0a 1104i bk15: 0a 1104i 
dram_util_bins: 0 0 0 0 0 0 0 0 0 0
dram_eff_bins: 0 0 0 0 0 0 0 0 0 0
mrqq: max=0 avg=0

========= L2 cache stats =========
L2_cache_bank[0]: Access = 2, Miss = 2, Miss_rate = 1.000, Pending_hits = 0, Reservation_fails = 0
L2_cache_bank[1]: Access = 0, Miss = 0, Miss_rate = -nan, Pending_hits = 0, Reservation_fails = 0
L2_cache_bank[2]: Access = 3, Miss = 1, Miss_rate = 0.333, Pending_hits = 2, Reservation_fails = 0
L2_cache_bank[3]: Access = 0, Miss = 0, Miss_rate = -nan, Pending_hits = 0, Reservation_fails = 0
L2_cache_bank[4]: Access = 0, Miss = 0, Miss_rate = -nan, Pending_hits = 0, Reservation_fails = 0
L2_cache_bank[5]: Access = 1, Miss = 1, Miss_rate = 1.000, Pending_hits = 0, Reservation_fails = 0
L2_cache_bank[6]: Access = 0, Miss = 0, Miss_rate = -nan, Pending_hits = 0, Reservation_fails = 0
L2_cache_bank[7]: Access = 0, Miss = 0, Miss_rate = -nan, Pending_hits = 0, Reservation_fails = 0
L2_cache_bank[8]: Access = 0, Miss = 0, Miss_rate = -nan, Pending_hits = 0, Reservation_fails = 0
L2_cache_bank[9]: Access = 0, Miss = 0, Miss_rate = -nan, Pending_hits = 0, Reservation_fails = 0
L2_cache_bank[10]: Access = 0, Miss = 0, Miss_rate = -nan, Pending_hits = 0, Reservation_fails = 0
L2_cache_bank[11]: Access = 0, Miss = 0, Miss_rate = -nan, Pending_hits = 0, Reservation_fails = 0
L2_total_cache_accesses = 6
L2_total_cache_misses = 4
L2_total_cache_miss_rate = 0.6667
L2_total_cache_pending_hits = 2
L2_total_cache_reservation_fails = 0
L2_total_cache_breakdown:
	L2_cache_stats_breakdown[CONST_ACC_R][MISS] = 1
	L2_cache_stats_breakdown[GLOBAL_ACC_W][HIT_RESERVED] = 2
	L2_cache_stats_breakdown[GLOBAL_ACC_W][MISS] = 2
	L2_cache_stats_breakdown[INST_ACC_R][MISS] = 1
L2_cache_data_port_util = 0.000
L2_cache_fill_port_util = 0.002

icnt_total_pkts_mem_to_simt=12
icnt_total_pkts_simt_to_mem=10
LD_mem_lat_dist  0 0 0 0 0 0 0 0 0 0 0 0 0 0 0 0 0 0 0 0 0 0 0 0 0 0 0
ST_mem_lat_dist  0 0 0 0 0 0 0 0 0 0 0 0 0 0 0 0 0 0 0 0 0 0 0 0 0 0 0
----------------------------Interconnect-DETAILS--------------------------------
Class 0:
Packet latency average = 6.83333
	minimum = 6
	maximum = 10
Network latency average = 6.83333
	minimum = 6
	maximum = 10
Slowest packet = 1
Flit latency average = 6
	minimum = 6
	maximum = 6
Slowest flit = 0
Fragmentation average = 0
	minimum = 0
	maximum = 0
Injected packet rate average = 0.000530997
	minimum = 0 (at node 0)
	maximum = 0.00716846 (at node 1)
Accepted packet rate average = 0.000530997
	minimum = 0 (at node 0)
	maximum = 0.00716846 (at node 1)
Injected flit rate average = 0.000973494
	minimum = 0 (at node 0)
	maximum = 0.0119474 (at node 1)
Accepted flit rate average= 0.000973494
	minimum = 0 (at node 0)
	maximum = 0.0143369 (at node 1)
Injected packet length average = 1.83333
Accepted packet length average = 1.83333
Total in-flight flits = 0 (0 measured)
====== Overall Traffic Statistics ======
====== Traffic class 0 ======
Packet latency average = 6.83333 (1 samples)
	minimum = 6 (1 samples)
	maximum = 10 (1 samples)
Network latency average = 6.83333 (1 samples)
	minimum = 6 (1 samples)
	maximum = 10 (1 samples)
Flit latency average = 6 (1 samples)
	minimum = 6 (1 samples)
	maximum = 6 (1 samples)
Fragmentation average = 0 (1 samples)
	minimum = 0 (1 samples)
	maximum = 0 (1 samples)
Injected packet rate average = 0.000530997 (1 samples)
	minimum = 0 (1 samples)
	maximum = 0.00716846 (1 samples)
Accepted packet rate average = 0.000530997 (1 samples)
	minimum = 0 (1 samples)
	maximum = 0.00716846 (1 samples)
Injected flit rate average = 0.000973494 (1 samples)
	minimum = 0 (1 samples)
	maximum = 0.0119474 (1 samples)
Accepted flit rate average = 0.000973494 (1 samples)
	minimum = 0 (1 samples)
	maximum = 0.0143369 (1 samples)
Injected packet size average = 1.83333 (1 samples)
Accepted packet size average = 1.83333 (1 samples)
Hops average = 1 (1 samples)
----------------------------END-of-Interconnect-DETAILS-------------------------


gpgpu_simulation_time = 0 days, 0 hrs, 0 min, 9 sec (9 sec)
gpgpu_simulation_rate = 1 (inst/sec)
gpgpu_simulation_rate = 93 (cycle/sec)
event update
GPGPU-Sim API: cudaEventSynchronize ** waiting for event
GPGPU-Sim API: cudaEventSynchronize ** event detected
GPGPU-Sim: synchronize waiting for inactive GPU simulation
GPGPU-Sim API: Stream Manager State
GPGPU-Sim: detected inactive GPU simulation thread
event update

GPGPU-Sim PTX: cudaLaunch for 0x0x401e50 (mode=performance simulation) on stream 0
GPGPU-Sim PTX: pushing kernel '_Z17BoundingBoxKerneliiPViS0_PVfS2_S2_S2_S2_S2_S2_S2_S2_S2_' to stream 0, gridDim= (45,1,1) blockDim = (512,1,1) 
kernel '_Z17BoundingBoxKerneliiPViS0_PVfS2_S2_S2_S2_S2_S2_S2_S2_S2_' transfer to GPU hardware scheduler
GPGPU-Sim uArch: Shader 2 bind to kernel 2 '_Z17BoundingBoxKerneliiPViS0_PVfS2_S2_S2_S2_S2_S2_S2_S2_S2_'
GPGPU-Sim uArch: CTA/core = 3, limited by: threads regs
GPGPU-Sim uArch: core:  2, cta: 0 initialized @(1,837)
GPGPU-Sim uArch: Shader 3 bind to kernel 2 '_Z17BoundingBoxKerneliiPViS0_PVfS2_S2_S2_S2_S2_S2_S2_S2_S2_'
[...]
traffic_breakdown_coretomem[CONST_ACC_R] = 240 {8:30,}
traffic_breakdown_coretomem[GLOBAL_ACC_R] = 37952 {8:4744,}
traffic_breakdown_coretomem[GLOBAL_ACC_W] = 1711600 {40:290,136:12500,}
traffic_breakdown_coretomem[GLOBAL_ATOMIC] = 1800 {40:45,}
traffic_breakdown_coretomem[INST_ACC_R] = 1480 {8:185,}
traffic_breakdown_memtocore[CONST_ACC_R] = 2160 {72:30,}
traffic_breakdown_memtocore[GLOBAL_ACC_R] = 645184 {136:4744,}
traffic_breakdown_memtocore[GLOBAL_ACC_W] = 102320 {8:12790,}
traffic_breakdown_memtocore[GLOBAL_ATOMIC] = 1800 {40:45,}
traffic_breakdown_memtocore[INST_ACC_R] = 25160 {136:185,}
maxmrqlatency = 502 
maxdqlatency = 0 
maxmflatency = 1656 
averagemflatency = 542 
max_icnt2mem_latency = 923 
max_icnt2sh_latency = 109694 
mrq_lat_table:7466 	309 	614 	1598 	4516 	5255 	6955 	2887 	196 	0 	0 	0 	0 	0 	0 	0 	0 	0 	0 	0 	0 	0 	0 	0 	0 	0 	0 	0 	0 	0 	0 	0 	
dq_lat_table:0 	0 	0 	0 	0 	0 	0 	0 	0 	0 	0 	0 	0 	0 	0 	0 	0 	0 	0 	0 	0 	0 	0 	0 	0 	0 	0 	0 	0 	0 	0 	0 	
mf_lat_table:0 	0 	0 	0 	0 	0 	0 	503 	8806 	7347 	953 	0 	0 	0 	0 	0 	0 	0 	0 	0 	0 	0 	0 	0 	0 	0 	0 	0 	0 	0 	0 	0 	
icnt2mem_lat_table:0 	0 	0 	8212 	880 	396 	1155 	2053 	4256 	842 	0 	0 	0 	0 	0 	0 	0 	0 	0 	0 	0 	0 	0 	0 	
icnt2sh_lat_table:0 	0 	0 	4331 	488 	0 	0 	0 	0 	4 	0 	0 	0 	0 	90 	90 	12606 	0 	0 	0 	0 	0 	0 	0 	
mf_lat_pw_table:0 	0 	0 	0 	0 	0 	0 	25 	136 	42 	0 	0 	0 	0 	0 	0 	0 	0 	0 	0 	0 	0 	0 	0 	0 	0 	0 	0 	0 	0 	0 	0 	
maximum concurrent accesses to same row:
dram[0]:        16        12        16        12        16        12        16        12        16        12        16        12        16        12        16        12 
dram[1]:         8        16         8        16        14        16         8        16        10        16        14        16        10        16         8        16 
dram[2]:        14        14        16        16        14        16        10        16        16        16        14        16        10        16        14        14 
dram[3]:        16        12        16        12        16        12        16        12        16        16        16        14        16        12        16        10 
dram[4]:        14         8        14        10        16        12        16        12        14        16        16        14        16        10        16        10 
dram[5]:         8        16        12        16        12        16         8        16        12        16        12        16        10        16         8        16 
maximum service time to same row:
dram[0]:      8157     60841      3310      6741      3303      6747     12375      7472     10459      7397     12227     13737      3928      7346      8144      9118 
dram[1]:      8150      8079      4978      4563      4990      4535     15210     10197      7725      8531      9697     11511      4875      6663      8250      8097 
dram[2]:      7956      8167      6450      3407      6457      3359     18035      3089      8498      7227      8277     11606      8570      4496      8197      8047 
dram[3]:      7847      9394      4085      5144      4023      5049     20862      4047      7900      5312     11046      8838     11251      5128      8193      9049 
dram[4]:      7915      8174      3425      6568      3419      6496     82741      6838     41554      6782     18162      9262      4802      8406     12707      8144 
dram[5]:     55631      8069      5200      4450      5194      4382      4719      9607      8259      8577     13641      8152      6297     10752     11831      9761 
average row accesses per activate:
dram[0]:  4.029412  3.600000  4.413793  3.506849  4.266667  3.605634  4.523077  3.580247  4.560000  3.659575  3.490385  3.259259  4.045977  3.666667  3.591837  3.320755 
dram[1]:  3.258824  4.354839  3.413333  4.413793  3.413333  4.491228  3.542169  4.553846  4.000000  4.144578  3.025000  3.784946  3.744681  4.190476  3.060869  3.744681 
dram[2]:  3.726027  3.955882  4.063492  4.129032  3.878788  4.095238  3.769231  4.352941  4.195122  4.047059  3.384615  3.490385  4.045977  4.190476  3.450980  3.555556 
dram[3]:  4.301587  3.671233  4.413793  3.605634  4.413793  3.605634  4.454545  4.111111  4.410256  3.865169  3.744681  3.184211  4.345679  3.744681  3.955056  3.220183 
dram[4]:  4.153846  3.573333  4.129032  3.657143  4.196721  3.605634  4.285714  3.746835  4.271605  3.802198  3.726316  3.241071  4.345679  3.555556  3.705263  3.365385 
dram[5]:  3.506494  4.701755  3.657143  4.571429  3.555556  4.830189  3.866667  4.852459  3.954023  4.613333  3.417476  3.781250  3.744681  4.190476  3.289720  3.763441 
average row locality = 29796/7787 = 3.826377
number of total memory accesses made:
dram[0]:         0         0         0         0         0         0         0         0         0         0         0         0         0         0         0         0 
dram[1]:         0         0         0         0         0         0         0         0         0         0         0         0         0         0         0         0 
dram[2]:         0         0         0         0         0         0         0         0         0         0         0         0         0         0         0         0 
dram[3]:         0         0         0         0         0         0         0         0         0         0         0         0         0         0         0         0 
dram[4]:         0         0         0         0         0         0         0         0         0         0         0         0         0         0         0         0 
dram[5]:         0         0         0         0         0         0         0         0         0         0         0         0         0         0         0         0 
total accesses: 0
min_bank_accesses = 0!
min_chip_accesses = 0!
number of total read accesses:
dram[0]:       146       142       128       128       128       128       148       146       214       216       226       224       224       224       224       224 
dram[1]:       145       142       128       128       128       128       148       149       215       216       226       224       224       224       224       224 
dram[2]:       144       141       128       128       128       129       148       150       216       216       224       226       224       224       224       224 
dram[3]:       143       140       128       128       128       128       148       150       216       216       224       226       224       224       224       223 
dram[4]:       142       140       128       128       128       128       149       150       217       217       225       226       224       224       224       222 
dram[5]:       142       140       128       128       128       128       146       150       216       218       224       226       224       224       224       222 
total reads: 17227
bank skew: 226/128 = 1.77
chip skew: 2874/2868 = 1.00
number of total write accesses:
dram[0]:       128       128       128       128       128       128       146       144       128       128       137       128       128       128       128       128 
dram[1]:       132       128       128       128       128       128       146       147       129       128       137       128       128       128       128       128 
dram[2]:       128       128       128       128       128       129       146       146       128       128       128       137       128       128       128       128 
dram[3]:       128       128       128       128       128       128       146       146       128       128       128       137       128       128       128       128 
dram[4]:       128       128       128       128       128       128       151       146       129       129       129       137       128       128       128       128 
dram[5]:       128       128       128       128       128       128       144       146       128       128       128       137       128       128       128       128 
total reads: 12569
bank skew: 151/128 = 1.18
chip skew: 2101/2091 = 1.00
average mf latency per bank:
dram[0]:        389       299       385       311       394       310       409       315       349       295       360       296       346       295       355       297
dram[1]:        357       305       337       319       344       314       363       304       318       296       332       292       316       294       318       297
dram[2]:        278       289       285       309       278       298       289       307       287       293       277       296       271       287       281       284
dram[3]:        312       311       332       329       332       322       313       322       292       299       290       307       295       305       307       301
dram[4]:        349       324       363       332       368       344       371       330       331       295       331       314       322       305       333       302
dram[5]:        314       389       324       386       324       404       326       371       307       346       303       361       304       343       304       342
maximum mf latency per bank:
dram[0]:       1300      1298      1271      1281      1368      1220      1656      1304      1177      1226      1425      1331      1306      1323      1235      1387
dram[1]:       1077      1112      1059      1122      1112      1144      1134      1126      1101      1050      1151      1085      1175      1043      1088      1093
dram[2]:       1150       931      1079      1073      1147      1015      1131      1013      1196      1000      1183       978      1054      1076      1052       957
dram[3]:       1417      1084      1480      1077      1372      1060      1528      1167      1457      1121      1403      1096      1482      1125      1401      1126
dram[4]:       1351      1240      1386      1307      1422      1532      1486      1220      1364      1220      1367      1193      1329      1174      1395      1203
dram[5]:       1287      1476      1080      1434      1121      1508      1216      1417      1037      1429      1064      1357      1046      1375      1097      1220

Number of Memory Banks Accessed per Memory Operation per Warp (from 0):
0	0	0	0	0	0	0	0	0	0	0	0	0	0	0	0	0	0	0	0	0	0	0	0	0	0	0	0	0	0	0	0	0	0	0	0	0	0	0	0	0	0	0	0	0	0	0	0	0	0	0	0	0	0	0	0	0	0	0	0	0	0	0	0	0	0	0	0	0	0	0	0	0	0	0	0	0	0	0	0	0	0	0	0	0	0	0	0	0	0	0	0	0	0	0	0	
Average # of Memory Banks Accessed per Memory Operation per Warp=-nan

position of mrq chosen
0	0	0	0	0	0	0	0	0	0	0	0	0	0	0	0	

average position of mrq chosen = -nan
Memory Partition 0: 
Cache L2_bank_000:
MSHR contents

Cache L2_bank_001:
MSHR contents
MSHR: tag=0x802e5a80, atomic=0 1 entries : 0x7feba82194b0 :  mf: uid=360270, sid07:w31, part=0, addr=0x802e5a80, load , size=128, unknown  status = IN_PARTITION_DRAM (109692), 
MSHR: tag=0x80303a80, atomic=0 1 entries : 0x7feba806dee0 :  mf: uid=360273, sid07:w31, part=0, addr=0x80303a80, load , size=128, unknown  status = IN_PARTITION_DRAM (109694), 

In Dram Latency Queue (total = 0): 
DRAM[0]: 16 bks, busW=4 BL=8 CL=12, tRRD=2 tCCD=6, tRCD=12 tRAS=28 tRP=12 tRC=40
n_cmd=144795 n_nop=132259 n_act=1319 n_pre=1303 n_req=4961 n_rd=5739 n_write=4175 bw_util=0.1369
n_activity=37774 dram_eff=0.5249
bk0: 292a 133138i bk1: 284a 132924i bk2: 256a 132278i bk3: 256a 132650i bk4: 256a 131960i bk5: 255a 132529i bk6: 296a 129698i bk7: 292a 130845i bk8: 428a 131488i bk9: 432a 132828i bk10: 452a 130549i bk11: 448a 130453i bk12: 448a 131199i bk13: 448a 131389i bk14: 448a 130363i bk15: 448a 130871i 
dram_util_bins: 0 0 0 0 0 0 0 0 0 0
dram_eff_bins: 0 0 0 0 0 0 0 0 0 0
mrqq: max=16 avg=2.28764
Memory Partition 1: 
Cache L2_bank_002:
MSHR contents

Cache L2_bank_003:
MSHR contents

In Dram Latency Queue (total = 0): 
DRAM[1]: 16 bks, busW=4 BL=8 CL=12, tRRD=2 tCCD=6, tRCD=12 tRAS=28 tRP=12 tRC=40
n_cmd=144795 n_nop=132219 n_act=1330 n_pre=1314 n_req=4972 n_rd=5746 n_write=4186 bw_util=0.1372
n_activity=39584 dram_eff=0.5018
bk0: 290a 132570i bk1: 284a 133656i bk2: 256a 133053i bk3: 256a 133076i bk4: 256a 132626i bk5: 256a 134011i bk6: 296a 130925i bk7: 298a 131829i bk8: 430a 132854i bk9: 432a 132765i bk10: 452a 131535i bk11: 448a 132310i bk12: 448a 131539i bk13: 448a 132531i bk14: 448a 131453i bk15: 448a 132305i 
dram_util_bins: 0 0 0 0 0 0 0 0 0 0
dram_eff_bins: 0 0 0 0 0 0 0 0 0 0
mrqq: max=16 avg=2.30609
Memory Partition 2: 
Cache L2_bank_004:
MSHR contents

Cache L2_bank_005:
MSHR contents

In Dram Latency Queue (total = 0): 
DRAM[2]: 16 bks, busW=4 BL=8 CL=12, tRRD=2 tCCD=6, tRCD=12 tRAS=28 tRP=12 tRC=40
n_cmd=144795 n_nop=132307 n_act=1288 n_pre=1272 n_req=4968 n_rd=5748 n_write=4180 bw_util=0.1371
n_activity=39663 dram_eff=0.5006
bk0: 288a 133648i bk1: 282a 134001i bk2: 256a 133749i bk3: 256a 133739i bk4: 256a 133861i bk5: 258a 134198i bk6: 296a 132327i bk7: 300a 132402i bk8: 432a 133283i bk9: 432a 132577i bk10: 448a 132668i bk11: 452a 132165i bk12: 448a 132972i bk13: 448a 132820i bk14: 448a 132267i bk15: 448a 132372i 
dram_util_bins: 0 0 0 0 0 0 0 0 0 0
dram_eff_bins: 0 0 0 0 0 0 0 0 0 0
mrqq: max=16 avg=2.14561
Memory Partition 3: 
Cache L2_bank_006:
MSHR contents

Cache L2_bank_007:
MSHR contents

In Dram Latency Queue (total = 0): 
DRAM[3]: 16 bks, busW=4 BL=8 CL=12, tRRD=2 tCCD=6, tRCD=12 tRAS=28 tRP=12 tRC=40
n_cmd=144795 n_nop=132332 n_act=1280 n_pre=1264 n_req=4963 n_rd=5740 n_write=4179 bw_util=0.137
n_activity=38754 dram_eff=0.5119
bk0: 286a 133891i bk1: 280a 133654i bk2: 256a 133758i bk3: 256a 133185i bk4: 256a 133880i bk5: 256a 132996i bk6: 296a 132260i bk7: 300a 132060i bk8: 432a 132927i bk9: 432a 133093i bk10: 448a 132893i bk11: 452a 131823i bk12: 448a 132961i bk13: 448a 132493i bk14: 448a 131833i bk15: 446a 131963i 
dram_util_bins: 0 0 0 0 0 0 0 0 0 0
dram_eff_bins: 0 0 0 0 0 0 0 0 0 0
mrqq: max=16 avg=2.34239
Memory Partition 4: 
Cache L2_bank_008:
MSHR contents

Cache L2_bank_009:
MSHR contents

In Dram Latency Queue (total = 0): 
DRAM[4]: 16 bks, busW=4 BL=8 CL=12, tRRD=2 tCCD=6, tRCD=12 tRAS=28 tRP=12 tRC=40
n_cmd=144795 n_nop=132257 n_act=1311 n_pre=1295 n_req=4973 n_rd=5744 n_write=4188 bw_util=0.1372
n_activity=38023 dram_eff=0.5224
bk0: 284a 132892i bk1: 280a 132009i bk2: 256a 132576i bk3: 256a 132894i bk4: 256a 132668i bk5: 256a 132506i bk6: 298a 129639i bk7: 300a 130289i bk8: 434a 131746i bk9: 434a 131940i bk10: 450a 131280i bk11: 452a 131098i bk12: 448a 131870i bk13: 448a 131188i bk14: 448a 130822i bk15: 444a 130952i 
dram_util_bins: 0 0 0 0 0 0 0 0 0 0
dram_eff_bins: 0 0 0 0 0 0 0 0 0 0
mrqq: max=16 avg=2.38976
Memory Partition 5: 
Cache L2_bank_010:
MSHR contents

Cache L2_bank_011:
MSHR contents

In Dram Latency Queue (total = 0): 
DRAM[5]: 16 bks, busW=4 BL=8 CL=12, tRRD=2 tCCD=6, tRCD=12 tRAS=28 tRP=12 tRC=40
n_cmd=144795 n_nop=132380 n_act=1260 n_pre=1244 n_req=4959 n_rd=5736 n_write=4175 bw_util=0.1369
n_activity=38537 dram_eff=0.5144
bk0: 284a 133152i bk1: 280a 132899i bk2: 256a 133050i bk3: 256a 133192i bk4: 256a 132523i bk5: 256a 133006i bk6: 292a 131352i bk7: 300a 131129i bk8: 432a 132416i bk9: 436a 132060i bk10: 448a 131428i bk11: 452a 131116i bk12: 448a 132084i bk13: 448a 131712i bk14: 448a 131132i bk15: 444a 131540i 
dram_util_bins: 0 0 0 0 0 0 0 0 0 0
dram_eff_bins: 0 0 0 0 0 0 0 0 0 0
mrqq: max=16 avg=2.44774

========= L2 cache stats =========
L2_cache_bank[0]: Access = 1540, Miss = 1438, Miss_rate = 0.934, Pending_hits = 8, Reservation_fails = 2297
L2_cache_bank[1]: Access = 1432, Miss = 1432, Miss_rate = 1.000, Pending_hits = 0, Reservation_fails = 1145
L2_cache_bank[2]: Access = 1562, Miss = 1438, Miss_rate = 0.921, Pending_hits = 10, Reservation_fails = 2613
L2_cache_bank[3]: Access = 1463, Miss = 1435, Miss_rate = 0.981, Pending_hits = 6, Reservation_fails = 1975
L2_cache_bank[4]: Access = 1478, Miss = 1436, Miss_rate = 0.972, Pending_hits = 9, Reservation_fails = 2453
L2_cache_bank[5]: Access = 1511, Miss = 1438, Miss_rate = 0.952, Pending_hits = 8, Reservation_fails = 2932
L2_cache_bank[6]: Access = 1463, Miss = 1435, Miss_rate = 0.981, Pending_hits = 6, Reservation_fails = 1661
L2_cache_bank[7]: Access = 1480, Miss = 1435, Miss_rate = 0.970, Pending_hits = 5, Reservation_fails = 2406
L2_cache_bank[8]: Access = 1458, Miss = 1437, Miss_rate = 0.986, Pending_hits = 6, Reservation_fails = 2703
L2_cache_bank[9]: Access = 1480, Miss = 1435, Miss_rate = 0.970, Pending_hits = 5, Reservation_fails = 1621
L2_cache_bank[10]: Access = 1432, Miss = 1432, Miss_rate = 1.000, Pending_hits = 0, Reservation_fails = 2019
L2_cache_bank[11]: Access = 1495, Miss = 1436, Miss_rate = 0.961, Pending_hits = 5, Reservation_fails = 1438
L2_total_cache_accesses = 17794
L2_total_cache_misses = 17227
L2_total_cache_miss_rate = 0.9681
L2_total_cache_pending_hits = 68
L2_total_cache_reservation_fails = 25263
L2_total_cache_breakdown:
	L2_cache_stats_breakdown[GLOBAL_ACC_R][HIT] = 97
	L2_cache_stats_breakdown[GLOBAL_ACC_R][HIT_RESERVED] = 3
	L2_cache_stats_breakdown[GLOBAL_ACC_R][MISS] = 4689
	L2_cache_stats_breakdown[GLOBAL_ACC_R][RESERVATION_FAIL] = 100
	L2_cache_stats_breakdown[CONST_ACC_R][HIT] = 29
	L2_cache_stats_breakdown[CONST_ACC_R][MISS] = 1
	L2_cache_stats_breakdown[GLOBAL_ACC_W][HIT] = 235
	L2_cache_stats_breakdown[GLOBAL_ACC_W][HIT_RESERVED] = 35
	L2_cache_stats_breakdown[GLOBAL_ACC_W][MISS] = 12520
	L2_cache_stats_breakdown[GLOBAL_ACC_W][RESERVATION_FAIL] = 24101
	L2_cache_stats_breakdown[INST_ACC_R][HIT] = 138
	L2_cache_stats_breakdown[INST_ACC_R][HIT_RESERVED] = 30
	L2_cache_stats_breakdown[INST_ACC_R][MISS] = 17
	L2_cache_stats_breakdown[INST_ACC_R][RESERVATION_FAIL] = 1062
L2_cache_data_port_util = 0.001
L2_cache_fill_port_util = 0.052

icnt_total_pkts_mem_to_simt=37615
icnt_total_pkts_simt_to_mem=68129
LD_mem_lat_dist  0 0 0 0 0 0 0 0 0 0 0 0 0 0 0 0 0 0 0 0 0 0 0 0 0 0 0
ST_mem_lat_dist  0 0 0 0 0 0 0 0 0 0 0 0 0 0 0 0 0 0 0 0 0 0 0 0 0 0 0
----------------------------Interconnect-DETAILS--------------------------------
Class 0:
Packet latency average = 37.7235
	minimum = 6
	maximum = 411
Network latency average = 28.3804
	minimum = 6
	maximum = 388
Slowest packet = 18628
Flit latency average = 33.5221
	minimum = 6
	maximum = 384
Slowest flit = 55381
Fragmentation average = 1.42019
	minimum = 0
	maximum = 350
Injected packet rate average = 0.0385108
	minimum = 0.0346044 (at node 0)
	maximum = 0.0438571 (at node 18)
Accepted packet rate average = 0.0385108
	minimum = 0.0346044 (at node 0)
	maximum = 0.0438571 (at node 18)
Injected flit rate average = 0.115532
	minimum = 0.0431517 (at node 16)
	maximum = 0.176839 (at node 2)
Accepted flit rate average= 0.115532
	minimum = 0.0349363 (at node 0)
	maximum = 0.216796 (at node 18)
Injected packet length average = 3
Accepted packet length average = 3
Total in-flight flits = 0 (0 measured)
====== Overall Traffic Statistics ======
====== Traffic class 0 ======
Packet latency average = 17.711 (3 samples)
	minimum = 6 (3 samples)
	maximum = 151 (3 samples)
Network latency average = 14.5241 (3 samples)
	minimum = 6 (3 samples)
	maximum = 143.333 (3 samples)
Flit latency average = 15.4105 (3 samples)
	minimum = 6 (3 samples)
	maximum = 140.667 (3 samples)
Fragmentation average = 0.473397 (3 samples)
	minimum = 0 (3 samples)
	maximum = 116.667 (3 samples)
Injected packet rate average = 0.0145457 (3 samples)
	minimum = 0.0128012 (3 samples)
	maximum = 0.0190418 (3 samples)
Accepted packet rate average = 0.0145457 (3 samples)
	minimum = 0.0128012 (3 samples)
	maximum = 0.0190418 (3 samples)
Injected flit rate average = 0.043284 (3 samples)
	minimum = 0.0157329 (3 samples)
	maximum = 0.0717934 (3 samples)
Accepted flit rate average = 0.043284 (3 samples)
	minimum = 0.0131871 (3 samples)
	maximum = 0.0844419 (3 samples)
Injected packet size average = 2.97573 (3 samples)
Accepted packet size average = 2.97573 (3 samples)
Hops average = 1 (3 samples)
